data_PCOD8221480
_publ_section_title
;
Structure prediction by ZEFSAII (Michael W. Deem and Ramdas Pophale) SiO2 
 PCOD8221480
Probable space group: P M N A
;
_chemical_formula_sum "Si O2"
_cell_formula_units_Z 48
_cell_length_a 10.006766
_cell_length_b 29.472916
_cell_length_c 8.889823
_cell_angle_alpha 90.000000
_cell_angle_beta 90.000000
_cell_angle_gamma 90.000000
_cell_volume 2621.862818
_symmetry_space_group_name_H-M "P M N A"
_symmetry_group_IT_number 53
_symmetry_cell_setting 'orthorhombic'
loop_
_space_group_symop_operation_xyz
x,y,z
1/2-x,-y,1/2+z
x,-y,-z
1/2-x,y,1/2-z
-x,-y,-z
1/2+x,y,1/2-z
-x,y,z
1/2+x,-y,1/2+z
loop_
_atom_site_type_symbol
_atom_site_label
_atom_site_fract_x
_atom_site_fract_y
_atom_site_fract_z
Si Si1 0.156670 0.181090 0.104962
Si Si2 0.000000 0.949281 0.565694
Si Si3 0.651045 0.716187 0.616081
Si Si4 0.849111 0.360815 0.885879
Si Si5 0.245663 0.900834 0.070498
Si Si6 0.348239 0.461181 0.612607
Si Si7 0.500000 0.048553 0.427357
O O1 0.250000 0.172391 0.250000
O O2 0.166715 0.233083 0.050375
O O3 0.000000 0.168211 0.138702
O O4 0.219845 0.151921 0.968954
O O5 0.876863 0.920606 0.505005
O O6 0.000000 0.952348 0.746262
O O7 0.000000 0.000000 0.500000
O O8 0.750000 0.708046 0.750000
O O9 0.500000 0.708328 0.672814
O O10 0.693450 0.678914 0.496455
O O11 0.750000 0.356849 0.750000
O O12 0.836354 0.410881 0.961680
O O13 0.000000 0.353202 0.827799
O O14 0.250000 0.907421 0.250000
O O15 0.128829 0.927361 0.990127
O O16 0.301388 0.500000 0.500000
O O17 0.250000 0.464873 0.750000
O O18 0.500000 0.469998 0.666928
O O19 0.500000 0.000000 0.500000
#
# Coordination Sequence:
#
# PCOD8221480 Si02
#       7
#     8   4   8   8   8   8   4
#     4  10  21  39  61  85 114 151 189 230 281 338
#     4  12  26  44  66  92 120 156 192 232 283 334
#     4   9  19  35  55  80 110 143 183 227 274 329
#     4   9  18  33  52  74 105 144 182 228 279 333
#     4  12  25  41  62  91 121 151 191 236 280 334
#     4   9  18  32  49  72 103 139 182 228 280 335
#     4  12  24  44  66  88 120 156 192 232 279 334
#
# _framework density 18.307593000000001
#
# number of rings (size 3 to 8) (size 9 to 14) (size 15 to 20)
#    0.000    1.833    0.833    3.500    1.167    2.333 
#    0.000    0.000    0.000    0.000    0.000    0.000 
#    0.000    0.000    0.000    0.000    0.000    0.000 
#
# Total GULP energy -594945.497275 kJ/mol
# GULP energy per Si atom -12394.697860 kJ/mol
# Density = 1.826592 g / cm^3
# Si number density = 18.307593 Si / 1000 Ang^3
#
#
#
# Elastic Constant Matrix: (Units=GPa)
#
#
# Indices 1 2 3 4 5 6 
#
# 1 104.7210 64.8614 54.1265 0.0000 0.0000 0.0000
# 2 64.8614 147.1512 76.8978 0.0000 0.0000 0.0000
# 3 54.1265 76.8978 128.2512 0.0000 0.0000 0.0000
# 4 0.0000 0.0000 0.0000 63.3888 0.0000 0.0000
# 5 0.0000 0.0000 0.0000 0.0000 27.1091 0.0000
# 6 0.0000 0.0000 0.0000 0.0000 0.0000 32.8377
#
#
#
# Elastic Compliance Matrix: (Units=1/GPa)
#
#
# Indices 1 2 3 4 5 6 
#
# 1 0.013989 -0.004487 -0.003214 0.000000 0.000000 0.000000
# 2 -0.004487 0.011336 -0.004903 0.000000 0.000000 0.000000
# 3 -0.003214 -0.004903 0.012093 0.000000 0.000000 0.000000
# 4 0.000000 0.000000 0.000000 0.015776 0.000000 0.000000
# 5 0.000000 0.000000 0.000000 0.000000 0.036888 0.000000
# 6 0.000000 0.000000 0.000000 0.000000 0.000000 0.030453
#
#
# Mechanical properties :
#
#
# Convention : Reuss Voigt Hill
#
# Bulk Modulus (GPa) = 81.89354 85.76608 83.82981
# Shear Modulus (GPa) = 33.37508 36.94964 35.16236
#
# Velocity S-wave (km/s) = 4.27431 4.49739 4.38727
# Velocity P-wave (km/s) = 8.31798 8.59754 8.45891
#
# Compressibility (1/GPa) = 0.01221097
#
# Stress axis : x y z
#
# Youngs Moduli (GPa) = 71.48355 88.21708 82.68986
#
# Poissons Ratio (x) = 0.39581 0.26574
# Poissons Ratio (y) = 0.32073 0.40544
# Poissons Ratio (z) = 0.22973 0.43254
#
# Static dielectric constant tensor:
#      x y z
#    x 3.599240 0.000000 0.000000 
#    y 0.000000 6.796290 0.000000 
#    z 0.000000 0.000000 3.296790 
# 
# 
# High freq. dielectric constant tensor:
#      x y z
#    x 1.730070 0.000000 0.000000 
#    y 0.000000 1.733100 0.000000 
#    z 0.000000 0.000000 1.687950 
# 
# From -- ./inp_files/6776.got.cif
#   From: 2010.03.12/outbox.cif.g09.slc.cpg/sg53_4_cif.got.tgz:6776.got - 2010.04.16 14:36:59.
