data_PCOD8221985
_publ_section_title
;
Structure prediction by ZEFSAII (Michael W. Deem and Ramdas Pophale) SiO2 
 PCOD8221985
Probable space group: P M N A
;
_chemical_formula_sum "Si O2"
_cell_formula_units_Z 28
_cell_length_a 12.702342
_cell_length_b 4.996930
_cell_length_c 18.268137
_cell_angle_alpha 90.000000
_cell_angle_beta 90.000000
_cell_angle_gamma 90.000000
_cell_volume 1159.528232
_symmetry_space_group_name_H-M "P M N A"
_symmetry_group_IT_number 53
_symmetry_cell_setting 'orthorhombic'
loop_
_space_group_symop_operation_xyz
x,y,z
1/2-x,-y,1/2+z
x,-y,-z
1/2-x,y,1/2-z
-x,-y,-z
1/2+x,y,1/2-z
-x,y,z
1/2+x,-y,1/2+z
loop_
_atom_site_type_symbol
_atom_site_label
_atom_site_fract_x
_atom_site_fract_y
_atom_site_fract_z
Si Si1 0.500000 0.857159 0.636312
Si Si2 0.823708 0.578638 0.351292
Si Si3 0.000000 0.364070 0.766833
Si Si4 0.000000 0.249703 0.548586
Si Si5 0.776634 0.953813 0.914950
O O1 0.500000 0.554993 0.664291
O O2 0.600951 0.880591 0.584413
O O3 0.500000 0.057699 0.706382
O O4 0.896702 0.753513 0.403967
O O5 0.793982 0.284637 0.379603
O O6 0.889676 0.564054 0.275903
O O7 0.726397 0.786874 0.359050
O O8 0.000000 0.500000 0.500000
O O9 0.000000 0.000000 0.500000
O O10 0.742337 0.000000 0.000000
#
# Coordination Sequence:
#
# PCOD8221985 Si02
#       5
#     4   8   4   4   8
#     4  12  27  45  68  92 136 180 224 274 310 396
#     4  11  24  41  67  97 134 169 215 276 329 398
#     4  11  26  46  66 102 131 172 222 264 340 395
#     4  11  20  35  60  94 130 166 205 260 327 389
#     4  12  25  44  68  99 131 175 223 272 332 385
#
# _framework density 24.147753000000002
#
# number of rings (size 3 to 8) (size 9 to 14) (size 15 to 20)
#    0.000    0.571    0.000    9.000    0.000   11.429 
#    0.000    6.429    0.000    0.000    0.000    0.000 
#    0.000    0.000    0.000    0.000    0.000    0.000 
#
# Total GULP energy -346932.484742 kJ/mol
# GULP energy per Si atom -12390.445884 kJ/mol
# Density = 2.409279 g / cm^3
# Si number density = 24.147753 Si / 1000 Ang^3
#
#
#
# Elastic Constant Matrix: (Units=GPa)
#
#
# Indices 1 2 3 4 5 6 
#
# 1 76.8912 4.6716 6.4920 0.0000 0.0000 0.0000
# 2 4.6716 143.9054 24.5845 0.0000 0.0000 0.0000
# 3 6.4920 24.5845 73.3749 0.0000 0.0000 0.0000
# 4 0.0000 0.0000 0.0000 42.8579 0.0000 0.0000
# 5 0.0000 0.0000 0.0000 0.0000 44.3269 0.0000
# 6 0.0000 0.0000 0.0000 0.0000 0.0000 46.3760
#
#
#
# Elastic Compliance Matrix: (Units=1/GPa)
#
#
# Indices 1 2 3 4 5 6 
#
# 1 0.013111 -0.000241 -0.001079 0.000000 0.000000 0.000000
# 2 -0.000241 0.007375 -0.002450 0.000000 0.000000 0.000000
# 3 -0.001079 -0.002450 0.014545 0.000000 0.000000 0.000000
# 4 0.000000 0.000000 0.000000 0.023333 0.000000 0.000000
# 5 0.000000 0.000000 0.000000 0.000000 0.022560 0.000000
# 6 0.000000 0.000000 0.000000 0.000000 0.000000 0.021563
#
#
# Mechanical properties :
#
#
# Convention : Reuss Voigt Hill
#
# Bulk Modulus (GPa) = 36.37560 40.62973 38.50267
# Shear Modulus (GPa) = 41.94944 43.94038 42.94491
#
# Velocity S-wave (km/s) = 4.17249 4.27036 4.22171
# Velocity P-wave (km/s) = 6.18946 6.41690 6.30421
#
# Compressibility (1/GPa) = 0.02749095
#
# Stress axis : x y z
#
# Youngs Moduli (GPa) = 76.27089 135.58659 68.75243
#
# Poissons Ratio (x) = 0.03271 0.07420
# Poissons Ratio (y) = 0.01840 0.16843
# Poissons Ratio (z) = 0.08231 0.33216
#
# Static dielectric constant tensor:
#      x y z
#    x 4.860780 0.000000 0.000000 
#    y 0.000000 4.246110 0.000000 
#    z 0.000000 0.000000 4.217010 
# 
# 
# High freq. dielectric constant tensor:
#      x y z
#    x 1.987760 0.000000 0.000000 
#    y 0.000000 1.973180 0.000000 
#    z 0.000000 0.000000 1.948780 
# 
# From -- ./inp_files/31538.got.cif
#   From: 2010.03.12/outbox.cif.g09.slc.cpg/sg53_16_cif.got.tgz:31538.got - 2010.04.16 14:36:59.
