data_PCOD8221011
_publ_section_title
;
Structure prediction by ZEFSAII (Michael W. Deem and Ramdas Pophale) SiO2 
 PCOD8221011
Probable space group: P M N A
;
_chemical_formula_sum "Si O2"
_cell_formula_units_Z 40
_cell_length_a 9.833333
_cell_length_b 11.172800
_cell_length_c 16.425527
_cell_angle_alpha 90.000000
_cell_angle_beta 90.000000
_cell_angle_gamma 90.000000
_cell_volume 1804.604698
_symmetry_space_group_name_H-M "P M N A"
_symmetry_group_IT_number 53
_symmetry_cell_setting 'orthorhombic'
loop_
_space_group_symop_operation_xyz
x,y,z
1/2-x,-y,1/2+z
x,-y,-z
1/2-x,y,1/2-z
-x,-y,-z
1/2+x,y,1/2-z
-x,y,z
1/2+x,-y,1/2+z
loop_
_atom_site_type_symbol
_atom_site_label
_atom_site_fract_x
_atom_site_fract_y
_atom_site_fract_z
Si Si1 0.152964 0.206653 0.675713
Si Si2 0.649396 0.489342 0.317845
Si Si3 0.788037 0.386585 0.544748
Si Si4 0.654274 0.253729 0.402269
Si Si5 0.655588 0.990057 0.403933
O O1 0.250000 0.249112 0.750000
O O2 0.126075 0.315639 0.612500
O O3 0.000000 0.167108 0.704234
O O4 0.233299 0.097954 0.633601
O O5 0.750000 0.540388 0.250000
O O6 0.500000 0.515672 0.283708
O O7 0.662872 0.553400 0.405678
O O8 0.675590 0.347695 0.329363
O O9 0.864332 0.500000 0.500000
O O10 0.744627 0.287237 0.480072
O O11 0.500000 0.255624 0.434335
O O12 0.689604 0.122084 0.368302
O O13 0.500000 0.950538 0.382376
O O14 0.674112 0.000000 0.500000
#
# Coordination Sequence:
#
# PCOD8221011 Si02
#       5
#     8   8   8   8   8
#     4  12  27  44  65  95 133 170 211 263 321 380
#     4  10  21  36  58  86 122 162 205 254 309 373
#     4  10  21  39  63  92 123 161 210 263 317 372
#     4   9  18  36  62  92 121 158 205 253 310 377
#     4  10  20  39  69  96 124 162 210 261 316 382
#
# _framework density 22.165519
#
# number of rings (size 3 to 8) (size 9 to 14) (size 15 to 20)
#    0.000    1.800    2.000    1.800    0.000    8.800 
#    0.000    6.000    0.000    0.000    0.000    0.000 
#    0.000    0.000    0.000    0.000    0.000    0.000 
#
# Total GULP energy -495553.091559 kJ/mol
# GULP energy per Si atom -12388.827289 kJ/mol
# Density = 2.211507 g / cm^3
# Si number density = 22.165519 Si / 1000 Ang^3
#
#
#
# Elastic Constant Matrix: (Units=GPa)
#
#
# Indices 1 2 3 4 5 6 
#
# 1 141.3520 42.4948 48.6143 0.0000 0.0000 0.0000
# 2 42.4948 121.8365 31.8090 0.0000 0.0000 0.0000
# 3 48.6143 31.8090 81.4620 0.0000 0.0000 0.0000
# 4 0.0000 0.0000 0.0000 27.0775 0.0000 0.0000
# 5 0.0000 0.0000 0.0000 0.0000 20.8024 0.0000
# 6 0.0000 0.0000 0.0000 0.0000 0.0000 30.8355
#
#
#
# Elastic Compliance Matrix: (Units=1/GPa)
#
#
# Indices 1 2 3 4 5 6 
#
# 1 0.009321 -0.002003 -0.004780 0.000000 0.000000 0.000000
# 2 -0.002003 0.009570 -0.002542 0.000000 0.000000 0.000000
# 3 -0.004780 -0.002542 0.016121 0.000000 0.000000 0.000000
# 4 0.000000 0.000000 0.000000 0.036931 0.000000 0.000000
# 5 0.000000 0.000000 0.000000 0.000000 0.048071 0.000000
# 6 0.000000 0.000000 0.000000 0.000000 0.000000 0.032430
#
#
# Mechanical properties :
#
#
# Convention : Reuss Voigt Hill
#
# Bulk Modulus (GPa) = 61.11729 65.60964 63.36347
# Shear Modulus (GPa) = 28.32103 30.52524 29.42314
#
# Velocity S-wave (km/s) = 3.57838 3.71502 3.64734
# Velocity P-wave (km/s) = 6.68626 6.93296 6.81073
#
# Compressibility (1/GPa) = 0.01636198
#
# Stress axis : x y z
#
# Youngs Moduli (GPa) = 107.28784 104.49489 62.03166
#
# Poissons Ratio (x) = 0.20929 0.29653
# Poissons Ratio (y) = 0.21489 0.15765
# Poissons Ratio (z) = 0.51286 0.26558
#
# Static dielectric constant tensor:
#      x y z
#    x 3.627660 0.000000 0.000000 
#    y 0.000000 4.519870 0.000000 
#    z 0.000000 0.000000 3.876910 
# 
# 
# High freq. dielectric constant tensor:
#      x y z
#    x 1.844070 0.000000 0.000000 
#    y 0.000000 1.893220 0.000000 
#    z 0.000000 0.000000 1.864960 
# 
# From -- ./inp_files/25844.got.cif
#   From: 2010.03.12/outbox.cif.g09.slc.cpg/sg53_13_cif.got.tgz:25844.got - 2010.04.16 14:36:59.
