data_PCOD8221642
_publ_section_title
;
Structure prediction by ZEFSAII (Michael W. Deem and Ramdas Pophale) SiO2 
 PCOD8221642
Probable space group: P M N A
;
_chemical_formula_sum "Si O2"
_cell_formula_units_Z 44
_cell_length_a 9.688892
_cell_length_b 21.710979
_cell_length_c 10.474866
_cell_angle_alpha 90.000000
_cell_angle_beta 90.000000
_cell_angle_gamma 90.000000
_cell_volume 2203.443902
_symmetry_space_group_name_H-M "P M N A"
_symmetry_group_IT_number 53
_symmetry_cell_setting 'orthorhombic'
loop_
_space_group_symop_operation_xyz
x,y,z
1/2-x,-y,1/2+z
x,-y,-z
1/2-x,y,1/2-z
-x,-y,-z
1/2+x,y,1/2-z
-x,y,z
1/2+x,-y,1/2+z
loop_
_atom_site_type_symbol
_atom_site_label
_atom_site_fract_x
_atom_site_fract_y
_atom_site_fract_z
Si Si1 0.250000 0.971035 0.750000
Si Si2 0.351359 0.127060 0.076578
Si Si3 0.157162 0.089789 0.860987
Si Si4 0.156502 0.266009 0.364238
Si Si5 0.159347 0.467298 0.630148
Si Si6 0.159274 0.322998 0.630729
O O1 0.139832 0.927132 0.680936
O O2 0.168822 0.015215 0.850464
O O3 0.500000 0.125033 0.002631
O O4 0.218145 0.114376 0.992093
O O5 0.334264 0.192477 0.143732
O O6 0.250000 0.121129 0.750000
O O7 0.000000 0.111697 0.849476
O O8 0.250000 0.293699 0.250000
O O9 0.210386 0.288932 0.502199
O O10 0.000000 0.289486 0.343283
O O11 0.209320 0.500000 0.500000
O O12 0.250000 0.491079 0.750000
O O13 0.181817 0.395124 0.609429
O O14 0.000000 0.483386 0.659175
O O15 0.250000 0.299048 0.750000
O O16 0.000000 0.307057 0.659885
#
# Coordination Sequence:
#
# PCOD8221642 Si02
#       6
#     4   8   8   8   8   8
#     4  10  22  36  60  76 104 136 174 212 264 334
#     4  11  22  38  58  79 106 137 174 221 272 328
#     4  10  23  38  55  79 105 134 171 213 266 328
#     4  10  22  39  58  83 112 146 188 233 282 333
#     4   9  18  33  54  83 118 155 192 233 279 326
#     4   9  19  37  59  82 114 152 193 235 278 328
#
# _framework density 19.968741999999999
#
# number of rings (size 3 to 8) (size 9 to 14) (size 15 to 20)
#    0.545    1.636    0.909    1.636    0.000    6.182 
#    0.000    1.818    0.000    0.000    0.000    0.000 
#    0.000    0.000    0.000    0.000    0.000    0.000 
#
# Total GULP energy -545385.071936 kJ/mol
# GULP energy per Si atom -12395.115271 kJ/mol
# Density = 1.992329 g / cm^3
# Si number density = 19.968742 Si / 1000 Ang^3
#
#
#
# Elastic Constant Matrix: (Units=GPa)
#
#
# Indices 1 2 3 4 5 6 
#
# 1 134.7323 25.4138 78.4180 0.0000 0.0000 0.0000
# 2 25.4138 22.1897 27.1114 0.0000 0.0000 0.0000
# 3 78.4180 27.1114 142.5358 0.0000 0.0000 0.0000
# 4 0.0000 0.0000 0.0000 -329.7699 0.0000 0.0000
# 5 0.0000 0.0000 0.0000 0.0000 42.4842 0.0000
# 6 0.0000 0.0000 0.0000 0.0000 0.0000 14.4753
#
#
#
# Elastic Compliance Matrix: (Units=1/GPa)
#
#
# Indices 1 2 3 4 5 6 
#
# 1 0.011748 -0.007241 -0.005086 0.000000 0.000000 0.000000
# 2 -0.007241 0.063173 -0.008032 0.000000 0.000000 0.000000
# 3 -0.005086 -0.008032 0.011342 0.000000 0.000000 0.000000
# 4 0.000000 0.000000 0.000000 -0.003032 0.000000 0.000000
# 5 0.000000 0.000000 0.000000 0.000000 0.023538 0.000000
# 6 0.000000 0.000000 0.000000 0.000000 0.000000 0.069083
#
#
# Mechanical properties :
#
#
# Convention : Reuss Voigt Hill
#
# Bulk Modulus (GPa) = 21.95672 62.37155 42.16413
# Shear Modulus (GPa) = 21.57481 -43.32776 -10.87648
#
# Velocity S-wave (km/s) = 3.29055 -4.66314 -2.33636
# Velocity P-wave (km/s) = 5.04543 1.51961 3.72596
#
# Compressibility (1/GPa) = 0.04554415
#
# Stress axis : x y z
#
# Youngs Moduli (GPa) = 85.11924 15.82960 88.16953
#
# Poissons Ratio (x) = 0.11462 0.44844
# Poissons Ratio (y) = 0.61634 0.70820
# Poissons Ratio (z) = 0.43293 0.12715
#
# Static dielectric constant tensor:
#      x y z
#    x 3.731230 0.000000 0.000000 
#    y 0.000000 3.419540 0.000000 
#    z 0.000000 0.000000 3.671390 
# 
# 
# High freq. dielectric constant tensor:
#      x y z
#    x 1.776550 0.000000 0.000000 
#    y 0.000000 1.761050 0.000000 
#    z 0.000000 0.000000 1.776640 
# 
# From -- ./inp_files/14027.got.cif
#   From: 2010.03.12/outbox.cif.g09.slc.cpg/sg53_8_cif.got.tgz:14027.got - 2010.04.16 14:36:59.
