data_PCOD8221034
_publ_section_title
;
Structure prediction by ZEFSAII (Michael W. Deem and Ramdas Pophale) SiO2 
 PCOD8221034
Probable space group: P M N A
;
_chemical_formula_sum "Si O2"
_cell_formula_units_Z 56
_cell_length_a 10.420238
_cell_length_b 14.498696
_cell_length_c 18.870096
_cell_angle_alpha 90.000000
_cell_angle_beta 90.000000
_cell_angle_gamma 90.000000
_cell_volume 2850.891519
_symmetry_space_group_name_H-M "P M N A"
_symmetry_group_IT_number 53
_symmetry_cell_setting 'orthorhombic'
loop_
_space_group_symop_operation_xyz
x,y,z
1/2-x,-y,1/2+z
x,-y,-z
1/2-x,y,1/2-z
-x,-y,-z
1/2+x,y,1/2-z
-x,y,z
1/2+x,-y,1/2+z
loop_
_atom_site_type_symbol
_atom_site_label
_atom_site_fract_x
_atom_site_fract_y
_atom_site_fract_z
Si Si1 0.648092 0.053453 0.070117
Si Si2 0.354824 0.634375 0.810170
Si Si3 0.237383 0.750210 0.557148
Si Si4 0.850159 0.099257 0.686132
Si Si5 0.755584 0.559041 0.326967
Si Si6 0.000000 0.525075 0.106117
Si Si7 0.500000 0.657674 0.515872
Si Si8 0.356275 0.726763 0.095200
O O1 0.500000 0.083245 0.060246
O O2 0.735972 0.143536 0.082043
O O3 0.665647 0.991889 0.139481
O O4 0.695285 0.000000 0.000000
O O5 0.250000 0.660305 0.750000
O O6 0.500000 0.662338 0.786510
O O7 0.319697 0.686800 0.881855
O O8 0.356321 0.524973 0.826398
O O9 0.379272 0.720172 0.535145
O O10 0.147775 0.743504 0.488258
O O11 0.750000 0.091827 0.750000
O O12 0.804454 0.185353 0.638297
O O13 0.000000 0.108917 0.711038
O O14 0.750000 0.607988 0.250000
O O15 0.619626 0.513225 0.342527
O O16 0.780253 0.634049 0.386930
O O17 0.000000 0.438617 0.055216
O O18 0.000000 0.625051 0.066385
O O19 0.500000 0.708743 0.119819
#
# Coordination Sequence:
#
# PCOD8221034 Si02
#       8
#     8   8   8   8   8   4   4   8
#     4  10  20  40  69  92 119 163 213 263 317 377
#     4  11  26  42  64  94 129 169 214 271 323 384
#     4  12  23  42  66  95 127 163 221 263 324 383
#     4  10  22  43  67  96 132 167 209 263 326 386
#     4  11  24  38  62  88 130 170 220 261 317 388
#     4  11  22  44  62  88 130 180 217 257 334 389
#     4  11  24  42  63  94 130 175 209 272 326 391
#     4  11  22  39  63  94 125 166 214 269 317 378
#
# _framework density 19.642977999999999
#
# number of rings (size 3 to 8) (size 9 to 14) (size 15 to 20)
#    0.000    1.143    4.286    2.143    6.000    1.143 
#    3.857    1.786    0.000    0.000    0.000    0.000 
#    0.000    0.000    0.000    0.000    0.000    0.000 
#
# Total GULP energy -694376.198415 kJ/mol
# GULP energy per Si atom -12399.574972 kJ/mol
# Density = 1.959827 g / cm^3
# Si number density = 19.642978 Si / 1000 Ang^3
#
#
#
# Elastic Constant Matrix: (Units=GPa)
#
#
# Indices 1 2 3 4 5 6 
#
# 1 104.8421 30.8338 41.1440 0.0000 0.0000 0.0000
# 2 30.8338 108.5430 43.6691 0.0000 0.0000 0.0000
# 3 41.1440 43.6691 121.5176 0.0000 0.0000 0.0000
# 4 0.0000 0.0000 0.0000 31.5607 0.0000 0.0000
# 5 0.0000 0.0000 0.0000 0.0000 29.0965 0.0000
# 6 0.0000 0.0000 0.0000 0.0000 0.0000 25.6218
#
#
#
# Elastic Compliance Matrix: (Units=1/GPa)
#
#
# Indices 1 2 3 4 5 6 
#
# 1 0.011346 -0.001961 -0.003137 0.000000 0.000000 0.000000
# 2 -0.001961 0.011109 -0.003328 0.000000 0.000000 0.000000
# 3 -0.003137 -0.003328 0.010487 0.000000 0.000000 0.000000
# 4 0.000000 0.000000 0.000000 0.031685 0.000000 0.000000
# 5 0.000000 0.000000 0.000000 0.000000 0.034368 0.000000
# 6 0.000000 0.000000 0.000000 0.000000 0.000000 0.039029
#
#
# Mechanical properties :
#
#
# Convention : Reuss Voigt Hill
#
# Bulk Modulus (GPa) = 62.14972 62.91073 62.53023
# Shear Modulus (GPa) = 31.20310 31.87284 31.53797
#
# Velocity S-wave (km/s) = 3.98994 4.03253 4.01129
# Velocity P-wave (km/s) = 7.27561 7.33337 7.30455
#
# Compressibility (1/GPa) = 0.01609018
#
# Stress axis : x y z
#
# Youngs Moduli (GPa) = 88.13758 90.01702 95.35261
#
# Poissons Ratio (x) = 0.17652 0.29911
# Poissons Ratio (y) = 0.17284 0.31735
# Poissons Ratio (z) = 0.27647 0.29960
#
# Static dielectric constant tensor:
#      x y z
#    x 3.543890 0.000000 0.000000 
#    y 0.000000 3.562580 0.000000 
#    z 0.000000 0.000000 3.591300 
# 
# 
# High freq. dielectric constant tensor:
#      x y z
#    x 1.762580 0.000000 0.000000 
#    y 0.000000 1.766870 0.000000 
#    z 0.000000 0.000000 1.771400 
# 
# From -- ./inp_files/30893.got.cif
#   From: 2010.03.12/outbox.cif.g09.slc.cpg/sg53_16_cif.got.tgz:30893.got - 2010.04.16 14:36:59.
