data_PCOD8221169
_publ_section_title
;
Structure prediction by ZEFSAII (Michael W. Deem and Ramdas Pophale) SiO2 
 PCOD8221169
Probable space group: P M N A
;
_chemical_formula_sum "Si O2"
_cell_formula_units_Z 64
_cell_length_a 23.285014
_cell_length_b 15.027409
_cell_length_c 8.859169
_cell_angle_alpha 90.000000
_cell_angle_beta 90.000000
_cell_angle_gamma 90.000000
_cell_volume 3099.942202
_symmetry_space_group_name_H-M "P M N A"
_symmetry_group_IT_number 53
_symmetry_cell_setting 'orthorhombic'
loop_
_space_group_symop_operation_xyz
x,y,z
1/2-x,-y,1/2+z
x,-y,-z
1/2-x,y,1/2-z
-x,-y,-z
1/2+x,y,1/2-z
-x,y,z
1/2+x,-y,1/2+z
loop_
_atom_site_type_symbol
_atom_site_label
_atom_site_fract_x
_atom_site_fract_y
_atom_site_fract_z
Si Si1 0.757750 0.411728 0.575498
Si Si2 0.266232 0.156599 0.410110
Si Si3 0.153866 0.096799 0.574324
Si Si4 0.133517 0.400342 0.441171
Si Si5 0.434511 0.739388 0.418497
Si Si6 0.163814 0.336752 0.114183
Si Si7 0.872286 0.915477 0.079366
Si Si8 0.566441 0.250886 0.923843
O O1 0.784371 0.500000 0.500000
O O2 0.750000 0.417693 0.750000
O O3 0.813127 0.351274 0.533372
O O4 0.696044 0.399838 0.502738
O O5 0.250000 0.112726 0.250000
O O6 0.212149 0.148724 0.524412
O O7 0.290936 0.255251 0.373431
O O8 0.317135 0.100713 0.477522
O O9 0.151766 0.077394 0.751880
O O10 0.101622 0.162371 0.528941
O O11 0.147327 0.000000 0.500000
O O12 0.115787 0.500000 0.500000
O O13 0.151934 0.393234 0.264926
O O14 0.080220 0.333708 0.466379
O O15 0.500000 0.718210 0.459057
O O16 0.396505 0.686470 0.538435
O O17 0.422096 0.843394 0.435918
O O18 0.419529 0.714685 0.245758
O O19 0.901726 0.000000 0.000000
O O20 0.500000 0.224750 0.940076
#
# Coordination Sequence:
#
# PCOD8221169 Si02
#       8
#     8   8   8   8   8   8   8   8
#     4  11  21  35  57  85 117 150 186 233 291 356
#     4  11  21  35  56  83 119 154 193 241 295 360
#     4  11  22  37  60  89 124 162 203 252 307 370
#     4  11  23  40  62  92 126 159 203 256 313 374
#     4   9  21  40  60  82 111 155 206 254 306 363
#     4  11  22  37  60  88 119 155 198 247 303 364
#     4  10  21  36  55  83 117 155 199 249 306 365
#     4  10  22  42  63  85 120 164 210 259 311 369
#
# _framework density 20.645546
#
# number of rings (size 3 to 8) (size 9 to 14) (size 15 to 20)
#    0.000    1.500    0.000    6.375    0.000    4.250 
#    0.000    0.000    0.000    1.875    0.000    0.000 
#    0.000    0.000    0.000    0.000    0.000    0.000 
#
# Total GULP energy -792870.626814 kJ/mol
# GULP energy per Si atom -12388.603544 kJ/mol
# Density = 2.059856 g / cm^3
# Si number density = 20.645546 Si / 1000 Ang^3
#
#
#
# Elastic Constant Matrix: (Units=GPa)
#
#
# Indices 1 2 3 4 5 6 
#
# 1 94.1945 25.3378 25.5454 0.0000 0.0000 0.0000
# 2 25.3378 90.0072 25.4413 0.0000 0.0000 0.0000
# 3 25.5454 25.4413 107.8115 0.0000 0.0000 0.0000
# 4 0.0000 0.0000 0.0000 35.6816 0.0000 0.0000
# 5 0.0000 0.0000 0.0000 0.0000 28.8471 0.0000
# 6 0.0000 0.0000 0.0000 0.0000 0.0000 -98.1088
#
#
#
# Elastic Compliance Matrix: (Units=1/GPa)
#
#
# Indices 1 2 3 4 5 6 
#
# 1 0.011947 -0.002746 -0.002183 0.000000 0.000000 0.000000
# 2 -0.002746 0.012536 -0.002307 0.000000 0.000000 0.000000
# 3 -0.002183 -0.002307 0.010337 0.000000 0.000000 0.000000
# 4 0.000000 0.000000 0.000000 0.028026 0.000000 0.000000
# 5 0.000000 0.000000 0.000000 0.000000 0.034665 0.000000
# 6 0.000000 0.000000 0.000000 0.000000 0.000000 -0.010193
#
#
# Mechanical properties :
#
#
# Convention : Reuss Voigt Hill
#
# Bulk Modulus (GPa) = 49.14748 49.40690 49.27719
# Shear Modulus (GPa) = 46.05193 7.66324 26.85759
#
# Velocity S-wave (km/s) = 4.72805 1.92870 3.61070
# Velocity P-wave (km/s) = 7.32550 5.37985 6.42673
#
# Compressibility (1/GPa) = 0.02034692
#
# Stress axis : x y z
#
# Youngs Moduli (GPa) = 83.70301 79.77332 96.73855
#
# Poissons Ratio (x) = 0.21907 0.21115
# Poissons Ratio (y) = 0.22987 0.22322
# Poissons Ratio (z) = 0.18270 0.18407
#
# Static dielectric constant tensor:
#      x y z
#    x 3.683820 0.000000 0.000000 
#    y 0.000000 3.813020 0.000000 
#    z 0.000000 0.000000 4.947140 
# 
# 
# High freq. dielectric constant tensor:
#      x y z
#    x 1.807770 0.000000 0.000000 
#    y 0.000000 1.803760 0.000000 
#    z 0.000000 0.000000 1.816280 
# 
# From -- ./inp_files/11959.got.cif
#   From: 2010.03.12/outbox.cif.g09.slc.cpg/sg53_6_cif.got.tgz:11959.got - 2010.04.16 14:36:59.
