data_PCOD8221768
_publ_section_title
;
Structure prediction by ZEFSAII (Michael W. Deem and Ramdas Pophale) SiO2 
 PCOD8221768
Probable space group: P M N A
;
_chemical_formula_sum "Si O2"
_cell_formula_units_Z 60
_cell_length_a 23.748332
_cell_length_b 18.703846
_cell_length_c 6.255940
_cell_angle_alpha 90.000000
_cell_angle_beta 90.000000
_cell_angle_gamma 90.000000
_cell_volume 2778.795613
_symmetry_space_group_name_H-M "P M N A"
_symmetry_group_IT_number 53
_symmetry_cell_setting 'orthorhombic'
loop_
_space_group_symop_operation_xyz
x,y,z
1/2-x,-y,1/2+z
x,-y,-z
1/2-x,y,1/2-z
-x,-y,-z
1/2+x,y,1/2-z
-x,y,z
1/2+x,-y,1/2+z
loop_
_atom_site_type_symbol
_atom_site_label
_atom_site_fract_x
_atom_site_fract_y
_atom_site_fract_z
Si Si1 0.750000 0.366909 0.750000
Si Si2 0.839059 0.677523 0.914035
Si Si3 0.066848 0.676705 0.251002
Si Si4 0.843058 0.835274 0.759224
Si Si5 0.116539 0.069401 0.871944
Si Si6 0.851533 0.581574 0.513801
Si Si7 0.786148 0.925905 0.432138
Si Si8 0.061962 0.168367 0.570561
O O1 0.713427 0.320923 0.579941
O O2 0.704828 0.415079 0.872362
O O3 0.833759 0.751092 0.784165
O O4 0.836192 0.610827 0.750132
O O5 0.899978 0.670367 0.027149
O O6 0.094664 0.623875 0.422494
O O7 0.078834 0.755451 0.335665
O O8 0.000000 0.660819 0.219691
O O9 0.846975 0.876743 0.981814
O O10 0.791798 0.868979 0.622942
O O11 0.899626 0.851304 0.628675
O O12 0.155265 0.047200 0.672108
O O13 0.064622 0.112057 0.767239
O O14 0.094915 0.000000 0.000000
O O15 0.871036 0.500000 0.500000
O O16 0.750000 0.886283 0.250000
O O17 0.754811 0.000000 0.500000
O O18 0.000000 0.168770 0.474358
#
# Coordination Sequence:
#
# PCOD8221768 Si02
#       8
#     4   8   8   8   8   8   8   8
#     4  10  26  42  68  96 136 170 226 268 318 394
#     4  11  23  46  66  99 131 178 221 269 332 389
#     4  10  22  42  69 103 135 170 224 274 325 399
#     4  11  23  42  64  90 130 168 214 271 324 381
#     4  11  22  41  62  88 125 165 210 269 326 380
#     4  11  25  45  70  98 136 175 219 269 330 391
#     4  11  24  41  60  87 120 165 216 264 325 395
#     4  10  22  40  65  95 126 166 217 266 321 390
#
# _framework density 21.592088
#
# number of rings (size 3 to 8) (size 9 to 14) (size 15 to 20)
#    0.000    1.333    4.000    0.800    1.867    3.733 
#    7.200    1.333    0.000    0.000    0.000    0.000 
#    0.000    0.000    0.000    0.000    0.000    0.000 
#
# Total GULP energy -743856.192381 kJ/mol
# GULP energy per Si atom -12397.603206 kJ/mol
# Density = 2.154294 g / cm^3
# Si number density = 21.592088 Si / 1000 Ang^3
#
#
#
# Elastic Constant Matrix: (Units=GPa)
#
#
# Indices 1 2 3 4 5 6 
#
# 1 98.5996 32.2307 38.9457 0.0000 0.0000 0.0000
# 2 32.2307 128.6998 44.9260 0.0000 0.0000 0.0000
# 3 38.9457 44.9260 110.9474 0.0000 0.0000 0.0000
# 4 0.0000 0.0000 0.0000 31.9794 0.0000 0.0000
# 5 0.0000 0.0000 0.0000 0.0000 30.9825 0.0000
# 6 0.0000 0.0000 0.0000 0.0000 0.0000 16.6756
#
#
#
# Elastic Compliance Matrix: (Units=1/GPa)
#
#
# Indices 1 2 3 4 5 6 
#
# 1 0.012125 -0.001806 -0.003525 0.000000 0.000000 0.000000
# 2 -0.001806 0.009318 -0.003139 0.000000 0.000000 0.000000
# 3 -0.003525 -0.003139 0.011522 0.000000 0.000000 0.000000
# 4 0.000000 0.000000 0.000000 0.031270 0.000000 0.000000
# 5 0.000000 0.000000 0.000000 0.000000 0.032276 0.000000
# 6 0.000000 0.000000 0.000000 0.000000 0.000000 0.059968
#
#
# Mechanical properties :
#
#
# Convention : Reuss Voigt Hill
#
# Bulk Modulus (GPa) = 62.40455 63.38352 62.89403
# Shear Modulus (GPa) = 27.97040 30.73712 29.35376
#
# Velocity S-wave (km/s) = 3.60307 3.77707 3.69110
# Velocity P-wave (km/s) = 6.80249 6.95991 6.88165
#
# Compressibility (1/GPa) = 0.01602447
#
# Stress axis : x y z
#
# Youngs Moduli (GPa) = 82.47675 107.31759 86.79231
#
# Poissons Ratio (x) = 0.19381 0.30592
# Poissons Ratio (y) = 0.14895 0.27246
# Poissons Ratio (z) = 0.29071 0.33690
#
# Static dielectric constant tensor:
#      x y z
#    x 3.812140 0.000000 0.000000 
#    y 0.000000 3.745870 0.000000 
#    z 0.000000 0.000000 4.111450 
# 
# 
# High freq. dielectric constant tensor:
#      x y z
#    x 1.843950 0.000000 0.000000 
#    y 0.000000 1.839080 0.000000 
#    z 0.000000 0.000000 1.863950 
# 
# From -- ./inp_files/3836.got.cif
#   From: 2010.03.12/outbox.cif.g09.slc.cpg/sg53_2_cif.got.tgz:3836.got - 2010.04.16 14:36:59.
