data_PCOD8221055
_publ_section_title
;
Structure prediction by ZEFSAII (Michael W. Deem and Ramdas Pophale) SiO2 
 PCOD8221055
Probable space group: P M N A
;
_chemical_formula_sum "Si O2"
_cell_formula_units_Z 48
_cell_length_a 14.980299
_cell_length_b 18.780028
_cell_length_c 8.806288
_cell_angle_alpha 90.000000
_cell_angle_beta 90.000000
_cell_angle_gamma 90.000000
_cell_volume 2477.476831
_symmetry_space_group_name_H-M "P M N A"
_symmetry_group_IT_number 53
_symmetry_cell_setting 'orthorhombic'
loop_
_space_group_symop_operation_xyz
x,y,z
1/2-x,-y,1/2+z
x,-y,-z
1/2-x,y,1/2-z
-x,-y,-z
1/2+x,y,1/2-z
-x,y,z
1/2+x,-y,1/2+z
loop_
_atom_site_type_symbol
_atom_site_label
_atom_site_fract_x
_atom_site_fract_y
_atom_site_fract_z
Si Si1 0.100526 0.323936 0.561313
Si Si2 0.397967 0.174864 0.079345
Si Si3 0.256160 0.924735 0.071049
Si Si4 0.396291 0.837778 0.568416
Si Si5 0.243599 0.575922 0.072498
Si Si6 0.602544 0.691463 0.410870
O O1 0.117174 0.258225 0.449813
O O2 0.165409 0.387901 0.512184
O O3 0.120221 0.297029 0.732201
O O4 0.000000 0.353250 0.546890
O O5 0.500000 0.153519 0.041716
O O6 0.374478 0.161141 0.253858
O O7 0.333990 0.130149 0.971197
O O8 0.250000 0.932173 0.250000
O O9 0.160474 0.900041 0.008104
O O10 0.282100 0.000000 0.000000
O O11 0.500000 0.852866 0.534979
O O12 0.366792 0.762555 0.497087
O O13 0.250000 0.564118 0.250000
O O14 0.160592 0.625945 0.027133
O O15 0.228089 0.500000 0.000000
O O16 0.500000 0.673570 0.446674
#
# Coordination Sequence:
#
# PCOD8221055 Si02
#       6
#     8   8   8   8   8   8
#     4   9  18  34  55  78 105 139 180 224 271 325
#     4  10  21  38  61  88 115 144 183 231 280 331
#     4  12  25  40  59  83 115 153 189 228 275 328
#     4  10  21  38  61  88 115 144 183 231 280 331
#     4  10  21  34  49  73 105 141 179 222 273 326
#     4   9  18  34  55  78 105 139 180 224 271 325
#
# _framework density 19.374548999999998
#
# number of rings (size 3 to 8) (size 9 to 14) (size 15 to 20)
#    0.000    2.000    0.000    3.500    0.000    6.000 
#    0.000    0.000    0.000    0.000    0.000    0.000 
#    0.000    0.000    0.000    0.000    0.000    0.000 
#
# Total GULP energy -595408.072786 kJ/mol
# GULP energy per Si atom -12404.334850 kJ/mol
# Density = 1.933045 g / cm^3
# Si number density = 19.374549 Si / 1000 Ang^3
#
#
#
# Elastic Constant Matrix: (Units=GPa)
#
#
# Indices 1 2 3 4 5 6 
#
# 1 86.0642 29.4085 24.2337 0.0000 0.0000 0.0000
# 2 29.4085 65.6506 16.0404 0.0000 0.0000 0.0000
# 3 24.2337 16.0404 79.0136 0.0000 0.0000 0.0000
# 4 0.0000 0.0000 0.0000 35.3291 0.0000 0.0000
# 5 0.0000 0.0000 0.0000 0.0000 23.4924 0.0000
# 6 0.0000 0.0000 0.0000 0.0000 0.0000 18.3095
#
#
#
# Elastic Compliance Matrix: (Units=1/GPa)
#
#
# Indices 1 2 3 4 5 6 
#
# 1 0.014489 -0.005687 -0.003289 0.000000 0.000000 0.000000
# 2 -0.005687 0.018259 -0.001963 0.000000 0.000000 0.000000
# 3 -0.003289 -0.001963 0.014063 0.000000 0.000000 0.000000
# 4 0.000000 0.000000 0.000000 0.028305 0.000000 0.000000
# 5 0.000000 0.000000 0.000000 0.000000 0.042567 0.000000
# 6 0.000000 0.000000 0.000000 0.000000 0.000000 0.054617
#
#
# Mechanical properties :
#
#
# Convention : Reuss Voigt Hill
#
# Bulk Modulus (GPa) = 40.10596 41.12151 40.61374
# Shear Modulus (GPa) = 24.69284 26.16258 25.42771
#
# Velocity S-wave (km/s) = 3.57389 3.67871 3.62668
# Velocity P-wave (km/s) = 6.14618 6.27012 6.20846
#
# Compressibility (1/GPa) = 0.02493395
#
# Stress axis : x y z
#
# Youngs Moduli (GPa) = 69.02012 54.76748 71.10701
#
# Poissons Ratio (x) = 0.31144 0.23389
# Poissons Ratio (y) = 0.39249 0.13956
# Poissons Ratio (z) = 0.22703 0.10749
#
# Static dielectric constant tensor:
#      x y z
#    x 3.750360 0.000000 0.000000 
#    y 0.000000 3.444180 0.000000 
#    z 0.000000 0.000000 3.636800 
# 
# 
# High freq. dielectric constant tensor:
#      x y z
#    x 1.769280 0.000000 0.000000 
#    y 0.000000 1.745770 0.000000 
#    z 0.000000 0.000000 1.754200 
# 
# From -- ./inp_files/8612.got.cif
#   From: 2010.03.12/outbox.cif.g09.slc.cpg/sg53_5_cif.got.tgz:8612.got - 2010.04.16 14:36:59.
