data_PCOD8221971
_publ_section_title
;
Structure prediction by ZEFSAII (Michael W. Deem and Ramdas Pophale) SiO2 
 PCOD8221971
Probable space group: P M N A
;
_chemical_formula_sum "Si O2"
_cell_formula_units_Z 52
_cell_length_a 20.333358
_cell_length_b 8.407763
_cell_length_c 14.228865
_cell_angle_alpha 90.000000
_cell_angle_beta 90.000000
_cell_angle_gamma 90.000000
_cell_volume 2432.539086
_symmetry_space_group_name_H-M "P M N A"
_symmetry_group_IT_number 53
_symmetry_cell_setting 'orthorhombic'
loop_
_space_group_symop_operation_xyz
x,y,z
1/2-x,-y,1/2+z
x,-y,-z
1/2-x,y,1/2-z
-x,-y,-z
1/2+x,y,1/2-z
-x,y,z
1/2+x,-y,1/2+z
loop_
_atom_site_type_symbol
_atom_site_label
_atom_site_fract_x
_atom_site_fract_y
_atom_site_fract_z
Si Si1 0.160979 0.179012 0.988489
Si Si2 0.688943 0.821731 0.967966
Si Si3 0.623583 0.500000 0.000000
Si Si4 0.180573 0.754531 0.229041
Si Si5 0.073312 0.531522 0.300765
Si Si6 0.923266 0.262125 0.147627
Si Si7 0.678303 0.892633 0.769447
O O1 0.165218 0.234412 0.881269
O O2 0.232204 0.187645 0.036953
O O3 0.108457 0.293019 0.044069
O O4 0.133705 0.000000 0.000000
O O5 0.664525 0.663276 0.022913
O O6 0.656112 0.807310 0.865114
O O7 0.667304 0.000000 0.000000
O O8 0.580688 0.534748 0.906945
O O9 0.250000 0.663857 0.250000
O O10 0.121898 0.674464 0.283754
O O11 0.188348 0.920223 0.283772
O O12 0.087925 0.405601 0.218887
O O13 0.000000 0.597061 0.289093
O O14 0.877598 0.122120 0.189785
O O15 0.000000 0.213954 0.139768
O O16 0.750000 0.815913 0.750000
#
# Coordination Sequence:
#
# PCOD8221971 Si02
#       7
#     8   8   4   8   8   8   8
#     4  11  21  41  65  97 137 175 215 280 340 402
#     4  11  22  38  67 102 134 167 225 286 345 400
#     4  12  23  42  72  98 129 182 232 284 355 416
#     4  11  23  41  69  99 130 169 224 278 341 406
#     4  11  26  45  63  92 136 177 224 286 343 405
#     4  11  24  41  63  93 129 179 225 263 330 414
#     4  11  19  41  66  90 132 172 212 281 339 389
#
# _framework density 21.376842
#
# number of rings (size 3 to 8) (size 9 to 14) (size 15 to 20)
#    0.000    0.923    4.615    4.846    0.000    5.231 
#    0.000    1.538    0.000    2.308    0.000    0.000 
#    0.000    0.000    0.000    0.000    0.000    0.000 
#
# Total GULP energy -644269.847260 kJ/mol
# GULP energy per Si atom -12389.804755 kJ/mol
# Density = 2.132819 g / cm^3
# Si number density = 21.376842 Si / 1000 Ang^3
#
#
#
# Elastic Constant Matrix: (Units=GPa)
#
#
# Indices 1 2 3 4 5 6 
#
# 1 117.1936 38.3520 46.7918 0.0000 0.0000 0.0000
# 2 38.3520 82.8690 23.0696 0.0000 0.0000 0.0000
# 3 46.7918 23.0696 147.2045 0.0000 0.0000 0.0000
# 4 0.0000 0.0000 0.0000 28.8987 0.0000 0.0000
# 5 0.0000 0.0000 0.0000 0.0000 30.3284 0.0000
# 6 0.0000 0.0000 0.0000 0.0000 0.0000 -12.7374
#
#
#
# Elastic Compliance Matrix: (Units=1/GPa)
#
#
# Indices 1 2 3 4 5 6 
#
# 1 0.011089 -0.004340 -0.002845 0.000000 0.000000 0.000000
# 2 -0.004340 0.014316 -0.000864 0.000000 0.000000 0.000000
# 3 -0.002845 -0.000864 0.007833 0.000000 0.000000 0.000000
# 4 0.000000 0.000000 0.000000 0.034604 0.000000 0.000000
# 5 0.000000 0.000000 0.000000 0.000000 0.032972 0.000000
# 6 0.000000 0.000000 0.000000 0.000000 0.000000 -0.078509
#
#
# Mechanical properties :
#
#
# Convention : Reuss Voigt Hill
#
# Bulk Modulus (GPa) = 58.34089 62.63267 60.48678
# Shear Modulus (GPa) = 113.33515 25.23483 69.28499
#
# Velocity S-wave (km/s) = 7.28923 3.43953 5.69926
# Velocity P-wave (km/s) = 9.90932 6.71839 8.46556
#
# Compressibility (1/GPa) = 0.01714064
#
# Stress axis : x y z
#
# Youngs Moduli (GPa) = 90.17951 69.85002 127.66635
#
# Poissons Ratio (x) = 0.30316 0.36317
# Poissons Ratio (y) = 0.39139 0.11031
# Poissons Ratio (z) = 0.25653 0.06035
#
# Static dielectric constant tensor:
#      x y z
#    x 3.790670 0.000000 0.000000 
#    y 0.000000 3.654800 0.000000 
#    z 0.000000 0.000000 4.063100 
# 
# 
# High freq. dielectric constant tensor:
#      x y z
#    x 1.826540 0.000000 0.000000 
#    y 0.000000 1.818560 0.000000 
#    z 0.000000 0.000000 1.863140 
# 
# From -- ./inp_files/24264.got.cif
#   From: 2010.03.12/outbox.cif.g09.slc.cpg/sg53_13_cif.got.tgz:24264.got - 2010.04.16 14:36:59.
