data_PCOD8221256
_publ_section_title
;
Structure prediction by ZEFSAII (Michael W. Deem and Ramdas Pophale) SiO2 
 PCOD8221256
Probable space group: P M N A
;
_chemical_formula_sum "Si O2"
_cell_formula_units_Z 64
_cell_length_a 8.845576
_cell_length_b 20.791184
_cell_length_c 18.555887
_cell_angle_alpha 90.000000
_cell_angle_beta 90.000000
_cell_angle_gamma 90.000000
_cell_volume 3412.613145
_symmetry_space_group_name_H-M "P M N A"
_symmetry_group_IT_number 53
_symmetry_cell_setting 'orthorhombic'
loop_
_space_group_symop_operation_xyz
x,y,z
1/2-x,-y,1/2+z
x,-y,-z
1/2-x,y,1/2-z
-x,-y,-z
1/2+x,y,1/2-z
-x,y,z
1/2+x,-y,1/2+z
loop_
_atom_site_type_symbol
_atom_site_label
_atom_site_fract_x
_atom_site_fract_y
_atom_site_fract_z
Si Si1 0.173670 0.873264 0.323415
Si Si2 0.821408 0.193077 0.033312
Si Si3 0.676232 0.506386 0.582264
Si Si4 0.175493 0.391282 0.323157
Si Si5 0.180081 0.256037 0.600264
Si Si6 0.178251 0.242849 0.324899
Si Si7 0.175425 0.930130 0.471875
Si Si8 0.821251 0.619398 0.171878
O O1 0.250000 0.896360 0.250000
O O2 0.232676 0.803524 0.349673
O O3 0.204564 0.925875 0.385848
O O4 0.000000 0.867251 0.305017
O O5 0.758685 0.202757 0.113074
O O6 0.000000 0.203632 0.030974
O O7 0.742476 0.244294 0.980060
O O8 0.781188 0.120395 0.012097
O O9 0.725805 0.500000 0.500000
O O10 0.500000 0.520463 0.590093
O O11 0.764617 0.568109 0.610294
O O12 0.723015 0.442718 0.625459
O O13 0.250000 0.417055 0.250000
O O14 0.216848 0.317481 0.337651
O O15 0.000000 0.402381 0.314107
O O16 0.251598 0.319742 0.632096
O O17 0.000000 0.261996 0.596346
O O18 0.250000 0.219215 0.250000
O O19 0.000000 0.229526 0.324604
O O20 0.000000 0.913748 0.488386
O O21 0.221121 0.000000 0.500000
O O22 0.750000 0.611155 0.250000
O O23 0.000000 0.628693 0.178885
#
# Coordination Sequence:
#
# PCOD8221256 Si02
#       8
#     8   8   8   8   8   8   8   8
#     4   9  18  32  53  81 110 143 182 226 275 326
#     4  11  22  36  58  87 118 151 186 232 285 337
#     4  10  23  40  56  78 110 147 186 233 283 337
#     4  10  21  37  59  83 106 141 184 232 284 340
#     4  10  21  37  57  82 113 148 187 232 281 339
#     4  10  21  38  59  86 115 147 189 237 288 340
#     4   9  19  38  60  81 112 156 198 234 278 331
#     4  11  23  38  56  81 111 148 187 230 286 341
#
# _framework density 18.753955999999999
#
# number of rings (size 3 to 8) (size 9 to 14) (size 15 to 20)
#    0.000    2.000    0.000    4.125    1.750    7.500 
#    0.000    0.625    0.000    1.500    0.000    0.000 
#    0.000    0.000    0.000    0.000    0.000    0.000 
#
# Total GULP energy -793826.716792 kJ/mol
# GULP energy per Si atom -12403.542450 kJ/mol
# Density = 1.871127 g / cm^3
# Si number density = 18.753956 Si / 1000 Ang^3
#
#
#
# Elastic Constant Matrix: (Units=GPa)
#
#
# Indices 1 2 3 4 5 6 
#
# 1 79.0069 36.9229 52.4165 0.0000 0.0000 0.0000
# 2 36.9229 71.1374 57.1450 0.0000 0.0000 0.0000
# 3 52.4165 57.1450 150.2188 0.0000 0.0000 0.0000
# 4 0.0000 0.0000 0.0000 35.8460 0.0000 0.0000
# 5 0.0000 0.0000 0.0000 0.0000 37.4469 0.0000
# 6 0.0000 0.0000 0.0000 0.0000 0.0000 15.3805
#
#
#
# Elastic Compliance Matrix: (Units=1/GPa)
#
#
# Indices 1 2 3 4 5 6 
#
# 1 0.018222 -0.006265 -0.003975 0.000000 0.000000 0.000000
# 2 -0.006265 0.022397 -0.006334 0.000000 0.000000 0.000000
# 3 -0.003975 -0.006334 0.010454 0.000000 0.000000 0.000000
# 4 0.000000 0.000000 0.000000 0.027897 0.000000 0.000000
# 5 0.000000 0.000000 0.000000 0.000000 0.026705 0.000000
# 6 0.000000 0.000000 0.000000 0.000000 0.000000 0.065017
#
#
# Mechanical properties :
#
#
# Convention : Reuss Voigt Hill
#
# Bulk Modulus (GPa) = 55.78841 65.92578 60.85710
# Shear Modulus (GPa) = 23.83054 27.99327 25.91190
#
# Velocity S-wave (km/s) = 3.56855 3.86769 3.72112
# Velocity P-wave (km/s) = 6.84043 7.42796 7.14024
#
# Compressibility (1/GPa) = 0.01792487
#
# Stress axis : x y z
#
# Youngs Moduli (GPa) = 54.87831 44.64849 95.66050
#
# Poissons Ratio (x) = 0.27971 0.38027
# Poissons Ratio (y) = 0.34379 0.60593
# Poissons Ratio (z) = 0.21815 0.28281
#
# Static dielectric constant tensor:
#      x y z
#    x 3.462030 0.000000 0.000000 
#    y 0.000000 3.344540 0.000000 
#    z 0.000000 0.000000 3.619460 
# 
# 
# High freq. dielectric constant tensor:
#      x y z
#    x 1.734890 0.000000 0.000000 
#    y 0.000000 1.717660 0.000000 
#    z 0.000000 0.000000 1.739670 
# 
# From -- ./inp_files/26841.got.cif
#   From: 2010.03.12/outbox.cif.g09.slc.cpg/sg53_14_cif.got.tgz:26841.got - 2010.04.16 14:36:59.
