data_PCOD8221245
_publ_section_title
;
Structure prediction by ZEFSAII (Michael W. Deem and Ramdas Pophale) SiO2 
 PCOD8221245
Probable space group: P M N A
;
_chemical_formula_sum "Si O2"
_cell_formula_units_Z 48
_cell_length_a 8.640721
_cell_length_b 20.607512
_cell_length_c 13.947518
_cell_angle_alpha 90.000000
_cell_angle_beta 90.000000
_cell_angle_gamma 90.000000
_cell_volume 2483.547521
_symmetry_space_group_name_H-M "P M N A"
_symmetry_group_IT_number 53
_symmetry_cell_setting 'orthorhombic'
loop_
_space_group_symop_operation_xyz
x,y,z
1/2-x,-y,1/2+z
x,-y,-z
1/2-x,y,1/2-z
-x,-y,-z
1/2+x,y,1/2-z
-x,y,z
1/2+x,-y,1/2+z
loop_
_atom_site_type_symbol
_atom_site_label
_atom_site_fract_x
_atom_site_fract_y
_atom_site_fract_z
Si Si1 0.822617 0.400418 0.153377
Si Si2 0.182962 0.034172 0.352759
Si Si3 0.818362 0.775496 0.355197
Si Si4 0.676198 0.655158 0.457163
Si Si5 0.816791 0.537775 0.352361
Si Si6 0.183888 0.095354 0.546592
O O1 0.750000 0.370428 0.250000
O O2 0.727225 0.464143 0.122398
O O3 0.000000 0.421538 0.171776
O O4 0.811925 0.344763 0.072746
O O5 0.250000 0.054861 0.250000
O O6 0.239757 0.083767 0.436590
O O7 0.000000 0.035470 0.344391
O O8 0.241490 0.962492 0.383663
O O9 0.750000 0.770740 0.250000
O O10 0.781591 0.711288 0.414598
O O11 0.748067 0.837289 0.412322
O O12 0.000000 0.782816 0.344953
O O13 0.500000 0.665432 0.422696
O O14 0.736976 0.584840 0.427904
O O15 0.750000 0.558374 0.250000
O O16 0.000000 0.546828 0.355582
O O17 0.000000 0.096028 0.546642
#
# Coordination Sequence:
#
# PCOD8221245 Si02
#       6
#     8   8   8   8   8   8
#     4  10  21  37  57  78 103 134 171 217 265 313
#     4   9  16  31  54  80 108 139 175 215 259 306
#     4  11  22  37  56  78 105 139 176 215 260 312
#     4  11  23  38  54  76 106 139 175 216 261 310
#     4  11  21  34  55  81 108 137 171 214 263 315
#     4   8  17  33  53  76 107 144 176 209 258 315
#
# _framework density 19.327192
#
# number of rings (size 3 to 8) (size 9 to 14) (size 15 to 20)
#    0.000    2.000    0.000    6.500    0.000    4.667 
#    0.000    5.000    0.000    4.000    0.000    0.000 
#    0.000    0.000    0.000    0.000    0.000    0.000 
#
# Total GULP energy -595142.128211 kJ/mol
# GULP energy per Si atom -12398.794338 kJ/mol
# Density = 1.928320 g / cm^3
# Si number density = 19.327192 Si / 1000 Ang^3
#
#
#
# Elastic Constant Matrix: (Units=GPa)
#
#
# Indices 1 2 3 4 5 6 
#
# 1 56.2273 18.6417 22.8919 0.0000 0.0000 0.0000
# 2 18.6417 71.3800 65.6395 0.0000 0.0000 0.0000
# 3 22.8919 65.6395 131.5943 0.0000 0.0000 0.0000
# 4 0.0000 0.0000 0.0000 29.7734 0.0000 0.0000
# 5 0.0000 0.0000 0.0000 0.0000 31.7102 0.0000
# 6 0.0000 0.0000 0.0000 0.0000 0.0000 -14.9718
#
#
#
# Elastic Compliance Matrix: (Units=1/GPa)
#
#
# Indices 1 2 3 4 5 6 
#
# 1 0.019648 -0.003673 -0.001586 0.000000 0.000000 0.000000
# 2 -0.003673 0.026567 -0.012613 0.000000 0.000000 0.000000
# 3 -0.001586 -0.012613 0.014166 0.000000 0.000000 0.000000
# 4 0.000000 0.000000 0.000000 0.033587 0.000000 0.000000
# 5 0.000000 0.000000 0.000000 0.000000 0.031536 0.000000
# 6 0.000000 0.000000 0.000000 0.000000 0.000000 -0.066792
#
#
# Mechanical properties :
#
#
# Convention : Reuss Voigt Hill
#
# Bulk Modulus (GPa) = 40.58705 52.61642 46.60174
# Shear Modulus (GPa) = 48.70024 19.43757 34.06891
#
# Velocity S-wave (km/s) = 5.02519 3.17474 4.20306
# Velocity P-wave (km/s) = 7.39700 6.38136 6.90787
#
# Compressibility (1/GPa) = 0.02463840
#
# Stress axis : x y z
#
# Youngs Moduli (GPa) = 50.89470 37.64023 70.59006
#
# Poissons Ratio (x) = 0.13826 0.11195
# Poissons Ratio (y) = 0.18694 0.89034
# Poissons Ratio (z) = 0.08071 0.47475
#
# Static dielectric constant tensor:
#      x y z
#    x 3.418800 0.000000 0.000000 
#    y 0.000000 3.474620 0.000000 
#    z 0.000000 0.000000 3.820260 
# 
# 
# High freq. dielectric constant tensor:
#      x y z
#    x 1.745110 0.000000 0.000000 
#    y 0.000000 1.730400 0.000000 
#    z 0.000000 0.000000 1.767120 
# 
# From -- ./inp_files/20203.got.cif
#   From: 2010.03.12/outbox.cif.g09.slc.cpg/sg53_11_cif.got.tgz:20203.got - 2010.04.16 14:36:59.
