data_PCOD8221680
_publ_section_title
;
Structure prediction by ZEFSAII (Michael W. Deem and Ramdas Pophale) SiO2 
 PCOD8221680
Probable space group: P M N A
;
_chemical_formula_sum "Si O2"
_cell_formula_units_Z 64
_cell_length_a 19.604005
_cell_length_b 13.293617
_cell_length_c 11.359999
_cell_angle_alpha 90.000000
_cell_angle_beta 90.000000
_cell_angle_gamma 90.000000
_cell_volume 2960.508143
_symmetry_space_group_name_H-M "P M N A"
_symmetry_group_IT_number 53
_symmetry_cell_setting 'orthorhombic'
loop_
_space_group_symop_operation_xyz
x,y,z
1/2-x,-y,1/2+z
x,-y,-z
1/2-x,y,1/2-z
-x,-y,-z
1/2+x,y,1/2-z
-x,y,z
1/2+x,-y,1/2+z
loop_
_atom_site_type_symbol
_atom_site_label
_atom_site_fract_x
_atom_site_fract_y
_atom_site_fract_z
Si Si1 0.847067 0.807363 0.480905
Si Si2 0.079369 0.607771 0.549044
Si Si3 0.423238 0.904087 0.815049
Si Si4 0.710135 0.444050 0.625567
Si Si5 0.198447 0.220770 0.958750
Si Si6 0.925006 0.542668 0.804293
Si Si7 0.072718 0.754213 0.884164
Si Si8 0.673057 0.924450 0.254100
O O1 0.876995 0.694384 0.485497
O O2 0.889875 0.885821 0.558053
O O3 0.768532 0.809771 0.523777
O O4 0.847562 0.847623 0.348771
O O5 0.101827 0.500000 0.500000
O O6 0.097093 0.599581 0.685641
O O7 0.000000 0.631065 0.524933
O O8 0.500000 0.944791 0.832726
O O9 0.423153 0.797024 0.748670
O O10 0.380278 0.984604 0.740472
O O11 0.733025 0.500000 0.500000
O O12 0.750000 0.473529 0.750000
O O13 0.714762 0.325603 0.606031
O O14 0.630529 0.464819 0.650009
O O15 0.168490 0.139985 0.870509
O O16 0.141213 0.214498 0.055288
O O17 0.930156 0.633935 0.895200
O O18 0.000000 0.489592 0.790966
O O19 0.000000 0.794070 0.938806
O O20 0.750000 0.967939 0.250000
#
# Coordination Sequence:
#
# PCOD8221680 Si02
#       8
#     8   8   8   8   8   8   8   8
#     4  11  23  41  69  94 137 177 220 281 337 416
#     4  10  22  38  63 100 138 179 222 276 347 409
#     4  11  24  44  73 103 131 171 230 290 346 416
#     4  12  27  43  69 104 142 184 236 289 342 416
#     4  11  26  45  64  99 136 182 225 277 346 407
#     4  10  22  42  65  94 134 179 229 280 337 404
#     4  10  22  43  68  96 131 169 223 285 334 400
#     4  10  25  45  63  94 138 178 221 280 347 411
#
# _framework density 21.617908
#
# number of rings (size 3 to 8) (size 9 to 14) (size 15 to 20)
#    0.000    1.375    2.500    1.875    7.000    3.250 
#    0.000    1.250    0.000    0.000    0.000    0.000 
#    0.000    0.000    0.000    0.000    0.000    0.000 
#
# Total GULP energy -792992.008168 kJ/mol
# GULP energy per Si atom -12390.500128 kJ/mol
# Density = 2.156871 g / cm^3
# Si number density = 21.617908 Si / 1000 Ang^3
#
#
#
# Elastic Constant Matrix: (Units=GPa)
#
#
# Indices 1 2 3 4 5 6 
#
# 1 131.9574 23.0186 56.1959 0.0000 0.0000 0.0000
# 2 23.0186 68.9654 10.8997 0.0000 0.0000 0.0000
# 3 56.1959 10.8997 77.4572 0.0000 0.0000 0.0000
# 4 0.0000 0.0000 0.0000 22.3134 0.0000 0.0000
# 5 0.0000 0.0000 0.0000 0.0000 30.3811 0.0000
# 6 0.0000 0.0000 0.0000 0.0000 0.0000 36.9874
#
#
#
# Elastic Compliance Matrix: (Units=1/GPa)
#
#
# Indices 1 2 3 4 5 6 
#
# 1 0.011389 -0.002552 -0.007904 0.000000 0.000000 0.000000
# 2 -0.002552 0.015402 -0.000316 0.000000 0.000000 0.000000
# 3 -0.007904 -0.000316 0.018689 0.000000 0.000000 0.000000
# 4 0.000000 0.000000 0.000000 0.044816 0.000000 0.000000
# 5 0.000000 0.000000 0.000000 0.000000 0.032915 0.000000
# 6 0.000000 0.000000 0.000000 0.000000 0.000000 0.027036
#
#
# Mechanical properties :
#
#
# Convention : Reuss Voigt Hill
#
# Bulk Modulus (GPa) = 41.77697 50.95648 46.36673
# Shear Modulus (GPa) = 27.81321 30.48743 29.15032
#
# Velocity S-wave (km/s) = 3.59079 3.75945 3.67609
# Velocity P-wave (km/s) = 6.04639 6.51669 6.28594
#
# Compressibility (1/GPa) = 0.02393663
#
# Stress axis : x y z
#
# Youngs Moduli (GPa) = 87.80054 64.92754 53.50684
#
# Poissons Ratio (x) = 0.16571 0.42292
# Poissons Ratio (y) = 0.22409 0.01689
# Poissons Ratio (z) = 0.69398 0.02049
#
# Static dielectric constant tensor:
#      x y z
#    x 4.229540 0.000000 0.000000 
#    y 0.000000 3.876070 0.000000 
#    z 0.000000 0.000000 4.132510 
# 
# 
# High freq. dielectric constant tensor:
#      x y z
#    x 1.865380 0.000000 0.000000 
#    y 0.000000 1.844210 0.000000 
#    z 0.000000 0.000000 1.841770 
# 
# From -- ./inp_files/17138.got.cif
#   From: 2010.03.12/outbox.cif.g09.slc.cpg/sg53_9_cif.got.tgz:17138.got - 2010.04.16 14:36:59.
