data_PCOD8221399
_publ_section_title
;
Structure prediction by ZEFSAII (Michael W. Deem and Ramdas Pophale) SiO2 
 PCOD8221399
Probable space group: P M N A
;
_chemical_formula_sum "Si O2"
_cell_formula_units_Z 64
_cell_length_a 8.958028
_cell_length_b 21.494488
_cell_length_c 17.521766
_cell_angle_alpha 90.000000
_cell_angle_beta 90.000000
_cell_angle_gamma 90.000000
_cell_volume 3373.784948
_symmetry_space_group_name_H-M "P M N A"
_symmetry_group_IT_number 53
_symmetry_cell_setting 'orthorhombic'
loop_
_space_group_symop_operation_xyz
x,y,z
1/2-x,-y,1/2+z
x,-y,-z
1/2-x,y,1/2-z
-x,-y,-z
1/2+x,y,1/2-z
-x,y,z
1/2+x,-y,1/2+z
loop_
_atom_site_type_symbol
_atom_site_label
_atom_site_fract_x
_atom_site_fract_y
_atom_site_fract_z
Si Si1 0.176037 0.373426 0.172393
Si Si2 0.673397 0.997040 0.170358
Si Si3 0.175356 0.894322 0.073002
Si Si4 0.671140 0.879049 0.914889
Si Si5 0.825907 0.566889 0.529914
Si Si6 0.329443 0.258895 0.107729
Si Si7 0.670375 0.310981 0.944448
Si Si8 0.175115 0.773865 0.168444
O O1 0.250000 0.398047 0.250000
O O2 0.231344 0.417549 0.104589
O O3 0.222434 0.301627 0.158617
O O4 0.000000 0.377830 0.179270
O O5 0.750000 0.981356 0.250000
O O6 0.500000 0.982086 0.178857
O O7 0.703391 0.068416 0.147813
O O8 0.740169 0.954259 0.104487
O O9 0.225817 0.833733 0.120016
O O10 0.000000 0.905621 0.079595
O O11 0.217972 0.886655 0.985182
O O12 0.500000 0.882451 0.944465
O O13 0.701497 0.813159 0.873367
O O14 0.774528 0.500000 0.500000
O O15 0.793183 0.617126 0.463506
O O16 0.000000 0.568319 0.552334
O O17 0.500000 0.278451 0.125642
O O18 0.295527 0.269170 0.018489
O O19 0.500000 0.302988 0.918156
O O20 0.774085 0.288478 0.875393
O O21 0.250000 0.778028 0.250000
O O22 0.000000 0.771140 0.180085
#
# Coordination Sequence:
#
# PCOD8221399 Si02
#       8
#     8   8   8   8   8   8   8   8
#     4  11  22  36  57  86 121 156 196 241 284 334
#     4  11  24  40  57  78 108 146 188 235 290 343
#     4  11  23  38  58  83 110 144 188 235 284 341
#     4  10  21  38  60  84 111 146 186 231 285 348
#     4   9  19  38  63  89 118 154 193 233 282 338
#     4   9  18  35  58  83 112 147 185 227 283 341
#     4   9  17  33  58  83 111 145 179 222 273 330
#     4  11  23  36  54  81 111 144 185 232 282 334
#
# _framework density 18.969792000000002
#
# number of rings (size 3 to 8) (size 9 to 14) (size 15 to 20)
#    0.000    1.875    1.250    3.750    0.000    8.250 
#    0.000    1.875    0.000    0.000    0.000    0.000 
#    0.000    0.000    0.000    0.000    0.000    0.000 
#
# Total GULP energy -793875.398383 kJ/mol
# GULP energy per Si atom -12404.303100 kJ/mol
# Density = 1.892662 g / cm^3
# Si number density = 18.969792 Si / 1000 Ang^3
#
#
#
# Elastic Constant Matrix: (Units=GPa)
#
#
# Indices 1 2 3 4 5 6 
#
# 1 98.0644 39.4975 45.6568 0.0000 0.0000 0.0000
# 2 39.4975 109.6833 21.8128 0.0000 0.0000 0.0000
# 3 45.6568 21.8128 70.2749 0.0000 0.0000 0.0000
# 4 0.0000 0.0000 0.0000 16.7635 0.0000 0.0000
# 5 0.0000 0.0000 0.0000 0.0000 34.7188 0.0000
# 6 0.0000 0.0000 0.0000 0.0000 0.0000 23.2148
#
#
#
# Elastic Compliance Matrix: (Units=1/GPa)
#
#
# Indices 1 2 3 4 5 6 
#
# 1 0.016085 -0.003958 -0.009222 0.000000 0.000000 0.000000
# 2 -0.003958 0.010691 -0.000747 0.000000 0.000000 0.000000
# 3 -0.009222 -0.000747 0.020453 0.000000 0.000000 0.000000
# 4 0.000000 0.000000 0.000000 0.059654 0.000000 0.000000
# 5 0.000000 0.000000 0.000000 0.000000 0.028803 0.000000
# 6 0.000000 0.000000 0.000000 0.000000 0.000000 0.043076
#
#
# Mechanical properties :
#
#
# Convention : Reuss Voigt Hill
#
# Bulk Modulus (GPa) = 51.61162 54.66185 53.13674
# Shear Modulus (GPa) = 23.46609 26.34312 24.90460
#
# Velocity S-wave (km/s) = 3.52095 3.73055 3.62727
# Velocity P-wave (km/s) = 6.61784 6.88722 6.75387
#
# Compressibility (1/GPa) = 0.01937548
#
# Stress axis : x y z
#
# Youngs Moduli (GPa) = 62.16918 93.53571 48.89306
#
# Poissons Ratio (x) = 0.37025 0.45088
# Poissons Ratio (y) = 0.24609 0.03651
# Poissons Ratio (z) = 0.57330 0.06984
#
# Static dielectric constant tensor:
#      x y z
#    x 3.427680 0.000000 0.000000 
#    y 0.000000 3.572920 0.000000 
#    z 0.000000 0.000000 3.308150 
# 
# 
# High freq. dielectric constant tensor:
#      x y z
#    x 1.738480 0.000000 0.000000 
#    y 0.000000 1.738220 0.000000 
#    z 0.000000 0.000000 1.729660 
# 
# From -- ./inp_files/20908.got.cif
#   From: 2010.03.12/outbox.cif.g09.slc.cpg/sg53_11_cif.got.tgz:20908.got - 2010.04.16 14:36:59.
