data_PCOD8221415
_publ_section_title
;
Structure prediction by ZEFSAII (Michael W. Deem and Ramdas Pophale) SiO2 
 PCOD8221415
Probable space group: P M N A
;
_chemical_formula_sum "Si O2"
_cell_formula_units_Z 56
_cell_length_a 14.887833
_cell_length_b 13.666239
_cell_length_c 12.882001
_cell_angle_alpha 90.000000
_cell_angle_beta 90.000000
_cell_angle_gamma 90.000000
_cell_volume 2620.980734
_symmetry_space_group_name_H-M "P M N A"
_symmetry_group_IT_number 53
_symmetry_cell_setting 'orthorhombic'
loop_
_space_group_symop_operation_xyz
x,y,z
1/2-x,-y,1/2+z
x,-y,-z
1/2-x,y,1/2-z
-x,-y,-z
1/2+x,y,1/2-z
-x,y,z
1/2+x,-y,1/2+z
loop_
_atom_site_type_symbol
_atom_site_label
_atom_site_fract_x
_atom_site_fract_y
_atom_site_fract_z
Si Si1 0.101980 0.284916 0.827796
Si Si2 0.903506 0.367906 0.612900
Si Si3 0.775548 0.394477 0.986251
Si Si4 0.895835 0.063965 0.101484
Si Si5 0.899701 0.154985 0.514836
Si Si6 0.246052 0.779723 0.872369
Si Si7 0.106282 0.086463 0.729447
O O1 0.104472 0.365666 0.737157
O O2 0.165005 0.322331 0.918581
O O3 0.144689 0.182853 0.787262
O O4 0.000000 0.271111 0.869422
O O5 0.819153 0.425220 0.566798
O O6 0.903256 0.257656 0.572613
O O7 0.000000 0.417017 0.582630
O O8 0.824411 0.500000 0.000000
O O9 0.756814 0.333572 0.091239
O O10 0.843427 0.165315 0.090256
O O11 0.000000 0.090391 0.112019
O O12 0.860726 0.007458 0.205253
O O13 0.877639 0.000000 0.000000
O O14 0.831806 0.160870 0.418343
O O15 0.866450 0.079315 0.606450
O O16 0.000000 0.126418 0.473818
O O17 0.250000 0.778169 0.750000
O O18 0.000000 0.097315 0.734613
#
# Coordination Sequence:
#
# PCOD8221415 Si02
#       7
#     8   8   8   8   8   8   8
#     4   9  17  33  59  88 113 135 172 234 297 346
#     4   8  16  33  58  85 106 129 173 235 293 336
#     4  11  23  37  56  79 111 153 194 236 283 345
#     4  10  21  38  60  87 122 161 196 234 286 349
#     4   8  16  35  61  85 109 141 187 240 287 335
#     4  11  25  40  55  82 119 158 197 239 295 355
#     4   8  15  32  61  90 112 142 190 243 289 337
#
# _framework density 21.366047999999999
#
# number of rings (size 3 to 8) (size 9 to 14) (size 15 to 20)
#    0.000    2.714    0.000    3.000    0.000    5.143 
#    0.000    2.857    0.000    3.000    0.000    1.000 
#    0.000    0.000    0.000    0.000    0.000    0.000 
#
# Total GULP energy -694068.602600 kJ/mol
# GULP energy per Si atom -12394.082189 kJ/mol
# Density = 2.131742 g / cm^3
# Si number density = 21.366048 Si / 1000 Ang^3
#
#
#
# Elastic Constant Matrix: (Units=GPa)
#
#
# Indices 1 2 3 4 5 6 
#
# 1 90.2854 29.0032 52.4753 0.0000 0.0000 0.0000
# 2 29.0032 73.1674 23.1980 0.0000 0.0000 0.0000
# 3 52.4753 23.1980 119.0855 0.0000 0.0000 0.0000
# 4 0.0000 0.0000 0.0000 17.7774 0.0000 0.0000
# 5 0.0000 0.0000 0.0000 0.0000 21.7025 0.0000
# 6 0.0000 0.0000 0.0000 0.0000 0.0000 14.2827
#
#
#
# Elastic Compliance Matrix: (Units=1/GPa)
#
#
# Indices 1 2 3 4 5 6 
#
# 1 0.016123 -0.004411 -0.006245 0.000000 0.000000 0.000000
# 2 -0.004411 0.015774 -0.001129 0.000000 0.000000 0.000000
# 3 -0.006245 -0.001129 0.011369 0.000000 0.000000 0.000000
# 4 0.000000 0.000000 0.000000 0.056251 0.000000 0.000000
# 5 0.000000 0.000000 0.000000 0.000000 0.046078 0.000000
# 6 0.000000 0.000000 0.000000 0.000000 0.000000 0.070015
#
#
# Mechanical properties :
#
#
# Convention : Reuss Voigt Hill
#
# Bulk Modulus (GPa) = 50.77363 54.65458 52.71411
# Shear Modulus (GPa) = 20.34629 22.60997 21.47813
#
# Velocity S-wave (km/s) = 3.08924 3.25656 3.17400
# Velocity P-wave (km/s) = 6.04482 6.30681 6.17720
#
# Compressibility (1/GPa) = 0.01969526
#
# Stress axis : x y z
#
# Youngs Moduli (GPa) = 62.02394 63.39659 87.95634
#
# Poissons Ratio (x) = 0.27964 0.54931
# Poissons Ratio (y) = 0.27358 0.09931
# Poissons Ratio (z) = 0.38736 0.07158
#
# Static dielectric constant tensor:
#      x y z
#    x 4.041600 0.000000 0.000000 
#    y 0.000000 3.599680 0.000000 
#    z 0.000000 0.000000 3.930890 
# 
# 
# High freq. dielectric constant tensor:
#      x y z
#    x 1.836380 0.000000 0.000000 
#    y 0.000000 1.809400 0.000000 
#    z 0.000000 0.000000 1.836500 
# 
# From -- ./inp_files/16051.got.cif
#   From: 2010.03.12/outbox.cif.g09.slc.cpg/sg53_9_cif.got.tgz:16051.got - 2010.04.16 14:36:59.
