data_PCOD8221348
_publ_section_title
;
Structure prediction by ZEFSAII (Michael W. Deem and Ramdas Pophale) SiO2 
 PCOD8221348
Probable space group: P M N A
;
_chemical_formula_sum "Si O2"
_cell_formula_units_Z 40
_cell_length_a 13.481044
_cell_length_b 13.125672
_cell_length_c 10.062814
_cell_angle_alpha 90.000000
_cell_angle_beta 90.000000
_cell_angle_gamma 90.000000
_cell_volume 1780.592414
_symmetry_space_group_name_H-M "P M N A"
_symmetry_group_IT_number 53
_symmetry_cell_setting 'orthorhombic'
loop_
_space_group_symop_operation_xyz
x,y,z
1/2-x,-y,1/2+z
x,-y,-z
1/2-x,y,1/2-z
-x,-y,-z
1/2+x,y,1/2-z
-x,y,z
1/2+x,-y,1/2+z
loop_
_atom_site_type_symbol
_atom_site_label
_atom_site_fract_x
_atom_site_fract_y
_atom_site_fract_z
Si Si1 0.111854 0.433309 0.871512
Si Si2 0.706310 0.776486 0.389086
Si Si3 0.387033 0.444252 0.124779
Si Si4 0.000000 0.883321 0.089640
Si Si5 0.000000 0.919713 0.774794
Si Si6 0.331769 0.784536 0.858061
O O1 0.192854 0.345011 0.894709
O O2 0.157008 0.508534 0.759511
O O3 0.000000 0.391131 0.838229
O O4 0.103366 0.500000 0.000000
O O5 0.750000 0.813558 0.250000
O O6 0.597554 0.818330 0.401395
O O7 0.779590 0.818799 0.504416
O O8 0.500000 0.479101 0.122743
O O9 0.385991 0.322101 0.117388
O O10 0.332506 0.500000 0.000000
O O11 0.000000 0.957385 0.222536
O O12 0.000000 0.917018 0.935585
O O13 0.904780 0.871393 0.700565
O O14 0.250000 0.761965 0.750000
#
# Coordination Sequence:
#
# PCOD8221348 Si02
#       6
#     8   8   8   4   4   8
#     4  10  21  37  64  95 142 196 237 280 348 431
#     4  12  26  44  72 108 145 188 236 295 367 440
#     4  10  21  37  60  97 145 193 234 287 347 417
#     4  11  26  53  75  98 144 182 229 311 388 420
#     4  11  26  51  77 103 136 183 239 315 370 422
#     4  12  24  42  75 106 138 187 251 293 351 441
#
# _framework density 22.464435000000002
#
# number of rings (size 3 to 8) (size 9 to 14) (size 15 to 20)
#    0.000    1.000    4.000    2.400    0.000    6.400 
#    0.000    1.000    0.000    0.000    0.000    0.000 
#    0.000    0.000    0.000    0.000    0.000    0.000 
#
# Total GULP energy -495574.672054 kJ/mol
# GULP energy per Si atom -12389.366801 kJ/mol
# Density = 2.241330 g / cm^3
# Si number density = 22.464435 Si / 1000 Ang^3
#
#
#
# Elastic Constant Matrix: (Units=GPa)
#
#
# Indices 1 2 3 4 5 6 
#
# 1 94.4896 27.9103 47.3247 0.0000 0.0000 0.0000
# 2 27.9103 96.5988 45.3797 0.0000 0.0000 0.0000
# 3 47.3247 45.3797 179.6413 0.0000 0.0000 0.0000
# 4 0.0000 0.0000 0.0000 38.0012 0.0000 0.0000
# 5 0.0000 0.0000 0.0000 0.0000 47.1880 0.0000
# 6 0.0000 0.0000 0.0000 0.0000 0.0000 6.4710
#
#
#
# Elastic Compliance Matrix: (Units=1/GPa)
#
#
# Indices 1 2 3 4 5 6 
#
# 1 0.012653 -0.002371 -0.002734 0.000000 0.000000 0.000000
# 2 -0.002371 0.012190 -0.002455 0.000000 0.000000 0.000000
# 3 -0.002734 -0.002455 0.006907 0.000000 0.000000 0.000000
# 4 0.000000 0.000000 0.000000 0.026315 0.000000 0.000000
# 5 0.000000 0.000000 0.000000 0.000000 0.021192 0.000000
# 6 0.000000 0.000000 0.000000 0.000000 0.000000 0.154536
#
#
# Mechanical properties :
#
#
# Convention : Reuss Voigt Hill
#
# Bulk Modulus (GPa) = 60.13303 67.99544 64.06424
# Shear Modulus (GPa) = 19.64965 35.00639 27.32802
#
# Velocity S-wave (km/s) = 2.96074 3.95182 3.49162
# Velocity P-wave (km/s) = 6.20598 7.15236 6.69591
#
# Compressibility (1/GPa) = 0.01662979
#
# Stress axis : x y z
#
# Youngs Moduli (GPa) = 79.03215 82.03159 144.77920
#
# Poissons Ratio (x) = 0.19453 0.39587
# Poissons Ratio (y) = 0.18741 0.35540
# Poissons Ratio (z) = 0.21610 0.20137
#
# Static dielectric constant tensor:
#      x y z
#    x 4.250460 0.000000 0.000000 
#    y 0.000000 3.873940 0.000000 
#    z 0.000000 0.000000 4.437430 
# 
# 
# High freq. dielectric constant tensor:
#      x y z
#    x 1.901690 0.000000 0.000000 
#    y 0.000000 1.865740 0.000000 
#    z 0.000000 0.000000 1.897620 
# 
# From -- ./inp_files/8472.got.cif
#   From: 2010.03.12/outbox.cif.g09.slc.cpg/sg53_5_cif.got.tgz:8472.got - 2010.04.16 14:36:59.
