data_PCOD8221979
_publ_section_title
;
Structure prediction by ZEFSAII (Michael W. Deem and Ramdas Pophale) SiO2 
 PCOD8221979
Probable space group: P M N A
;
_chemical_formula_sum "Si O2"
_cell_formula_units_Z 48
_cell_length_a 7.753300
_cell_length_b 16.929433
_cell_length_c 17.881314
_cell_angle_alpha 90.000000
_cell_angle_beta 90.000000
_cell_angle_gamma 90.000000
_cell_volume 2347.082909
_symmetry_space_group_name_H-M "P M N A"
_symmetry_group_IT_number 53
_symmetry_cell_setting 'orthorhombic'
loop_
_space_group_symop_operation_xyz
x,y,z
1/2-x,-y,1/2+z
x,-y,-z
1/2-x,y,1/2-z
-x,-y,-z
1/2+x,y,1/2-z
-x,y,z
1/2+x,-y,1/2+z
loop_
_atom_site_type_symbol
_atom_site_label
_atom_site_fract_x
_atom_site_fract_y
_atom_site_fract_z
Si Si1 0.310727 0.821340 0.421482
Si Si2 0.000000 0.403067 0.080434
Si Si3 0.298871 0.157960 0.087480
Si Si4 0.200763 0.683479 0.665438
Si Si5 0.000000 0.588255 0.092366
Si Si6 0.309639 0.010712 0.911658
Si Si7 0.306871 0.319611 0.833463
O O1 0.500000 0.789660 0.401287
O O2 0.289723 0.816787 0.510483
O O3 0.182085 0.762095 0.379982
O O4 0.297375 0.911297 0.390786
O O5 0.176409 0.367864 0.113199
O O6 0.000000 0.494723 0.099050
O O7 0.000000 0.383632 0.993026
O O8 0.500000 0.147399 0.069063
O O9 0.263191 0.224085 0.149606
O O10 0.229118 0.072701 0.118472
O O11 0.250000 0.665000 0.750000
O O12 0.000000 0.662216 0.649672
O O13 0.825541 0.618279 0.131183
O O14 0.500000 0.024153 0.878382
O O15 0.316932 0.000000 0.000000
O O16 0.250000 0.298882 0.750000
O O17 0.500000 0.356396 0.834497
#
# Coordination Sequence:
#
# PCOD8221979 Si02
#       7
#     8   4   8   8   4   8   8
#     4  11  20  32  55  88 124 164 216 265 313 374
#     4  11  26  46  72  99 134 162 209 265 314 386
#     4   9  19  34  56  84 120 167 218 266 315 369
#     4  11  23  42  65  96 130 173 214 260 319 382
#     4  11  26  48  70 103 128 164 211 261 320 382
#     4   8  15  30  49  78 118 163 213 265 313 363
#     4  12  24  44  67  95 131 171 212 263 319 385
#
# _framework density 20.450918999999999
#
# number of rings (size 3 to 8) (size 9 to 14) (size 15 to 20)
#    0.000    1.667    2.500    3.500    1.167    6.333 
#    0.000    2.500    0.000    2.000    0.000    0.000 
#    0.000    0.000    0.000    0.000    0.000    0.000 
#
# Total GULP energy -595012.493205 kJ/mol
# GULP energy per Si atom -12396.093608 kJ/mol
# Density = 2.040437 g / cm^3
# Si number density = 20.450919 Si / 1000 Ang^3
#
#
#
# Elastic Constant Matrix: (Units=GPa)
#
#
# Indices 1 2 3 4 5 6 
#
# 1 129.4076 33.3542 30.8226 0.0000 0.0000 0.0000
# 2 33.3542 79.2965 22.1603 0.0000 0.0000 0.0000
# 3 30.8226 22.1603 61.7654 0.0000 0.0000 0.0000
# 4 0.0000 0.0000 0.0000 9.9116 0.0000 0.0000
# 5 0.0000 0.0000 0.0000 0.0000 25.0831 0.0000
# 6 0.0000 0.0000 0.0000 0.0000 0.0000 26.6753
#
#
#
# Elastic Compliance Matrix: (Units=1/GPa)
#
#
# Indices 1 2 3 4 5 6 
#
# 1 0.009341 -0.002919 -0.003614 0.000000 0.000000 0.000000
# 2 -0.002919 0.014928 -0.003899 0.000000 0.000000 0.000000
# 3 -0.003614 -0.003899 0.019393 0.000000 0.000000 0.000000
# 4 0.000000 0.000000 0.000000 0.100891 0.000000 0.000000
# 5 0.000000 0.000000 0.000000 0.000000 0.039867 0.000000
# 6 0.000000 0.000000 0.000000 0.000000 0.000000 0.037488
#
#
# Mechanical properties :
#
#
# Convention : Reuss Voigt Hill
#
# Bulk Modulus (GPa) = 43.86502 49.23817 46.55160
# Shear Modulus (GPa) = 19.97026 24.60951 22.28988
#
# Velocity S-wave (km/s) = 3.12829 3.47269 3.30498
# Velocity P-wave (km/s) = 5.87739 6.34097 6.11358
#
# Compressibility (1/GPa) = 0.02279721
#
# Stress axis : x y z
#
# Youngs Moduli (GPa) = 107.05886 66.98632 51.56558
#
# Poissons Ratio (x) = 0.19553 0.18636
# Poissons Ratio (y) = 0.31250 0.20107
# Poissons Ratio (z) = 0.38691 0.26121
#
# Static dielectric constant tensor:
#      x y z
#    x 3.814800 0.000000 0.000000 
#    y 0.000000 3.948380 0.000000 
#    z 0.000000 0.000000 3.467060 
# 
# 
# High freq. dielectric constant tensor:
#      x y z
#    x 1.806060 0.000000 0.000000 
#    y 0.000000 1.808080 0.000000 
#    z 0.000000 0.000000 1.772200 
# 
# From -- ./inp_files/26308.got.cif
#   From: 2010.03.12/outbox.cif.g09.slc.cpg/sg53_14_cif.got.tgz:26308.got - 2010.04.16 14:36:59.
