data_PCOD8221875
_publ_section_title
;
Structure prediction by ZEFSAII (Michael W. Deem and Ramdas Pophale) SiO2 
 PCOD8221875
Probable space group: P M N A
;
_chemical_formula_sum "Si O2"
_cell_formula_units_Z 36
_cell_length_a 19.471937
_cell_length_b 6.886060
_cell_length_c 11.814408
_cell_angle_alpha 90.000000
_cell_angle_beta 90.000000
_cell_angle_gamma 90.000000
_cell_volume 1584.134028
_symmetry_space_group_name_H-M "P M N A"
_symmetry_group_IT_number 53
_symmetry_cell_setting 'orthorhombic'
loop_
_space_group_symop_operation_xyz
x,y,z
1/2-x,-y,1/2+z
x,-y,-z
1/2-x,y,1/2-z
-x,-y,-z
1/2+x,y,1/2-z
-x,y,z
1/2+x,-y,1/2+z
loop_
_atom_site_type_symbol
_atom_site_label
_atom_site_fract_x
_atom_site_fract_y
_atom_site_fract_z
Si Si1 0.921090 0.646627 0.785230
Si Si2 0.422783 0.643185 0.091263
Si Si3 0.347948 0.990903 0.176253
Si Si4 0.297453 0.121596 0.597755
Si Si5 0.339116 0.500000 0.500000
O O1 0.919060 0.445952 0.716759
O O2 0.000000 0.715368 0.804228
O O3 0.881393 0.801518 0.704566
O O4 0.885978 0.611012 0.907049
O O5 0.500000 0.675866 0.049752
O O6 0.390117 0.857839 0.088644
O O7 0.386252 0.500000 0.000000
O O8 0.271696 0.001469 0.123971
O O9 0.345730 0.872434 0.293607
O O10 0.288192 0.345147 0.559414
O O11 0.335944 0.000000 0.500000
#
# Coordination Sequence:
#
# PCOD8221875 Si02
#       5
#     8   8   8   8   4
#     4  11  24  43  71 101 135 177 226 284 345 409
#     4  10  23  42  64  96 132 173 227 279 337 408
#     4  11  24  43  65  97 133 176 225 277 341 405
#     4  11  25  43  65  95 134 176 225 281 339 412
#     4  12  23  46  68 100 139 174 230 282 348 414
#
# _framework density 22.725348
#
# number of rings (size 3 to 8) (size 9 to 14) (size 15 to 20)
#    0.000    1.111    4.444    1.000    4.667    0.000 
#    0.000    4.444    0.000    0.000    0.000    0.000 
#    0.000    0.000    0.000    0.000    0.000    0.000 
#
# Total GULP energy -446154.093201 kJ/mol
# GULP energy per Si atom -12393.169256 kJ/mol
# Density = 2.267362 g / cm^3
# Si number density = 22.725348 Si / 1000 Ang^3
#
#
#
# Elastic Constant Matrix: (Units=GPa)
#
#
# Indices 1 2 3 4 5 6 
#
# 1 81.2388 29.6975 4.0069 0.0000 0.0000 0.0000
# 2 29.6975 98.2823 6.5710 0.0000 0.0000 0.0000
# 3 4.0069 6.5710 71.9189 0.0000 0.0000 0.0000
# 4 0.0000 0.0000 0.0000 55.6638 0.0000 0.0000
# 5 0.0000 0.0000 0.0000 0.0000 6.7208 0.0000
# 6 0.0000 0.0000 0.0000 0.0000 0.0000 33.9297
#
#
#
# Elastic Compliance Matrix: (Units=1/GPa)
#
#
# Indices 1 2 3 4 5 6 
#
# 1 0.013849 -0.004158 -0.000392 0.000000 0.000000 0.000000
# 2 -0.004158 0.011486 -0.000818 0.000000 0.000000 0.000000
# 3 -0.000392 -0.000818 0.014001 0.000000 0.000000 0.000000
# 4 0.000000 0.000000 0.000000 0.017965 0.000000 0.000000
# 5 0.000000 0.000000 0.000000 0.000000 0.148791 0.000000
# 6 0.000000 0.000000 0.000000 0.000000 0.000000 0.029473
#
#
# Mechanical properties :
#
#
# Convention : Reuss Voigt Hill
#
# Bulk Modulus (GPa) = 34.96472 36.88785 35.92628
# Shear Modulus (GPa) = 19.54392 33.34051 26.44221
#
# Velocity S-wave (km/s) = 2.93577 3.83444 3.41479
# Velocity P-wave (km/s) = 5.18756 5.98925 5.60277
#
# Compressibility (1/GPa) = 0.02860026
#
# Stress axis : x y z
#
# Youngs Moduli (GPa) = 72.20811 87.06257 71.42305
#
# Poissons Ratio (x) = 0.36205 0.02797
# Poissons Ratio (y) = 0.30027 0.05841
# Poissons Ratio (z) = 0.02828 0.07120
#
# Static dielectric constant tensor:
#      x y z
#    x 3.804660 0.000000 0.000000 
#    y 0.000000 4.095480 0.000000 
#    z 0.000000 0.000000 4.385270 
# 
# 
# High freq. dielectric constant tensor:
#      x y z
#    x 1.871380 0.000000 0.000000 
#    y 0.000000 1.898300 0.000000 
#    z 0.000000 0.000000 1.921050 
# 
# From -- ./inp_files/18099.got.cif
#   From: 2010.03.12/outbox.cif.g09.slc.cpg/sg53_10_cif.got.tgz:18099.got - 2010.04.16 14:36:59.
