data_PCOD8221818
_publ_section_title
;
Structure prediction by ZEFSAII (Michael W. Deem and Ramdas Pophale) SiO2 
 PCOD8221818
Probable space group: P M N A
;
_chemical_formula_sum "Si O2"
_cell_formula_units_Z 48
_cell_length_a 28.083621
_cell_length_b 9.146154
_cell_length_c 8.339634
_cell_angle_alpha 90.000000
_cell_angle_beta 90.000000
_cell_angle_gamma 90.000000
_cell_volume 2142.094392
_symmetry_space_group_name_H-M "P M N A"
_symmetry_group_IT_number 53
_symmetry_cell_setting 'orthorhombic'
loop_
_space_group_symop_operation_xyz
x,y,z
1/2-x,-y,1/2+z
x,-y,-z
1/2-x,y,1/2-z
-x,-y,-z
1/2+x,y,1/2-z
-x,y,z
1/2+x,-y,1/2+z
loop_
_atom_site_type_symbol
_atom_site_label
_atom_site_fract_x
_atom_site_fract_y
_atom_site_fract_z
Si Si1 0.381439 0.923852 0.172701
Si Si2 0.554122 0.276080 0.657688
Si Si3 0.114136 0.215314 0.155196
Si Si4 0.196755 0.626359 0.699766
Si Si5 0.699293 0.698567 0.161112
Si Si6 0.053916 0.433459 0.338345
O O1 0.428211 0.820354 0.189958
O O2 0.335177 0.828083 0.217351
O O3 0.384375 0.043752 0.312635
O O4 0.379277 0.000000 0.000000
O O5 0.500000 0.230965 0.612436
O O6 0.590293 0.245725 0.514105
O O7 0.555798 0.447601 0.696718
O O8 0.167345 0.281802 0.168298
O O9 0.084199 0.291706 0.296594
O O10 0.250000 0.606399 0.750000
O O11 0.200208 0.710817 0.531431
O O12 0.175982 0.460707 0.697038
O O13 0.750000 0.720878 0.250000
O O14 0.076159 0.500000 0.500000
O O15 0.000000 0.381831 0.370174
#
# Coordination Sequence:
#
# PCOD8221818 Si02
#       6
#     8   8   8   8   8   8
#     4  12  25  44  65  99 136 187 231 283 356 421
#     4  11  26  46  68  99 138 183 236 293 357 420
#     4  12  24  40  68  97 140 177 227 283 348 422
#     4  10  23  43  70 102 131 176 228 284 345 410
#     4  10  23  45  70  97 137 176 230 285 343 413
#     4  10  22  42  70 100 130 175 231 288 348 412
#
# _framework density 22.407976999999999
#
# number of rings (size 3 to 8) (size 9 to 14) (size 15 to 20)
#    0.000    1.167    1.667    3.500    4.667    4.333 
#    3.000    0.000    0.000    0.000    0.000    0.000 
#    0.000    0.000    0.000    0.000    0.000    0.000 
#
# Total GULP energy -595194.697663 kJ/mol
# GULP energy per Si atom -12399.889535 kJ/mol
# Density = 2.235698 g / cm^3
# Si number density = 22.407977 Si / 1000 Ang^3
#
#
#
# Elastic Constant Matrix: (Units=GPa)
#
#
# Indices 1 2 3 4 5 6 
#
# 1 106.7262 46.5817 41.6992 0.0000 0.0000 0.0000
# 2 46.5817 104.2543 17.7108 0.0000 0.0000 0.0000
# 3 41.6992 17.7108 82.5498 0.0000 0.0000 0.0000
# 4 0.0000 0.0000 0.0000 29.4996 0.0000 0.0000
# 5 0.0000 0.0000 0.0000 0.0000 39.0826 0.0000
# 6 0.0000 0.0000 0.0000 0.0000 0.0000 15.2463
#
#
#
# Elastic Compliance Matrix: (Units=1/GPa)
#
#
# Indices 1 2 3 4 5 6 
#
# 1 0.013974 -0.005235 -0.005936 0.000000 0.000000 0.000000
# 2 -0.005235 0.011916 0.000088 0.000000 0.000000 0.000000
# 3 -0.005936 0.000088 0.015093 0.000000 0.000000 0.000000
# 4 0.000000 0.000000 0.000000 0.033899 0.000000 0.000000
# 5 0.000000 0.000000 0.000000 0.000000 0.025587 0.000000
# 6 0.000000 0.000000 0.000000 0.000000 0.000000 0.065590
#
#
# Mechanical properties :
#
#
# Convention : Reuss Voigt Hill
#
# Bulk Modulus (GPa) = 53.14171 56.16819 54.65495
# Shear Modulus (GPa) = 25.70734 29.26827 27.48780
#
# Velocity S-wave (km/s) = 3.39077 3.61800 3.50622
# Velocity P-wave (km/s) = 6.25274 6.52486 6.39025
#
# Compressibility (1/GPa) = 0.01881761
#
# Stress axis : x y z
#
# Youngs Moduli (GPa) = 71.56221 83.91962 66.25457
#
# Poissons Ratio (x) = 0.43934 0.39326
# Poissons Ratio (y) = 0.37465 -0.00583
# Poissons Ratio (z) = 0.42476 -0.00738
#
# Static dielectric constant tensor:
#      x y z
#    x 4.125900 0.000000 0.000000 
#    y 0.000000 4.246650 0.000000 
#    z 0.000000 0.000000 2.846230 
# 
# 
# High freq. dielectric constant tensor:
#      x y z
#    x 1.888120 0.000000 0.000000 
#    y 0.000000 1.886350 0.000000 
#    z 0.000000 0.000000 1.885010 
# 
# From -- ./inp_files/13018.got.cif
#   From: 2010.03.12/outbox.cif.g09.slc.cpg/sg53_7_cif.got.tgz:13018.got - 2010.04.16 14:36:59.
