data_PCOD8221229
_publ_section_title
;
Structure prediction by ZEFSAII (Michael W. Deem and Ramdas Pophale) SiO2 
 PCOD8221229
Probable space group: P M N A
;
_chemical_formula_sum "Si O2"
_cell_formula_units_Z 48
_cell_length_a 8.820211
_cell_length_b 18.367995
_cell_length_c 15.511931
_cell_angle_alpha 90.000000
_cell_angle_beta 90.000000
_cell_angle_gamma 90.000000
_cell_volume 2513.081605
_symmetry_space_group_name_H-M "P M N A"
_symmetry_group_IT_number 53
_symmetry_cell_setting 'orthorhombic'
loop_
_space_group_symop_operation_xyz
x,y,z
1/2-x,-y,1/2+z
x,-y,-z
1/2-x,y,1/2-z
-x,-y,-z
1/2+x,y,1/2-z
-x,y,z
1/2+x,-y,1/2+z
loop_
_atom_site_type_symbol
_atom_site_label
_atom_site_fract_x
_atom_site_fract_y
_atom_site_fract_z
Si Si1 0.176101 0.932745 0.339002
Si Si2 0.319585 0.676266 0.488182
Si Si3 0.334461 0.463478 0.592559
Si Si4 0.320318 0.160729 0.511428
Si Si5 0.176830 0.896791 0.660457
Si Si6 0.319102 0.391808 0.336822
O O1 0.250000 0.905222 0.250000
O O2 0.251805 0.893670 0.419479
O O3 0.000000 0.913279 0.336364
O O4 0.205486 0.017767 0.352390
O O5 0.500000 0.667727 0.486983
O O6 0.251216 0.615471 0.420799
O O7 0.270500 0.757439 0.461824
O O8 0.262164 0.659208 0.585036
O O9 0.354499 0.500000 0.500000
O O10 0.500000 0.448176 0.632758
O O11 0.253142 0.524862 0.651592
O O12 0.500000 0.151659 0.509384
O O13 0.257159 0.145013 0.416883
O O14 0.250000 0.870118 0.750000
O O15 0.000000 0.877934 0.661217
O O16 0.250000 0.358241 0.250000
O O17 0.500000 0.393098 0.332297
#
# Coordination Sequence:
#
# PCOD8221229 Si02
#       6
#     8   8   8   8   8   8
#     4  10  21  38  58  78 101 133 176 223 266 310
#     4   8  16  30  47  69  96 129 166 199 239 296
#     4   7  11  24  46  65  83 115 158 195 225 268
#     4  11  21  33  53  80 110 142 174 211 260 318
#     4  10  21  37  56  78 105 137 176 220 262 309
#     4   9  16  28  48  71  94 123 161 203 245 291
#
# _framework density 19.100055999999999
#
# number of rings (size 3 to 8) (size 9 to 14) (size 15 to 20)
#    0.000    2.833    0.000    4.000    0.000    4.667 
#    0.000    4.167    0.000    8.500    0.000    0.000 
#    0.000    0.000    0.000    0.000    0.000    0.000 
#
# Total GULP energy -594717.642006 kJ/mol
# GULP energy per Si atom -12389.950875 kJ/mol
# Density = 1.905658 g / cm^3
# Si number density = 19.100056 Si / 1000 Ang^3
#
#
#
# Elastic Constant Matrix: (Units=GPa)
#
#
# Indices 1 2 3 4 5 6 
#
# 1 59.8154 29.5185 18.7596 0.0000 0.0000 0.0000
# 2 29.5185 61.9209 8.4105 0.0000 0.0000 0.0000
# 3 18.7596 8.4105 53.0088 0.0000 0.0000 0.0000
# 4 0.0000 0.0000 0.0000 16.0836 0.0000 0.0000
# 5 0.0000 0.0000 0.0000 0.0000 32.0924 0.0000
# 6 0.0000 0.0000 0.0000 0.0000 0.0000 12.4190
#
#
#
# Elastic Compliance Matrix: (Units=1/GPa)
#
#
# Indices 1 2 3 4 5 6 
#
# 1 0.024068 -0.010544 -0.006845 0.000000 0.000000 0.000000
# 2 -0.010544 0.021124 0.000380 0.000000 0.000000 0.000000
# 3 -0.006845 0.000380 0.021227 0.000000 0.000000 0.000000
# 4 0.000000 0.000000 0.000000 0.062175 0.000000 0.000000
# 5 0.000000 0.000000 0.000000 0.000000 0.031160 0.000000
# 6 0.000000 0.000000 0.000000 0.000000 0.000000 0.080522
#
#
# Mechanical properties :
#
#
# Convention : Reuss Voigt Hill
#
# Bulk Modulus (GPa) = 30.86246 32.01358 31.43802
# Shear Modulus (GPa) = 17.53805 19.98945 18.76375
#
# Velocity S-wave (km/s) = 3.03350 3.23858 3.13771
# Velocity P-wave (km/s) = 5.33506 5.54814 5.44264
#
# Compressibility (1/GPa) = 0.03240183
#
# Stress axis : x y z
#
# Youngs Moduli (GPa) = 41.54879 47.33855 47.11015
#
# Poissons Ratio (x) = 0.49913 0.32245
# Poissons Ratio (y) = 0.43808 -0.01789
# Poissons Ratio (z) = 0.28439 -0.01798
#
# Static dielectric constant tensor:
#      x y z
#    x 3.194960 0.000000 0.000000 
#    y 0.000000 3.794000 0.000000 
#    z 0.000000 0.000000 3.532700 
# 
# 
# High freq. dielectric constant tensor:
#      x y z
#    x 1.711030 0.000000 0.000000 
#    y 0.000000 1.746480 0.000000 
#    z 0.000000 0.000000 1.734720 
# 
# From -- ./inp_files/20222.got.cif
#   From: 2010.03.12/outbox.cif.g09.slc.cpg/sg53_11_cif.got.tgz:20222.got - 2010.04.16 14:36:59.
