data_PCOD8221762
_publ_section_title
;
Structure prediction by ZEFSAII (Michael W. Deem and Ramdas Pophale) SiO2 
 PCOD8221762
Probable space group: P M N A
;
_chemical_formula_sum "Si O2"
_cell_formula_units_Z 32
_cell_length_a 13.053729
_cell_length_b 9.233518
_cell_length_c 13.547163
_cell_angle_alpha 90.000000
_cell_angle_beta 90.000000
_cell_angle_gamma 90.000000
_cell_volume 1632.864506
_symmetry_space_group_name_H-M "P M N A"
_symmetry_group_IT_number 53
_symmetry_cell_setting 'orthorhombic'
loop_
_space_group_symop_operation_xyz
x,y,z
1/2-x,-y,1/2+z
x,-y,-z
1/2-x,y,1/2-z
-x,-y,-z
1/2+x,y,1/2-z
-x,y,z
1/2+x,-y,1/2+z
loop_
_atom_site_type_symbol
_atom_site_label
_atom_site_fract_x
_atom_site_fract_y
_atom_site_fract_z
Si Si1 0.384388 0.009068 0.616485
Si Si2 0.750000 0.180597 0.250000
Si Si3 0.616784 0.660468 0.361493
Si Si4 0.254894 0.500000 0.000000
Si Si5 0.119399 0.562867 0.691055
O O1 0.500000 0.954468 0.643852
O O2 0.291055 0.917317 0.660952
O O3 0.370255 0.000000 0.500000
O O4 0.371064 0.170244 0.660992
O O5 0.848713 0.279436 0.271341
O O6 0.500000 0.620719 0.386352
O O7 0.682512 0.628003 0.459565
O O8 0.653870 0.562439 0.268451
O O9 0.326367 0.551560 0.913045
O O10 0.000000 0.555549 0.672432
#
# Coordination Sequence:
#
# PCOD8221762 Si02
#       5
#     8   4   8   4   8
#     4  10  23  41  63  92 123 159 201 251 306 364
#     4  12  22  40  64  86 126 162 202 248 300 370
#     4  10  22  40  64  93 122 156 208 257 301 357
#     4  12  20  38  66  90 116 162 200 254 300 356
#     4  11  24  40  60  91 123 161 204 254 301 355
#
# _framework density 19.597462
#
# number of rings (size 3 to 8) (size 9 to 14) (size 15 to 20)
#    0.000    1.250    2.500    3.000    3.500    0.000 
#    0.000    0.000    0.000    3.000    0.000    0.000 
#    0.000    0.000    0.000    0.000    0.000    0.000 
#
# Total GULP energy -396642.338517 kJ/mol
# GULP energy per Si atom -12395.073079 kJ/mol
# Density = 1.955286 g / cm^3
# Si number density = 19.597462 Si / 1000 Ang^3
#
#
#
# Elastic Constant Matrix: (Units=GPa)
#
#
# Indices 1 2 3 4 5 6 
#
# 1 102.1697 43.2840 56.5864 0.0000 0.0000 0.0000
# 2 43.2840 102.4545 51.7917 0.0000 0.0000 0.0000
# 3 56.5864 51.7917 119.0919 0.0000 0.0000 0.0000
# 4 0.0000 0.0000 0.0000 25.3038 0.0000 0.0000
# 5 0.0000 0.0000 0.0000 0.0000 34.1879 0.0000
# 6 0.0000 0.0000 0.0000 0.0000 0.0000 44.1249
#
#
#
# Elastic Compliance Matrix: (Units=1/GPa)
#
#
# Indices 1 2 3 4 5 6 
#
# 1 0.014101 -0.003294 -0.005267 0.000000 0.000000 0.000000
# 2 -0.003294 0.013281 -0.004210 0.000000 0.000000 0.000000
# 3 -0.005267 -0.004210 0.012730 0.000000 0.000000 0.000000
# 4 0.000000 0.000000 0.000000 0.039520 0.000000 0.000000
# 5 0.000000 0.000000 0.000000 0.000000 0.029250 0.000000
# 6 0.000000 0.000000 0.000000 0.000000 0.000000 0.022663
#
#
# Mechanical properties :
#
#
# Convention : Reuss Voigt Hill
#
# Bulk Modulus (GPa) = 68.64362 69.67115 69.15739
# Shear Modulus (GPa) = 30.87488 32.19358 31.53423
#
# Velocity S-wave (km/s) = 3.97350 4.05747 4.01571
# Velocity P-wave (km/s) = 7.49363 7.58809 7.54101
#
# Compressibility (1/GPa) = 0.01456800
#
# Stress axis : x y z
#
# Youngs Moduli (GPa) = 70.91934 75.29816 78.55155
#
# Poissons Ratio (x) = 0.24807 0.41374
# Poissons Ratio (y) = 0.23364 0.33072
# Poissons Ratio (z) = 0.37354 0.31702
#
# Static dielectric constant tensor:
#      x y z
#    x 3.747570 0.000000 0.000000 
#    y 0.000000 3.744130 0.000000 
#    z 0.000000 0.000000 3.611470 
# 
# 
# High freq. dielectric constant tensor:
#      x y z
#    x 1.781080 0.000000 0.000000 
#    y 0.000000 1.763290 0.000000 
#    z 0.000000 0.000000 1.760520 
# 
# From -- ./inp_files/15541.got.cif
#   From: 2010.03.12/outbox.cif.g09.slc.cpg/sg53_8_cif.got.tgz:15541.got - 2010.04.16 14:36:59.
