data_PCOD8221128
_publ_section_title
;
Structure prediction by ZEFSAII (Michael W. Deem and Ramdas Pophale) SiO2 
 PCOD8221128
Probable space group: P M N A
;
_chemical_formula_sum "Si O2"
_cell_formula_units_Z 64
_cell_length_a 8.970783
_cell_length_b 20.986592
_cell_length_c 18.378556
_cell_angle_alpha 90.000000
_cell_angle_beta 90.000000
_cell_angle_gamma 90.000000
_cell_volume 3460.060215
_symmetry_space_group_name_H-M "P M N A"
_symmetry_group_IT_number 53
_symmetry_cell_setting 'orthorhombic'
loop_
_space_group_symop_operation_xyz
x,y,z
1/2-x,-y,1/2+z
x,-y,-z
1/2-x,y,1/2-z
-x,-y,-z
1/2+x,y,1/2-z
-x,y,z
1/2+x,-y,1/2+z
loop_
_atom_site_type_symbol
_atom_site_label
_atom_site_fract_x
_atom_site_fract_y
_atom_site_fract_z
Si Si1 0.830680 0.192840 0.541205
Si Si2 0.328570 0.495263 0.915161
Si Si3 0.174447 0.751627 0.176478
Si Si4 0.674652 0.246084 0.111942
Si Si5 0.822637 0.876344 0.825479
Si Si6 0.172659 0.063751 0.460192
Si Si7 0.674756 0.393849 0.676722
Si Si8 0.324606 0.381639 0.172830
O O1 0.723013 0.206374 0.608210
O O2 0.792056 0.239432 0.473885
O O3 0.803460 0.120546 0.517119
O O4 0.000000 0.203829 0.566819
O O5 0.500000 0.481718 0.895446
O O6 0.230232 0.436020 0.889863
O O7 0.273011 0.560712 0.878660
O O8 0.302919 0.500000 0.000000
O O9 0.250000 0.777697 0.250000
O O10 0.223613 0.678798 0.162030
O O11 0.000000 0.758166 0.187084
O O12 0.500000 0.233187 0.127259
O O13 0.768731 0.195249 0.157599
O O14 0.727814 0.315842 0.136023
O O15 0.750000 0.899311 0.750000
O O16 0.770109 0.925019 0.888143
O O17 0.000000 0.877519 0.819369
O O18 0.000000 0.059158 0.436517
O O19 0.227891 0.000000 0.500000
O O20 0.750000 0.420198 0.750000
O O21 0.500000 0.400739 0.685819
O O22 0.250000 0.391084 0.250000
O O23 0.500000 0.381168 0.183868
#
# Coordination Sequence:
#
# PCOD8221128 Si02
#       8
#     8   8   8   8   8   8   8   8
#     4   9  18  33  57  84 110 141 174 219 270 317
#     4  10  22  37  55  77 103 138 181 225 272 327
#     4  10  21  36  55  80 108 140 181 227 274 325
#     4   9  19  35  55  80 110 142 180 221 271 328
#     4  11  21  34  55  83 115 148 187 229 270 318
#     4   9  19  38  61  84 113 149 186 223 268 322
#     4  10  21  37  56  77 102 136 178 225 274 325
#     4  10  21  36  53  77 105 138 176 218 269 325
#
# _framework density 18.496787000000001
#
# number of rings (size 3 to 8) (size 9 to 14) (size 15 to 20)
#    0.000    2.250    0.000    3.375    1.750    7.000 
#    0.000    0.625    0.000    0.000    0.000    0.000 
#    0.000    0.000    0.000    0.000    0.000    0.000 
#
# Total GULP energy -793843.298223 kJ/mol
# GULP energy per Si atom -12403.801535 kJ/mol
# Density = 1.845469 g / cm^3
# Si number density = 18.496787 Si / 1000 Ang^3
#
#
#
# Elastic Constant Matrix: (Units=GPa)
#
#
# Indices 1 2 3 4 5 6 
#
# 1 80.9660 35.9288 54.9060 0.0000 0.0000 0.0000
# 2 35.9288 93.0342 65.1360 0.0000 0.0000 0.0000
# 3 54.9060 65.1360 127.7382 0.0000 0.0000 0.0000
# 4 0.0000 0.0000 0.0000 29.2003 0.0000 0.0000
# 5 0.0000 0.0000 0.0000 0.0000 37.1323 0.0000
# 6 0.0000 0.0000 0.0000 0.0000 0.0000 21.6800
#
#
#
# Elastic Compliance Matrix: (Units=1/GPa)
#
#
# Indices 1 2 3 4 5 6 
#
# 1 0.017758 -0.002354 -0.006432 0.000000 0.000000 0.000000
# 2 -0.002354 0.017029 -0.007671 0.000000 0.000000 0.000000
# 3 -0.006432 -0.007671 0.014505 0.000000 0.000000 0.000000
# 4 0.000000 0.000000 0.000000 0.034246 0.000000 0.000000
# 5 0.000000 0.000000 0.000000 0.000000 0.026931 0.000000
# 6 0.000000 0.000000 0.000000 0.000000 0.000000 0.046125
#
#
# Mechanical properties :
#
#
# Convention : Reuss Voigt Hill
#
# Bulk Modulus (GPa) = 61.06650 68.18666 64.62658
# Shear Modulus (GPa) = 25.64517 27.32036 26.48276
#
# Velocity S-wave (km/s) = 3.72757 3.84739 3.78795
# Velocity P-wave (km/s) = 7.18420 7.52865 7.35844
#
# Compressibility (1/GPa) = 0.01637559
#
# Stress axis : x y z
#
# Youngs Moduli (GPa) = 56.31413 58.72359 68.94146
#
# Poissons Ratio (x) = 0.13826 0.44345
# Poissons Ratio (y) = 0.13258 0.52888
# Poissons Ratio (z) = 0.36222 0.45049
#
# Static dielectric constant tensor:
#      x y z
#    x 3.323350 0.000000 0.000000 
#    y 0.000000 3.431040 0.000000 
#    z 0.000000 0.000000 3.384610 
# 
# 
# High freq. dielectric constant tensor:
#      x y z
#    x 1.714080 0.000000 0.000000 
#    y 0.000000 1.710920 0.000000 
#    z 0.000000 0.000000 1.723890 
# 
# From -- ./inp_files/26935.got.cif
#   From: 2010.03.12/outbox.cif.g09.slc.cpg/sg53_14_cif.got.tgz:26935.got - 2010.04.16 14:36:59.
