data_PCOD8221836
_publ_section_title
;
Structure prediction by ZEFSAII (Michael W. Deem and Ramdas Pophale) SiO2 
 PCOD8221836
Probable space group: P M N A
;
_chemical_formula_sum "Si O2"
_cell_formula_units_Z 40
_cell_length_a 14.040765
_cell_length_b 10.943134
_cell_length_c 11.070510
_cell_angle_alpha 90.000000
_cell_angle_beta 90.000000
_cell_angle_gamma 90.000000
_cell_volume 1700.983561
_symmetry_space_group_name_H-M "P M N A"
_symmetry_group_IT_number 53
_symmetry_cell_setting 'orthorhombic'
loop_
_space_group_symop_operation_xyz
x,y,z
1/2-x,-y,1/2+z
x,-y,-z
1/2-x,y,1/2-z
-x,-y,-z
1/2+x,y,1/2-z
-x,y,z
1/2+x,-y,1/2+z
loop_
_atom_site_type_symbol
_atom_site_label
_atom_site_fract_x
_atom_site_fract_y
_atom_site_fract_z
Si Si1 0.686426 0.813202 0.641185
Si Si2 0.783361 0.179098 0.595235
Si Si3 0.391140 0.555446 0.622844
Si Si4 0.111923 0.431733 0.626650
Si Si5 0.108869 0.066647 0.784340
O O1 0.750000 0.770072 0.750000
O O2 0.768380 0.843298 0.544779
O O3 0.618078 0.701146 0.609523
O O4 0.621195 0.931343 0.663105
O O5 0.826768 0.309690 0.626098
O O6 0.676461 0.166666 0.651180
O O7 0.854758 0.072960 0.645209
O O8 0.341167 0.500000 0.500000
O O9 0.500000 0.516797 0.619148
O O10 0.352931 0.507958 0.754109
O O11 0.133448 0.500000 0.500000
O O12 0.000000 0.400397 0.634296
O O13 0.000000 0.107468 0.799263
#
# Coordination Sequence:
#
# PCOD8221836 Si02
#       5
#     8   8   8   8   8
#     4  12  25  45  72 107 149 191 244 308 371 438
#     4  11  25  46  75 105 147 192 250 305 370 450
#     4  10  24  43  70 110 148 190 247 303 368 446
#     4  10  22  46  76 110 152 199 248 305 379 456
#     4  11  26  48  75 104 144 195 248 305 370 442
#
# _framework density 23.515808
#
# number of rings (size 3 to 8) (size 9 to 14) (size 15 to 20)
#    0.000    1.200    2.000    3.000    5.600    4.800 
#    0.000    4.000    0.000    0.600    0.000    0.000 
#    0.000    0.000    0.000    0.000    0.000    0.000 
#
# Total GULP energy -495641.337242 kJ/mol
# GULP energy per Si atom -12391.033431 kJ/mol
# Density = 2.346228 g / cm^3
# Si number density = 23.515808 Si / 1000 Ang^3
#
#
#
# Elastic Constant Matrix: (Units=GPa)
#
#
# Indices 1 2 3 4 5 6 
#
# 1 134.7675 64.3214 38.2883 0.0000 0.0000 0.0000
# 2 64.3214 150.1021 77.0242 0.0000 0.0000 0.0000
# 3 38.2883 77.0242 194.3522 0.0000 0.0000 0.0000
# 4 0.0000 0.0000 0.0000 41.3051 0.0000 0.0000
# 5 0.0000 0.0000 0.0000 0.0000 2.0223 0.0000
# 6 0.0000 0.0000 0.0000 0.0000 0.0000 44.1808
#
#
#
# Elastic Compliance Matrix: (Units=1/GPa)
#
#
# Indices 1 2 3 4 5 6 
#
# 1 0.009344 -0.003840 -0.000319 0.000000 0.000000 0.000000
# 2 -0.003840 0.009941 -0.003183 0.000000 0.000000 0.000000
# 3 -0.000319 -0.003183 0.006470 0.000000 0.000000 0.000000
# 4 0.000000 0.000000 0.000000 0.024210 0.000000 0.000000
# 5 0.000000 0.000000 0.000000 0.000000 0.494479 0.000000
# 6 0.000000 0.000000 0.000000 0.000000 0.000000 0.022634
#
#
# Mechanical properties :
#
#
# Convention : Reuss Voigt Hill
#
# Bulk Modulus (GPa) = 90.33583 93.16552 91.75068
# Shear Modulus (GPa) = 8.54039 37.47417 23.00728
#
# Velocity S-wave (km/s) = 1.90779 3.99629 3.13129
# Velocity P-wave (km/s) = 6.58416 7.81012 7.22320
#
# Compressibility (1/GPa) = 0.01106980
#
# Stress axis : x y z
#
# Youngs Moduli (GPa) = 107.02447 100.59071 154.56730
#
# Poissons Ratio (x) = 0.38630 0.04927
# Poissons Ratio (y) = 0.41101 0.49203
# Poissons Ratio (z) = 0.03412 0.32021
#
# Static dielectric constant tensor:
#      x y z
#    x 3.914520 0.000000 0.000000 
#    y 0.000000 3.935430 0.000000 
#    z 0.000000 0.000000 5.488620 
# 
# 
# High freq. dielectric constant tensor:
#      x y z
#    x 1.925350 0.000000 0.000000 
#    y 0.000000 1.931930 0.000000 
#    z 0.000000 0.000000 1.952710 
# 
# From -- ./inp_files/15768.got.cif
#   From: 2010.03.12/outbox.cif.g09.slc.cpg/sg53_8_cif.got.tgz:15768.got - 2010.04.16 14:36:59.
