data_PCOD8221455
_publ_section_title
;
Structure prediction by ZEFSAII (Michael W. Deem and Ramdas Pophale) SiO2 
 PCOD8221455
Probable space group: P M N A
;
_chemical_formula_sum "Si O2"
_cell_formula_units_Z 36
_cell_length_a 14.331413
_cell_length_b 7.381690
_cell_length_c 16.237531
_cell_angle_alpha 90.000000
_cell_angle_beta 90.000000
_cell_angle_gamma 90.000000
_cell_volume 1717.769184
_symmetry_space_group_name_H-M "P M N A"
_symmetry_group_IT_number 53
_symmetry_cell_setting 'orthorhombic'
loop_
_space_group_symop_operation_xyz
x,y,z
1/2-x,-y,1/2+z
x,-y,-z
1/2-x,y,1/2-z
-x,-y,-z
1/2+x,y,1/2-z
-x,y,z
1/2+x,-y,1/2+z
loop_
_atom_site_type_symbol
_atom_site_label
_atom_site_fract_x
_atom_site_fract_y
_atom_site_fract_z
Si Si1 0.266512 0.845122 0.444779
Si Si2 0.893183 0.731887 0.204536
Si Si3 0.607580 0.023819 0.159237
Si Si4 0.607684 0.570932 0.826505
Si Si5 0.818703 0.500000 0.500000
O O1 0.333652 0.762231 0.376559
O O2 0.243519 0.680054 0.505900
O O3 0.317004 0.000000 0.500000
O O4 0.170855 0.930359 0.409726
O O5 0.849142 0.564160 0.257307
O O6 0.000000 0.693925 0.179175
O O7 0.885379 0.915023 0.256364
O O8 0.500000 0.029428 0.127095
O O9 0.647145 0.225121 0.178672
O O10 0.500000 0.574879 0.806082
O O11 0.620478 0.486128 0.917136
#
# Coordination Sequence:
#
# PCOD8221455 Si02
#       5
#     8   8   8   8   4
#     4  12  25  41  60  96 133 172 213 262 328 386
#     4  10  23  44  66  89 124 172 223 267 312 379
#     4  10  21  39  65  95 125 164 209 262 324 388
#     4  10  21  38  63  93 125 163 210 266 326 386
#     4  12  23  36  57  96 128 166 202 268 328 386
#
# _framework density 20.957415999999998
#
# number of rings (size 3 to 8) (size 9 to 14) (size 15 to 20)
#    0.000    1.333    4.444    1.000    0.000    3.556 
#    4.000    0.556    0.000    0.000    0.000    0.000 
#    0.000    0.000    0.000    0.000    0.000    0.000 
#
# Total GULP energy -446329.228188 kJ/mol
# GULP energy per Si atom -12398.034116 kJ/mol
# Density = 2.090972 g / cm^3
# Si number density = 20.957416 Si / 1000 Ang^3
#
#
#
# Elastic Constant Matrix: (Units=GPa)
#
#
# Indices 1 2 3 4 5 6 
#
# 1 54.5718 32.5986 35.6841 0.0000 0.0000 0.0000
# 2 32.5986 172.6501 52.0926 0.0000 0.0000 0.0000
# 3 35.6841 52.0926 103.8701 0.0000 0.0000 0.0000
# 4 0.0000 0.0000 0.0000 42.9014 0.0000 0.0000
# 5 0.0000 0.0000 0.0000 0.0000 22.4604 0.0000
# 6 0.0000 0.0000 0.0000 0.0000 0.0000 10.8892
#
#
#
# Elastic Compliance Matrix: (Units=1/GPa)
#
#
# Indices 1 2 3 4 5 6 
#
# 1 0.024487 -0.002457 -0.007180 0.000000 0.000000 0.000000
# 2 -0.002457 0.007071 -0.002702 0.000000 0.000000 0.000000
# 3 -0.007180 -0.002702 0.013449 0.000000 0.000000 0.000000
# 4 0.000000 0.000000 0.000000 0.023309 0.000000 0.000000
# 5 0.000000 0.000000 0.000000 0.000000 0.044523 0.000000
# 6 0.000000 0.000000 0.000000 0.000000 0.000000 0.091834
#
#
# Mechanical properties :
#
#
# Convention : Reuss Voigt Hill
#
# Bulk Modulus (GPa) = 49.19115 63.53808 56.36461
# Shear Modulus (GPa) = 21.17483 29.29798 25.23640
#
# Velocity S-wave (km/s) = 3.18209 3.74301 3.47389
# Velocity P-wave (km/s) = 6.08472 7.00455 6.56077
#
# Compressibility (1/GPa) = 0.02032886
#
# Stress axis : x y z
#
# Youngs Moduli (GPa) = 40.83737 141.41614 74.35282
#
# Poissons Ratio (x) = 0.34747 0.53387
# Poissons Ratio (y) = 0.10034 0.20092
# Poissons Ratio (z) = 0.29322 0.38214
#
# Static dielectric constant tensor:
#      x y z
#    x 3.595780 0.000000 0.000000 
#    y 0.000000 4.634160 0.000000 
#    z 0.000000 0.000000 3.579520 
# 
# 
# High freq. dielectric constant tensor:
#      x y z
#    x 1.796480 0.000000 0.000000 
#    y 0.000000 1.848250 0.000000 
#    z 0.000000 0.000000 1.808470 
# 
# From -- ./inp_files/22315.got.cif
#   From: 2010.03.12/outbox.cif.g09.slc.cpg/sg53_12_cif.got.tgz:22315.got - 2010.04.16 14:36:59.
