data_PCOD8221665
_publ_section_title
;
Structure prediction by ZEFSAII (Michael W. Deem and Ramdas Pophale) SiO2 
 PCOD8221665
Probable space group: P M N A
;
_chemical_formula_sum "Si O2"
_cell_formula_units_Z 48
_cell_length_a 8.724295
_cell_length_b 10.223316
_cell_length_c 28.136080
_cell_angle_alpha 90.000000
_cell_angle_beta 90.000000
_cell_angle_gamma 90.000000
_cell_volume 2509.491432
_symmetry_space_group_name_H-M "P M N A"
_symmetry_group_IT_number 53
_symmetry_cell_setting 'orthorhombic'
loop_
_space_group_symop_operation_xyz
x,y,z
1/2-x,-y,1/2+z
x,-y,-z
1/2-x,y,1/2-z
-x,-y,-z
1/2+x,y,1/2-z
-x,y,z
1/2+x,-y,1/2+z
loop_
_atom_site_type_symbol
_atom_site_label
_atom_site_fract_x
_atom_site_fract_y
_atom_site_fract_z
Si Si1 0.182049 0.774095 0.657366
Si Si2 0.681283 0.872502 0.942660
Si Si3 0.318876 0.834934 0.046423
Si Si4 0.818124 0.488490 0.198556
Si Si5 0.318079 0.968111 0.299650
Si Si6 0.179711 0.272887 0.864751
O O1 0.238917 0.790524 0.602729
O O2 0.262781 0.648725 0.678600
O O3 0.000000 0.759364 0.661260
O O4 0.235213 0.897413 0.687693
O O5 0.500000 0.883818 0.941756
O O6 0.745351 0.020670 0.940415
O O7 0.732417 0.802930 0.992003
O O8 0.500000 0.828829 0.051396
O O9 0.248200 0.728580 0.082109
O O10 0.750000 0.516444 0.250000
O O11 0.756494 0.601698 0.163492
O O12 0.000000 0.488940 0.202595
O O13 0.250000 0.918242 0.250000
O O14 0.500000 0.988049 0.296486
O O15 0.271249 0.859284 0.337983
O O16 0.000000 0.284492 0.869130
#
# Coordination Sequence:
#
# PCOD8221665 Si02
#       6
#     8   8   8   8   8   8
#     4  11  21  37  59  84 112 146 186 229 278 331
#     4   8  16  31  55  86 115 144 182 228 274 325
#     4   9  16  32  58  85 113 146 184 228 275 325
#     4  11  24  42  59  79 111 151 191 233 279 334
#     4  11  22  36  55  81 110 141 182 232 281 331
#     4  10  22  38  56  82 114 145 184 231 281 332
#
# _framework density 19.127382000000001
#
# number of rings (size 3 to 8) (size 9 to 14) (size 15 to 20)
#    0.000    2.000    1.667    3.500    0.000    2.000 
#    0.000    4.167    0.000    5.000    0.000    0.000 
#    0.000    0.000    0.000    0.000    0.000    0.000 
#
# Total GULP energy -595164.619723 kJ/mol
# GULP energy per Si atom -12399.262911 kJ/mol
# Density = 1.908385 g / cm^3
# Si number density = 19.127382 Si / 1000 Ang^3
#
#
#
# Elastic Constant Matrix: (Units=GPa)
#
#
# Indices 1 2 3 4 5 6 
#
# 1 37.5466 7.9645 11.0908 0.0000 0.0000 0.0000
# 2 7.9645 47.0159 -18.2244 0.0000 0.0000 0.0000
# 3 11.0908 -18.2244 67.5318 0.0000 0.0000 0.0000
# 4 0.0000 0.0000 0.0000 34.7732 0.0000 0.0000
# 5 0.0000 0.0000 0.0000 0.0000 28.8630 0.0000
# 6 0.0000 0.0000 0.0000 0.0000 0.0000 -3.9154
#
#
#
# Elastic Compliance Matrix: (Units=1/GPa)
#
#
# Indices 1 2 3 4 5 6 
#
# 1 0.030420 -0.007918 -0.007133 0.000000 0.000000 0.000000
# 2 -0.007918 0.025815 0.008267 0.000000 0.000000 0.000000
# 3 -0.007133 0.008267 0.018210 0.000000 0.000000 0.000000
# 4 0.000000 0.000000 0.000000 0.028758 0.000000 0.000000
# 5 0.000000 0.000000 0.000000 0.000000 0.034646 0.000000
# 6 0.000000 0.000000 0.000000 0.000000 0.000000 -0.255401
#
#
# Mechanical properties :
#
#
# Convention : Reuss Voigt Hill
#
# Bulk Modulus (GPa) = 16.42627 17.08401 16.75514
# Shear Modulus (GPa) = -59.74333 22.02838 -18.85747
#
# Velocity S-wave (km/s) = -5.59484 3.39730 -3.14329
# Velocity P-wave (km/s) = 5.75586 4.93356 2.09641
#
# Compressibility (1/GPa) = 0.06087809
#
# Stress axis : x y z
#
# Youngs Moduli (GPa) = 32.87304 38.73690 54.91426
#
# Poissons Ratio (x) = 0.30672 0.39169
# Poissons Ratio (y) = 0.26029 -0.45397
# Poissons Ratio (z) = 0.23447 -0.32024
#
# Static dielectric constant tensor:
#      x y z
#    x 3.310030 0.000000 0.000000 
#    y 0.000000 3.454930 0.000000 
#    z 0.000000 0.000000 4.035910 
# 
# 
# High freq. dielectric constant tensor:
#      x y z
#    x 1.729830 0.000000 0.000000 
#    y 0.000000 1.727110 0.000000 
#    z 0.000000 0.000000 1.764690 
# 
# From -- ./inp_files/37695.got.cif
#   From: 2010.03.12/outbox.cif.g09.slc.cpg/sg53_19_cif.got.tgz:37695.got - 2010.04.16 14:36:59.
