data_PCOD8221152
_publ_section_title
;
Structure prediction by ZEFSAII (Michael W. Deem and Ramdas Pophale) SiO2 
 PCOD8221152
Probable space group: P M N A
;
_chemical_formula_sum "Si O2"
_cell_formula_units_Z 64
_cell_length_a 8.708701
_cell_length_b 21.152638
_cell_length_c 18.441370
_cell_angle_alpha 90.000000
_cell_angle_beta 90.000000
_cell_angle_gamma 90.000000
_cell_volume 3397.121645
_symmetry_space_group_name_H-M "P M N A"
_symmetry_group_IT_number 53
_symmetry_cell_setting 'orthorhombic'
loop_
_space_group_symop_operation_xyz
x,y,z
1/2-x,-y,1/2+z
x,-y,-z
1/2-x,y,1/2-z
-x,-y,-z
1/2+x,y,1/2-z
-x,y,z
1/2+x,-y,1/2+z
loop_
_atom_site_type_symbol
_atom_site_label
_atom_site_fract_x
_atom_site_fract_y
_atom_site_fract_z
Si Si1 0.680637 0.691352 0.537840
Si Si2 0.180632 0.879591 0.328690
Si Si3 0.820898 0.568711 0.473889
Si Si4 0.682763 0.249462 0.900414
Si Si5 0.177076 0.003489 0.415061
Si Si6 0.823041 0.375305 0.675663
Si Si7 0.682132 0.245413 0.172685
Si Si8 0.180567 0.111088 0.173999
O O1 0.500000 0.699265 0.546383
O O2 0.721047 0.619888 0.516278
O O3 0.741497 0.741712 0.478997
O O4 0.762231 0.704095 0.614093
O O5 0.250000 0.889593 0.250000
O O6 0.243328 0.815580 0.365747
O O7 0.000000 0.874627 0.320099
O O8 0.229592 0.937686 0.379392
O O9 0.768203 0.500000 0.500000
O O10 0.788677 0.574093 0.387748
O O11 0.000000 0.581613 0.490267
O O12 0.500000 0.250683 0.911208
O O13 0.739442 0.306398 0.848437
O O14 0.284523 0.058976 0.386130
O O15 0.000000 0.018364 0.396325
O O16 0.204447 0.000000 0.500000
O O17 0.750000 0.399431 0.750000
O O18 0.000000 0.368949 0.691849
O O19 0.750000 0.265871 0.250000
O O20 0.500000 0.244271 0.177253
O O21 0.742414 0.176449 0.149706
O O22 0.250000 0.087212 0.250000
O O23 0.000000 0.121381 0.182428
#
# Coordination Sequence:
#
# PCOD8221152 Si02
#       8
#     8   8   8   8   8   8   8   8
#     4  11  22  36  57  88 119 148 184 230 283 335
#     4  10  21  36  55  79 108 144 186 231 282 339
#     4   9  19  38  60  81 111 156 200 233 275 332
#     4   9  19  35  54  79 109 147 188 226 276 338
#     4  10  22  38  55  79 109 148 192 234 285 340
#     4   9  17  30  51  79 109 141 183 229 276 330
#     4  11  22  39  62  86 114 147 187 236 287 340
#     4  11  22  38  59  83 109 143 187 234 288 343
#
# _framework density 18.839478
#
# number of rings (size 3 to 8) (size 9 to 14) (size 15 to 20)
#    0.000    2.000    0.000    5.625    1.750    4.500 
#    0.000    0.625    0.000    1.500    0.000    0.000 
#    0.000    0.000    0.000    0.000    0.000    0.000 
#
# Total GULP energy -793799.316629 kJ/mol
# GULP energy per Si atom -12403.114322 kJ/mol
# Density = 1.879660 g / cm^3
# Si number density = 18.839478 Si / 1000 Ang^3
#
#
#
# Elastic Constant Matrix: (Units=GPa)
#
#
# Indices 1 2 3 4 5 6 
#
# 1 95.5462 32.3432 47.8155 0.0000 0.0000 0.0000
# 2 32.3432 92.4910 68.6567 0.0000 0.0000 0.0000
# 3 47.8155 68.6567 135.8740 0.0000 0.0000 0.0000
# 4 0.0000 0.0000 0.0000 29.7400 0.0000 0.0000
# 5 0.0000 0.0000 0.0000 0.0000 34.8650 0.0000
# 6 0.0000 0.0000 0.0000 0.0000 0.0000 -115.2948
#
#
#
# Elastic Compliance Matrix: (Units=1/GPa)
#
#
# Indices 1 2 3 4 5 6 
#
# 1 0.012893 -0.001825 -0.003615 0.000000 0.000000 0.000000
# 2 -0.001825 0.017560 -0.008231 0.000000 0.000000 0.000000
# 3 -0.003615 -0.008231 0.012791 0.000000 0.000000 0.000000
# 4 0.000000 0.000000 0.000000 0.033625 0.000000 0.000000
# 5 0.000000 0.000000 0.000000 0.000000 0.028682 0.000000
# 6 0.000000 0.000000 0.000000 0.000000 0.000000 -0.008673
#
#
# Mechanical properties :
#
#
# Convention : Reuss Voigt Hill
#
# Bulk Modulus (GPa) = 62.88452 69.06023 65.97238
# Shear Modulus (GPa) = 38.60435 1.53509 20.06972
#
# Velocity S-wave (km/s) = 4.53163 0.90366 3.26744
# Velocity P-wave (km/s) = 7.79952 6.15025 7.02346
#
# Compressibility (1/GPa) = 0.01590217
#
# Stress axis : x y z
#
# Youngs Moduli (GPa) = 77.56111 56.94850 78.18129
#
# Poissons Ratio (x) = 0.10394 0.28262
# Poissons Ratio (y) = 0.14156 0.64348
# Poissons Ratio (z) = 0.28038 0.46872
#
# Static dielectric constant tensor:
#      x y z
#    x 3.371360 0.000000 0.000000 
#    y 0.000000 3.442560 0.000000 
#    z 0.000000 0.000000 3.508320 
# 
# 
# High freq. dielectric constant tensor:
#      x y z
#    x 1.729000 0.000000 0.000000 
#    y 0.000000 1.724350 0.000000 
#    z 0.000000 0.000000 1.739590 
# 
# From -- ./inp_files/26804.got.cif
#   From: 2010.03.12/outbox.cif.g09.slc.cpg/sg53_14_cif.got.tgz:26804.got - 2010.04.16 14:36:59.
