data_PCOD8221591
_publ_section_title
;
Structure prediction by ZEFSAII (Michael W. Deem and Ramdas Pophale) SiO2 
 PCOD8221591
Probable space group: P M N A
;
_chemical_formula_sum "Si O2"
_cell_formula_units_Z 56
_cell_length_a 16.405752
_cell_length_b 11.913275
_cell_length_c 13.774348
_cell_angle_alpha 90.000000
_cell_angle_beta 90.000000
_cell_angle_gamma 90.000000
_cell_volume 2692.144458
_symmetry_space_group_name_H-M "P M N A"
_symmetry_group_IT_number 53
_symmetry_cell_setting 'orthorhombic'
loop_
_space_group_symop_operation_xyz
x,y,z
1/2-x,-y,1/2+z
x,-y,-z
1/2-x,y,1/2-z
-x,-y,-z
1/2+x,y,1/2-z
-x,y,z
1/2+x,-y,1/2+z
loop_
_atom_site_type_symbol
_atom_site_label
_atom_site_fract_x
_atom_site_fract_y
_atom_site_fract_z
Si Si1 0.838418 0.736498 0.638042
Si Si2 0.093689 0.333565 0.865427
Si Si3 0.406560 0.561913 0.725869
Si Si4 0.095942 0.902859 0.796491
Si Si5 0.594004 0.877234 0.030593
Si Si6 0.847221 0.269568 0.072267
Si Si7 0.343914 0.856800 0.238971
O O1 0.861931 0.612359 0.678228
O O2 0.853089 0.823379 0.724762
O O3 0.892894 0.779902 0.548688
O O4 0.746015 0.730412 0.604776
O O5 0.129829 0.442505 0.809431
O O6 0.098552 0.231729 0.791437
O O7 0.000000 0.354146 0.896386
O O8 0.146746 0.302985 0.959989
O O9 0.500000 0.547680 0.755959
O O10 0.399666 0.643157 0.634056
O O11 0.113562 0.853911 0.904938
O O12 0.000000 0.902440 0.770707
O O13 0.132968 0.025094 0.786340
O O14 0.500000 0.886527 0.057099
O O15 0.642477 0.845157 0.125514
O O16 0.626989 0.000000 0.000000
O O17 0.250000 0.828131 0.250000
#
# Coordination Sequence:
#
# PCOD8221591 Si02
#       7
#     8   8   8   8   8   8   8
#     4  11  21  38  63  97 124 155 209 270 316 364
#     4  11  24  43  64  89 126 171 213 256 315 384
#     4  10  21  40  67  92 122 165 214 262 312 377
#     4  11  21  37  61  90 126 167 212 262 316 381
#     4  11  22  39  65  90 121 166 210 250 306 381
#     4  11  22  38  62  94 126 165 210 262 316 375
#     4  12  25  41  60  92 128 167 207 263 324 380
#
# _framework density 20.801261
#
# number of rings (size 3 to 8) (size 9 to 14) (size 15 to 20)
#    0.000    1.000    1.429    8.571    0.000    2.857 
#    0.000    3.571    0.000    2.571    0.000    0.000 
#    0.000    0.000    0.000    0.000    0.000    0.000 
#
# Total GULP energy -694391.131048 kJ/mol
# GULP energy per Si atom -12399.841626 kJ/mol
# Density = 2.075392 g / cm^3
# Si number density = 20.801261 Si / 1000 Ang^3
#
#
#
# Elastic Constant Matrix: (Units=GPa)
#
#
# Indices 1 2 3 4 5 6 
#
# 1 75.7550 8.3305 26.0883 0.0000 0.0000 0.0000
# 2 8.3305 121.4492 55.5304 0.0000 0.0000 0.0000
# 3 26.0883 55.5304 127.4054 0.0000 0.0000 0.0000
# 4 0.0000 0.0000 0.0000 38.5005 0.0000 0.0000
# 5 0.0000 0.0000 0.0000 0.0000 11.2076 0.0000
# 6 0.0000 0.0000 0.0000 0.0000 0.0000 18.7201
#
#
#
# Elastic Compliance Matrix: (Units=1/GPa)
#
#
# Indices 1 2 3 4 5 6 
#
# 1 0.014221 0.000445 -0.003106 0.000000 0.000000 0.000000
# 2 0.000445 0.010297 -0.004579 0.000000 0.000000 0.000000
# 3 -0.003106 -0.004579 0.010481 0.000000 0.000000 0.000000
# 4 0.000000 0.000000 0.000000 0.025974 0.000000 0.000000
# 5 0.000000 0.000000 0.000000 0.000000 0.089225 0.000000
# 6 0.000000 0.000000 0.000000 0.000000 0.000000 0.053419
#
#
# Mechanical properties :
#
#
# Convention : Reuss Voigt Hill
#
# Bulk Modulus (GPa) = 48.73670 56.05644 52.39657
# Shear Modulus (GPa) = 22.22848 29.32966 25.77907
#
# Velocity S-wave (km/s) = 3.27251 3.75906 3.52419
# Velocity P-wave (km/s) = 6.14489 6.77110 6.46558
#
# Compressibility (1/GPa) = 0.02051842
#
# Stress axis : x y z
#
# Youngs Moduli (GPa) = 70.31797 97.11467 95.41306
#
# Poissons Ratio (x) = -0.04318 0.29633
# Poissons Ratio (y) = -0.03126 0.43691
# Poissons Ratio (z) = 0.21839 0.44470
#
# Static dielectric constant tensor:
#      x y z
#    x 3.766310 0.000000 0.000000 
#    y 0.000000 4.029910 0.000000 
#    z 0.000000 0.000000 4.012280 
# 
# 
# High freq. dielectric constant tensor:
#      x y z
#    x 1.821540 0.000000 0.000000 
#    y 0.000000 1.814180 0.000000 
#    z 0.000000 0.000000 1.812830 
# 
# From -- ./inp_files/22818.got.cif
#   From: 2010.03.12/outbox.cif.g09.slc.cpg/sg53_12_cif.got.tgz:22818.got - 2010.04.16 14:36:59.
