data_PCOD8221359
_publ_section_title
;
Structure prediction by ZEFSAII (Michael W. Deem and Ramdas Pophale) SiO2 
 PCOD8221359
Probable space group: P M N A
;
_chemical_formula_sum "Si O2"
_cell_formula_units_Z 40
_cell_length_a 18.682680
_cell_length_b 8.624088
_cell_length_c 11.870328
_cell_angle_alpha 90.000000
_cell_angle_beta 90.000000
_cell_angle_gamma 90.000000
_cell_volume 1912.560025
_symmetry_space_group_name_H-M "P M N A"
_symmetry_group_IT_number 53
_symmetry_cell_setting 'orthorhombic'
loop_
_space_group_symop_operation_xyz
x,y,z
1/2-x,-y,1/2+z
x,-y,-z
1/2-x,y,1/2-z
-x,-y,-z
1/2+x,y,1/2-z
-x,y,z
1/2+x,-y,1/2+z
loop_
_atom_site_type_symbol
_atom_site_label
_atom_site_fract_x
_atom_site_fract_y
_atom_site_fract_z
Si Si1 0.213820 0.296300 0.099252
Si Si2 0.142761 0.834108 0.706496
Si Si3 0.081020 0.666898 0.508727
Si Si4 0.585603 0.824421 0.213406
Si Si5 0.802833 0.655656 0.153304
O O1 0.283087 0.202371 0.141830
O O2 0.145007 0.231171 0.166338
O O3 0.214675 0.476362 0.132799
O O4 0.207549 0.261079 0.967007
O O5 0.083825 0.745510 0.631364
O O6 0.123280 0.011133 0.725333
O O7 0.122174 0.500000 0.500000
O O8 0.111514 0.776331 0.411538
O O9 0.000000 0.635049 0.475665
O O10 0.500000 0.834852 0.229607
O O11 0.617092 0.699659 0.303506
O O12 0.750000 0.721914 0.250000
#
# Coordination Sequence:
#
# PCOD8221359 Si02
#       5
#     8   8   8   8   8
#     4  10  24  40  65  96 125 167 228 272 338 393
#     4  11  21  40  59  93 135 164 212 279 332 403
#     4  10  21  37  63  93 125 170 222 268 321 387
#     4  11  25  42  64  97 136 180 220 273 342 398
#     4  11  22  43  69  94 126 173 222 281 330 404
#
# _framework density 20.914376000000001
#
# number of rings (size 3 to 8) (size 9 to 14) (size 15 to 20)
#    0.000    1.400    2.000    3.600    5.600    2.400 
#    0.000    6.000    0.000    0.000    0.000    0.000 
#    0.000    0.000    0.000    0.000    0.000    0.000 
#
# Total GULP energy -495604.345766 kJ/mol
# GULP energy per Si atom -12390.108644 kJ/mol
# Density = 2.086677 g / cm^3
# Si number density = 20.914376 Si / 1000 Ang^3
#
#
#
# Elastic Constant Matrix: (Units=GPa)
#
#
# Indices 1 2 3 4 5 6 
#
# 1 81.6892 44.1151 52.3262 0.0000 0.0000 0.0000
# 2 44.1151 73.5177 43.9450 0.0000 0.0000 0.0000
# 3 52.3262 43.9450 186.9725 0.0000 0.0000 0.0000
# 4 0.0000 0.0000 0.0000 33.6004 0.0000 0.0000
# 5 0.0000 0.0000 0.0000 0.0000 29.9576 0.0000
# 6 0.0000 0.0000 0.0000 0.0000 0.0000 29.6880
#
#
#
# Elastic Compliance Matrix: (Units=1/GPa)
#
#
# Indices 1 2 3 4 5 6 
#
# 1 0.019598 -0.009868 -0.003165 0.000000 0.000000 0.000000
# 2 -0.009868 0.020794 -0.002126 0.000000 0.000000 0.000000
# 3 -0.003165 -0.002126 0.006734 0.000000 0.000000 0.000000
# 4 0.000000 0.000000 0.000000 0.029762 0.000000 0.000000
# 5 0.000000 0.000000 0.000000 0.000000 0.033380 0.000000
# 6 0.000000 0.000000 0.000000 0.000000 0.000000 0.033684
#
#
# Mechanical properties :
#
#
# Convention : Reuss Voigt Hill
#
# Bulk Modulus (GPa) = 59.49537 69.21688 64.35612
# Shear Modulus (GPa) = 27.79740 32.10208 29.94974
#
# Velocity S-wave (km/s) = 3.64964 3.92207 3.78831
# Velocity P-wave (km/s) = 6.80211 7.32648 7.06916
#
# Compressibility (1/GPa) = 0.01680803
#
# Stress axis : x y z
#
# Youngs Moduli (GPa) = 51.02502 48.09032 148.50289
#
# Poissons Ratio (x) = 0.47455 0.47008
# Poissons Ratio (y) = 0.50351 0.31567
# Poissons Ratio (z) = 0.16152 0.10223
#
# Static dielectric constant tensor:
#      x y z
#    x 3.767100 0.000000 0.000000 
#    y 0.000000 3.783160 0.000000 
#    z 0.000000 0.000000 4.418740 
# 
# 
# High freq. dielectric constant tensor:
#      x y z
#    x 1.803270 0.000000 0.000000 
#    y 0.000000 1.823360 0.000000 
#    z 0.000000 0.000000 1.829370 
# 
# From -- ./inp_files/16689.got.cif
#   From: 2010.03.12/outbox.cif.g09.slc.cpg/sg53_9_cif.got.tgz:16689.got - 2010.04.16 14:36:59.
