data_PCOD8221760
_publ_section_title
;
Structure prediction by ZEFSAII (Michael W. Deem and Ramdas Pophale) SiO2 
 PCOD8221760
Probable space group: P M N A
;
_chemical_formula_sum "Si O2"
_cell_formula_units_Z 40
_cell_length_a 7.441089
_cell_length_b 9.713466
_cell_length_c 27.763279
_cell_angle_alpha 90.000000
_cell_angle_beta 90.000000
_cell_angle_gamma 90.000000
_cell_volume 2006.695519
_symmetry_space_group_name_H-M "P M N A"
_symmetry_group_IT_number 53
_symmetry_cell_setting 'orthorhombic'
loop_
_space_group_symop_operation_xyz
x,y,z
1/2-x,-y,1/2+z
x,-y,-z
1/2-x,y,1/2-z
-x,-y,-z
1/2+x,y,1/2-z
-x,y,z
1/2+x,-y,1/2+z
loop_
_atom_site_type_symbol
_atom_site_label
_atom_site_fract_x
_atom_site_fract_y
_atom_site_fract_z
Si Si1 0.000000 0.361764 0.970360
Si Si2 0.289452 0.972406 0.887477
Si Si3 0.290439 0.523818 0.196544
Si Si4 0.212090 0.292570 0.608220
Si Si5 0.000000 0.113176 0.039540
Si Si6 0.791288 0.781672 0.697228
O O1 0.000000 0.257976 0.014304
O O2 0.000000 0.500000 0.000000
O O3 0.178915 0.346264 0.937986
O O4 0.500000 0.949525 0.896954
O O5 0.243010 0.133018 0.882383
O O6 0.216970 0.893952 0.840016
O O7 0.182815 0.903345 0.930767
O O8 0.250000 0.582900 0.250000
O O9 0.500000 0.512859 0.189048
O O10 0.216025 0.625555 0.155346
O O11 0.202411 0.370792 0.190793
O O12 0.000000 0.315203 0.598599
O O13 0.000000 0.000000 0.000000
O O14 0.750000 0.840243 0.750000
O O15 0.000000 0.765338 0.688660
#
# Coordination Sequence:
#
# PCOD8221760 Si02
#       6
#     4   8   8   8   4   8
#     4  12  28  44  62  96 120 160 212 258 306 368
#     4  10  22  40  64  90 122 160 201 252 308 363
#     4   9  19  35  56  86 120 161 201 244 302 361
#     4  10  22  42  63  88 125 159 202 254 304 365
#     4  12  24  44  64  92 122 158 210 254 308 362
#     4   9  19  35  56  88 121 158 202 246 300 362
#
# _framework density 19.933268000000002
#
# number of rings (size 3 to 8) (size 9 to 14) (size 15 to 20)
#    0.000    2.000    2.000    0.000    5.600    2.400 
#    0.000    0.000    0.000    0.000    0.000    0.000 
#    0.000    0.000    0.000    0.000    0.000    0.000 
#
# Total GULP energy -495856.715730 kJ/mol
# GULP energy per Si atom -12396.417893 kJ/mol
# Density = 1.988790 g / cm^3
# Si number density = 19.933268 Si / 1000 Ang^3
#
#
#
# Elastic Constant Matrix: (Units=GPa)
#
#
# Indices 1 2 3 4 5 6 
#
# 1 69.1807 40.8669 52.1932 0.0000 0.0000 0.0000
# 2 40.8669 154.8401 112.6635 0.0000 0.0000 0.0000
# 3 52.1932 112.6635 187.6805 0.0000 0.0000 0.0000
# 4 0.0000 0.0000 0.0000 71.5067 0.0000 0.0000
# 5 0.0000 0.0000 0.0000 0.0000 38.5177 0.0000
# 6 0.0000 0.0000 0.0000 0.0000 0.0000 12.8699
#
#
#
# Elastic Compliance Matrix: (Units=1/GPa)
#
#
# Indices 1 2 3 4 5 6 
#
# 1 0.018649 -0.002039 -0.003962 0.000000 0.000000 0.000000
# 2 -0.002039 0.011690 -0.006450 0.000000 0.000000 0.000000
# 3 -0.003962 -0.006450 0.010302 0.000000 0.000000 0.000000
# 4 0.000000 0.000000 0.000000 0.013985 0.000000 0.000000
# 5 0.000000 0.000000 0.000000 0.000000 0.025962 0.000000
# 6 0.000000 0.000000 0.000000 0.000000 0.000000 0.077701
#
#
# Mechanical properties :
#
#
# Convention : Reuss Voigt Hill
#
# Bulk Modulus (GPa) = 63.54174 91.46092 77.50133
# Shear Modulus (GPa) = 26.53413 38.31070 32.42242
#
# Velocity S-wave (km/s) = 3.65245 4.38876 4.03742
# Velocity P-wave (km/s) = 7.05221 8.46550 7.79097
#
# Compressibility (1/GPa) = 0.01573769
#
# Stress axis : x y z
#
# Youngs Moduli (GPa) = 53.62335 85.54546 97.06805
#
# Poissons Ratio (x) = 0.17443 0.38459
# Poissons Ratio (y) = 0.10934 0.62611
# Poissons Ratio (z) = 0.21246 0.55178
#
# Static dielectric constant tensor:
#      x y z
#    x 3.583290 0.000000 0.000000 
#    y 0.000000 3.964340 0.000000 
#    z 0.000000 0.000000 3.732200 
# 
# 
# High freq. dielectric constant tensor:
#      x y z
#    x 1.780360 0.000000 0.000000 
#    y 0.000000 1.780720 0.000000 
#    z 0.000000 0.000000 1.782130 
# 
# From -- ./inp_files/33683.got.cif
#   From: 2010.03.12/outbox.cif.g09.slc.cpg/sg53_17_cif.got.tgz:33683.got - 2010.04.16 14:36:59.
