data_PCOD8221435
_publ_section_title
;
Structure prediction by ZEFSAII (Michael W. Deem and Ramdas Pophale) SiO2 
 PCOD8221435
Probable space group: P M N A
;
_chemical_formula_sum "Si O2"
_cell_formula_units_Z 48
_cell_length_a 8.581925
_cell_length_b 18.268244
_cell_length_c 15.139113
_cell_angle_alpha 90.000000
_cell_angle_beta 90.000000
_cell_angle_gamma 90.000000
_cell_volume 2373.460175
_symmetry_space_group_name_H-M "P M N A"
_symmetry_group_IT_number 53
_symmetry_cell_setting 'orthorhombic'
loop_
_space_group_symop_operation_xyz
x,y,z
1/2-x,-y,1/2+z
x,-y,-z
1/2-x,y,1/2-z
-x,-y,-z
1/2+x,y,1/2-z
-x,y,z
1/2+x,-y,1/2+z
loop_
_atom_site_type_symbol
_atom_site_label
_atom_site_fract_x
_atom_site_fract_y
_atom_site_fract_z
Si Si1 0.819012 0.067596 0.343705
Si Si2 0.815828 0.559313 0.655691
Si Si3 0.816767 0.402135 0.843930
Si Si4 0.181839 0.827127 0.986325
Si Si5 0.317308 0.326713 0.007958
Si Si6 0.181263 0.896539 0.343687
O O1 0.750000 0.092104 0.250000
O O2 0.727442 0.108845 0.419824
O O3 0.000000 0.088316 0.347305
O O4 0.791514 0.982143 0.360521
O O5 0.750000 0.584460 0.750000
O O6 0.753001 0.480165 0.627427
O O7 0.759853 0.617361 0.583083
O O8 0.000000 0.555163 0.662160
O O9 0.750000 0.376000 0.750000
O O10 0.000000 0.409782 0.835268
O O11 0.772222 0.342470 0.916919
O O12 0.225017 0.850782 0.084749
O O13 0.000000 0.811009 0.980127
O O14 0.275112 0.754324 0.959608
O O15 0.500000 0.334333 0.991173
O O16 0.250000 0.872704 0.250000
O O17 0.000000 0.876169 0.348707
#
# Coordination Sequence:
#
# PCOD8221435 Si02
#       6
#     8   8   8   8   8   8
#     4  10  21  39  63  89 117 152 194 241 290 342
#     4  10  21  38  62  88 115 150 191 237 286 338
#     4  11  22  38  62  89 117 150 191 238 287 342
#     4  12  25  39  58  86 120 157 196 238 290 349
#     4  11  24  41  59  83 118 156 195 239 289 343
#     4  10  21  39  63  89 117 151 194 241 290 344
#
# _framework density 20.223638000000001
#
# number of rings (size 3 to 8) (size 9 to 14) (size 15 to 20)
#    0.000    1.333    0.000    7.000    0.000   10.000 
#    0.000    5.000    0.000    0.000    0.000    0.000 
#    0.000    0.000    0.000    0.000    0.000    0.000 
#
# Total GULP energy -595555.292631 kJ/mol
# GULP energy per Si atom -12407.401930 kJ/mol
# Density = 2.017761 g / cm^3
# Si number density = 20.223638 Si / 1000 Ang^3
#
#
#
# Elastic Constant Matrix: (Units=GPa)
#
#
# Indices 1 2 3 4 5 6 
#
# 1 88.2961 18.8775 34.6057 0.0000 0.0000 0.0000
# 2 18.8775 45.4714 20.1586 0.0000 0.0000 0.0000
# 3 34.6057 20.1586 82.1172 0.0000 0.0000 0.0000
# 4 0.0000 0.0000 0.0000 -1.8858 0.0000 0.0000
# 5 0.0000 0.0000 0.0000 0.0000 34.8504 0.0000
# 6 0.0000 0.0000 0.0000 0.0000 0.0000 33.1511
#
#
#
# Elastic Compliance Matrix: (Units=1/GPa)
#
#
# Indices 1 2 3 4 5 6 
#
# 1 0.014074 -0.003606 -0.005046 0.000000 0.000000 0.000000
# 2 -0.003606 0.025601 -0.004765 0.000000 0.000000 0.000000
# 3 -0.005046 -0.004765 0.015474 0.000000 0.000000 0.000000
# 4 0.000000 0.000000 0.000000 -0.530284 0.000000 0.000000
# 5 0.000000 0.000000 0.000000 0.000000 0.028694 0.000000
# 6 0.000000 0.000000 0.000000 0.000000 0.000000 0.030165
#
#
# Mechanical properties :
#
#
# Convention : Reuss Voigt Hill
#
# Bulk Modulus (GPa) = 35.31642 40.35204 37.83423
# Shear Modulus (GPa) = -13.15779 22.70599 4.77410
#
# Velocity S-wave (km/s) = -2.55348 3.35437 1.53811
# Velocity P-wave (km/s) = 2.96769 5.91597 4.68005
#
# Compressibility (1/GPa) = 0.02831544
#
# Stress axis : x y z
#
# Youngs Moduli (GPa) = 71.05260 39.06043 64.62480
#
# Poissons Ratio (x) = 0.14085 0.32609
# Poissons Ratio (y) = 0.25621 0.30795
# Poissons Ratio (z) = 0.35852 0.18613
#
# Static dielectric constant tensor:
#      x y z
#    x 3.780800 0.000000 0.000000 
#    y 0.000000 3.631300 0.000000 
#    z 0.000000 0.000000 3.779620 
# 
# 
# High freq. dielectric constant tensor:
#      x y z
#    x 1.805650 0.000000 0.000000 
#    y 0.000000 1.785940 0.000000 
#    z 0.000000 0.000000 1.801690 
# 
# From -- ./inp_files/20148.got.cif
#   From: 2010.03.12/outbox.cif.g09.slc.cpg/sg53_11_cif.got.tgz:20148.got - 2010.04.16 14:36:59.
