data_PCOD8221710
_publ_section_title
;
Structure prediction by ZEFSAII (Michael W. Deem and Ramdas Pophale) SiO2 
 PCOD8221710
Probable space group: P M N A
;
_chemical_formula_sum "Si O2"
_cell_formula_units_Z 40
_cell_length_a 8.571559
_cell_length_b 25.412002
_cell_length_c 8.840816
_cell_angle_alpha 90.000000
_cell_angle_beta 90.000000
_cell_angle_gamma 90.000000
_cell_volume 1925.710736
_symmetry_space_group_name_H-M "P M N A"
_symmetry_group_IT_number 53
_symmetry_cell_setting 'orthorhombic'
loop_
_space_group_symop_operation_xyz
x,y,z
1/2-x,-y,1/2+z
x,-y,-z
1/2-x,y,1/2-z
-x,-y,-z
1/2+x,y,1/2-z
-x,y,z
1/2+x,-y,1/2+z
loop_
_atom_site_type_symbol
_atom_site_label
_atom_site_fract_x
_atom_site_fract_y
_atom_site_fract_z
Si Si1 0.684322 0.342710 0.916678
Si Si2 0.315977 0.244576 0.413737
Si Si3 0.683065 0.147805 0.912091
Si Si4 0.315618 0.552010 0.917396
Si Si5 0.178549 0.946507 0.909623
O O1 0.750000 0.333620 0.750000
O O2 0.500000 0.337809 0.909625
O O3 0.749064 0.299950 0.032381
O O4 0.739117 0.398987 0.980596
O O5 0.250000 0.229629 0.250000
O O6 0.500000 0.248501 0.403771
O O7 0.267923 0.200138 0.532035
O O8 0.750000 0.132344 0.750000
O O9 0.500000 0.158668 0.903762
O O10 0.716530 0.099225 0.020914
O O11 0.250000 0.557182 0.750000
O O12 0.500000 0.549698 0.904296
O O13 0.249570 0.500000 0.000000
O O14 0.250000 0.960444 0.750000
O O15 0.000000 0.926888 0.899122
O O16 0.191760 0.000000 0.000000
#
# Coordination Sequence:
#
# PCOD8221710 Si02
#       5
#     8   8   8   8   8
#     4  11  23  40  62  90 123 160 204 251 304 363
#     4  12  25  43  65  91 124 161 204 252 306 364
#     4  12  25  43  66  93 126 163 206 254 307 364
#     4  10  22  39  60  88 121 158 201 249 302 361
#     4  11  24  42  65  94 128 166 208 254 306 363
#
# _framework density 20.771553000000001
#
# number of rings (size 3 to 8) (size 9 to 14) (size 15 to 20)
#    0.000    0.800    0.000    7.800    0.000    6.800 
#    0.000    0.000    0.000    0.000    0.000    0.000 
#    0.000    0.000    0.000    0.000    0.000    0.000 
#
# Total GULP energy -496309.639898 kJ/mol
# GULP energy per Si atom -12407.740997 kJ/mol
# Density = 2.072428 g / cm^3
# Si number density = 20.771553 Si / 1000 Ang^3
#
#
#
# Elastic Constant Matrix: (Units=GPa)
#
#
# Indices 1 2 3 4 5 6 
#
# 1 76.0361 41.8163 37.5941 0.0000 0.0000 0.0000
# 2 41.8163 104.6693 17.8247 0.0000 0.0000 0.0000
# 3 37.5941 17.8247 116.3848 0.0000 0.0000 0.0000
# 4 0.0000 0.0000 0.0000 63.0482 0.0000 0.0000
# 5 0.0000 0.0000 0.0000 0.0000 36.9304 0.0000
# 6 0.0000 0.0000 0.0000 0.0000 0.0000 33.6946
#
#
#
# Elastic Compliance Matrix: (Units=1/GPa)
#
#
# Indices 1 2 3 4 5 6 
#
# 1 0.019555 -0.006917 -0.005257 0.000000 0.000000 0.000000
# 2 -0.006917 0.012257 0.000357 0.000000 0.000000 0.000000
# 3 -0.005257 0.000357 0.010236 0.000000 0.000000 0.000000
# 4 0.000000 0.000000 0.000000 0.015861 0.000000 0.000000
# 5 0.000000 0.000000 0.000000 0.000000 0.027078 0.000000
# 6 0.000000 0.000000 0.000000 0.000000 0.000000 0.029678
#
#
# Mechanical properties :
#
#
# Convention : Reuss Voigt Hill
#
# Bulk Modulus (GPa) = 54.30956 54.61781 54.46369
# Shear Modulus (GPa) = 34.61734 40.05832 37.33783
#
# Velocity S-wave (km/s) = 4.08680 4.39625 4.24435
# Velocity P-wave (km/s) = 6.96219 7.21949 7.09201
#
# Compressibility (1/GPa) = 0.01841296
#
# Stress axis : x y z
#
# Youngs Moduli (GPa) = 51.13773 81.58921 97.69792
#
# Poissons Ratio (x) = 0.56436 0.51362
# Poissons Ratio (y) = 0.35373 -0.03490
# Poissons Ratio (z) = 0.26884 -0.02915
#
# Static dielectric constant tensor:
#      x y z
#    x 3.894740 0.000000 0.000000 
#    y 0.000000 4.038330 0.000000 
#    z 0.000000 0.000000 3.918700 
# 
# 
# High freq. dielectric constant tensor:
#      x y z
#    x 1.824270 0.000000 0.000000 
#    y 0.000000 1.831360 0.000000 
#    z 0.000000 0.000000 1.831440 
# 
# From -- ./inp_files/6315.got.cif
#   From: 2010.03.12/outbox.cif.g09.slc.cpg/sg53_4_cif.got.tgz:6315.got - 2010.04.16 14:36:59.
