data_PCOD8221099
_publ_section_title
;
Structure prediction by ZEFSAII (Michael W. Deem and Ramdas Pophale) SiO2 
 PCOD8221099
Probable space group: P M N A
;
_chemical_formula_sum "Si O2"
_cell_formula_units_Z 64
_cell_length_a 16.664311
_cell_length_b 20.573646
_cell_length_c 9.373544
_cell_angle_alpha 90.000000
_cell_angle_beta 90.000000
_cell_angle_gamma 90.000000
_cell_volume 3213.678648
_symmetry_space_group_name_H-M "P M N A"
_symmetry_group_IT_number 53
_symmetry_cell_setting 'orthorhombic'
loop_
_space_group_symop_operation_xyz
x,y,z
1/2-x,-y,1/2+z
x,-y,-z
1/2-x,y,1/2-z
-x,-y,-z
1/2+x,y,1/2-z
-x,y,z
1/2+x,-y,1/2+z
loop_
_atom_site_type_symbol
_atom_site_label
_atom_site_fract_x
_atom_site_fract_y
_atom_site_fract_z
Si Si1 0.408125 0.496999 0.156430
Si Si2 0.595215 0.874412 0.669300
Si Si3 0.338820 0.612119 0.310808
Si Si4 0.828384 0.756710 0.167326
Si Si5 0.095758 0.001347 0.340675
Si Si6 0.594794 0.608869 0.619713
Si Si7 0.907061 0.886489 0.148202
Si Si8 0.828618 0.740866 0.837920
O O1 0.500000 0.478083 0.134503
O O2 0.400979 0.567720 0.226251
O O3 0.372007 0.441823 0.261549
O O4 0.365893 0.500000 0.000000
O O5 0.500000 0.866372 0.667951
O O6 0.627190 0.893413 0.511776
O O7 0.632088 0.806591 0.723986
O O8 0.625094 0.931127 0.772943
O O9 0.250000 0.596450 0.250000
O O10 0.361317 0.687200 0.278107
O O11 0.350635 0.597148 0.478982
O O12 0.750000 0.778619 0.250000
O O13 0.893338 0.812534 0.200549
O O14 0.805376 0.751110 0.002014
O O15 0.132540 0.940324 0.252305
O O16 0.000000 0.997937 0.341973
O O17 0.130706 0.000000 0.500000
O O18 0.500000 0.598745 0.585408
O O19 0.608205 0.681836 0.677807
O O20 0.000000 0.901525 0.146601
O O21 0.750000 0.722598 0.750000
#
# Coordination Sequence:
#
# PCOD8221099 Si02
#       8
#     8   8   8   8   8   8   8   8
#     4  10  22  38  56  82 115 148 186 232 278 331
#     4   9  17  32  53  75 102 136 175 218 266 324
#     4  10  21  36  57  84 111 144 187 234 284 337
#     4   9  20  36  52  75 106 138 172 215 269 327
#     4   9  17  29  47  75 106 133 169 219 270 319
#     4  10  21  39  62  85 113 153 196 235 282 342
#     4   9  17  31  53  77  99 132 177 220 262 315
#     4  10  21  35  55  81 109 140 180 229 277 329
#
# _framework density 19.914873
#
# number of rings (size 3 to 8) (size 9 to 14) (size 15 to 20)
#    0.000    2.500    0.000    1.500    0.000   11.500 
#    0.000    0.625    0.000    5.250    0.000    0.000 
#    0.000    0.000    0.000    0.000    0.000    0.000 
#
# Total GULP energy -793350.940269 kJ/mol
# GULP energy per Si atom -12396.108442 kJ/mol
# Density = 1.986955 g / cm^3
# Si number density = 19.914873 Si / 1000 Ang^3
#
#
#
# Elastic Constant Matrix: (Units=GPa)
#
#
# Indices 1 2 3 4 5 6 
#
# 1 36.1557 21.4633 29.0009 0.0000 0.0000 0.0000
# 2 21.4633 148.7755 82.6270 0.0000 0.0000 0.0000
# 3 29.0009 82.6270 118.0001 0.0000 0.0000 0.0000
# 4 0.0000 0.0000 0.0000 24.9777 0.0000 0.0000
# 5 0.0000 0.0000 0.0000 0.0000 27.1628 0.0000
# 6 0.0000 0.0000 0.0000 0.0000 0.0000 17.1207
#
#
#
# Elastic Compliance Matrix: (Units=1/GPa)
#
#
# Indices 1 2 3 4 5 6 
#
# 1 0.034467 -0.000438 -0.008164 0.000000 0.000000 0.000000
# 2 -0.000438 0.011005 -0.007598 0.000000 0.000000 0.000000
# 3 -0.008164 -0.007598 0.015801 0.000000 0.000000 0.000000
# 4 0.000000 0.000000 0.000000 0.040036 0.000000 0.000000
# 5 0.000000 0.000000 0.000000 0.000000 0.036815 0.000000
# 6 0.000000 0.000000 0.000000 0.000000 0.000000 0.058409
#
#
# Mechanical properties :
#
#
# Convention : Reuss Voigt Hill
#
# Bulk Modulus (GPa) = 34.63548 63.23485 48.93516
# Shear Modulus (GPa) = 20.95938 25.17492 23.06715
#
# Velocity S-wave (km/s) = 3.24767 3.55931 3.40705
# Velocity P-wave (km/s) = 5.61183 6.97948 6.33268
#
# Compressibility (1/GPa) = 0.02887213
#
# Stress axis : x y z
#
# Youngs Moduli (GPa) = 29.01349 90.87177 63.28570
#
# Poissons Ratio (x) = 0.03982 0.51667
# Poissons Ratio (y) = 0.01271 0.48084
# Poissons Ratio (z) = 0.23687 0.69044
#
# Static dielectric constant tensor:
#      x y z
#    x 3.224330 0.000000 0.000000 
#    y 0.000000 3.859110 0.000000 
#    z 0.000000 0.000000 3.810140 
# 
# 
# High freq. dielectric constant tensor:
#      x y z
#    x 1.740280 0.000000 0.000000 
#    y 0.000000 1.794190 0.000000 
#    z 0.000000 0.000000 1.776740 
# 
# From -- ./inp_files/10252.got.cif
#   From: 2010.03.12/outbox.cif.g09.slc.cpg/sg53_6_cif.got.tgz:10252.got - 2010.04.16 14:36:59.
