data_PCOD8221065
_publ_section_title
;
Structure prediction by ZEFSAII (Michael W. Deem and Ramdas Pophale) SiO2 
 PCOD8221065
Probable space group: P M N A
;
_chemical_formula_sum "Si O2"
_cell_formula_units_Z 32
_cell_length_a 17.510647
_cell_length_b 8.530044
_cell_length_c 10.224212
_cell_angle_alpha 90.000000
_cell_angle_beta 90.000000
_cell_angle_gamma 90.000000
_cell_volume 1527.155676
_symmetry_space_group_name_H-M "P M N A"
_symmetry_group_IT_number 53
_symmetry_cell_setting 'orthorhombic'
loop_
_space_group_symop_operation_xyz
x,y,z
1/2-x,-y,1/2+z
x,-y,-z
1/2-x,y,1/2-z
-x,-y,-z
1/2+x,y,1/2-z
-x,y,z
1/2+x,-y,1/2+z
loop_
_atom_site_type_symbol
_atom_site_label
_atom_site_fract_x
_atom_site_fract_y
_atom_site_fract_z
Si Si1 0.089066 0.253400 0.172241
Si Si2 0.657168 0.500000 0.500000
Si Si3 0.233437 0.742140 0.391136
Si Si4 0.913392 0.183178 0.468067
Si Si5 0.175414 0.000000 0.000000
O O1 0.116125 0.225232 0.321951
O O2 0.000000 0.225108 0.167035
O O3 0.106229 0.432320 0.120919
O O4 0.123474 0.120373 0.079273
O O5 0.713244 0.355442 0.515007
O O6 0.250000 0.670089 0.250000
O O7 0.144286 0.730734 0.431401
O O8 0.266847 0.918007 0.397553
O O9 0.000000 0.245906 0.490670
O O10 0.910648 0.000000 0.500000
#
# Coordination Sequence:
#
# PCOD8221065 Si02
#       5
#     8   4   8   8   4
#     4  10  21  40  63  93 130 167 211 265 321 383
#     4  10  25  38  61  88 128 174 210 254 313 388
#     4  11  23  39  60  92 124 165 209 258 312 378
#     4  10  21  39  66  95 125 163 213 274 326 377
#     4  10  21  34  63  92 120 164 210 262 309 372
#
# _framework density 20.953987999999999
#
# number of rings (size 3 to 8) (size 9 to 14) (size 15 to 20)
#    0.000    1.750    1.250    2.250    3.500    2.000 
#    0.000    6.875    0.000    0.000    0.000    0.000 
#    0.000    0.000    0.000    0.000    0.000    0.000 
#
# Total GULP energy -396437.877932 kJ/mol
# GULP energy per Si atom -12388.683685 kJ/mol
# Density = 2.090630 g / cm^3
# Si number density = 20.953988 Si / 1000 Ang^3
#
#
#
# Elastic Constant Matrix: (Units=GPa)
#
#
# Indices 1 2 3 4 5 6 
#
# 1 118.6945 23.9444 59.3569 0.0000 0.0000 0.0000
# 2 23.9444 69.0054 29.1982 0.0000 0.0000 0.0000
# 3 59.3569 29.1982 125.5638 0.0000 0.0000 0.0000
# 4 0.0000 0.0000 0.0000 36.7952 0.0000 0.0000
# 5 0.0000 0.0000 0.0000 0.0000 35.6738 0.0000
# 6 0.0000 0.0000 0.0000 0.0000 0.0000 9.1476
#
#
#
# Elastic Compliance Matrix: (Units=1/GPa)
#
#
# Indices 1 2 3 4 5 6 
#
# 1 0.011238 -0.001832 -0.004887 0.000000 0.000000 0.000000
# 2 -0.001832 0.016372 -0.002941 0.000000 0.000000 0.000000
# 3 -0.004887 -0.002941 0.010958 0.000000 0.000000 0.000000
# 4 0.000000 0.000000 0.000000 0.027177 0.000000 0.000000
# 5 0.000000 0.000000 0.000000 0.000000 0.028032 0.000000
# 6 0.000000 0.000000 0.000000 0.000000 0.000000 0.109318
#
#
# Mechanical properties :
#
#
# Convention : Reuss Voigt Hill
#
# Bulk Modulus (GPa) = 51.95115 59.80695 55.87905
# Shear Modulus (GPa) = 21.85022 29.70761 25.77891
#
# Velocity S-wave (km/s) = 3.23270 3.76939 3.51132
# Velocity P-wave (km/s) = 6.22741 6.89554 6.56997
#
# Compressibility (1/GPa) = 0.01924885
#
# Stress axis : x y z
#
# Youngs Moduli (GPa) = 88.98196 61.08088 91.25768
#
# Poissons Ratio (x) = 0.11190 0.44594
# Poissons Ratio (y) = 0.16301 0.26839
# Poissons Ratio (z) = 0.43482 0.17964
#
# Static dielectric constant tensor:
#      x y z
#    x 3.969140 0.000000 0.000000 
#    y 0.000000 4.504010 0.000000 
#    z 0.000000 0.000000 4.106770 
# 
# 
# High freq. dielectric constant tensor:
#      x y z
#    x 1.836100 0.000000 0.000000 
#    y 0.000000 1.812680 0.000000 
#    z 0.000000 0.000000 1.815180 
# 
# From -- ./inp_files/15464.got.cif
#   From: 2010.03.12/outbox.cif.g09.slc.cpg/sg53_8_cif.got.tgz:15464.got - 2010.04.16 14:36:59.
