data_PCOD8221698
_publ_section_title
;
Structure prediction by ZEFSAII (Michael W. Deem and Ramdas Pophale) SiO2 
 PCOD8221698
Probable space group: P M N A
;
_chemical_formula_sum "Si O2"
_cell_formula_units_Z 64
_cell_length_a 8.938905
_cell_length_b 16.493188
_cell_length_c 20.763918
_cell_angle_alpha 90.000000
_cell_angle_beta 90.000000
_cell_angle_gamma 90.000000
_cell_volume 3061.246039
_symmetry_space_group_name_H-M "P M N A"
_symmetry_group_IT_number 53
_symmetry_cell_setting 'orthorhombic'
loop_
_space_group_symop_operation_xyz
x,y,z
1/2-x,-y,1/2+z
x,-y,-z
1/2-x,y,1/2-z
-x,-y,-z
1/2+x,y,1/2-z
-x,y,z
1/2+x,-y,1/2+z
loop_
_atom_site_type_symbol
_atom_site_label
_atom_site_fract_x
_atom_site_fract_y
_atom_site_fract_z
Si Si1 0.661246 0.688704 0.690743
Si Si2 0.322367 0.184372 0.405374
Si Si3 0.677720 0.440623 0.813042
Si Si4 0.176289 0.015680 0.427657
Si Si5 0.321140 0.718487 0.352627
Si Si6 0.333933 0.548919 0.587990
Si Si7 0.178612 0.110903 0.683143
Si Si8 0.176857 0.317558 0.996799
O O1 0.750000 0.652653 0.750000
O O2 0.500000 0.706558 0.719790
O O3 0.724139 0.772799 0.661780
O O4 0.652010 0.625269 0.633994
O O5 0.500000 0.173576 0.411984
O O6 0.244732 0.098627 0.403505
O O7 0.258314 0.241688 0.462628
O O8 0.750000 0.485416 0.750000
O O9 0.500000 0.439032 0.807164
O O10 0.748568 0.351272 0.809553
O O11 0.722978 0.483953 0.880211
O O12 0.000000 0.024394 0.429368
O O13 0.238141 0.000000 0.500000
O O14 0.224577 0.946128 0.377066
O O15 0.500000 0.721460 0.344454
O O16 0.249466 0.802111 0.330672
O O17 0.269467 0.696935 0.424758
O O18 0.500000 0.508990 0.578828
O O19 0.272280 0.591175 0.521525
O O20 0.250000 0.077311 0.750000
O O21 0.000000 0.117281 0.690414
O O22 0.000000 0.316473 0.004040
#
# Coordination Sequence:
#
# PCOD8221698 Si02
#       8
#     8   8   8   8   8   8   8   8
#     4   9  18  31  50  76 108 143 179 220 265 317
#     4   9  18  34  55  81 110 142 182 224 267 324
#     4  12  25  40  57  81 112 147 189 236 286 339
#     4  10  22  39  59  85 116 149 186 233 290 345
#     4  11  22  39  63  87 111 146 192 238 288 345
#     4   9  18  36  58  82 113 148 186 228 276 332
#     4  11  24  42  62  86 119 156 196 245 299 353
#     4   8  17  35  60  87 116 150 187 229 280 340
#
# _framework density 20.906518999999999
#
# number of rings (size 3 to 8) (size 9 to 14) (size 15 to 20)
#    0.000    2.125    0.000    4.875    0.000    4.250 
#    0.000    8.750    0.000    0.000    0.000    0.000 
#    0.000    0.000    0.000    0.000    0.000    0.000 
#
# Total GULP energy -793185.869249 kJ/mol
# GULP energy per Si atom -12393.529207 kJ/mol
# Density = 2.085893 g / cm^3
# Si number density = 20.906519 Si / 1000 Ang^3
#
#
#
# Elastic Constant Matrix: (Units=GPa)
#
#
# Indices 1 2 3 4 5 6 
#
# 1 73.7853 33.7075 39.4951 0.0000 0.0000 0.0000
# 2 33.7075 95.2647 11.8988 0.0000 0.0000 0.0000
# 3 39.4951 11.8988 105.8660 0.0000 0.0000 0.0000
# 4 0.0000 0.0000 0.0000 23.4210 0.0000 0.0000
# 5 0.0000 0.0000 0.0000 0.0000 12.0314 0.0000
# 6 0.0000 0.0000 0.0000 0.0000 0.0000 26.5978
#
#
#
# Elastic Compliance Matrix: (Units=1/GPa)
#
#
# Indices 1 2 3 4 5 6 
#
# 1 0.020028 -0.006241 -0.006770 0.000000 0.000000 0.000000
# 2 -0.006241 0.012591 0.000913 0.000000 0.000000 0.000000
# 3 -0.006770 0.000913 0.011869 0.000000 0.000000 0.000000
# 4 0.000000 0.000000 0.000000 0.042697 0.000000 0.000000
# 5 0.000000 0.000000 0.000000 0.000000 0.083116 0.000000
# 6 0.000000 0.000000 0.000000 0.000000 0.000000 0.037597
#
#
# Mechanical properties :
#
#
# Convention : Reuss Voigt Hill
#
# Bulk Modulus (GPa) = 49.28052 49.45762 49.36907
# Shear Modulus (GPa) = 20.93300 25.06436 22.99868
#
# Velocity S-wave (km/s) = 3.16771 3.46624 3.32033
# Velocity P-wave (km/s) = 6.08294 6.30299 6.19394
#
# Compressibility (1/GPa) = 0.02029199
#
# Stress axis : x y z
#
# Youngs Moduli (GPa) = 49.93080 79.42059 84.25287
#
# Poissons Ratio (x) = 0.49565 0.57041
# Poissons Ratio (y) = 0.31161 -0.07693
# Poissons Ratio (z) = 0.33804 -0.07251
#
# Static dielectric constant tensor:
#      x y z
#    x 3.595790 0.000000 0.000000 
#    y 0.000000 3.844570 0.000000 
#    z 0.000000 0.000000 4.553260 
# 
# 
# High freq. dielectric constant tensor:
#      x y z
#    x 1.792720 0.000000 0.000000 
#    y 0.000000 1.823570 0.000000 
#    z 0.000000 0.000000 1.836550 
# 
# From -- ./inp_files/31271.got.cif
#   From: 2010.03.12/outbox.cif.g09.slc.cpg/sg53_16_cif.got.tgz:31271.got - 2010.04.16 14:36:59.
