data_PCOD8221999
_publ_section_title
;
Structure prediction by ZEFSAII (Michael W. Deem and Ramdas Pophale) SiO2 
 PCOD8221999
Probable space group: P M N A
;
_chemical_formula_sum "Si O2"
_cell_formula_units_Z 40
_cell_length_a 17.627468
_cell_length_b 10.011822
_cell_length_c 12.693873
_cell_angle_alpha 90.000000
_cell_angle_beta 90.000000
_cell_angle_gamma 90.000000
_cell_volume 2240.253702
_symmetry_space_group_name_H-M "P M N A"
_symmetry_group_IT_number 53
_symmetry_cell_setting 'orthorhombic'
loop_
_space_group_symop_operation_xyz
x,y,z
1/2-x,-y,1/2+z
x,-y,-z
1/2-x,y,1/2-z
-x,-y,-z
1/2+x,y,1/2-z
-x,y,z
1/2+x,-y,1/2+z
loop_
_atom_site_type_symbol
_atom_site_label
_atom_site_fract_x
_atom_site_fract_y
_atom_site_fract_z
Si Si1 0.661513 0.374306 0.731655
Si Si2 0.089937 0.870216 0.624941
Si Si3 0.590240 0.661360 0.707336
Si Si4 0.584128 0.656008 0.477971
Si Si5 0.910327 0.167797 0.610541
O O1 0.750000 0.384512 0.750000
O O2 0.626482 0.520960 0.739180
O O3 0.641754 0.310218 0.616993
O O4 0.628582 0.282564 0.822861
O O5 0.123207 0.771621 0.713039
O O6 0.115868 0.816978 0.510766
O O7 0.000000 0.870761 0.627974
O O8 0.117521 0.021166 0.648551
O O9 0.500000 0.643321 0.715047
O O10 0.612560 0.715156 0.590111
O O11 0.578626 0.500000 0.500000
O O12 0.500000 0.710359 0.447569
O O13 0.000000 0.183344 0.622362
#
# Coordination Sequence:
#
# PCOD8221999 Si02
#       5
#     8   8   8   8   8
#     4  11  21  32  47  74 107 135 172 207 254 308
#     4   8  16  32  56  80  98 126 169 213 260 299
#     4   9  17  34  56  77  99 130 175 216 251 299
#     4   8  15  31  53  70  95 132 168 208 253 294
#     4   9  17  33  55  76 102 133 167 212 257 301
#
# _framework density 17.855122000000001
#
# number of rings (size 3 to 8) (size 9 to 14) (size 15 to 20)
#    0.000    3.000    0.000    4.200    0.000    0.800 
#   10.800    5.000    4.400    4.800    0.000    0.000 
#    0.000    0.000    0.000    0.000    0.000    0.000 
#
# Total GULP energy -495694.161944 kJ/mol
# GULP energy per Si atom -12392.354049 kJ/mol
# Density = 1.781448 g / cm^3
# Si number density = 17.855122 Si / 1000 Ang^3
#
#
#
# Elastic Constant Matrix: (Units=GPa)
#
#
# Indices 1 2 3 4 5 6 
#
# 1 62.5243 28.9759 42.9065 0.0000 0.0000 0.0000
# 2 28.9759 64.2642 57.6376 0.0000 0.0000 0.0000
# 3 42.9065 57.6376 133.6641 0.0000 0.0000 0.0000
# 4 0.0000 0.0000 0.0000 29.7875 0.0000 0.0000
# 5 0.0000 0.0000 0.0000 0.0000 9.7205 0.0000
# 6 0.0000 0.0000 0.0000 0.0000 0.0000 1.0941
#
#
#
# Elastic Compliance Matrix: (Units=1/GPa)
#
#
# Indices 1 2 3 4 5 6 
#
# 1 0.021754 -0.005782 -0.004490 0.000000 0.000000 0.000000
# 2 -0.005782 0.026911 -0.009748 0.000000 0.000000 0.000000
# 3 -0.004490 -0.009748 0.013126 0.000000 0.000000 0.000000
# 4 0.000000 0.000000 0.000000 0.033571 0.000000 0.000000
# 5 0.000000 0.000000 0.000000 0.000000 0.102875 0.000000
# 6 0.000000 0.000000 0.000000 0.000000 0.000000 0.913989
#
#
# Mechanical properties :
#
#
# Convention : Reuss Voigt Hill
#
# Bulk Modulus (GPa) = 45.97408 57.72140 51.84774
# Shear Modulus (GPa) = 4.31214 16.84928 10.58071
#
# Velocity S-wave (km/s) = 1.55574 3.07525 2.43695
# Velocity P-wave (km/s) = 5.38808 6.70875 6.08435
#
# Compressibility (1/GPa) = 0.02175139
#
# Stress axis : x y z
#
# Youngs Moduli (GPa) = 45.96753 37.15977 76.18254
#
# Poissons Ratio (x) = 0.21485 0.34207
# Poissons Ratio (y) = 0.26577 0.74265
# Poissons Ratio (z) = 0.20640 0.36225
#
# Static dielectric constant tensor:
#      x y z
#    x 3.000790 0.000000 0.000000 
#    y 0.000000 3.341600 0.000000 
#    z 0.000000 0.000000 4.104680 
# 
# 
# High freq. dielectric constant tensor:
#      x y z
#    x 1.654660 0.000000 0.000000 
#    y 0.000000 1.673130 0.000000 
#    z 0.000000 0.000000 1.707440 
# 
# From -- ./inp_files/15770.got.cif
#   From: 2010.03.12/outbox.cif.g09.slc.cpg/sg53_8_cif.got.tgz:15770.got - 2010.04.16 14:36:59.
