data_PCOD8221450
_publ_section_title
;
Structure prediction by ZEFSAII (Michael W. Deem and Ramdas Pophale) SiO2 
 PCOD8221450
Probable space group: P M N A
;
_chemical_formula_sum "Si O2"
_cell_formula_units_Z 32
_cell_length_a 9.762637
_cell_length_b 8.462437
_cell_length_c 16.478955
_cell_angle_alpha 90.000000
_cell_angle_beta 90.000000
_cell_angle_gamma 90.000000
_cell_volume 1361.420412
_symmetry_space_group_name_H-M "P M N A"
_symmetry_group_IT_number 53
_symmetry_cell_setting 'orthorhombic'
loop_
_space_group_symop_operation_xyz
x,y,z
1/2-x,-y,1/2+z
x,-y,-z
1/2-x,y,1/2-z
-x,-y,-z
1/2+x,y,1/2-z
-x,y,z
1/2+x,-y,1/2+z
loop_
_atom_site_type_symbol
_atom_site_label
_atom_site_fract_x
_atom_site_fract_y
_atom_site_fract_z
Si Si1 0.342765 0.845147 0.101241
Si Si2 0.655896 0.884705 0.672346
Si Si3 0.853516 0.473533 0.684706
Si Si4 0.764225 0.350983 0.045739
O O1 0.500000 0.908674 0.098123
O O2 0.327460 0.711289 0.169446
O O3 0.233191 0.977366 0.123995
O O4 0.303580 0.776231 0.013581
O O5 0.750000 0.840435 0.750000
O O6 0.500000 0.934089 0.698444
O O7 0.638004 0.738859 0.609542
O O8 0.750000 0.543544 0.750000
O O9 0.853646 0.566629 0.599658
O O10 0.000000 0.499859 0.725700
O O11 0.839915 0.500000 0.000000
#
# Coordination Sequence:
#
# PCOD8221450 Si02
#       4
#     8   8   8   8
#     4  10  22  42  68  96 130 172 216 265 321 381
#     4  12  27  45  67  96 130 169 215 265 318 380
#     4  10  21  38  62  94 130 170 217 266 319 379
#     4  10  23  42  66  97 130 166 211 265 322 381
#
# _framework density 23.504863
#
# number of rings (size 3 to 8) (size 9 to 14) (size 15 to 20)
#    0.000    1.500    0.000    3.750    0.000   16.500 
#    0.000    5.000    0.000    0.000    0.000    0.000 
#    0.000    0.000    0.000    0.000    0.000    0.000 
#
# Total GULP energy -396482.127073 kJ/mol
# GULP energy per Si atom -12390.066471 kJ/mol
# Density = 2.345136 g / cm^3
# Si number density = 23.504863 Si / 1000 Ang^3
#
#
#
# Elastic Constant Matrix: (Units=GPa)
#
#
# Indices 1 2 3 4 5 6 
#
# 1 172.1555 55.9565 69.7629 0.0000 0.0000 0.0000
# 2 55.9565 112.4268 55.9587 0.0000 0.0000 0.0000
# 3 69.7629 55.9587 148.1547 0.0000 0.0000 0.0000
# 4 0.0000 0.0000 0.0000 30.4567 0.0000 0.0000
# 5 0.0000 0.0000 0.0000 0.0000 23.6679 0.0000
# 6 0.0000 0.0000 0.0000 0.0000 0.0000 -145.7282
#
#
#
# Elastic Compliance Matrix: (Units=1/GPa)
#
#
# Indices 1 2 3 4 5 6 
#
# 1 0.007710 -0.002500 -0.002686 0.000000 0.000000 0.000000
# 2 -0.002500 0.011765 -0.003266 0.000000 0.000000 0.000000
# 3 -0.002686 -0.003266 0.009248 0.000000 0.000000 0.000000
# 4 0.000000 0.000000 0.000000 0.032834 0.000000 0.000000
# 5 0.000000 0.000000 0.000000 0.000000 0.042251 0.000000
# 6 0.000000 0.000000 0.000000 0.000000 0.000000 -0.006862
#
#
# Mechanical properties :
#
#
# Convention : Reuss Voigt Hill
#
# Bulk Modulus (GPa) = 84.61963 88.45481 86.53722
# Shear Modulus (GPa) = 42.44836 -1.58346 20.43245
#
# Velocity S-wave (km/s) = 4.25425 -0.82167 2.95156
# Velocity P-wave (km/s) = 7.75954 6.06746 6.96508
#
# Compressibility (1/GPa) = 0.01181759
#
# Stress axis : x y z
#
# Youngs Moduli (GPa) = 129.70380 84.99864 108.12950
#
# Poissons Ratio (x) = 0.21253 0.29044
# Poissons Ratio (y) = 0.32431 0.35318
# Poissons Ratio (z) = 0.34838 0.27763
#
# Static dielectric constant tensor:
#      x y z
#    x 3.910890 0.000000 0.000000 
#    y 0.000000 4.415130 0.000000 
#    z 0.000000 0.000000 4.350420 
# 
# 
# High freq. dielectric constant tensor:
#      x y z
#    x 1.906240 0.000000 0.000000 
#    y 0.000000 1.944930 0.000000 
#    z 0.000000 0.000000 1.943990 
# 
# From -- ./inp_files/21338.got.cif
#   From: 2010.03.12/outbox.cif.g09.slc.cpg/sg53_11_cif.got.tgz:21338.got - 2010.04.16 14:36:59.
