data_PCOD8221307
_publ_section_title
;
Structure prediction by ZEFSAII (Michael W. Deem and Ramdas Pophale) SiO2 
 PCOD8221307
Probable space group: P M N A
;
_chemical_formula_sum "Si O2"
_cell_formula_units_Z 40
_cell_length_a 21.742314
_cell_length_b 8.679367
_cell_length_c 9.875540
_cell_angle_alpha 90.000000
_cell_angle_beta 90.000000
_cell_angle_gamma 90.000000
_cell_volume 1863.608439
_symmetry_space_group_name_H-M "P M N A"
_symmetry_group_IT_number 53
_symmetry_cell_setting 'orthorhombic'
loop_
_space_group_symop_operation_xyz
x,y,z
1/2-x,-y,1/2+z
x,-y,-z
1/2-x,y,1/2-z
-x,-y,-z
1/2+x,y,1/2-z
-x,y,z
1/2+x,-y,1/2+z
loop_
_atom_site_type_symbol
_atom_site_label
_atom_site_fract_x
_atom_site_fract_y
_atom_site_fract_z
Si Si1 0.761362 0.140544 0.402578
Si Si2 0.926157 0.155730 0.796531
Si Si3 0.356698 0.677671 0.536943
Si Si4 0.108539 0.820341 0.695500
Si Si5 0.567728 0.657793 0.044089
O O1 0.750000 0.082944 0.250000
O O2 0.714989 0.275627 0.449351
O O3 0.831639 0.194598 0.403258
O O4 0.748637 0.000000 0.500000
O O5 0.901072 0.259850 0.672654
O O6 0.000000 0.157133 0.815487
O O7 0.903539 0.984632 0.762367
O O8 0.892930 0.214456 0.931321
O O9 0.362129 0.500000 0.500000
O O10 0.388689 0.698194 0.682671
O O11 0.058072 0.770983 0.585599
O O12 0.500000 0.611398 0.095155
O O13 0.603201 0.500000 0.000000
#
# Coordination Sequence:
#
# PCOD8221307 Si02
#       5
#     8   8   8   8   8
#     4  10  21  39  61  86 117 155 200 254 310 370
#     4  11  23  40  65  94 125 166 211 257 313 375
#     4  11  24  41  60  87 124 163 208 260 315 375
#     4  11  22  39  62  89 120 159 208 255 308 370
#     4  10  21  37  58  88 124 158 197 248 304 363
#
# _framework density 21.463736000000001
#
# number of rings (size 3 to 8) (size 9 to 14) (size 15 to 20)
#    0.000    1.400    0.000    6.600    0.000    5.200 
#    0.000   11.000    0.000    0.000    0.000    0.000 
#    0.000    0.000    0.000    0.000    0.000    0.000 
#
# Total GULP energy -495735.660433 kJ/mol
# GULP energy per Si atom -12393.391511 kJ/mol
# Density = 2.141488 g / cm^3
# Si number density = 21.463736 Si / 1000 Ang^3
#
#
#
# Elastic Constant Matrix: (Units=GPa)
#
#
# Indices 1 2 3 4 5 6 
#
# 1 91.7313 26.2574 35.5044 0.0000 0.0000 0.0000
# 2 26.2574 103.0831 34.3370 0.0000 0.0000 0.0000
# 3 35.5044 34.3370 93.1519 0.0000 0.0000 0.0000
# 4 0.0000 0.0000 0.0000 41.1969 0.0000 0.0000
# 5 0.0000 0.0000 0.0000 0.0000 32.8884 0.0000
# 6 0.0000 0.0000 0.0000 0.0000 0.0000 3.8882
#
#
#
# Elastic Compliance Matrix: (Units=1/GPa)
#
#
# Indices 1 2 3 4 5 6 
#
# 1 0.013109 -0.001909 -0.004293 0.000000 0.000000 0.000000
# 2 -0.001909 0.011337 -0.003451 0.000000 0.000000 0.000000
# 3 -0.004293 -0.003451 0.013643 0.000000 0.000000 0.000000
# 4 0.000000 0.000000 0.000000 0.024274 0.000000 0.000000
# 5 0.000000 0.000000 0.000000 0.000000 0.030406 0.000000
# 6 0.000000 0.000000 0.000000 0.000000 0.000000 0.257185
#
#
# Mechanical properties :
#
#
# Convention : Reuss Voigt Hill
#
# Bulk Modulus (GPa) = 53.23911 53.35152 53.29531
# Shear Modulus (GPa) = 13.31479 28.38589 20.85034
#
# Velocity S-wave (km/s) = 2.49336 3.64057 3.12015
# Velocity P-wave (km/s) = 5.75736 6.52551 6.15343
#
# Compressibility (1/GPa) = 0.01878319
#
# Stress axis : x y z
#
# Youngs Moduli (GPa) = 76.28081 88.20795 73.29501
#
# Poissons Ratio (x) = 0.16842 0.31464
# Poissons Ratio (y) = 0.14564 0.25295
# Poissons Ratio (z) = 0.32746 0.30442
#
# Static dielectric constant tensor:
#      x y z
#    x 4.263080 0.000000 0.000000 
#    y 0.000000 3.818740 0.000000 
#    z 0.000000 0.000000 4.128800 
# 
# 
# High freq. dielectric constant tensor:
#      x y z
#    x 1.837210 0.000000 0.000000 
#    y 0.000000 1.841390 0.000000 
#    z 0.000000 0.000000 1.862630 
# 
# From -- ./inp_files/11535.got.cif
#   From: 2010.03.12/outbox.cif.g09.slc.cpg/sg53_6_cif.got.tgz:11535.got - 2010.04.16 14:36:59.
