data_PCOD8221253
_publ_section_title
;
Structure prediction by ZEFSAII (Michael W. Deem and Ramdas Pophale) SiO2 
 PCOD8221253
Probable space group: P M N A
;
_chemical_formula_sum "Si O2"
_cell_formula_units_Z 48
_cell_length_a 8.921355
_cell_length_b 18.202178
_cell_length_c 15.358848
_cell_angle_alpha 90.000000
_cell_angle_beta 90.000000
_cell_angle_gamma 90.000000
_cell_volume 2494.094018
_symmetry_space_group_name_H-M "P M N A"
_symmetry_group_IT_number 53
_symmetry_cell_setting 'orthorhombic'
loop_
_space_group_symop_operation_xyz
x,y,z
1/2-x,-y,1/2+z
x,-y,-z
1/2-x,y,1/2-z
-x,-y,-z
1/2+x,y,1/2-z
-x,y,z
1/2+x,-y,1/2+z
loop_
_atom_site_type_symbol
_atom_site_label
_atom_site_fract_x
_atom_site_fract_y
_atom_site_fract_z
Si Si1 0.174170 0.929511 0.339736
Si Si2 0.326206 0.670649 0.498373
Si Si3 0.335188 0.467495 0.595804
Si Si4 0.325177 0.161806 0.508697
Si Si5 0.174773 0.899065 0.659969
Si Si6 0.175718 0.398280 0.337556
O O1 0.250000 0.904279 0.250000
O O2 0.246885 0.886763 0.418876
O O3 0.000000 0.910138 0.334308
O O4 0.201618 0.015101 0.357430
O O5 0.500000 0.657657 0.523153
O O6 0.282035 0.617363 0.416830
O O7 0.296485 0.753343 0.467763
O O8 0.229093 0.651959 0.582952
O O9 0.345008 0.500000 0.500000
O O10 0.500000 0.471389 0.640293
O O11 0.219790 0.515557 0.651779
O O12 0.500000 0.142141 0.505463
O O13 0.253261 0.146580 0.415470
O O14 0.250000 0.874485 0.750000
O O15 0.000000 0.879609 0.663134
O O16 0.250000 0.366755 0.250000
O O17 0.000000 0.391802 0.329180
#
# Coordination Sequence:
#
# PCOD8221253 Si02
#       6
#     8   8   8   8   8   8
#     4  10  21  38  59  82 109 143 187 235 281 330
#     4   9  20  37  54  75 106 141 173 211 263 319
#     4   8  15  32  54  72  96 129 164 204 249 298
#     4  11  22  36  57  84 114 149 186 225 277 337
#     4  10  21  37  57  82 112 147 187 232 279 329
#     4  11  21  33  53  79 105 135 174 217 261 312
#
# _framework density 19.245466
#
# number of rings (size 3 to 8) (size 9 to 14) (size 15 to 20)
#    0.000    2.167    0.000    4.500    0.000    9.000 
#    0.000    0.833    0.000    0.000    0.000    0.000 
#    0.000    0.000    0.000    0.000    0.000    0.000 
#
# Total GULP energy -595209.793777 kJ/mol
# GULP energy per Si atom -12400.204037 kJ/mol
# Density = 1.920166 g / cm^3
# Si number density = 19.245466 Si / 1000 Ang^3
#
#
#
# Elastic Constant Matrix: (Units=GPa)
#
#
# Indices 1 2 3 4 5 6 
#
# 1 110.7164 24.4110 22.8757 0.0000 0.0000 0.0000
# 2 24.4110 61.3292 9.7778 0.0000 0.0000 0.0000
# 3 22.8757 9.7778 51.6330 0.0000 0.0000 0.0000
# 4 0.0000 0.0000 0.0000 11.7479 0.0000 0.0000
# 5 0.0000 0.0000 0.0000 0.0000 36.9096 0.0000
# 6 0.0000 0.0000 0.0000 0.0000 0.0000 44.0619
#
#
#
# Elastic Compliance Matrix: (Units=1/GPa)
#
#
# Indices 1 2 3 4 5 6 
#
# 1 0.010661 -0.003599 -0.004042 0.000000 0.000000 0.000000
# 2 -0.003599 0.018028 -0.001820 0.000000 0.000000 0.000000
# 3 -0.004042 -0.001820 0.021503 0.000000 0.000000 0.000000
# 4 0.000000 0.000000 0.000000 0.085121 0.000000 0.000000
# 5 0.000000 0.000000 0.000000 0.000000 0.027093 0.000000
# 6 0.000000 0.000000 0.000000 0.000000 0.000000 0.022695
#
#
# Mechanical properties :
#
#
# Convention : Reuss Voigt Hill
#
# Bulk Modulus (GPa) = 31.97828 37.53420 34.75624
# Shear Modulus (GPa) = 23.31600 29.65150 26.48375
#
# Velocity S-wave (km/s) = 3.48445 3.92943 3.71361
# Velocity P-wave (km/s) = 5.73067 6.33502 6.04041
#
# Compressibility (1/GPa) = 0.03127123
#
# Stress axis : x y z
#
# Youngs Moduli (GPa) = 93.80298 55.46916 46.50589
#
# Poissons Ratio (x) = 0.19963 0.18796
# Poissons Ratio (y) = 0.33759 0.08462
# Poissons Ratio (z) = 0.37911 0.10093
#
# Static dielectric constant tensor:
#      x y z
#    x 3.581410 0.000000 0.000000 
#    y 0.000000 3.767750 0.000000 
#    z 0.000000 0.000000 3.483740 
# 
# 
# High freq. dielectric constant tensor:
#      x y z
#    x 1.756160 0.000000 0.000000 
#    y 0.000000 1.746350 0.000000 
#    z 0.000000 0.000000 1.738400 
# 
# From -- ./inp_files/20180.got.cif
#   From: 2010.03.12/outbox.cif.g09.slc.cpg/sg53_11_cif.got.tgz:20180.got - 2010.04.16 14:36:59.
