data_PCOD8221729
_publ_section_title
;
Structure prediction by ZEFSAII (Michael W. Deem and Ramdas Pophale) SiO2 
 PCOD8221729
Probable space group: P M N A
;
_chemical_formula_sum "Si O2"
_cell_formula_units_Z 32
_cell_length_a 8.823029
_cell_length_b 12.250880
_cell_length_c 14.926593
_cell_angle_alpha 90.000000
_cell_angle_beta 90.000000
_cell_angle_gamma 90.000000
_cell_volume 1613.413490
_symmetry_space_group_name_H-M "P M N A"
_symmetry_group_IT_number 53
_symmetry_cell_setting 'orthorhombic'
loop_
_space_group_symop_operation_xyz
x,y,z
1/2-x,-y,1/2+z
x,-y,-z
1/2-x,y,1/2-z
-x,-y,-z
1/2+x,y,1/2-z
-x,y,z
1/2+x,-y,1/2+z
loop_
_atom_site_type_symbol
_atom_site_label
_atom_site_fract_x
_atom_site_fract_y
_atom_site_fract_z
Si Si1 0.176175 0.726214 0.346180
Si Si2 0.820888 0.271869 0.151846
Si Si3 0.322679 0.873106 0.992143
Si Si4 0.822653 0.485487 0.346582
O O1 0.250000 0.746179 0.250000
O O2 0.236791 0.814028 0.417595
O O3 0.207718 0.605191 0.388620
O O4 0.000000 0.742028 0.329000
O O5 0.750000 0.258204 0.250000
O O6 0.759651 0.383984 0.103935
O O7 0.000000 0.275720 0.159963
O O8 0.770378 0.169786 0.092551
O O9 0.500000 0.849388 0.977117
O O10 0.287225 0.000000 0.000000
O O11 0.750000 0.490768 0.250000
O O12 0.000000 0.459075 0.341807
#
# Coordination Sequence:
#
# PCOD8221729 Si02
#       4
#     8   8   8   8
#     4   9  19  35  57  83 111 144 179 223 276 328
#     4  11  22  37  58  83 112 145 182 226 276 328
#     4  10  22  40  58  79 110 148 190 231 272 322
#     4   9  16  30  53  81 111 140 175 218 271 332
#
# _framework density 19.833725999999999
#
# number of rings (size 3 to 8) (size 9 to 14) (size 15 to 20)
#    0.000    2.250    0.000    4.500    0.000    4.500 
#    0.000    7.500    0.000    0.000    0.000    0.000 
#    0.000    0.000    0.000    0.000    0.000    0.000 
#
# Total GULP energy -396613.801924 kJ/mol
# GULP energy per Si atom -12394.181310 kJ/mol
# Density = 1.978858 g / cm^3
# Si number density = 19.833726 Si / 1000 Ang^3
#
#
#
# Elastic Constant Matrix: (Units=GPa)
#
#
# Indices 1 2 3 4 5 6 
#
# 1 114.8773 70.4263 52.3368 0.0000 0.0000 0.0000
# 2 70.4263 162.2674 73.0895 0.0000 0.0000 0.0000
# 3 52.3368 73.0895 101.7466 0.0000 0.0000 0.0000
# 4 0.0000 0.0000 0.0000 34.1633 0.0000 0.0000
# 5 0.0000 0.0000 0.0000 0.0000 25.7514 0.0000
# 6 0.0000 0.0000 0.0000 0.0000 0.0000 29.2934
#
#
#
# Elastic Compliance Matrix: (Units=1/GPa)
#
#
# Indices 1 2 3 4 5 6 
#
# 1 0.012798 -0.003828 -0.003833 0.000000 0.000000 0.000000
# 2 -0.003828 0.010255 -0.005398 0.000000 0.000000 0.000000
# 3 -0.003833 -0.005398 0.015678 0.000000 0.000000 0.000000
# 4 0.000000 0.000000 0.000000 0.029271 0.000000 0.000000
# 5 0.000000 0.000000 0.000000 0.000000 0.038833 0.000000
# 6 0.000000 0.000000 0.000000 0.000000 0.000000 0.034137
#
#
# Mechanical properties :
#
#
# Convention : Reuss Voigt Hill
#
# Bulk Modulus (GPa) = 79.28426 85.62182 82.45304
# Shear Modulus (GPa) = 29.18934 30.04419 29.61677
#
# Velocity S-wave (km/s) = 3.84044 3.89627 3.86846
# Velocity P-wave (km/s) = 7.72830 7.96899 7.84956
#
# Compressibility (1/GPa) = 0.01261284
#
# Stress axis : x y z
#
# Youngs Moduli (GPa) = 78.13657 97.50964 63.78466
#
# Poissons Ratio (x) = 0.37326 0.24451
# Poissons Ratio (y) = 0.29910 0.34431
# Poissons Ratio (z) = 0.29953 0.52635
#
# Static dielectric constant tensor:
#      x y z
#    x 3.597790 0.000000 0.000000 
#    y 0.000000 4.345350 0.000000 
#    z 0.000000 0.000000 3.412690 
# 
# 
# High freq. dielectric constant tensor:
#      x y z
#    x 1.771500 0.000000 0.000000 
#    y 0.000000 1.784570 0.000000 
#    z 0.000000 0.000000 1.757080 
# 
# From -- ./inp_files/19503.got.cif
#   From: 2010.03.12/outbox.cif.g09.slc.cpg/sg53_10_cif.got.tgz:19503.got - 2010.04.16 14:36:59.
