data_PCOD8221422
_publ_section_title
;
Structure prediction by ZEFSAII (Michael W. Deem and Ramdas Pophale) SiO2 
 PCOD8221422
Probable space group: P M N A
;
_chemical_formula_sum "Si O2"
_cell_formula_units_Z 24
_cell_length_a 17.062398
_cell_length_b 4.847512
_cell_length_c 12.784661
_cell_angle_alpha 90.000000
_cell_angle_beta 90.000000
_cell_angle_gamma 90.000000
_cell_volume 1057.421600
_symmetry_space_group_name_H-M "P M N A"
_symmetry_group_IT_number 53
_symmetry_cell_setting 'orthorhombic'
loop_
_space_group_symop_operation_xyz
x,y,z
1/2-x,-y,1/2+z
x,-y,-z
1/2-x,y,1/2-z
-x,-y,-z
1/2+x,y,1/2-z
-x,y,z
1/2+x,-y,1/2+z
loop_
_atom_site_type_symbol
_atom_site_label
_atom_site_fract_x
_atom_site_fract_y
_atom_site_fract_z
Si Si1 0.338774 0.485440 0.269749
Si Si2 0.910313 0.040724 0.877527
Si Si3 0.085773 0.759504 0.429511
O O1 0.250000 0.394232 0.250000
O O2 0.387318 0.213738 0.301421
O O3 0.365754 0.660958 0.169512
O O4 0.351267 0.703892 0.362092
O O5 0.000000 0.119140 0.849933
O O6 0.901482 0.000000 0.000000
O O7 0.073365 0.500000 0.500000
O O8 0.000000 0.870942 0.392887
O O9 0.127723 0.000000 0.500000
#
# Coordination Sequence:
#
# PCOD8221422 Si02
#       3
#     8   8   8
#     4  12  25  41  64  97 134 168 210 271 336 390
#     4  11  24  44  69  94 126 173 224 270 321 391
#     4  10  21  38  61  87 118 161 208 252 304 373
#
# _framework density 22.696717
#
# number of rings (size 3 to 8) (size 9 to 14) (size 15 to 20)
#    0.000    1.000    0.000    7.000    0.000    9.333 
#    0.000    0.000    0.000    0.000    0.000    0.000 
#    0.000    0.000    0.000    0.000    0.000    0.000 
#
# Total GULP energy -297365.352624 kJ/mol
# GULP energy per Si atom -12390.223026 kJ/mol
# Density = 2.264506 g / cm^3
# Si number density = 22.696717 Si / 1000 Ang^3
#
#
#
# Elastic Constant Matrix: (Units=GPa)
#
#
# Indices 1 2 3 4 5 6 
#
# 1 99.1351 16.3025 32.1189 0.0000 0.0000 0.0000
# 2 16.3025 100.6467 0.0551 0.0000 0.0000 0.0000
# 3 32.1189 0.0551 76.2648 0.0000 0.0000 0.0000
# 4 0.0000 0.0000 0.0000 45.0708 0.0000 0.0000
# 5 0.0000 0.0000 0.0000 0.0000 2.0884 0.0000
# 6 0.0000 0.0000 0.0000 0.0000 0.0000 10.3722
#
#
#
# Elastic Compliance Matrix: (Units=1/GPa)
#
#
# Indices 1 2 3 4 5 6 
#
# 1 0.012052 -0.001949 -0.005074 0.000000 0.000000 0.000000
# 2 -0.001949 0.010251 0.000814 0.000000 0.000000 0.000000
# 3 -0.005074 0.000814 0.015249 0.000000 0.000000 0.000000
# 4 0.000000 0.000000 0.000000 0.022187 0.000000 0.000000
# 5 0.000000 0.000000 0.000000 0.000000 0.478838 0.000000
# 6 0.000000 0.000000 0.000000 0.000000 0.000000 0.096412
#
#
# Mechanical properties :
#
#
# Convention : Reuss Voigt Hill
#
# Bulk Modulus (GPa) = 39.79070 41.44440 40.61755
# Shear Modulus (GPa) = 7.62444 26.67761 17.15102
#
# Velocity S-wave (km/s) = 1.83482 3.43212 2.75191
# Velocity P-wave (km/s) = 4.69662 5.83144 5.29452
#
# Compressibility (1/GPa) = 0.02513150
#
# Stress axis : x y z
#
# Youngs Moduli (GPa) = 82.97514 97.55102 65.57968
#
# Poissons Ratio (x) = 0.19016 0.33276
# Poissons Ratio (y) = 0.16175 -0.05335
# Poissons Ratio (z) = 0.42103 -0.07936
#
# Static dielectric constant tensor:
#      x y z
#    x 4.373200 0.000000 0.000000 
#    y 0.000000 4.356310 0.000000 
#    z 0.000000 0.000000 4.088320 
# 
# 
# High freq. dielectric constant tensor:
#      x y z
#    x 1.876790 0.000000 0.000000 
#    y 0.000000 1.911150 0.000000 
#    z 0.000000 0.000000 1.914140 
# 
# From -- ./inp_files/16323.got.cif
#   From: 2010.03.12/outbox.cif.g09.slc.cpg/sg53_9_cif.got.tgz:16323.got - 2010.04.16 14:36:59.
