data_PCOD8221462
_publ_section_title
;
Structure prediction by ZEFSAII (Michael W. Deem and Ramdas Pophale) SiO2 
 PCOD8221462
Probable space group: P M N A
;
_chemical_formula_sum "Si O2"
_cell_formula_units_Z 48
_cell_length_a 17.282772
_cell_length_b 12.728788
_cell_length_c 10.810319
_cell_angle_alpha 90.000000
_cell_angle_beta 90.000000
_cell_angle_gamma 90.000000
_cell_volume 2378.148465
_symmetry_space_group_name_H-M "P M N A"
_symmetry_group_IT_number 53
_symmetry_cell_setting 'orthorhombic'
loop_
_space_group_symop_operation_xyz
x,y,z
1/2-x,-y,1/2+z
x,-y,-z
1/2-x,y,1/2-z
-x,-y,-z
1/2+x,y,1/2-z
-x,y,z
1/2+x,-y,1/2+z
loop_
_atom_site_type_symbol
_atom_site_label
_atom_site_fract_x
_atom_site_fract_y
_atom_site_fract_z
Si Si1 0.659752 0.754889 0.768367
Si Si2 0.412978 0.827579 0.269368
Si Si3 0.590503 0.553665 0.874415
Si Si4 0.410374 0.033521 0.140023
Si Si5 0.838208 0.619520 0.216394
Si Si6 0.087604 0.713911 0.995902
O O1 0.750000 0.746603 0.750000
O O2 0.633650 0.664179 0.861734
O O3 0.640012 0.865359 0.830088
O O4 0.617663 0.741780 0.638038
O O5 0.500000 0.817298 0.215425
O O6 0.364199 0.728309 0.215256
O O7 0.412994 0.820267 0.419553
O O8 0.378447 0.938591 0.225913
O O9 0.500000 0.576289 0.877821
O O10 0.610375 0.477949 0.760452
O O11 0.620246 0.500000 0.000000
O O12 0.500000 0.058566 0.167949
O O13 0.396857 0.000000 0.000000
O O14 0.750000 0.595645 0.250000
O O15 0.856625 0.630325 0.068541
O O16 0.000000 0.669104 0.986159
#
# Coordination Sequence:
#
# PCOD8221462 Si02
#       6
#     8   8   8   8   8   8
#     4  12  27  43  62  99 133 165 222 283 340 386
#     4   8  18  37  63  92 121 168 220 258 316 392
#     4  11  25  42  66  92 130 177 220 269 323 403
#     4  10  22  41  67  93 130 177 220 268 320 397
#     4  10  21  38  65  96 130 171 212 268 331 386
#     4   9  20  41  67  91 125 168 217 267 318 398
#
# _framework density 20.183768000000001
#
# number of rings (size 3 to 8) (size 9 to 14) (size 15 to 20)
#    1.000    1.000    0.000    3.000    4.667    2.000 
#    3.000    4.167    0.000    0.000    0.000    0.000 
#    0.000    0.000    0.000    0.000    0.000    0.000 
#
# Total GULP energy -594967.556660 kJ/mol
# GULP energy per Si atom -12395.157430 kJ/mol
# Density = 2.013783 g / cm^3
# Si number density = 20.183768 Si / 1000 Ang^3
#
#
#
# Elastic Constant Matrix: (Units=GPa)
#
#
# Indices 1 2 3 4 5 6 
#
# 1 98.4363 17.5193 16.7243 0.0000 0.0000 0.0000
# 2 17.5193 96.0296 -1.4566 0.0000 0.0000 0.0000
# 3 16.7243 -1.4566 64.4294 0.0000 0.0000 0.0000
# 4 0.0000 0.0000 0.0000 30.7368 0.0000 0.0000
# 5 0.0000 0.0000 0.0000 0.0000 24.9124 0.0000
# 6 0.0000 0.0000 0.0000 0.0000 0.0000 16.3547
#
#
#
# Elastic Compliance Matrix: (Units=1/GPa)
#
#
# Indices 1 2 3 4 5 6 
#
# 1 0.011018 -0.002054 -0.002907 0.000000 0.000000 0.000000
# 2 -0.002054 0.010800 0.000777 0.000000 0.000000 0.000000
# 3 -0.002907 0.000777 0.016293 0.000000 0.000000 0.000000
# 4 0.000000 0.000000 0.000000 0.032534 0.000000 0.000000
# 5 0.000000 0.000000 0.000000 0.000000 0.040141 0.000000
# 6 0.000000 0.000000 0.000000 0.000000 0.000000 0.061145
#
#
# Mechanical properties :
#
#
# Convention : Reuss Voigt Hill
#
# Bulk Modulus (GPa) = 33.61966 36.05213 34.83590
# Shear Modulus (GPa) = 26.28642 29.47466 27.88054
#
# Velocity S-wave (km/s) = 3.61273 3.82555 3.72066
# Velocity P-wave (km/s) = 5.83912 6.11669 5.97952
#
# Compressibility (1/GPa) = 0.02974450
#
# Stress axis : x y z
#
# Youngs Moduli (GPa) = 90.75830 92.59246 61.37643
#
# Poissons Ratio (x) = 0.19021 0.17839
# Poissons Ratio (y) = 0.18644 -0.04771
# Poissons Ratio (z) = 0.26379 -0.07198
#
# Static dielectric constant tensor:
#      x y z
#    x 3.433220 0.000000 0.000000 
#    y 0.000000 3.660690 0.000000 
#    z 0.000000 0.000000 3.646580 
# 
# 
# High freq. dielectric constant tensor:
#      x y z
#    x 1.783540 0.000000 0.000000 
#    y 0.000000 1.785860 0.000000 
#    z 0.000000 0.000000 1.783270 
# 
# From -- ./inp_files/15960.got.cif
#   From: 2010.03.12/outbox.cif.g09.slc.cpg/sg53_8_cif.got.tgz:15960.got - 2010.04.16 14:36:59.
