data_PCOD8221708
_publ_section_title
;
Structure prediction by ZEFSAII (Michael W. Deem and Ramdas Pophale) SiO2 
 PCOD8221708
Probable space group: P M N A
;
_chemical_formula_sum "Si O2"
_cell_formula_units_Z 48
_cell_length_a 8.593655
_cell_length_b 31.246343
_cell_length_c 9.094769
_cell_angle_alpha 90.000000
_cell_angle_beta 90.000000
_cell_angle_gamma 90.000000
_cell_volume 2442.130025
_symmetry_space_group_name_H-M "P M N A"
_symmetry_group_IT_number 53
_symmetry_cell_setting 'orthorhombic'
loop_
_space_group_symop_operation_xyz
x,y,z
1/2-x,-y,1/2+z
x,-y,-z
1/2-x,y,1/2-z
-x,-y,-z
1/2+x,y,1/2-z
-x,y,z
1/2+x,-y,1/2+z
loop_
_atom_site_type_symbol
_atom_site_label
_atom_site_fract_x
_atom_site_fract_y
_atom_site_fract_z
Si Si1 0.816339 0.540765 0.088270
Si Si2 0.818118 0.039202 0.409961
Si Si3 0.684142 0.702905 0.088465
Si Si4 0.315455 0.375707 0.411321
Si Si5 0.682332 0.867868 0.911011
Si Si6 0.183497 0.218640 0.085291
O O1 0.750000 0.540800 0.250000
O O2 0.000000 0.537996 0.098240
O O3 0.749262 0.500000 0.000000
O O4 0.762521 0.583713 0.006855
O O5 0.750000 0.037838 0.250000
O O6 0.785814 0.085764 0.487660
O O7 0.000000 0.031906 0.394564
O O8 0.741757 0.000000 0.500000
O O9 0.750000 0.694447 0.250000
O O10 0.500000 0.703278 0.096792
O O11 0.739831 0.666164 0.979580
O O12 0.743780 0.747558 0.025507
O O13 0.250000 0.382886 0.250000
O O14 0.500000 0.370167 0.406531
O O15 0.750000 0.872552 0.750000
O O16 0.500000 0.857054 0.904837
O O17 0.771523 0.827788 0.984687
O O18 0.250000 0.224052 0.250000
O O19 0.000000 0.224696 0.091007
#
# Coordination Sequence:
#
# PCOD8221708 Si02
#       6
#     8   8   8   8   8   8
#     4  10  22  39  60  88 121 157 197 240 287 339
#     4   9  18  32  50  74 104 138 177 222 270 322
#     4  12  25  42  61  84 115 149 186 229 281 337
#     4  11  23  40  62  89 119 153 195 239 285 335
#     4   9  16  29  50  75 104 138 178 224 272 322
#     4  11  21  36  58  84 111 142 183 228 276 329
#
# _framework density 19.654972000000001
#
# number of rings (size 3 to 8) (size 9 to 14) (size 15 to 20)
#    0.000    1.667    0.000    6.500    0.000    4.000 
#    0.000    0.833    0.000    2.000    0.000    0.000 
#    0.000    0.000    0.000    0.000    0.000    0.000 
#
# Total GULP energy -595054.847840 kJ/mol
# GULP energy per Si atom -12396.975997 kJ/mol
# Density = 1.961024 g / cm^3
# Si number density = 19.654972 Si / 1000 Ang^3
#
#
#
# Elastic Constant Matrix: (Units=GPa)
#
#
# Indices 1 2 3 4 5 6 
#
# 1 95.3875 43.6596 35.6580 0.0000 0.0000 0.0000
# 2 43.6596 162.8291 59.5403 0.0000 0.0000 0.0000
# 3 35.6580 59.5403 109.3261 0.0000 0.0000 0.0000
# 4 0.0000 0.0000 0.0000 44.6202 0.0000 0.0000
# 5 0.0000 0.0000 0.0000 0.0000 31.1306 0.0000
# 6 0.0000 0.0000 0.0000 0.0000 0.0000 30.2368
#
#
#
# Elastic Compliance Matrix: (Units=1/GPa)
#
#
# Indices 1 2 3 4 5 6 
#
# 1 0.012618 -0.002346 -0.002838 0.000000 0.000000 0.000000
# 2 -0.002346 0.008105 -0.003649 0.000000 0.000000 0.000000
# 3 -0.002838 -0.003649 0.012060 0.000000 0.000000 0.000000
# 4 0.000000 0.000000 0.000000 0.022411 0.000000 0.000000
# 5 0.000000 0.000000 0.000000 0.000000 0.032123 0.000000
# 6 0.000000 0.000000 0.000000 0.000000 0.000000 0.033072
#
#
# Mechanical properties :
#
#
# Convention : Reuss Voigt Hill
#
# Bulk Modulus (GPa) = 66.14846 71.69541 68.92193
# Shear Modulus (GPa) = 34.94232 36.44317 35.69274
#
# Velocity S-wave (km/s) = 4.22095 4.31065 4.26604
# Velocity P-wave (km/s) = 7.58176 7.83146 7.70762
#
# Compressibility (1/GPa) = 0.01511751
#
# Stress axis : x y z
#
# Youngs Moduli (GPa) = 79.25142 123.38759 82.91988
#
# Poissons Ratio (x) = 0.28941 0.23534
# Poissons Ratio (y) = 0.18588 0.30256
# Poissons Ratio (z) = 0.22493 0.45022
#
# Static dielectric constant tensor:
#      x y z
#    x 3.671850 0.000000 0.000000 
#    y 0.000000 4.450000 0.000000 
#    z 0.000000 0.000000 2.693310 
# 
# 
# High freq. dielectric constant tensor:
#      x y z
#    x 1.774250 0.000000 0.000000 
#    y 0.000000 1.796320 0.000000 
#    z 0.000000 0.000000 1.743550 
# 
# From -- ./inp_files/6687.got.cif
#   From: 2010.03.12/outbox.cif.g09.slc.cpg/sg53_4_cif.got.tgz:6687.got - 2010.04.16 14:36:59.
