data_PCOD8221756
_publ_section_title
;
Structure prediction by ZEFSAII (Michael W. Deem and Ramdas Pophale) SiO2 
 PCOD8221756
Probable space group: P M N A
;
_chemical_formula_sum "Si O2"
_cell_formula_units_Z 56
_cell_length_a 22.277766
_cell_length_b 13.346052
_cell_length_c 9.672104
_cell_angle_alpha 90.000000
_cell_angle_beta 90.000000
_cell_angle_gamma 90.000000
_cell_volume 2875.712123
_symmetry_space_group_name_H-M "P M N A"
_symmetry_group_IT_number 53
_symmetry_cell_setting 'orthorhombic'
loop_
_space_group_symop_operation_xyz
x,y,z
1/2-x,-y,1/2+z
x,-y,-z
1/2-x,y,1/2-z
-x,-y,-z
1/2+x,y,1/2-z
-x,y,z
1/2+x,-y,1/2+z
loop_
_atom_site_type_symbol
_atom_site_label
_atom_site_fract_x
_atom_site_fract_y
_atom_site_fract_z
Si Si1 0.428936 0.086626 0.737893
Si Si2 0.258238 0.097708 0.086714
Si Si3 0.137508 0.198963 0.998301
Si Si4 0.816660 0.407163 0.908552
Si Si5 0.567506 0.146090 0.250087
Si Si6 0.320925 0.591772 0.091816
Si Si7 0.373487 0.796234 0.012567
O O1 0.500000 0.106013 0.758031
O O2 0.407147 0.130611 0.592237
O O3 0.389041 0.137263 0.855607
O O4 0.412635 0.969896 0.745478
O O5 0.250000 0.075310 0.250000
O O6 0.201211 0.145935 0.012345
O O7 0.313606 0.172059 0.068022
O O8 0.274357 0.000000 0.000000
O O9 0.143461 0.309251 0.934847
O O10 0.108864 0.210927 0.149011
O O11 0.747764 0.380445 0.945806
O O12 0.824709 0.440538 0.750912
O O13 0.839798 0.500000 0.000000
O O14 0.500000 0.156342 0.301633
O O15 0.572618 0.191798 0.096598
O O16 0.365675 0.682867 0.062307
O O17 0.343943 0.500000 0.000000
#
# Coordination Sequence:
#
# PCOD8221756 Si02
#       7
#     8   8   8   8   8   8   8
#     4  11  24  43  66  91 126 175 223 258 300 370
#     4  12  26  38  59  94 133 172 205 256 324 384
#     4  12  23  40  64  93 130 165 207 263 319 374
#     4  10  22  40  63  92 124 161 204 253 314 384
#     4  11  24  41  62  91 126 173 221 256 296 366
#     4  10  22  40  63  92 124 161 204 253 314 384
#     4  12  23  40  64  93 130 165 207 263 319 374
#
# _framework density 19.473438000000002
#
# number of rings (size 3 to 8) (size 9 to 14) (size 15 to 20)
#    0.000    0.857    4.286    3.429    4.000    2.286 
#    0.000    0.000    0.000    5.143    0.000    0.000 
#    0.000    0.000    0.000    0.000    0.000    0.000 
#
# Total GULP energy -694662.067119 kJ/mol
# GULP energy per Si atom -12404.679770 kJ/mol
# Density = 1.942912 g / cm^3
# Si number density = 19.473438 Si / 1000 Ang^3
#
#
#
# Elastic Constant Matrix: (Units=GPa)
#
#
# Indices 1 2 3 4 5 6 
#
# 1 64.0839 31.5056 22.2449 0.0000 0.0000 0.0000
# 2 31.5056 88.7048 44.2559 0.0000 0.0000 0.0000
# 3 22.2449 44.2559 106.2348 0.0000 0.0000 0.0000
# 4 0.0000 0.0000 0.0000 38.3783 0.0000 0.0000
# 5 0.0000 0.0000 0.0000 0.0000 33.4569 0.0000
# 6 0.0000 0.0000 0.0000 0.0000 0.0000 16.4511
#
#
#
# Elastic Compliance Matrix: (Units=1/GPa)
#
#
# Indices 1 2 3 4 5 6 
#
# 1 0.019088 -0.006041 -0.001480 0.000000 0.000000 0.000000
# 2 -0.006041 0.016143 -0.005460 0.000000 0.000000 0.000000
# 3 -0.001480 -0.005460 0.011998 0.000000 0.000000 0.000000
# 4 0.000000 0.000000 0.000000 0.026056 0.000000 0.000000
# 5 0.000000 0.000000 0.000000 0.000000 0.029889 0.000000
# 6 0.000000 0.000000 0.000000 0.000000 0.000000 0.060786
#
#
# Mechanical properties :
#
#
# Convention : Reuss Voigt Hill
#
# Bulk Modulus (GPa) = 47.02307 50.55960 48.79133
# Shear Modulus (GPa) = 25.37907 28.39172 26.88540
#
# Velocity S-wave (km/s) = 3.61399 3.82248 3.71970
# Velocity P-wave (km/s) = 6.45092 6.74548 6.59984
#
# Compressibility (1/GPa) = 0.02126616
#
# Stress axis : x y z
#
# Youngs Moduli (GPa) = 52.38785 61.94620 83.34975
#
# Poissons Ratio (x) = 0.37422 0.12339
# Poissons Ratio (y) = 0.31648 0.45509
# Poissons Ratio (z) = 0.07755 0.33822
#
# Static dielectric constant tensor:
#      x y z
#    x 3.481630 0.000000 0.000000 
#    y 0.000000 3.451170 0.000000 
#    z 0.000000 0.000000 3.672250 
# 
# 
# High freq. dielectric constant tensor:
#      x y z
#    x 1.749020 0.000000 0.000000 
#    y 0.000000 1.748100 0.000000 
#    z 0.000000 0.000000 1.778150 
# 
# From -- ./inp_files/11041.got.cif
#   From: 2010.03.12/outbox.cif.g09.slc.cpg/sg53_6_cif.got.tgz:11041.got - 2010.04.16 14:36:59.
