data_PCOD8221343
_publ_section_title
;
Structure prediction by ZEFSAII (Michael W. Deem and Ramdas Pophale) SiO2 
 PCOD8221343
Probable space group: P M N A
;
_chemical_formula_sum "Si O2"
_cell_formula_units_Z 44
_cell_length_a 12.814306
_cell_length_b 17.242997
_cell_length_c 8.323897
_cell_angle_alpha 90.000000
_cell_angle_beta 90.000000
_cell_angle_gamma 90.000000
_cell_volume 1839.223642
_symmetry_space_group_name_H-M "P M N A"
_symmetry_group_IT_number 53
_symmetry_cell_setting 'orthorhombic'
loop_
_space_group_symop_operation_xyz
x,y,z
1/2-x,-y,1/2+z
x,-y,-z
1/2-x,y,1/2-z
-x,-y,-z
1/2+x,y,1/2-z
-x,y,z
1/2+x,-y,1/2+z
loop_
_atom_site_type_symbol
_atom_site_label
_atom_site_fract_x
_atom_site_fract_y
_atom_site_fract_z
Si Si1 0.311867 0.910509 0.521248
Si Si2 0.375080 0.411173 0.502828
Si Si3 0.377076 0.333693 0.178452
Si Si4 0.750000 0.190483 0.750000
Si Si5 0.885434 0.843306 0.669447
Si Si6 0.123707 0.668697 0.331145
O O1 0.324507 0.863676 0.356744
O O2 0.391213 0.873583 0.647832
O O3 0.191284 0.899747 0.573590
O O4 0.338800 0.000000 0.500000
O O5 0.340114 0.500000 0.500000
O O6 0.500000 0.403702 0.503748
O O7 0.325871 0.371717 0.340174
O O8 0.330355 0.371959 0.668225
O O9 0.500000 0.342749 0.201723
O O10 0.343428 0.244390 0.173896
O O11 0.346883 0.372998 0.003408
O O12 0.831229 0.244349 0.652818
O O13 0.000000 0.847933 0.591629
O O14 0.000000 0.673108 0.316598
#
# Coordination Sequence:
#
# PCOD8221343 Si02
#       6
#     8   8   8   4   8   8
#     4  11  24  40  60  91 124 156 201 256 313 374
#     4   9  18  33  57  89 123 159 201 253 308 359
#     4   9  17  34  59  86 117 157 204 250 300 363
#     4  12  22  38  64  88 122 158 200 258 308 362
#     4  10  21  41  63  85 119 162 206 250 304 367
#     4  10  21  37  60  90 120 160 214 253 297 369
#
# _framework density 23.923138000000002
#
# number of rings (size 3 to 8) (size 9 to 14) (size 15 to 20)
#    0.000    2.000    1.818    2.182    0.000    3.636 
#    0.000    5.455    4.000    0.000    0.000    0.000 
#    0.000    0.000    0.000    0.000    0.000    0.000 
#
# Total GULP energy -545373.698655 kJ/mol
# GULP energy per Si atom -12394.856788 kJ/mol
# Density = 2.386869 g / cm^3
# Si number density = 23.923138 Si / 1000 Ang^3
#
#
#
# Elastic Constant Matrix: (Units=GPa)
#
#
# Indices 1 2 3 4 5 6 
#
# 1 38.7531 -9.5222 30.8896 0.0000 0.0000 0.0000
# 2 -9.5222 133.2708 76.8038 0.0000 0.0000 0.0000
# 3 30.8896 76.8038 191.0745 0.0000 0.0000 0.0000
# 4 0.0000 0.0000 0.0000 34.6092 0.0000 0.0000
# 5 0.0000 0.0000 0.0000 0.0000 39.2433 0.0000
# 6 0.0000 0.0000 0.0000 0.0000 0.0000 15.1610
#
#
#
# Elastic Compliance Matrix: (Units=1/GPa)
#
#
# Indices 1 2 3 4 5 6 
#
# 1 0.034413 0.007373 -0.008527 0.000000 0.000000 0.000000
# 2 0.007373 0.011345 -0.005752 0.000000 0.000000 0.000000
# 3 -0.008527 -0.005752 0.008924 0.000000 0.000000 0.000000
# 4 0.000000 0.000000 0.000000 0.028894 0.000000 0.000000
# 5 0.000000 0.000000 0.000000 0.000000 0.025482 0.000000
# 6 0.000000 0.000000 0.000000 0.000000 0.000000 0.065959
#
#
# Mechanical properties :
#
#
# Convention : Reuss Voigt Hill
#
# Bulk Modulus (GPa) = 24.46811 62.16006 43.31408
# Shear Modulus (GPa) = 24.69718 35.46453 30.08085
#
# Velocity S-wave (km/s) = 3.21651 3.85442 3.54982
# Velocity P-wave (km/s) = 4.90353 6.77114 5.91156
#
# Compressibility (1/GPa) = 0.04086953
#
# Stress axis : x y z
#
# Youngs Moduli (GPa) = 29.05919 88.14227 112.05539
#
# Poissons Ratio (x) = -0.64985 0.95547
# Poissons Ratio (y) = -0.21425 0.64457
# Poissons Ratio (z) = 0.24778 0.50701
#
# Static dielectric constant tensor:
#      x y z
#    x 4.147320 0.000000 0.000000 
#    y 0.000000 3.995080 0.000000 
#    z 0.000000 0.000000 4.900470 
# 
# 
# High freq. dielectric constant tensor:
#      x y z
#    x 1.962410 0.000000 0.000000 
#    y 0.000000 1.917040 0.000000 
#    z 0.000000 0.000000 1.975670 
# 
# From -- ./inp_files/8558.got.cif
#   From: 2010.03.12/outbox.cif.g09.slc.cpg/sg53_5_cif.got.tgz:8558.got - 2010.04.16 14:36:59.
