data_PCOD8221085
_publ_section_title
;
Structure prediction by ZEFSAII (Michael W. Deem and Ramdas Pophale) SiO2 
 PCOD8221085
Probable space group: P M N A
;
_chemical_formula_sum "Si O2"
_cell_formula_units_Z 40
_cell_length_a 8.985757
_cell_length_b 25.244461
_cell_length_c 9.185763
_cell_angle_alpha 90.000000
_cell_angle_beta 90.000000
_cell_angle_gamma 90.000000
_cell_volume 2083.703918
_symmetry_space_group_name_H-M "P M N A"
_symmetry_group_IT_number 53
_symmetry_cell_setting 'orthorhombic'
loop_
_space_group_symop_operation_xyz
x,y,z
1/2-x,-y,1/2+z
x,-y,-z
1/2-x,y,1/2-z
-x,-y,-z
1/2+x,y,1/2-z
-x,y,z
1/2+x,-y,1/2+z
loop_
_atom_site_type_symbol
_atom_site_label
_atom_site_fract_x
_atom_site_fract_y
_atom_site_fract_z
Si Si1 0.675219 0.950840 0.903587
Si Si2 0.826892 0.736843 0.397712
Si Si3 0.175501 0.640417 0.594012
Si Si4 0.824941 0.855919 0.398716
Si Si5 0.827652 0.551795 0.096953
O O1 0.750000 0.956392 0.750000
O O2 0.500000 0.952081 0.882264
O O3 0.728106 0.895616 0.975377
O O4 0.729862 0.000000 0.000000
O O5 0.750000 0.716675 0.250000
O O6 0.787472 0.698823 0.532476
O O7 0.774208 0.796190 0.439963
O O8 0.000000 0.735503 0.363291
O O9 0.250000 0.633585 0.750000
O O10 0.243241 0.599261 0.481251
O O11 0.000000 0.630425 0.609276
O O12 0.750000 0.874637 0.250000
O O13 0.000000 0.859638 0.375349
O O14 0.750000 0.540087 0.250000
O O15 0.000000 0.567026 0.121208
O O16 0.811682 0.500000 0.000000
#
# Coordination Sequence:
#
# PCOD8221085 Si02
#       5
#     8   8   8   8   8
#     4  10  21  35  52  76 105 137 175 219 265 316
#     4   9  19  35  55  79 107 141 179 221 268 319
#     4  11  23  38  57  82 113 147 185 228 273 322
#     4   9  18  34  54  77 106 138 176 220 266 318
#     4  11  24  41  62  87 115 147 183 224 271 323
#
# _framework density 19.196587000000001
#
# number of rings (size 3 to 8) (size 9 to 14) (size 15 to 20)
#    0.000    2.000    0.000    3.000    0.000    8.400 
#    0.000    0.000    0.000    0.000    0.000    0.000 
#    0.000    0.000    0.000    0.000    0.000    0.000 
#
# Total GULP energy -496105.215307 kJ/mol
# GULP energy per Si atom -12402.630383 kJ/mol
# Density = 1.915289 g / cm^3
# Si number density = 19.196587 Si / 1000 Ang^3
#
#
#
# Elastic Constant Matrix: (Units=GPa)
#
#
# Indices 1 2 3 4 5 6 
#
# 1 74.5735 49.6506 60.0177 0.0000 0.0000 0.0000
# 2 49.6506 107.4002 65.2493 0.0000 0.0000 0.0000
# 3 60.0177 65.2493 150.5333 0.0000 0.0000 0.0000
# 4 0.0000 0.0000 0.0000 50.2711 0.0000 0.0000
# 5 0.0000 0.0000 0.0000 0.0000 37.7101 0.0000
# 6 0.0000 0.0000 0.0000 0.0000 0.0000 9.6315
#
#
#
# Elastic Compliance Matrix: (Units=1/GPa)
#
#
# Indices 1 2 3 4 5 6 
#
# 1 0.022944 -0.006854 -0.006177 0.000000 0.000000 0.000000
# 2 -0.006854 0.014687 -0.003633 0.000000 0.000000 0.000000
# 3 -0.006177 -0.003633 0.010681 0.000000 0.000000 0.000000
# 4 0.000000 0.000000 0.000000 0.019892 0.000000 0.000000
# 5 0.000000 0.000000 0.000000 0.000000 0.026518 0.000000
# 6 0.000000 0.000000 0.000000 0.000000 0.000000 0.103826
#
#
# Mechanical properties :
#
#
# Convention : Reuss Voigt Hill
#
# Bulk Modulus (GPa) = 66.74260 75.81581 71.27920
# Shear Modulus (GPa) = 21.10842 30.02851 25.56847
#
# Velocity S-wave (km/s) = 3.31961 3.95937 3.65352
# Velocity P-wave (km/s) = 7.03822 7.77704 7.41683
#
# Compressibility (1/GPa) = 0.01498293
#
# Stress axis : x y z
#
# Youngs Moduli (GPa) = 43.58356 68.08691 93.62729
#
# Poissons Ratio (x) = 0.46670 0.57832
# Poissons Ratio (y) = 0.29874 0.34018
# Poissons Ratio (z) = 0.26921 0.24738
#
# Static dielectric constant tensor:
#      x y z
#    x 3.547420 0.000000 0.000000 
#    y 0.000000 3.943040 0.000000 
#    z 0.000000 0.000000 2.029790 
# 
# 
# High freq. dielectric constant tensor:
#      x y z
#    x 1.747480 0.000000 0.000000 
#    y 0.000000 1.763330 0.000000 
#    z 0.000000 0.000000 1.748870 
# 
# From -- ./inp_files/6278.got.cif
#   From: 2010.03.12/outbox.cif.g09.slc.cpg/sg53_4_cif.got.tgz:6278.got - 2010.04.16 14:36:59.
