data_PCOD8221224
_publ_section_title
;
Structure prediction by ZEFSAII (Michael W. Deem and Ramdas Pophale) SiO2 
 PCOD8221224
Probable space group: P M N A
;
_chemical_formula_sum "Si O2"
_cell_formula_units_Z 56
_cell_length_a 9.129846
_cell_length_b 20.626980
_cell_length_c 15.053524
_cell_angle_alpha 90.000000
_cell_angle_beta 90.000000
_cell_angle_gamma 90.000000
_cell_volume 2834.896964
_symmetry_space_group_name_H-M "P M N A"
_symmetry_group_IT_number 53
_symmetry_cell_setting 'orthorhombic'
loop_
_space_group_symop_operation_xyz
x,y,z
1/2-x,-y,1/2+z
x,-y,-z
1/2-x,y,1/2-z
-x,-y,-z
1/2+x,y,1/2-z
-x,y,z
1/2+x,-y,1/2+z
loop_
_atom_site_type_symbol
_atom_site_label
_atom_site_fract_x
_atom_site_fract_y
_atom_site_fract_z
Si Si1 0.827348 0.351044 0.910586
Si Si2 0.326050 0.233280 0.983486
Si Si3 0.833258 0.460666 0.672135
Si Si4 0.171677 0.901133 0.012519
Si Si5 0.829215 0.011565 0.153247
Si Si6 0.662822 0.419799 0.059052
Si Si7 0.662603 0.701876 0.835727
O O1 0.753229 0.280189 0.912378
O O2 0.751923 0.392266 0.832931
O O3 0.000000 0.344165 0.897253
O O4 0.792108 0.393918 0.997751
O O5 0.500000 0.237151 0.969708
O O6 0.270398 0.161065 0.970031
O O7 0.275800 0.259117 0.079654
O O8 0.750000 0.499743 0.750000
O O9 0.818851 0.504222 0.583163
O O10 0.000000 0.448247 0.698048
O O11 0.000000 0.883968 0.012337
O O12 0.207874 0.947043 0.096792
O O13 0.214457 0.930792 0.915645
O O14 0.750000 0.015111 0.250000
O O15 0.000000 0.014920 0.175308
O O16 0.500000 0.409270 0.014181
O O17 0.667900 0.375675 0.147878
O O18 0.750000 0.722987 0.750000
O O19 0.500000 0.725984 0.816962
#
# Coordination Sequence:
#
# PCOD8221224 Si02
#       7
#     8   8   8   8   8   8   8
#     4  11  22  36  55  77 102 136 178 220 265 322
#     4  10  21  37  55  77 106 142 183 226 270 318
#     4  11  22  36  54  76 104 135 171 220 274 324
#     4   9  19  37  58  83 116 152 186 224 270 321
#     4   9  19  36  59  87 120 152 184 223 267 317
#     4   9  19  35  53  74 102 135 171 218 273 325
#     4   9  18  31  47  71 103 136 173 217 268 324
#
# _framework density 19.753805
#
# number of rings (size 3 to 8) (size 9 to 14) (size 15 to 20)
#    0.000    2.286    0.000    4.714    0.000    7.429 
#    0.000    5.000    0.000    1.714    0.000    0.000 
#    0.000    0.000    0.000    0.000    0.000    0.000 
#
# Total GULP energy -693915.423311 kJ/mol
# GULP energy per Si atom -12391.346845 kJ/mol
# Density = 1.970884 g / cm^3
# Si number density = 19.753805 Si / 1000 Ang^3
#
#
#
# Elastic Constant Matrix: (Units=GPa)
#
#
# Indices 1 2 3 4 5 6 
#
# 1 110.2113 51.0574 36.9104 0.0000 0.0000 0.0000
# 2 51.0574 114.9334 15.4903 0.0000 0.0000 0.0000
# 3 36.9104 15.4903 85.9814 0.0000 0.0000 0.0000
# 4 0.0000 0.0000 0.0000 18.6559 0.0000 0.0000
# 5 0.0000 0.0000 0.0000 0.0000 33.3936 0.0000
# 6 0.0000 0.0000 0.0000 0.0000 0.0000 28.9921
#
#
#
# Elastic Compliance Matrix: (Units=1/GPa)
#
#
# Indices 1 2 3 4 5 6 
#
# 1 0.013024 -0.005157 -0.004662 0.000000 0.000000 0.000000
# 2 -0.005157 0.010960 0.000240 0.000000 0.000000 0.000000
# 3 -0.004662 0.000240 0.013589 0.000000 0.000000 0.000000
# 4 0.000000 0.000000 0.000000 0.053602 0.000000 0.000000
# 5 0.000000 0.000000 0.000000 0.000000 0.029946 0.000000
# 6 0.000000 0.000000 0.000000 0.000000 0.000000 0.034492
#
#
# Mechanical properties :
#
#
# Convention : Reuss Voigt Hill
#
# Bulk Modulus (GPa) = 54.31060 57.56026 55.93543
# Shear Modulus (GPa) = 27.63814 30.05285 28.84550
#
# Velocity S-wave (km/s) = 3.74455 3.90471 3.82547
# Velocity P-wave (km/s) = 6.80066 7.03783 6.92026
#
# Compressibility (1/GPa) = 0.01841261
#
# Stress axis : x y z
#
# Youngs Moduli (GPa) = 76.78114 91.24495 73.59151
#
# Poissons Ratio (x) = 0.47059 0.34307
# Poissons Ratio (y) = 0.39599 -0.01763
# Poissons Ratio (z) = 0.35794 -0.02186
#
# Static dielectric constant tensor:
#      x y z
#    x 3.475830 0.000000 0.000000 
#    y 0.000000 3.586510 0.000000 
#    z 0.000000 0.000000 3.667640 
# 
# 
# High freq. dielectric constant tensor:
#      x y z
#    x 1.767060 0.000000 0.000000 
#    y 0.000000 1.764400 0.000000 
#    z 0.000000 0.000000 1.766420 
# 
# From -- ./inp_files/20602.got.cif
#   From: 2010.03.12/outbox.cif.g09.slc.cpg/sg53_11_cif.got.tgz:20602.got - 2010.04.16 14:36:59.
