data_PCOD8221385
_publ_section_title
;
Structure prediction by ZEFSAII (Michael W. Deem and Ramdas Pophale) SiO2 
 PCOD8221385
Probable space group: P M N A
;
_chemical_formula_sum "Si O2"
_cell_formula_units_Z 64
_cell_length_a 17.709138
_cell_length_b 17.704525
_cell_length_c 10.954550
_cell_angle_alpha 90.000000
_cell_angle_beta 90.000000
_cell_angle_gamma 90.000000
_cell_volume 3434.600617
_symmetry_space_group_name_H-M "P M N A"
_symmetry_group_IT_number 53
_symmetry_cell_setting 'orthorhombic'
loop_
_space_group_symop_operation_xyz
x,y,z
1/2-x,-y,1/2+z
x,-y,-z
1/2-x,y,1/2-z
-x,-y,-z
1/2+x,y,1/2-z
-x,y,z
1/2+x,-y,1/2+z
loop_
_atom_site_type_symbol
_atom_site_label
_atom_site_fract_x
_atom_site_fract_y
_atom_site_fract_z
Si Si1 0.412133 0.589377 0.499497
Si Si2 0.660796 0.644029 0.254365
Si Si3 0.694285 0.083671 0.860975
Si Si4 0.085031 0.223886 0.367302
Si Si5 0.305418 0.910227 0.861780
Si Si6 0.584832 0.784646 0.147378
Si Si7 0.160661 0.365570 0.245098
Si Si8 0.582692 0.507731 0.140134
O O1 0.399728 0.500000 0.500000
O O2 0.500000 0.610909 0.500752
O O3 0.370704 0.623332 0.384751
O O4 0.369907 0.629943 0.609183
O O5 0.750000 0.637273 0.250000
O O6 0.636675 0.728932 0.225227
O O7 0.625720 0.586035 0.157974
O O8 0.750000 0.105827 0.750000
O O9 0.618390 0.131491 0.843148
O O10 0.669549 0.996856 0.847788
O O11 0.728434 0.100364 0.998731
O O12 0.121567 0.142020 0.344776
O O13 0.084414 0.244671 0.509276
O O14 0.132619 0.287807 0.301240
O O15 0.000000 0.221731 0.315091
O O16 0.250000 0.888335 0.750000
O O17 0.500000 0.786143 0.200430
O O18 0.250000 0.366090 0.250000
O O19 0.131796 0.437984 0.316979
O O20 0.500000 0.508258 0.207924
O O21 0.566569 0.500000 0.000000
#
# Coordination Sequence:
#
# PCOD8221385 Si02
#       8
#     8   8   8   8   8   8   8   8
#     4  11  24  42  62  82 115 157 197 242 298 362
#     4  12  25  38  60  84 116 150 195 245 291 349
#     4   9  18  35  60  89 120 153 191 235 288 346
#     4  10  21  38  59  83 116 151 191 241 292 346
#     4   9  18  35  60  89 120 153 191 235 288 346
#     4  10  21  38  59  83 116 151 191 241 292 346
#     4  12  25  38  60  84 116 150 195 245 291 349
#     4  11  23  39  61  83 111 147 187 235 295 353
#
# _framework density 18.633900000000001
#
# number of rings (size 3 to 8) (size 9 to 14) (size 15 to 20)
#    0.000    1.500    1.250    4.125    3.500    2.500 
#    2.250    2.500    0.000    0.000    0.000    3.500 
#    0.000    0.000    0.000    0.000    0.000    0.000 
#
# Total GULP energy -793510.629316 kJ/mol
# GULP energy per Si atom -12398.603583 kJ/mol
# Density = 1.859149 g / cm^3
# Si number density = 18.633900 Si / 1000 Ang^3
#
#
#
# Elastic Constant Matrix: (Units=GPa)
#
#
# Indices 1 2 3 4 5 6 
#
# 1 162.1689 49.5857 43.4650 0.0000 0.0000 0.0000
# 2 49.5857 80.4915 13.9526 0.0000 0.0000 0.0000
# 3 43.4650 13.9526 72.4110 0.0000 0.0000 0.0000
# 4 0.0000 0.0000 0.0000 30.3070 0.0000 0.0000
# 5 0.0000 0.0000 0.0000 0.0000 28.5283 0.0000
# 6 0.0000 0.0000 0.0000 0.0000 0.0000 34.8786
#
#
#
# Elastic Compliance Matrix: (Units=1/GPa)
#
#
# Indices 1 2 3 4 5 6 
#
# 1 0.008753 -0.004636 -0.004361 0.000000 0.000000 0.000000
# 2 -0.004636 0.015309 -0.000167 0.000000 0.000000 0.000000
# 3 -0.004361 -0.000167 0.016460 0.000000 0.000000 0.000000
# 4 0.000000 0.000000 0.000000 0.032996 0.000000 0.000000
# 5 0.000000 0.000000 0.000000 0.000000 0.035053 0.000000
# 6 0.000000 0.000000 0.000000 0.000000 0.000000 0.028671
#
#
# Mechanical properties :
#
#
# Convention : Reuss Voigt Hill
#
# Bulk Modulus (GPa) = 45.05752 58.78645 51.92198
# Shear Modulus (GPa) = 30.68135 32.61399 31.64767
#
# Velocity S-wave (km/s) = 4.06215 4.18814 4.12563
# Velocity P-wave (km/s) = 6.79958 7.41646 7.11471
#
# Compressibility (1/GPa) = 0.02219385
#
# Stress axis : x y z
#
# Youngs Moduli (GPa) = 114.25049 65.32272 60.75465
#
# Poissons Ratio (x) = 0.30284 0.26492
# Poissons Ratio (y) = 0.52968 0.01014
# Poissons Ratio (z) = 0.49819 0.01090
#
# Static dielectric constant tensor:
#      x y z
#    x 3.537530 0.000000 0.000000 
#    y 0.000000 3.433160 0.000000 
#    z 0.000000 0.000000 3.896660 
# 
# 
# High freq. dielectric constant tensor:
#      x y z
#    x 1.724170 0.000000 0.000000 
#    y 0.000000 1.731430 0.000000 
#    z 0.000000 0.000000 1.731110 
# 
# From -- ./inp_files/16255.got.cif
#   From: 2010.03.12/outbox.cif.g09.slc.cpg/sg53_9_cif.got.tgz:16255.got - 2010.04.16 14:36:59.
