data_PCOD8221763
_publ_section_title
;
Structure prediction by ZEFSAII (Michael W. Deem and Ramdas Pophale) SiO2 
 PCOD8221763
Probable space group: P M N A
;
_chemical_formula_sum "Si O2"
_cell_formula_units_Z 32
_cell_length_a 32.494801
_cell_length_b 5.347636
_cell_length_c 8.504109
_cell_angle_alpha 90.000000
_cell_angle_beta 90.000000
_cell_angle_gamma 90.000000
_cell_volume 1477.762147
_symmetry_space_group_name_H-M "P M N A"
_symmetry_group_IT_number 53
_symmetry_cell_setting 'orthorhombic'
loop_
_space_group_symop_operation_xyz
x,y,z
1/2-x,-y,1/2+z
x,-y,-z
1/2-x,y,1/2-z
-x,-y,-z
1/2+x,y,1/2-z
-x,y,z
1/2+x,-y,1/2+z
loop_
_atom_site_type_symbol
_atom_site_label
_atom_site_fract_x
_atom_site_fract_y
_atom_site_fract_z
Si Si1 0.750000 0.339998 0.250000
Si Si2 0.828529 0.618612 0.170229
Si Si3 0.915283 0.552338 0.317756
Si Si4 0.047966 0.951580 0.821183
Si Si5 0.282301 0.000000 0.500000
O O1 0.791837 0.493735 0.267812
O O2 0.747714 0.194357 0.415318
O O3 0.868523 0.619014 0.277264
O O4 0.812361 0.897558 0.136768
O O5 0.837578 0.500000 0.000000
O O6 0.920599 0.500000 0.500000
O O7 0.928535 0.299971 0.228954
O O8 0.941888 0.798418 0.277165
O O9 0.000000 0.894719 0.803093
O O10 0.061007 0.000000 0.000000
#
# Coordination Sequence:
#
# PCOD8221763 Si02
#       5
#     4   8   8   8   4
#     4  10  22  40  64  94 130 174 226 280 336 400
#     4  10  23  41  63  94 130 183 232 277 334 412
#     4  12  27  43  70 108 143 181 229 293 349 405
#     4  11  25  48  75 102 137 185 233 280 347 427
#     4  10  22  40  66  92 127 184 219 290 334 404
#
# _framework density 21.654364000000001
#
# number of rings (size 3 to 8) (size 9 to 14) (size 15 to 20)
#    0.000    1.250    0.000    4.500    8.750   10.000 
#    0.000    0.000    0.000    0.000    0.000    0.000 
#    0.000    0.000    0.000    0.000    0.000    0.000 
#
# Total GULP energy -396705.612605 kJ/mol
# GULP energy per Si atom -12397.050394 kJ/mol
# Density = 2.160508 g / cm^3
# Si number density = 21.654364 Si / 1000 Ang^3
#
#
#
# Elastic Constant Matrix: (Units=GPa)
#
#
# Indices 1 2 3 4 5 6 
#
# 1 106.9116 47.1454 56.0868 0.0000 0.0000 0.0000
# 2 47.1454 145.5407 45.4803 0.0000 0.0000 0.0000
# 3 56.0868 45.4803 103.5149 0.0000 0.0000 0.0000
# 4 0.0000 0.0000 0.0000 26.3916 0.0000 0.0000
# 5 0.0000 0.0000 0.0000 0.0000 36.4166 0.0000
# 6 0.0000 0.0000 0.0000 0.0000 0.0000 5.2146
#
#
#
# Elastic Compliance Matrix: (Units=1/GPa)
#
#
# Indices 1 2 3 4 5 6 
#
# 1 0.013795 -0.002472 -0.006388 0.000000 0.000000 0.000000
# 2 -0.002472 0.008408 -0.002354 0.000000 0.000000 0.000000
# 3 -0.006388 -0.002354 0.014156 0.000000 0.000000 0.000000
# 4 0.000000 0.000000 0.000000 0.037891 0.000000 0.000000
# 5 0.000000 0.000000 0.000000 0.000000 0.027460 0.000000
# 6 0.000000 0.000000 0.000000 0.000000 0.000000 0.191769
#
#
# Mechanical properties :
#
#
# Convention : Reuss Voigt Hill
#
# Bulk Modulus (GPa) = 71.79349 72.59913 72.19631
# Shear Modulus (GPa) = 15.59811 27.42154 21.50982
#
# Velocity S-wave (km/s) = 2.68679 3.56241 3.15513
# Velocity P-wave (km/s) = 6.54610 7.10775 6.83270
#
# Compressibility (1/GPa) = 0.01392884
#
# Stress axis : x y z
#
# Youngs Moduli (GPa) = 72.48932 118.94087 70.64075
#
# Poissons Ratio (x) = 0.29407 0.45127
# Poissons Ratio (y) = 0.17922 0.16631
# Poissons Ratio (z) = 0.46308 0.28002
#
# Static dielectric constant tensor:
#      x y z
#    x 3.949710 0.000000 0.000000 
#    y 0.000000 4.243900 0.000000 
#    z 0.000000 0.000000 3.885940 
# 
# 
# High freq. dielectric constant tensor:
#      x y z
#    x 1.856360 0.000000 0.000000 
#    y 0.000000 1.867270 0.000000 
#    z 0.000000 0.000000 1.853110 
# 
# From -- ./inp_files/12703.got.cif
#   From: 2010.03.12/outbox.cif.g09.slc.cpg/sg53_7_cif.got.tgz:12703.got - 2010.04.16 14:36:59.
