data_PCOD8221694
_publ_section_title
;
Structure prediction by ZEFSAII (Michael W. Deem and Ramdas Pophale) SiO2 
 PCOD8221694
Probable space group: P M N A
;
_chemical_formula_sum "Si O2"
_cell_formula_units_Z 64
_cell_length_a 17.814492
_cell_length_b 14.108865
_cell_length_c 12.602844
_cell_angle_alpha 90.000000
_cell_angle_beta 90.000000
_cell_angle_gamma 90.000000
_cell_volume 3167.627327
_symmetry_space_group_name_H-M "P M N A"
_symmetry_group_IT_number 53
_symmetry_cell_setting 'orthorhombic'
loop_
_space_group_symop_operation_xyz
x,y,z
1/2-x,-y,1/2+z
x,-y,-z
1/2-x,y,1/2-z
-x,-y,-z
1/2+x,y,1/2-z
-x,y,z
1/2+x,-y,1/2+z
loop_
_atom_site_type_symbol
_atom_site_label
_atom_site_fract_x
_atom_site_fract_y
_atom_site_fract_z
Si Si1 0.331396 0.114538 0.201642
Si Si2 0.337722 0.095680 0.774685
Si Si3 0.162085 0.392774 0.770219
Si Si4 0.847652 0.778884 0.085393
Si Si5 0.411001 0.396053 0.955021
Si Si6 0.414672 0.453369 0.386026
Si Si7 0.175932 0.787945 0.479271
Si Si8 0.413884 0.238234 0.369847
O O1 0.250000 0.106634 0.250000
O O2 0.374680 0.191631 0.269857
O O3 0.369289 0.010463 0.208634
O O4 0.329052 0.142645 0.079083
O O5 0.250000 0.096701 0.750000
O O6 0.372006 0.140066 0.668273
O O7 0.360041 0.159390 0.876944
O O8 0.250000 0.374816 0.750000
O O9 0.130840 0.320474 0.858848
O O10 0.113318 0.381549 0.665421
O O11 0.145935 0.498090 0.809994
O O12 0.761706 0.768906 0.049842
O O13 0.895542 0.808746 0.982782
O O14 0.500000 0.382659 0.969327
O O15 0.367196 0.309446 0.012787
O O16 0.386506 0.500000 0.000000
O O17 0.409122 0.500000 0.500000
O O18 0.500000 0.463017 0.342097
O O19 0.387406 0.345918 0.385339
O O20 0.500000 0.229774 0.343856
#
# Coordination Sequence:
#
# PCOD8221694 Si02
#       8
#     8   8   8   8   8   8   8   8
#     4  11  23  40  65  94 126 168 210 261 325 383
#     4   9  20  39  67  96 122 160 212 267 322 381
#     4  12  22  38  65  95 125 160 207 271 314 366
#     4  11  20  41  67  95 128 159 214 270 313 373
#     4  11  26  43  61  92 130 172 213 258 322 381
#     4  10  22  39  59  84 119 165 208 244 301 379
#     4  11  21  42  67  93 126 166 216 263 311 382
#     4  11  25  42  62  93 132 170 209 263 323 384
#
# _framework density 20.204398000000001
#
# number of rings (size 3 to 8) (size 9 to 14) (size 15 to 20)
#    0.000    1.250    5.000    1.125    1.750    3.500 
#    0.000    1.875    0.000    1.500    0.000    0.000 
#    0.000    0.000    0.000    0.000    0.000    0.000 
#
# Total GULP energy -793319.135869 kJ/mol
# GULP energy per Si atom -12395.611498 kJ/mol
# Density = 2.015841 g / cm^3
# Si number density = 20.204398 Si / 1000 Ang^3
#
#
#
# Elastic Constant Matrix: (Units=GPa)
#
#
# Indices 1 2 3 4 5 6 
#
# 1 25.8731 34.4243 12.2177 0.0000 0.0000 0.0000
# 2 34.4243 140.7080 46.1428 0.0000 0.0000 0.0000
# 3 12.2177 46.1428 109.8967 0.0000 0.0000 0.0000
# 4 0.0000 0.0000 0.0000 34.3950 0.0000 0.0000
# 5 0.0000 0.0000 0.0000 0.0000 24.7073 0.0000
# 6 0.0000 0.0000 0.0000 0.0000 0.0000 37.5175
#
#
#
# Elastic Compliance Matrix: (Units=1/GPa)
#
#
# Indices 1 2 3 4 5 6 
#
# 1 0.057333 -0.013842 -0.000562 0.000000 0.000000 0.000000
# 2 -0.013842 0.011584 -0.003325 0.000000 0.000000 0.000000
# 3 -0.000562 -0.003325 0.010558 0.000000 0.000000 0.000000
# 4 0.000000 0.000000 0.000000 0.029074 0.000000 0.000000
# 5 0.000000 0.000000 0.000000 0.000000 0.040474 0.000000
# 6 0.000000 0.000000 0.000000 0.000000 0.000000 0.026654
#
#
# Mechanical properties :
#
#
# Convention : Reuss Voigt Hill
#
# Bulk Modulus (GPa) = 22.71878 51.33860 37.02869
# Shear Modulus (GPa) = 22.14286 31.57017 26.85652
#
# Velocity S-wave (km/s) = 3.31409 3.95719 3.64983
# Velocity P-wave (km/s) = 5.09050 6.80763 6.01070
#
# Compressibility (1/GPa) = 0.04401644
#
# Stress axis : x y z
#
# Youngs Moduli (GPa) = 17.44206 86.32789 94.71554
#
# Poissons Ratio (x) = 1.19497 0.05322
# Poissons Ratio (y) = 0.24144 0.31491
# Poissons Ratio (z) = 0.00980 0.28702
#
# Static dielectric constant tensor:
#      x y z
#    x 3.534960 0.000000 0.000000 
#    y 0.000000 4.216620 0.000000 
#    z 0.000000 0.000000 3.767670 
# 
# 
# High freq. dielectric constant tensor:
#      x y z
#    x 1.763190 0.000000 0.000000 
#    y 0.000000 1.800150 0.000000 
#    z 0.000000 0.000000 1.801800 
# 
# From -- ./inp_files/17076.got.cif
#   From: 2010.03.12/outbox.cif.g09.slc.cpg/sg53_9_cif.got.tgz:17076.got - 2010.04.16 14:36:59.
