data_PCOD8221805
_publ_section_title
;
Structure prediction by ZEFSAII (Michael W. Deem and Ramdas Pophale) SiO2 
 PCOD8221805
Probable space group: P M N A
;
_chemical_formula_sum "Si O2"
_cell_formula_units_Z 48
_cell_length_a 29.505120
_cell_length_b 13.885484
_cell_length_c 5.356378
_cell_angle_alpha 90.000000
_cell_angle_beta 90.000000
_cell_angle_gamma 90.000000
_cell_volume 2194.469885
_symmetry_space_group_name_H-M "P M N A"
_symmetry_group_IT_number 53
_symmetry_cell_setting 'orthorhombic'
loop_
_space_group_symop_operation_xyz
x,y,z
1/2-x,-y,1/2+z
x,-y,-z
1/2-x,y,1/2-z
-x,-y,-z
1/2+x,y,1/2-z
-x,y,z
1/2+x,-y,1/2+z
loop_
_atom_site_type_symbol
_atom_site_label
_atom_site_fract_x
_atom_site_fract_y
_atom_site_fract_z
Si Si1 0.801739 0.342639 0.753099
Si Si2 0.750000 0.936085 0.750000
Si Si3 0.831643 0.822140 0.549211
Si Si4 0.051044 0.219000 0.990214
Si Si5 0.575875 0.892141 0.994348
Si Si6 0.626458 0.346834 0.346805
Si Si7 0.641926 0.500000 0.000000
O O1 0.750000 0.374126 0.750000
O O2 0.805594 0.229148 0.680872
O O3 0.826427 0.409584 0.555323
O O4 0.825729 0.363081 0.014512
O O5 0.794660 0.869269 0.734115
O O6 0.746343 0.000000 0.500000
O O7 0.869162 0.899374 0.463293
O O8 0.864412 0.741205 0.663153
O O9 0.054749 0.164755 0.726855
O O10 0.000000 0.258019 0.017581
O O11 0.061973 0.151038 0.226057
O O12 0.084782 0.312021 0.979208
O O13 0.556592 0.000000 0.000000
O O14 0.612233 0.450815 0.221368
#
# Coordination Sequence:
#
# PCOD8221805 Si02
#       7
#     8   4   8   8   8   8   4
#     4  11  22  38  66  90 130 168 218 266 328 398
#     4  12  28  40  62  94 136 180 240 284 318 392
#     4  10  23  41  60  91 128 182 222 268 334 393
#     4  11  24  43  69  98 130 175 222 275 343 402
#     4  11  23  41  66  96 134 173 223 282 338 392
#     4  10  22  42  65  90 134 171 214 274 333 407
#     4  10  24  38  61 100 126 166 211 268 332 396
#
# _framework density 21.873165
#
# number of rings (size 3 to 8) (size 9 to 14) (size 15 to 20)
#    0.000    1.333    1.667    3.000    5.833    6.000 
#    0.000    0.417    0.000    2.000    0.000    0.000 
#    0.000    0.000    0.000    0.000    0.000    0.000 
#
# Total GULP energy -594726.777025 kJ/mol
# GULP energy per Si atom -12390.141188 kJ/mol
# Density = 2.182338 g / cm^3
# Si number density = 21.873165 Si / 1000 Ang^3
#
#
#
# Elastic Constant Matrix: (Units=GPa)
#
#
# Indices 1 2 3 4 5 6 
#
# 1 120.3023 38.6361 11.0874 0.0000 0.0000 0.0000
# 2 38.6361 86.8692 28.6836 0.0000 0.0000 0.0000
# 3 11.0874 28.6836 102.2308 0.0000 0.0000 0.0000
# 4 0.0000 0.0000 0.0000 32.9747 0.0000 0.0000
# 5 0.0000 0.0000 0.0000 0.0000 47.0124 0.0000
# 6 0.0000 0.0000 0.0000 0.0000 0.0000 9.1133
#
#
#
# Elastic Compliance Matrix: (Units=1/GPa)
#
#
# Indices 1 2 3 4 5 6 
#
# 1 0.009700 -0.004372 0.000175 0.000000 0.000000 0.000000
# 2 -0.004372 0.014657 -0.003638 0.000000 0.000000 0.000000
# 3 0.000175 -0.003638 0.010784 0.000000 0.000000 0.000000
# 4 0.000000 0.000000 0.000000 0.030326 0.000000 0.000000
# 5 0.000000 0.000000 0.000000 0.000000 0.021271 0.000000
# 6 0.000000 0.000000 0.000000 0.000000 0.000000 0.109730
#
#
# Mechanical properties :
#
#
# Convention : Reuss Voigt Hill
#
# Bulk Modulus (GPa) = 51.36106 51.80183 51.58145
# Shear Modulus (GPa) = 22.86968 33.21976 28.04472
#
# Velocity S-wave (km/s) = 3.23702 3.90134 3.58460
# Velocity P-wave (km/s) = 6.12400 6.63537 6.38480
#
# Compressibility (1/GPa) = 0.01947000
#
# Stress axis : x y z
#
# Youngs Moduli (GPa) = 103.08837 68.22469 92.73259
#
# Poissons Ratio (x) = 0.29828 -0.01620
# Poissons Ratio (y) = 0.45071 0.33740
# Poissons Ratio (z) = -0.01800 0.24823
#
# Static dielectric constant tensor:
#      x y z
#    x 3.994600 0.000000 0.000000 
#    y 0.000000 4.957390 0.000000 
#    z 0.000000 0.000000 3.905770 
# 
# 
# High freq. dielectric constant tensor:
#      x y z
#    x 1.850640 0.000000 0.000000 
#    y 0.000000 1.860370 0.000000 
#    z 0.000000 0.000000 1.862750 
# 
# From -- ./inp_files/5297.got.cif
#   From: 2010.03.12/outbox.cif.g09.slc.cpg/sg53_3_cif.got.tgz:5297.got - 2010.04.16 14:36:59.
