data_PCOD8221534
_publ_section_title
;
Structure prediction by ZEFSAII (Michael W. Deem and Ramdas Pophale) SiO2 
 PCOD8221534
Probable space group: P M N A
;
_chemical_formula_sum "Si O2"
_cell_formula_units_Z 64
_cell_length_a 18.354175
_cell_length_b 16.941683
_cell_length_c 9.531901
_cell_angle_alpha 90.000000
_cell_angle_beta 90.000000
_cell_angle_gamma 90.000000
_cell_volume 2963.950474
_symmetry_space_group_name_H-M "P M N A"
_symmetry_group_IT_number 53
_symmetry_cell_setting 'orthorhombic'
loop_
_space_group_symop_operation_xyz
x,y,z
1/2-x,-y,1/2+z
x,-y,-z
1/2-x,y,1/2-z
-x,-y,-z
1/2+x,y,1/2-z
-x,y,z
1/2+x,-y,1/2+z
loop_
_atom_site_type_symbol
_atom_site_label
_atom_site_fract_x
_atom_site_fract_y
_atom_site_fract_z
Si Si1 0.080320 0.906007 0.490145
Si Si2 0.585263 0.055962 0.688467
Si Si3 0.080481 0.289018 0.772732
Si Si4 0.166168 0.102795 0.252724
Si Si5 0.078177 0.407080 0.995884
Si Si6 0.159321 0.818347 0.022129
Si Si7 0.283566 0.291430 0.894029
Si Si8 0.229724 0.419978 0.089846
O O1 0.094541 0.887480 0.325906
O O2 0.141896 0.867659 0.591586
O O3 0.000000 0.876250 0.536007
O O4 0.083870 0.000000 0.500000
O O5 0.500000 0.054111 0.641958
O O6 0.639997 0.093224 0.574358
O O7 0.611367 0.967127 0.712047
O O8 0.098193 0.238690 0.913383
O O9 0.132218 0.271658 0.639627
O O10 0.000000 0.268637 0.718673
O O11 0.086996 0.378525 0.833017
O O12 0.250000 0.073822 0.250000
O O13 0.156761 0.176719 0.146897
O O14 0.148597 0.380903 0.086060
O O15 0.000000 0.374209 0.054586
O O16 0.075574 0.500000 0.000000
O O17 0.239596 0.788494 0.068212
O O18 0.250000 0.328003 0.750000
O O19 0.282319 0.355215 0.019034
O O20 0.250000 0.436803 0.250000
O O21 0.233912 0.500000 0.000000
#
# Coordination Sequence:
#
# PCOD8221534 Si02
#       8
#     8   8   8   8   8   8   8   8
#     4   8  17  36  58  78 108 147 186 239 302 364
#     4  10  22  41  64  88 114 150 202 259 314 377
#     4  10  21  39  65  91 124 169 212 256 314 372
#     4  11  24  37  56  87 119 155 199 251 316 373
#     4   9  18  35  62  94 126 164 210 259 312 363
#     4  11  23  38  58  88 123 159 203 257 306 367
#     4  10  21  41  60  89 126 164 207 259 306 368
#     4  11  22  37  66  98 130 169 215 259 312 371
#
# _framework density 21.592801999999999
#
# number of rings (size 3 to 8) (size 9 to 14) (size 15 to 20)
#    0.000    2.000    2.500    2.250    1.750   10.500 
#    0.000    0.625    0.000    1.500    0.000    0.000 
#    0.000    0.000    0.000    0.000    0.000    0.000 
#
# Total GULP energy -793010.834343 kJ/mol
# GULP energy per Si atom -12390.794287 kJ/mol
# Density = 2.154366 g / cm^3
# Si number density = 21.592802 Si / 1000 Ang^3
#
#
#
# Elastic Constant Matrix: (Units=GPa)
#
#
# Indices 1 2 3 4 5 6 
#
# 1 175.5280 30.0629 61.9597 0.0000 0.0000 0.0000
# 2 30.0629 47.8979 22.8124 0.0000 0.0000 0.0000
# 3 61.9597 22.8124 130.8506 0.0000 0.0000 0.0000
# 4 0.0000 0.0000 0.0000 32.5251 0.0000 0.0000
# 5 0.0000 0.0000 0.0000 0.0000 22.9370 0.0000
# 6 0.0000 0.0000 0.0000 0.0000 0.0000 13.1254
#
#
#
# Elastic Compliance Matrix: (Units=1/GPa)
#
#
# Indices 1 2 3 4 5 6 
#
# 1 0.007260 -0.003184 -0.002883 0.000000 0.000000 0.000000
# 2 -0.003184 0.024164 -0.002705 0.000000 0.000000 0.000000
# 3 -0.002883 -0.002705 0.009479 0.000000 0.000000 0.000000
# 4 0.000000 0.000000 0.000000 0.030745 0.000000 0.000000
# 5 0.000000 0.000000 0.000000 0.000000 0.043598 0.000000
# 6 0.000000 0.000000 0.000000 0.000000 0.000000 0.076188
#
#
# Mechanical properties :
#
#
# Convention : Reuss Voigt Hill
#
# Bulk Modulus (GPa) = 42.80819 64.88294 53.84556
# Shear Modulus (GPa) = 23.06649 29.68025 26.37337
#
# Velocity S-wave (km/s) = 3.27195 3.71151 3.49864
# Velocity P-wave (km/s) = 5.84316 6.96281 6.42741
#
# Compressibility (1/GPa) = 0.02336002
#
# Stress axis : x y z
#
# Youngs Moduli (GPa) = 137.74249 41.38308 105.49737
#
# Poissons Ratio (x) = 0.13175 0.30411
# Poissons Ratio (y) = 0.43854 0.28540
# Poissons Ratio (z) = 0.39706 0.11195
#
# Static dielectric constant tensor:
#      x y z
#    x 4.278120 0.000000 0.000000 
#    y 0.000000 3.695880 0.000000 
#    z 0.000000 0.000000 4.295100 
# 
# 
# High freq. dielectric constant tensor:
#      x y z
#    x 1.856880 0.000000 0.000000 
#    y 0.000000 1.832000 0.000000 
#    z 0.000000 0.000000 1.831230 
# 
# From -- ./inp_files/11208.got.cif
#   From: 2010.03.12/outbox.cif.g09.slc.cpg/sg53_6_cif.got.tgz:11208.got - 2010.04.16 14:36:59.
