data_PCOD8221968
_publ_section_title
;
Structure prediction by ZEFSAII (Michael W. Deem and Ramdas Pophale) SiO2 
 PCOD8221968
Probable space group: P M N A
;
_chemical_formula_sum "Si O2"
_cell_formula_units_Z 56
_cell_length_a 19.861399
_cell_length_b 9.333819
_cell_length_c 14.583788
_cell_angle_alpha 90.000000
_cell_angle_beta 90.000000
_cell_angle_gamma 90.000000
_cell_volume 2703.582045
_symmetry_space_group_name_H-M "P M N A"
_symmetry_group_IT_number 53
_symmetry_cell_setting 'orthorhombic'
loop_
_space_group_symop_operation_xyz
x,y,z
1/2-x,-y,1/2+z
x,-y,-z
1/2-x,y,1/2-z
-x,-y,-z
1/2+x,y,1/2-z
-x,y,z
1/2+x,-y,1/2+z
loop_
_atom_site_type_symbol
_atom_site_label
_atom_site_fract_x
_atom_site_fract_y
_atom_site_fract_z
Si Si1 0.500000 0.617175 0.142475
Si Si2 0.835731 0.928573 0.096462
Si Si3 0.286405 0.719673 0.111371
Si Si4 0.000000 0.697226 0.568685
Si Si5 0.379108 0.300780 0.727172
Si Si6 0.764593 0.192474 0.151615
Si Si7 0.317699 0.516223 0.598214
Si Si8 0.867782 0.154717 0.460634
O O1 0.500000 0.445946 0.130143
O O2 0.438126 0.676311 0.201444
O O3 0.500000 0.681352 0.041291
O O4 0.769384 0.833677 0.077727
O O5 0.889765 0.827094 0.151017
O O6 0.814831 0.058470 0.162239
O O7 0.861641 0.000000 0.000000
O O8 0.312042 0.742267 0.215783
O O9 0.255126 0.561701 0.102307
O O10 0.349611 0.735030 0.042775
O O11 0.932530 0.784772 0.594176
O O12 0.367095 0.452067 0.675451
O O13 0.750000 0.258646 0.250000
O O14 0.804422 0.315583 0.099533
O O15 0.695234 0.141099 0.106623
O O16 0.353731 0.500000 0.500000
O O17 0.886737 0.000000 0.500000
#
# Coordination Sequence:
#
# PCOD8221968 Si02
#       8
#     4   8   8   4   8   8   8   8
#     4  11  26  46  66  92 120 181 239 274 319 402
#     4  11  20  39  61  96 128 167 205 273 342 400
#     4  11  19  38  62  91 132 166 211 262 333 401
#     4  11  27  42  68  90 135 182 218 273 319 396
#     4  11  24  41  66  89 129 173 228 272 335 403
#     4  12  22  33  60  95 132 162 208 267 334 389
#     4  11  22  36  59  94 124 163 207 277 340 388
#     4  12  23  41  63  97 138 174 214 263 330 406
#
# _framework density 20.713262
#
# number of rings (size 3 to 8) (size 9 to 14) (size 15 to 20)
#    0.000    0.714    5.714    4.500    4.000    0.000 
#    0.000    0.714    0.000    0.000    0.000    0.000 
#    0.000    0.000    0.000    0.000    0.000    0.000 
#
# Total GULP energy -694085.664331 kJ/mol
# GULP energy per Si atom -12394.386863 kJ/mol
# Density = 2.066612 g / cm^3
# Si number density = 20.713262 Si / 1000 Ang^3
#
#
#
# Elastic Constant Matrix: (Units=GPa)
#
#
# Indices 1 2 3 4 5 6 
#
# 1 64.6387 38.2676 25.9895 0.0000 0.0000 0.0000
# 2 38.2676 120.8096 19.8105 0.0000 0.0000 0.0000
# 3 25.9895 19.8105 104.8932 0.0000 0.0000 0.0000
# 4 0.0000 0.0000 0.0000 42.8231 0.0000 0.0000
# 5 0.0000 0.0000 0.0000 0.0000 20.3895 0.0000
# 6 0.0000 0.0000 0.0000 0.0000 0.0000 19.2411
#
#
#
# Elastic Compliance Matrix: (Units=1/GPa)
#
#
# Indices 1 2 3 4 5 6 
#
# 1 0.020537 -0.005852 -0.003983 0.000000 0.000000 0.000000
# 2 -0.005852 0.010210 -0.000478 0.000000 0.000000 0.000000
# 3 -0.003983 -0.000478 0.010611 0.000000 0.000000 0.000000
# 4 0.000000 0.000000 0.000000 0.023352 0.000000 0.000000
# 5 0.000000 0.000000 0.000000 0.000000 0.049045 0.000000
# 6 0.000000 0.000000 0.000000 0.000000 0.000000 0.051972
#
#
# Mechanical properties :
#
#
# Convention : Reuss Voigt Hill
#
# Bulk Modulus (GPa) = 48.23899 50.94186 49.59043
# Shear Modulus (GPa) = 25.87151 30.24233 28.05692
#
# Velocity S-wave (km/s) = 3.53800 3.82520 3.68440
# Velocity P-wave (km/s) = 6.32688 6.64506 6.48792
#
# Compressibility (1/GPa) = 0.02073012
#
# Stress axis : x y z
#
# Youngs Moduli (GPa) = 48.69340 97.94703 94.24415
#
# Poissons Ratio (x) = 0.57319 0.37539
# Poissons Ratio (y) = 0.28496 0.04507
# Poissons Ratio (z) = 0.19395 0.04684
#
# Static dielectric constant tensor:
#      x y z
#    x 3.389190 0.000000 0.000000 
#    y 0.000000 3.810300 0.000000 
#    z 0.000000 0.000000 3.946230 
# 
# 
# High freq. dielectric constant tensor:
#      x y z
#    x 1.763500 0.000000 0.000000 
#    y 0.000000 1.820740 0.000000 
#    z 0.000000 0.000000 1.823880 
# 
# From -- ./inp_files/24392.got.cif
#   From: 2010.03.12/outbox.cif.g09.slc.cpg/sg53_13_cif.got.tgz:24392.got - 2010.04.16 14:36:59.
