data_PCOD8221620
_publ_section_title
;
Structure prediction by ZEFSAII (Michael W. Deem and Ramdas Pophale) SiO2 
 PCOD8221620
Probable space group: P M N A
;
_chemical_formula_sum "Si O2"
_cell_formula_units_Z 48
_cell_length_a 14.163243
_cell_length_b 11.950063
_cell_length_c 13.489503
_cell_angle_alpha 90.000000
_cell_angle_beta 90.000000
_cell_angle_gamma 90.000000
_cell_volume 2283.120588
_symmetry_space_group_name_H-M "P M N A"
_symmetry_group_IT_number 53
_symmetry_cell_setting 'orthorhombic'
loop_
_space_group_symop_operation_xyz
x,y,z
1/2-x,-y,1/2+z
x,-y,-z
1/2-x,y,1/2-z
-x,-y,-z
1/2+x,y,1/2-z
-x,y,z
1/2+x,-y,1/2+z
loop_
_atom_site_type_symbol
_atom_site_label
_atom_site_fract_x
_atom_site_fract_y
_atom_site_fract_z
Si Si1 0.890701 0.298960 0.125791
Si Si2 0.759363 0.977456 0.111575
Si Si3 0.389573 0.457079 0.694435
Si Si4 0.605559 0.406423 0.917485
Si Si5 0.608181 0.912697 0.743536
Si Si6 0.781060 0.730515 0.071723
O O1 0.855768 0.423721 0.151561
O O2 0.877516 0.220420 0.223443
O O3 0.000000 0.299600 0.094115
O O4 0.831850 0.251096 0.033388
O O5 0.769898 0.845509 0.132157
O O6 0.861109 0.028708 0.140381
O O7 0.675765 0.037517 0.172449
O O8 0.732584 0.000000 0.000000
O O9 0.500000 0.439633 0.675627
O O10 0.364660 0.455991 0.810660
O O11 0.335704 0.358796 0.638442
O O12 0.500000 0.356528 0.912598
O O13 0.674633 0.307992 0.949774
O O14 0.612881 0.500000 0.000000
O O15 0.500000 0.940955 0.769722
#
# Coordination Sequence:
#
# PCOD8221620 Si02
#       6
#     8   8   8   8   8   8
#     4  10  21  42  70  98 126 164 217 274 336 399
#     4  11  25  45  65  97 134 172 225 277 322 397
#     4  10  22  39  64  98 130 161 210 273 331 395
#     4  10  23  41  58  87 130 175 215 254 316 396
#     4  10  24  45  69  93 126 174 220 270 331 391
#     4  12  23  39  64  97 130 168 210 272 338 382
#
# _framework density 21.023857
#
# number of rings (size 3 to 8) (size 9 to 14) (size 15 to 20)
#    0.000    1.500    1.667    2.500    4.667    5.333 
#    6.000    1.667    0.000    0.000    0.000    0.000 
#    0.000    0.000    0.000    0.000    0.000    0.000 
#
# Total GULP energy -595132.387380 kJ/mol
# GULP energy per Si atom -12398.591404 kJ/mol
# Density = 2.097601 g / cm^3
# Si number density = 21.023857 Si / 1000 Ang^3
#
#
#
# Elastic Constant Matrix: (Units=GPa)
#
#
# Indices 1 2 3 4 5 6 
#
# 1 80.7773 47.5936 32.6130 0.0000 0.0000 0.0000
# 2 47.5936 139.8630 40.1588 0.0000 0.0000 0.0000
# 3 32.6130 40.1588 115.8974 0.0000 0.0000 0.0000
# 4 0.0000 0.0000 0.0000 32.0505 0.0000 0.0000
# 5 0.0000 0.0000 0.0000 0.0000 33.3866 0.0000
# 6 0.0000 0.0000 0.0000 0.0000 0.0000 27.0530
#
#
#
# Elastic Compliance Matrix: (Units=1/GPa)
#
#
# Indices 1 2 3 4 5 6 
#
# 1 0.016355 -0.004713 -0.002969 0.000000 0.000000 0.000000
# 2 -0.004713 0.009298 -0.001896 0.000000 0.000000 0.000000
# 3 -0.002969 -0.001896 0.010121 0.000000 0.000000 0.000000
# 4 0.000000 0.000000 0.000000 0.031201 0.000000 0.000000
# 5 0.000000 0.000000 0.000000 0.000000 0.029952 0.000000
# 6 0.000000 0.000000 0.000000 0.000000 0.000000 0.036964
#
#
# Mechanical properties :
#
#
# Convention : Reuss Voigt Hill
#
# Bulk Modulus (GPa) = 60.17431 64.14094 62.15762
# Shear Modulus (GPa) = 31.52859 32.90952 32.21905
#
# Velocity S-wave (km/s) = 3.87674 3.96073 3.91896
# Velocity P-wave (km/s) = 6.98018 7.17575 7.07864
#
# Compressibility (1/GPa) = 0.01661839
#
# Stress axis : x y z
#
# Youngs Moduli (GPa) = 61.14203 107.55144 98.80763
#
# Poissons Ratio (x) = 0.50688 0.29339
# Poissons Ratio (y) = 0.28816 0.18729
# Poissons Ratio (z) = 0.18155 0.20387
#
# Static dielectric constant tensor:
#      x y z
#    x 4.020000 0.000000 0.000000 
#    y 0.000000 3.929020 0.000000 
#    z 0.000000 0.000000 3.895330 
# 
# 
# High freq. dielectric constant tensor:
#      x y z
#    x 1.833360 0.000000 0.000000 
#    y 0.000000 1.827880 0.000000 
#    z 0.000000 0.000000 1.826180 
# 
# From -- ./inp_files/22639.got.cif
#   From: 2010.03.12/outbox.cif.g09.slc.cpg/sg53_12_cif.got.tgz:22639.got - 2010.04.16 14:36:59.
