data_PCOD8221494
_publ_section_title
;
Structure prediction by ZEFSAII (Michael W. Deem and Ramdas Pophale) SiO2 
 PCOD8221494
Probable space group: P M N A
;
_chemical_formula_sum "Si O2"
_cell_formula_units_Z 48
_cell_length_a 14.966833
_cell_length_b 9.613365
_cell_length_c 16.604039
_cell_angle_alpha 90.000000
_cell_angle_beta 90.000000
_cell_angle_gamma 90.000000
_cell_volume 2389.016171
_symmetry_space_group_name_H-M "P M N A"
_symmetry_group_IT_number 53
_symmetry_cell_setting 'orthorhombic'
loop_
_space_group_symop_operation_xyz
x,y,z
1/2-x,-y,1/2+z
x,-y,-z
1/2-x,y,1/2-z
-x,-y,-z
1/2+x,y,1/2-z
-x,y,z
1/2+x,-y,1/2+z
loop_
_atom_site_type_symbol
_atom_site_label
_atom_site_fract_x
_atom_site_fract_y
_atom_site_fract_z
Si Si1 0.157849 0.244545 0.206555
Si Si2 0.742056 0.125762 0.448178
Si Si3 0.102436 0.718594 0.308204
Si Si4 0.899507 0.966224 0.663012
Si Si5 0.730965 0.385754 0.941133
Si Si6 0.400205 0.538702 0.344787
O O1 0.250000 0.281807 0.250000
O O2 0.172447 0.174149 0.119446
O O3 0.103414 0.136219 0.260618
O O4 0.104389 0.387448 0.196942
O O5 0.835984 0.082050 0.408799
O O6 0.760853 0.243414 0.512386
O O7 0.700080 0.000000 0.500000
O O8 0.164970 0.629868 0.366549
O O9 0.118424 0.660313 0.219262
O O10 0.000000 0.697989 0.335527
O O11 0.129816 0.880575 0.307519
O O12 0.000000 0.967414 0.628787
O O13 0.827724 0.444033 0.914615
O O14 0.687881 0.500000 0.000000
O O15 0.500000 0.555879 0.380929
#
# Coordination Sequence:
#
# PCOD8221494 Si02
#       6
#     8   8   8   8   8   8
#     4  10  21  39  62  89 120 159 207 249 302 363
#     4  11  23  39  61  92 120 163 202 244 308 366
#     4  10  23  41  64  93 123 161 204 249 303 365
#     4  10  22  40  63  91 122 158 201 250 302 364
#     4  12  24  41  63  90 126 163 201 253 306 363
#     4  11  24  42  64  88 120 164 210 252 299 359
#
# _framework density 20.091953
#
# number of rings (size 3 to 8) (size 9 to 14) (size 15 to 20)
#    0.000    1.333    3.333    2.000    4.667    3.000 
#    0.000    0.000    0.000    2.500    0.000    0.000 
#    0.000    0.000    0.000    0.000    0.000    0.000 
#
# Total GULP energy -595379.653080 kJ/mol
# GULP energy per Si atom -12403.742773 kJ/mol
# Density = 2.004622 g / cm^3
# Si number density = 20.091953 Si / 1000 Ang^3
#
#
#
# Elastic Constant Matrix: (Units=GPa)
#
#
# Indices 1 2 3 4 5 6 
#
# 1 73.4947 23.8540 22.2909 0.0000 0.0000 0.0000
# 2 23.8540 119.9383 23.0088 0.0000 0.0000 0.0000
# 3 22.2909 23.0088 64.8659 0.0000 0.0000 0.0000
# 4 0.0000 0.0000 0.0000 48.0926 0.0000 0.0000
# 5 0.0000 0.0000 0.0000 0.0000 19.0268 0.0000
# 6 0.0000 0.0000 0.0000 0.0000 0.0000 27.1144
#
#
#
# Elastic Compliance Matrix: (Units=1/GPa)
#
#
# Indices 1 2 3 4 5 6 
#
# 1 0.015733 -0.002245 -0.004610 0.000000 0.000000 0.000000
# 2 -0.002245 0.009267 -0.002516 0.000000 0.000000 0.000000
# 3 -0.004610 -0.002516 0.017893 0.000000 0.000000 0.000000
# 4 0.000000 0.000000 0.000000 0.020793 0.000000 0.000000
# 5 0.000000 0.000000 0.000000 0.000000 0.052558 0.000000
# 6 0.000000 0.000000 0.000000 0.000000 0.000000 0.036881
#
#
# Mechanical properties :
#
#
# Convention : Reuss Voigt Hill
#
# Bulk Modulus (GPa) = 41.40522 44.06735 42.73628
# Shear Modulus (GPa) = 27.79063 31.45643 29.62353
#
# Velocity S-wave (km/s) = 3.72314 3.96109 3.84395
# Velocity P-wave (km/s) = 6.25579 6.54987 6.40452
#
# Compressibility (1/GPa) = 0.02415155
#
# Stress axis : x y z
#
# Youngs Moduli (GPa) = 63.55940 107.91389 55.88743
#
# Poissons Ratio (x) = 0.24223 0.25767
# Poissons Ratio (y) = 0.14267 0.14059
# Poissons Ratio (z) = 0.29304 0.27147
#
# Static dielectric constant tensor:
#      x y z
#    x 3.597700 0.000000 0.000000 
#    y 0.000000 3.835290 0.000000 
#    z 0.000000 0.000000 3.626950 
# 
# 
# High freq. dielectric constant tensor:
#      x y z
#    x 1.775810 0.000000 0.000000 
#    y 0.000000 1.804040 0.000000 
#    z 0.000000 0.000000 1.785570 
# 
# From -- ./inp_files/28235.got.cif
#   From: 2010.03.12/outbox.cif.g09.slc.cpg/sg53_15_cif.got.tgz:28235.got - 2010.04.16 14:36:59.
