data_PCOD8221640
_publ_section_title
;
Structure prediction by ZEFSAII (Michael W. Deem and Ramdas Pophale) SiO2 
 PCOD8221640
Probable space group: P M N A
;
_chemical_formula_sum "Si O2"
_cell_formula_units_Z 48
_cell_length_a 14.866296
_cell_length_b 11.186013
_cell_length_c 15.351477
_cell_angle_alpha 90.000000
_cell_angle_beta 90.000000
_cell_angle_gamma 90.000000
_cell_volume 2552.867425
_symmetry_space_group_name_H-M "P M N A"
_symmetry_group_IT_number 53
_symmetry_cell_setting 'orthorhombic'
loop_
_space_group_symop_operation_xyz
x,y,z
1/2-x,-y,1/2+z
x,-y,-z
1/2-x,y,1/2-z
-x,-y,-z
1/2+x,y,1/2-z
-x,y,z
1/2+x,-y,1/2+z
loop_
_atom_site_type_symbol
_atom_site_label
_atom_site_fract_x
_atom_site_fract_y
_atom_site_fract_z
Si Si1 0.000000 0.793715 0.499808
Si Si2 0.646629 0.387802 0.558761
Si Si3 0.000000 0.793715 0.000193
Si Si4 0.500000 0.986253 0.621267
Si Si5 0.604877 0.335414 0.750000
Si Si6 0.147715 0.063724 0.750000
Si Si7 0.646629 0.612198 0.058761
Si Si8 0.000000 0.013745 0.378733
O O1 0.089259 0.723025 0.474577
O O2 0.000000 0.842695 0.599298
O O3 0.000000 0.921277 0.456233
O O4 0.616145 0.500000 0.500000
O O5 0.589259 0.276975 0.525424
O O6 0.630701 0.410109 0.662612
O O7 0.750000 0.357307 0.541262
O O8 0.000000 0.921277 0.043768
O O9 0.000000 0.842695 0.900703
O O10 0.406345 0.013281 0.668562
O O11 0.500000 0.307284 0.750000
O O12 0.653869 0.208082 0.749999
O O13 0.630700 0.410107 0.837388
O O14 0.250000 0.015070 0.750000
O O15 0.093655 0.013284 0.668561
O O16 0.616145 0.500000 0.000000
#
# Coordination Sequence:
#
# PCOD8221640 Si02
#       8
#     4   8   4   4   8   8   8   4
#     4  11  21  38  57  83 124 151 191 240 305 345
#     4  11  23  39  62  92 121 156 202 246 296 356
#     4  11  21  38  57  83 124 151 191 240 305 345
#     4  10  22  36  55  89 115 148 195 247 289 365
#     4  12  20  37  63  87 119 155 203 249 294 351
#     4  11  19  36  59  82 114 155 202 248 294 344
#     4  11  23  39  62  92 121 156 202 246 296 356
#     4  10  22  36  55  89 115 148 195 247 289 365
#
# _framework density 18.802385999999998
#
# number of rings (size 3 to 8) (size 9 to 14) (size 15 to 20)
#    0.000    1.000    6.667    2.000    0.000    1.333 
#    0.000    6.667    0.000    0.000    0.000    0.000 
#    0.000    0.000    0.000    0.000    0.000    0.000 
#
# Total GULP energy -594756.462685 kJ/mol
# GULP energy per Si atom -12390.759639 kJ/mol
# Density = 1.875959 g / cm^3
# Si number density = 18.802386 Si / 1000 Ang^3
#
#
#
# Elastic Constant Matrix: (Units=GPa)
#
#
# Indices 1 2 3 4 5 6 
#
# 1 140.3636 40.5255 32.7625 0.0000 0.0000 0.0000
# 2 40.5255 98.4108 76.4218 0.0000 0.0000 0.0000
# 3 32.7625 76.4218 125.2371 0.0000 0.0000 0.0000
# 4 0.0000 0.0000 0.0000 38.9289 0.0000 0.0000
# 5 0.0000 0.0000 0.0000 0.0000 20.3314 0.0000
# 6 0.0000 0.0000 0.0000 0.0000 0.0000 61.0635
#
#
#
# Elastic Compliance Matrix: (Units=1/GPa)
#
#
# Indices 1 2 3 4 5 6 
#
# 1 0.008087 -0.003207 -0.000159 0.000000 0.000000 0.000000
# 2 -0.003207 0.020586 -0.011723 0.000000 0.000000 0.000000
# 3 -0.000159 -0.011723 0.015180 0.000000 0.000000 0.000000
# 4 0.000000 0.000000 0.000000 0.025688 0.000000 0.000000
# 5 0.000000 0.000000 0.000000 0.000000 0.049185 0.000000
# 6 0.000000 0.000000 0.000000 0.000000 0.000000 0.016376
#
#
# Mechanical properties :
#
#
# Convention : Reuss Voigt Hill
#
# Bulk Modulus (GPa) = 73.12228 73.71456 73.41842
# Shear Modulus (GPa) = 29.43997 38.35155 33.89576
#
# Velocity S-wave (km/s) = 3.96126 4.52122 4.25047
# Velocity P-wave (km/s) = 7.73928 8.15753 7.95115
#
# Compressibility (1/GPa) = 0.01367572
#
# Stress axis : x y z
#
# Youngs Moduli (GPa) = 123.64993 48.57784 65.87754
#
# Poissons Ratio (x) = 0.15580 0.01045
# Poissons Ratio (y) = 0.39657 0.77226
# Poissons Ratio (z) = 0.01961 0.56946
#
# Static dielectric constant tensor:
#      x y z
#    x 3.493500 0.000000 0.000000 
#    y 0.000000 3.445020 0.000000 
#    z 0.000000 0.000000 1.714600 
# 
# 
# High freq. dielectric constant tensor:
#      x y z
#    x 1.745980 0.000000 0.000000 
#    y 0.000000 1.707470 0.000000 
#    z 0.000000 0.000000 1.737810 
# 
# From -- ./inp_files/28325.got.cif
#   From: 2010.03.12/outbox.cif.g09.slc.cpg/sg53_15_cif.got.tgz:28325.got - 2010.04.16 14:36:59.
