data_PCOD8221145
_publ_section_title
;
Structure prediction by ZEFSAII (Michael W. Deem and Ramdas Pophale) SiO2 
 PCOD8221145
Probable space group: P M N A
;
_chemical_formula_sum "Si O2"
_cell_formula_units_Z 56
_cell_length_a 14.589029
_cell_length_b 11.834875
_cell_length_c 15.468831
_cell_angle_alpha 90.000000
_cell_angle_beta 90.000000
_cell_angle_gamma 90.000000
_cell_volume 2670.838067
_symmetry_space_group_name_H-M "P M N A"
_symmetry_group_IT_number 53
_symmetry_cell_setting 'orthorhombic'
loop_
_space_group_symop_operation_xyz
x,y,z
1/2-x,-y,1/2+z
x,-y,-z
1/2-x,y,1/2-z
-x,-y,-z
1/2+x,y,1/2-z
-x,y,z
1/2+x,-y,1/2+z
loop_
_atom_site_type_symbol
_atom_site_label
_atom_site_fract_x
_atom_site_fract_y
_atom_site_fract_z
Si Si1 0.399863 0.306922 0.362057
Si Si2 0.706970 0.066687 0.077591
Si Si3 0.847009 0.465266 0.290132
Si Si4 0.210130 0.321271 0.447641
Si Si5 0.099946 0.947157 0.869178
Si Si6 0.896440 0.683608 0.377978
Si Si7 0.897427 0.078113 0.701468
O O1 0.500000 0.322887 0.406886
O O2 0.398931 0.387732 0.278774
O O3 0.320467 0.334878 0.433136
O O4 0.389638 0.178391 0.326067
O O5 0.678075 0.195755 0.074984
O O6 0.815957 0.044988 0.064910
O O7 0.672792 0.014205 0.166198
O O8 0.656951 0.000000 0.000000
O O9 0.750000 0.495646 0.250000
O O10 0.841995 0.402783 0.382244
O O11 0.898224 0.582797 0.308107
O O12 0.177367 0.345008 0.546076
O O13 0.000000 0.953769 0.915916
O O14 0.106007 0.052993 0.803437
O O15 0.866038 0.795776 0.325104
O O16 0.000000 0.696954 0.415517
O O17 0.000000 0.056286 0.666382
#
# Coordination Sequence:
#
# PCOD8221145 Si02
#       7
#     8   8   8   8   8   8   8
#     4   9  18  36  62  86 111 145 190 239 281 329
#     4  11  20  34  56  82 112 151 181 226 279 332
#     4  10  21  36  58  84 112 148 188 238 282 338
#     4  10  21  37  55  85 117 146 189 234 285 333
#     4   9  19  35  57  84 112 144 186 230 273 327
#     4  11  23  38  57  83 117 152 188 232 286 344
#     4  10  21  36  54  79 112 149 185 225 274 335
#
# _framework density 20.967200999999999
#
# number of rings (size 3 to 8) (size 9 to 14) (size 15 to 20)
#    0.000    2.000    1.429    2.143    0.000    6.286 
#    0.000    0.000    0.000    7.714    0.000    0.000 
#    0.000    0.000    0.000    0.000    0.000    0.000 
#
# Total GULP energy -693819.652427 kJ/mol
# GULP energy per Si atom -12389.636650 kJ/mol
# Density = 2.091948 g / cm^3
# Si number density = 20.967201 Si / 1000 Ang^3
#
#
#
# Elastic Constant Matrix: (Units=GPa)
#
#
# Indices 1 2 3 4 5 6 
#
# 1 73.1427 24.3122 15.1352 0.0000 0.0000 0.0000
# 2 24.3122 114.3426 40.2468 0.0000 0.0000 0.0000
# 3 15.1352 40.2468 63.1459 0.0000 0.0000 0.0000
# 4 0.0000 0.0000 0.0000 29.3947 0.0000 0.0000
# 5 0.0000 0.0000 0.0000 0.0000 14.9445 0.0000
# 6 0.0000 0.0000 0.0000 0.0000 0.0000 23.4544
#
#
#
# Elastic Compliance Matrix: (Units=1/GPa)
#
#
# Indices 1 2 3 4 5 6 
#
# 1 0.014905 -0.002465 -0.002002 0.000000 0.000000 0.000000
# 2 -0.002465 0.011683 -0.006855 0.000000 0.000000 0.000000
# 3 -0.002002 -0.006855 0.020685 0.000000 0.000000 0.000000
# 4 0.000000 0.000000 0.000000 0.034020 0.000000 0.000000
# 5 0.000000 0.000000 0.000000 0.000000 0.066914 0.000000
# 6 0.000000 0.000000 0.000000 0.000000 0.000000 0.042636
#
#
# Mechanical properties :
#
#
# Convention : Reuss Voigt Hill
#
# Bulk Modulus (GPa) = 40.60087 45.55772 43.07929
# Shear Modulus (GPa) = 22.55334 24.95453 23.75393
#
# Velocity S-wave (km/s) = 3.28327 3.45363 3.36952
# Velocity P-wave (km/s) = 5.81198 6.13829 5.97736
#
# Compressibility (1/GPa) = 0.02463001
#
# Stress axis : x y z
#
# Youngs Moduli (GPa) = 67.08992 85.59681 48.34319
#
# Poissons Ratio (x) = 0.21097 0.09677
# Poissons Ratio (y) = 0.16536 0.33141
# Poissons Ratio (z) = 0.13429 0.58679
#
# Static dielectric constant tensor:
#      x y z
#    x 3.955740 0.000000 0.000000 
#    y 0.000000 3.833000 0.000000 
#    z 0.000000 0.000000 3.373750 
# 
# 
# High freq. dielectric constant tensor:
#      x y z
#    x 1.827890 0.000000 0.000000 
#    y 0.000000 1.828110 0.000000 
#    z 0.000000 0.000000 1.789830 
# 
# From -- ./inp_files/22793.got.cif
#   From: 2010.03.12/outbox.cif.g09.slc.cpg/sg53_12_cif.got.tgz:22793.got - 2010.04.16 14:36:59.
