data_PCOD8221138
_publ_section_title
;
Structure prediction by ZEFSAII (Michael W. Deem and Ramdas Pophale) SiO2 
 PCOD8221138
Probable space group: P M N A
;
_chemical_formula_sum "Si O2"
_cell_formula_units_Z 48
_cell_length_a 18.132760
_cell_length_b 27.175711
_cell_length_c 5.017058
_cell_angle_alpha 90.000000
_cell_angle_beta 90.000000
_cell_angle_gamma 90.000000
_cell_volume 2472.258909
_symmetry_space_group_name_H-M "P M N A"
_symmetry_group_IT_number 53
_symmetry_cell_setting 'orthorhombic'
loop_
_space_group_symop_operation_xyz
x,y,z
1/2-x,-y,1/2+z
x,-y,-z
1/2-x,y,1/2-z
-x,-y,-z
1/2+x,y,1/2-z
-x,y,z
1/2+x,-y,1/2+z
loop_
_atom_site_type_symbol
_atom_site_label
_atom_site_fract_x
_atom_site_fract_y
_atom_site_fract_z
Si Si1 0.700509 0.556559 0.500236
Si Si2 0.085439 0.297345 0.556092
Si Si3 0.914670 0.639269 0.940447
Si Si4 0.701227 0.894942 0.999227
Si Si5 0.419656 0.967380 0.248455
Si Si6 0.299353 0.785843 0.989256
O O1 0.674534 0.500000 0.500000
O O2 0.750000 0.569889 0.250000
O O3 0.627575 0.589091 0.500092
O O4 0.750000 0.569730 0.750000
O O5 0.109360 0.338439 0.342301
O O6 0.128413 0.246778 0.520379
O O7 0.000000 0.283979 0.520597
O O8 0.104011 0.319149 0.843705
O O9 0.000000 0.624693 0.948487
O O10 0.750000 0.883859 0.250000
O O11 0.637016 0.928437 0.123223
O O12 0.671913 0.841095 0.911543
O O13 0.750000 0.918012 0.750000
O O14 0.500000 0.944254 0.337418
O O15 0.387814 0.000000 0.500000
O O16 0.438147 0.000000 0.000000
O O17 0.250000 0.783881 0.250000
O O18 0.250000 0.764714 0.750000
#
# Coordination Sequence:
#
# PCOD8221138 Si02
#       6
#     8   8   8   8   8   8
#     4  10  21  36  54  78 106 137 177 222 268 322
#     4  10  21  36  54  79 109 140 179 223 267 321
#     4  10  21  36  54  78 107 139 177 221 268 321
#     4  10  21  37  56  81 112 144 182 226 271 324
#     4  10  21  37  57  82 111 143 182 226 271 323
#     4  10  21  36  55  80 109 142 181 223 267 320
#
# _framework density 19.415444999999998
#
# number of rings (size 3 to 8) (size 9 to 14) (size 15 to 20)
#    0.000    2.000    0.000    3.000    0.000    6.333 
#    0.000    0.000    0.000   18.000    0.000    0.000 
#    0.000    0.000    0.000    0.000    0.000    0.000 
#
# Total GULP energy -594799.006768 kJ/mol
# GULP energy per Si atom -12391.645974 kJ/mol
# Density = 1.937125 g / cm^3
# Si number density = 19.415445 Si / 1000 Ang^3
#
#
#
# Elastic Constant Matrix: (Units=GPa)
#
#
# Indices 1 2 3 4 5 6 
#
# 1 100.9467 78.2219 35.3535 0.0000 0.0000 0.0000
# 2 78.2219 100.1943 22.2942 0.0000 0.0000 0.0000
# 3 35.3535 22.2942 117.1201 0.0000 0.0000 0.0000
# 4 0.0000 0.0000 0.0000 21.3180 0.0000 0.0000
# 5 0.0000 0.0000 0.0000 0.0000 33.8281 0.0000
# 6 0.0000 0.0000 0.0000 0.0000 0.0000 107.3130
#
#
#
# Elastic Compliance Matrix: (Units=1/GPa)
#
#
# Indices 1 2 3 4 5 6 
#
# 1 0.027022 -0.020134 -0.004324 0.000000 0.000000 0.000000
# 2 -0.020134 0.025424 0.001238 0.000000 0.000000 0.000000
# 3 -0.004324 0.001238 0.009608 0.000000 0.000000 0.000000
# 4 0.000000 0.000000 0.000000 0.046909 0.000000 0.000000
# 5 0.000000 0.000000 0.000000 0.000000 0.029561 0.000000
# 6 0.000000 0.000000 0.000000 0.000000 0.000000 0.009319
#
#
# Mechanical properties :
#
#
# Convention : Reuss Voigt Hill
#
# Bulk Modulus (GPa) = 64.04738 65.55557 64.80148
# Shear Modulus (GPa) = 25.06420 44.65124 34.85772
#
# Velocity S-wave (km/s) = 3.59687 4.80080 4.24177
# Velocity P-wave (km/s) = 7.09291 8.03544 7.57884
#
# Compressibility (1/GPa) = 0.01561344
#
# Stress axis : x y z
#
# Youngs Moduli (GPa) = 37.00649 39.33308 104.08133
#
# Poissons Ratio (x) = 0.79194 0.45008
# Poissons Ratio (y) = 0.74509 -0.12887
# Poissons Ratio (z) = 0.16003 -0.04870
#
# Static dielectric constant tensor:
#      x y z
#    x 3.375870 0.000000 0.000000 
#    y 0.000000 3.318340 0.000000 
#    z 0.000000 0.000000 3.904760 
# 
# 
# High freq. dielectric constant tensor:
#      x y z
#    x 1.750040 0.000000 0.000000 
#    y 0.000000 1.746200 0.000000 
#    z 0.000000 0.000000 1.781160 
# 
# From -- ./inp_files/1436.got.cif
#   From: 2010.03.12/outbox.cif.g09.slc.cpg/sg53_1_cif.got.tgz:1436.got - 2010.04.16 14:36:59.
