data_PCOD8221681
_publ_section_title
;
Structure prediction by ZEFSAII (Michael W. Deem and Ramdas Pophale) SiO2 
 PCOD8221681
Probable space group: P M N A
;
_chemical_formula_sum "Si O2"
_cell_formula_units_Z 56
_cell_length_a 21.944414
_cell_length_b 14.623768
_cell_length_c 8.803257
_cell_angle_alpha 90.000000
_cell_angle_beta 90.000000
_cell_angle_gamma 90.000000
_cell_volume 2825.053373
_symmetry_space_group_name_H-M "P M N A"
_symmetry_group_IT_number 53
_symmetry_cell_setting 'orthorhombic'
loop_
_space_group_symop_operation_xyz
x,y,z
1/2-x,-y,1/2+z
x,-y,-z
1/2-x,y,1/2-z
-x,-y,-z
1/2+x,y,1/2-z
-x,y,z
1/2+x,-y,1/2+z
loop_
_atom_site_type_symbol
_atom_site_label
_atom_site_fract_x
_atom_site_fract_y
_atom_site_fract_z
Si Si1 0.700006 0.565330 0.627971
Si Si2 0.189323 0.902328 0.552502
Si Si3 0.171183 0.088818 0.093556
Si Si4 0.000000 0.633247 0.935451
Si Si5 0.500000 0.535496 0.250344
Si Si6 0.123394 0.728023 0.004576
Si Si7 0.369068 0.444592 0.853594
Si Si8 0.682143 0.255851 0.817231
O O1 0.729801 0.500000 0.500000
O O2 0.750000 0.594592 0.750000
O O3 0.674956 0.659183 0.558036
O O4 0.647374 0.502244 0.702510
O O5 0.261377 0.891847 0.533271
O O6 0.168665 0.908892 0.725453
O O7 0.163794 0.819716 0.445883
O O8 0.165077 0.000000 0.500000
O O9 0.127333 0.170971 0.057270
O O10 0.147130 0.000000 0.000000
O O11 0.000000 0.575293 0.776628
O O12 0.941233 0.696166 0.945369
O O13 0.000000 0.569770 0.080158
O O14 0.441549 0.573568 0.158642
O O15 0.131001 0.740261 0.185225
O O16 0.325765 0.356839 0.885353
O O17 0.353283 0.500000 0.000000
O O18 0.750000 0.238365 0.750000
#
# Coordination Sequence:
#
# PCOD8221681 Si02
#       8
#     8   8   8   4   4   8   8   8
#     4  12  25  40  59  93 130 174 214 266 335 392
#     4  10  22  38  64  94 131 165 200 263 324 396
#     4  10  22  40  64  96 126 163 211 259 328 399
#     4  11  22  42  67  90 121 174 237 267 315 376
#     4  11  21  44  62  86 122 174 234 275 307 372
#     4  12  24  40  66  91 126 174 216 269 317 386
#     4  12  26  40  61  90 130 174 220 273 320 383
#     4  12  24  39  59  94 132 166 210 263 332 394
#
# _framework density 19.822634999999998
#
# number of rings (size 3 to 8) (size 9 to 14) (size 15 to 20)
#    0.000    0.714    5.714    1.929    8.000    0.000 
#    0.000    0.357    0.000    0.000    0.000    3.500 
#    0.000    0.000    0.000    0.000    0.000    0.000 
#
# Total GULP energy -693887.219112 kJ/mol
# GULP energy per Si atom -12390.843198 kJ/mol
# Density = 1.977752 g / cm^3
# Si number density = 19.822635 Si / 1000 Ang^3
#
#
#
# Elastic Constant Matrix: (Units=GPa)
#
#
# Indices 1 2 3 4 5 6 
#
# 1 67.0164 35.2058 23.7796 0.0000 0.0000 0.0000
# 2 35.2058 157.7948 65.2013 0.0000 0.0000 0.0000
# 3 23.7796 65.2013 101.5570 0.0000 0.0000 0.0000
# 4 0.0000 0.0000 0.0000 46.5893 0.0000 0.0000
# 5 0.0000 0.0000 0.0000 0.0000 11.5150 0.0000
# 6 0.0000 0.0000 0.0000 0.0000 0.0000 43.0913
#
#
#
# Elastic Compliance Matrix: (Units=1/GPa)
#
#
# Indices 1 2 3 4 5 6 
#
# 1 0.017236 -0.002964 -0.002133 0.000000 0.000000 0.000000
# 2 -0.002964 0.009135 -0.005171 0.000000 0.000000 0.000000
# 3 -0.002133 -0.005171 0.013666 0.000000 0.000000 0.000000
# 4 0.000000 0.000000 0.000000 0.021464 0.000000 0.000000
# 5 0.000000 0.000000 0.000000 0.000000 0.086843 0.000000
# 6 0.000000 0.000000 0.000000 0.000000 0.000000 0.023207
#
#
# Mechanical properties :
#
#
# Convention : Reuss Voigt Hill
#
# Bulk Modulus (GPa) = 51.27893 63.86017 57.56955
# Shear Modulus (GPa) = 25.17786 33.71788 29.44787
#
# Velocity S-wave (km/s) = 3.56779 4.12877 3.85849
# Velocity P-wave (km/s) = 6.54960 7.41719 6.99685
#
# Compressibility (1/GPa) = 0.01950119
#
# Stress axis : x y z
#
# Youngs Moduli (GPa) = 58.01927 109.46475 73.17489
#
# Poissons Ratio (x) = 0.32448 0.15606
# Poissons Ratio (y) = 0.17198 0.37839
# Poissons Ratio (z) = 0.12373 0.56604
#
# Static dielectric constant tensor:
#      x y z
#    x 3.147300 0.000000 0.000000 
#    y 0.000000 3.740340 0.000000 
#    z 0.000000 0.000000 3.885710 
# 
# 
# High freq. dielectric constant tensor:
#      x y z
#    x 1.741280 0.000000 0.000000 
#    y 0.000000 1.777720 0.000000 
#    z 0.000000 0.000000 1.789420 
# 
# From -- ./inp_files/11122.got.cif
#   From: 2010.03.12/outbox.cif.g09.slc.cpg/sg53_6_cif.got.tgz:11122.got - 2010.04.16 14:36:59.
