data_PCOD8221295
_publ_section_title
;
Structure prediction by ZEFSAII (Michael W. Deem and Ramdas Pophale) SiO2 
 PCOD8221295
Probable space group: P M N A
;
_chemical_formula_sum "Si O2"
_cell_formula_units_Z 64
_cell_length_a 16.354047
_cell_length_b 20.969246
_cell_length_c 9.055075
_cell_angle_alpha 90.000000
_cell_angle_beta 90.000000
_cell_angle_gamma 90.000000
_cell_volume 3105.275294
_symmetry_space_group_name_H-M "P M N A"
_symmetry_group_IT_number 53
_symmetry_cell_setting 'orthorhombic'
loop_
_space_group_symop_operation_xyz
x,y,z
1/2-x,-y,1/2+z
x,-y,-z
1/2-x,y,1/2-z
-x,-y,-z
1/2+x,y,1/2-z
-x,y,z
1/2+x,-y,1/2+z
loop_
_atom_site_type_symbol
_atom_site_label
_atom_site_fract_x
_atom_site_fract_y
_atom_site_fract_z
Si Si1 0.840769 0.936600 0.681596
Si Si2 0.164696 0.825520 0.180460
Si Si3 0.095699 0.682096 0.875961
Si Si4 0.163045 0.186872 0.170033
Si Si5 0.592768 0.068205 0.864483
Si Si6 0.661561 0.683340 0.309613
Si Si7 0.403187 0.430941 0.174975
Si Si8 0.593422 0.431401 0.850646
O O1 0.750000 0.942385 0.750000
O O2 0.882070 0.874828 0.759299
O O3 0.844914 0.924836 0.503568
O O4 0.888594 0.001582 0.719373
O O5 0.250000 0.846504 0.250000
O O6 0.099674 0.875651 0.243860
O O7 0.139267 0.755164 0.240893
O O8 0.171540 0.826082 0.004359
O O9 0.108591 0.750490 0.796727
O O10 0.131919 0.624508 0.778573
O O11 0.000000 0.674625 0.918524
O O12 0.155700 0.680449 0.015226
O O13 0.250000 0.196257 0.250000
O O14 0.500000 0.067510 0.924537
O O15 0.750000 0.663272 0.250000
O O16 0.599510 0.630826 0.249042
O O17 0.500000 0.421948 0.181442
O O18 0.374345 0.502535 0.225695
O O19 0.366355 0.419677 0.010897
O O20 0.500000 0.446104 0.883870
#
# Coordination Sequence:
#
# PCOD8221295 Si02
#       8
#     8   8   8   8   8   8   8   8
#     4  10  21  39  63  88 120 162 199 233 292 365
#     4  10  21  39  60  82 114 157 198 235 290 364
#     4  10  21  37  58  85 117 152 194 241 289 344
#     4  10  22  38  59  87 117 153 196 241 290 349
#     4  11  24  41  62  92 124 152 198 258 297 334
#     4  10  22  37  54  81 115 149 190 239 289 344
#     4   8  17  33  54  81 109 145 190 234 285 348
#     4   9  17  34  57  78 108 148 192 237 284 344
#
# _framework density 20.610088999999999
#
# number of rings (size 3 to 8) (size 9 to 14) (size 15 to 20)
#    0.000    2.250    0.000    3.750    0.000   10.500 
#    0.000    6.875    0.000    0.000    0.000    0.000 
#    0.000    0.000    0.000    0.000    0.000    0.000 
#
# Total GULP energy -793012.837982 kJ/mol
# GULP energy per Si atom -12390.825593 kJ/mol
# Density = 2.056318 g / cm^3
# Si number density = 20.610089 Si / 1000 Ang^3
#
#
#
# Elastic Constant Matrix: (Units=GPa)
#
#
# Indices 1 2 3 4 5 6 
#
# 1 58.5395 34.8299 36.0147 0.0000 0.0000 0.0000
# 2 34.8299 175.8202 69.3931 0.0000 0.0000 0.0000
# 3 36.0147 69.3931 93.9882 0.0000 0.0000 0.0000
# 4 0.0000 0.0000 0.0000 43.7549 0.0000 0.0000
# 5 0.0000 0.0000 0.0000 0.0000 26.9049 0.0000
# 6 0.0000 0.0000 0.0000 0.0000 0.0000 28.1891
#
#
#
# Elastic Compliance Matrix: (Units=1/GPa)
#
#
# Indices 1 2 3 4 5 6 
#
# 1 0.022627 -0.001496 -0.007566 0.000000 0.000000 0.000000
# 2 -0.001496 0.008126 -0.005426 0.000000 0.000000 0.000000
# 3 -0.007566 -0.005426 0.017545 0.000000 0.000000 0.000000
# 4 0.000000 0.000000 0.000000 0.022855 0.000000 0.000000
# 5 0.000000 0.000000 0.000000 0.000000 0.037168 0.000000
# 6 0.000000 0.000000 0.000000 0.000000 0.000000 0.035475
#
#
# Mechanical properties :
#
#
# Convention : Reuss Voigt Hill
#
# Bulk Modulus (GPa) = 51.75495 67.64703 59.70099
# Shear Modulus (GPa) = 27.90007 32.31046 30.10527
#
# Velocity S-wave (km/s) = 3.68327 3.96372 3.82606
# Velocity P-wave (km/s) = 6.57682 7.33768 6.96765
#
# Compressibility (1/GPa) = 0.01932182
#
# Stress axis : x y z
#
# Youngs Moduli (GPa) = 44.19432 123.06854 56.99761
#
# Poissons Ratio (x) = 0.18417 0.43122
# Poissons Ratio (y) = 0.06614 0.30926
# Poissons Ratio (z) = 0.33435 0.66775
#
# Static dielectric constant tensor:
#      x y z
#    x 3.344650 0.000000 0.000000 
#    y 0.000000 4.233800 0.000000 
#    z 0.000000 0.000000 3.652030 
# 
# 
# High freq. dielectric constant tensor:
#      x y z
#    x 1.771750 0.000000 0.000000 
#    y 0.000000 1.834370 0.000000 
#    z 0.000000 0.000000 1.797080 
# 
# From -- ./inp_files/8947.got.cif
#   From: 2010.03.12/outbox.cif.g09.slc.cpg/sg53_5_cif.got.tgz:8947.got - 2010.04.16 14:36:59.
