data_PCOD8221268
_publ_section_title
;
Structure prediction by ZEFSAII (Michael W. Deem and Ramdas Pophale) SiO2 
 PCOD8221268
Probable space group: P M N A
;
_chemical_formula_sum "Si O2"
_cell_formula_units_Z 48
_cell_length_a 8.929677
_cell_length_b 11.265314
_cell_length_c 23.147903
_cell_angle_alpha 90.000000
_cell_angle_beta 90.000000
_cell_angle_gamma 90.000000
_cell_volume 2328.577546
_symmetry_space_group_name_H-M "P M N A"
_symmetry_group_IT_number 53
_symmetry_cell_setting 'orthorhombic'
loop_
_space_group_symop_operation_xyz
x,y,z
1/2-x,-y,1/2+z
x,-y,-z
1/2-x,y,1/2-z
-x,-y,-z
1/2+x,y,1/2-z
-x,y,z
1/2+x,-y,1/2+z
loop_
_atom_site_type_symbol
_atom_site_label
_atom_site_fract_x
_atom_site_fract_y
_atom_site_fract_z
Si Si1 0.176987 0.147816 0.687055
Si Si2 0.673075 0.229468 0.471726
Si Si3 0.672235 0.696516 0.404574
Si Si4 0.329363 0.546199 0.916732
Si Si5 0.832756 0.310410 0.306924
Si Si6 0.822600 0.089872 0.378841
O O1 0.250000 0.143793 0.750000
O O2 0.233736 0.260496 0.650765
O O3 0.000000 0.155130 0.694988
O O4 0.226014 0.033231 0.649964
O O5 0.500000 0.244617 0.454144
O O6 0.689745 0.213738 0.541010
O O7 0.763484 0.346424 0.453703
O O8 0.741580 0.112415 0.440516
O O9 0.500000 0.685103 0.385645
O O10 0.731076 0.569972 0.426515
O O11 0.500000 0.523535 0.936881
O O12 0.324722 0.577818 0.849230
O O13 0.750000 0.350365 0.250000
O O14 0.762627 0.193279 0.336330
O O15 0.000000 0.277845 0.288997
O O16 0.000000 0.098655 0.389062
#
# Coordination Sequence:
#
# PCOD8221268 Si02
#       6
#     8   8   8   8   8   8
#     4  11  24  42  63  86 115 154 197 238 284 339
#     4  10  21  37  60  89 118 149 188 238 293 345
#     4  11  24  40  58  84 118 154 194 238 286 344
#     4  10  21  37  57  83 116 153 194 240 292 349
#     4   9  18  32  52  80 110 141 182 232 284 336
#     4   9  20  38  59  85 115 147 188 237 288 345
#
# _framework density 20.613441999999999
#
# number of rings (size 3 to 8) (size 9 to 14) (size 15 to 20)
#    0.000    2.000    0.000    4.000    0.000   10.667 
#    0.000    5.000    0.000    0.000    0.000    0.000 
#    0.000    0.000    0.000    0.000    0.000    0.000 
#
# Total GULP energy -595222.510091 kJ/mol
# GULP energy per Si atom -12400.468960 kJ/mol
# Density = 2.056652 g / cm^3
# Si number density = 20.613442 Si / 1000 Ang^3
#
#
#
# Elastic Constant Matrix: (Units=GPa)
#
#
# Indices 1 2 3 4 5 6 
#
# 1 100.0569 25.5968 51.3284 0.0000 0.0000 0.0000
# 2 25.5968 59.9287 25.4267 0.0000 0.0000 0.0000
# 3 51.3284 25.4267 92.4773 0.0000 0.0000 0.0000
# 4 0.0000 0.0000 0.0000 20.0949 0.0000 0.0000
# 5 0.0000 0.0000 0.0000 0.0000 34.0215 0.0000
# 6 0.0000 0.0000 0.0000 0.0000 0.0000 61.7849
#
#
#
# Elastic Compliance Matrix: (Units=1/GPa)
#
#
# Indices 1 2 3 4 5 6 
#
# 1 0.014477 -0.003141 -0.007172 0.000000 0.000000 0.000000
# 2 -0.003141 0.019571 -0.003638 0.000000 0.000000 0.000000
# 3 -0.007172 -0.003638 0.015794 0.000000 0.000000 0.000000
# 4 0.000000 0.000000 0.000000 0.049764 0.000000 0.000000
# 5 0.000000 0.000000 0.000000 0.000000 0.029393 0.000000
# 6 0.000000 0.000000 0.000000 0.000000 0.000000 0.016185
#
#
# Mechanical properties :
#
#
# Convention : Reuss Voigt Hill
#
# Bulk Modulus (GPa) = 45.57472 50.79632 48.18552
# Shear Modulus (GPa) = 27.71631 33.18765 30.45198
#
# Velocity S-wave (km/s) = 3.67082 4.01683 3.84772
# Velocity P-wave (km/s) = 6.33434 6.79773 6.57012
#
# Compressibility (1/GPa) = 0.02194199
#
# Stress axis : x y z
#
# Youngs Moduli (GPa) = 69.07636 51.09480 63.31395
#
# Poissons Ratio (x) = 0.16046 0.45407
# Poissons Ratio (y) = 0.21693 0.23034
# Poissons Ratio (z) = 0.49539 0.18589
#
# Static dielectric constant tensor:
#      x y z
#    x 3.728640 0.000000 0.000000 
#    y 0.000000 3.570740 0.000000 
#    z 0.000000 0.000000 3.806330 
# 
# 
# High freq. dielectric constant tensor:
#      x y z
#    x 1.810050 0.000000 0.000000 
#    y 0.000000 1.794440 0.000000 
#    z 0.000000 0.000000 1.813800 
# 
# From -- ./inp_files/33918.got.cif
#   From: 2010.03.12/outbox.cif.g09.slc.cpg/sg53_17_cif.got.tgz:33918.got - 2010.04.16 14:36:59.
