data_PCOD8221236
_publ_section_title
;
Structure prediction by ZEFSAII (Michael W. Deem and Ramdas Pophale) SiO2 
 PCOD8221236
Probable space group: P M N A
;
_chemical_formula_sum "Si O2"
_cell_formula_units_Z 40
_cell_length_a 8.782842
_cell_length_b 16.408308
_cell_length_c 14.385194
_cell_angle_alpha 90.000000
_cell_angle_beta 90.000000
_cell_angle_gamma 90.000000
_cell_volume 2073.072988
_symmetry_space_group_name_H-M "P M N A"
_symmetry_group_IT_number 53
_symmetry_cell_setting 'orthorhombic'
loop_
_space_group_symop_operation_xyz
x,y,z
1/2-x,-y,1/2+z
x,-y,-z
1/2-x,y,1/2-z
-x,-y,-z
1/2+x,y,1/2-z
-x,y,z
1/2+x,-y,1/2+z
loop_
_atom_site_type_symbol
_atom_site_label
_atom_site_fract_x
_atom_site_fract_y
_atom_site_fract_z
Si Si1 0.679581 0.871838 0.521174
Si Si2 0.321197 0.437039 0.150985
Si Si3 0.179749 0.603847 0.150214
Si Si4 0.322563 0.298336 0.005519
Si Si5 0.678385 0.981030 0.350449
O O1 0.500000 0.854503 0.524782
O O2 0.773600 0.790363 0.539903
O O3 0.728629 0.933547 0.603275
O O4 0.725931 0.908552 0.420639
O O5 0.250000 0.416214 0.250000
O O6 0.500000 0.451788 0.161308
O O7 0.247577 0.519468 0.109303
O O8 0.281278 0.361730 0.085877
O O9 0.250000 0.621979 0.250000
O O10 0.225856 0.678817 0.085118
O O11 0.000000 0.596737 0.158262
O O12 0.500000 0.300130 0.980935
O O13 0.750000 0.967266 0.250000
O O14 0.500000 0.980696 0.336735
#
# Coordination Sequence:
#
# PCOD8221236 Si02
#       5
#     8   8   8   8   8
#     4   9  20  38  56  79 111 144 179 219 268 328
#     4  10  21  37  56  79 110 146 186 230 273 322
#     4  11  22  37  58  81 108 145 187 229 274 325
#     4  11  23  37  55  82 114 146 182 227 275 322
#     4   9  19  37  60  82 107 141 178 219 270 325
#
# _framework density 19.295027999999999
#
# number of rings (size 3 to 8) (size 9 to 14) (size 15 to 20)
#    0.000    2.000    0.000    6.000    0.000    8.800 
#    0.000    8.000    0.000    0.000    0.000    0.000 
#    0.000    0.000    0.000    0.000    0.000    0.000 
#
# Total GULP energy -496090.017128 kJ/mol
# GULP energy per Si atom -12402.250428 kJ/mol
# Density = 1.925111 g / cm^3
# Si number density = 19.295028 Si / 1000 Ang^3
#
#
#
# Elastic Constant Matrix: (Units=GPa)
#
#
# Indices 1 2 3 4 5 6 
#
# 1 75.4898 14.9380 16.3270 0.0000 0.0000 0.0000
# 2 14.9380 68.9315 3.3593 0.0000 0.0000 0.0000
# 3 16.3270 3.3593 59.9683 0.0000 0.0000 0.0000
# 4 0.0000 0.0000 0.0000 15.9920 0.0000 0.0000
# 5 0.0000 0.0000 0.0000 0.0000 18.8666 0.0000
# 6 0.0000 0.0000 0.0000 0.0000 0.0000 33.4099
#
#
#
# Elastic Compliance Matrix: (Units=1/GPa)
#
#
# Indices 1 2 3 4 5 6 
#
# 1 0.014666 -0.002992 -0.003825 0.000000 0.000000 0.000000
# 2 -0.002992 0.015157 -0.000035 0.000000 0.000000 0.000000
# 3 -0.003825 -0.000035 0.017719 0.000000 0.000000 0.000000
# 4 0.000000 0.000000 0.000000 0.062531 0.000000 0.000000
# 5 0.000000 0.000000 0.000000 0.000000 0.053004 0.000000
# 6 0.000000 0.000000 0.000000 0.000000 0.000000 0.029931
#
#
# Mechanical properties :
#
#
# Convention : Reuss Voigt Hill
#
# Bulk Modulus (GPa) = 29.55193 30.40425 29.97809
# Shear Modulus (GPa) = 22.93664 24.97138 23.95401
#
# Velocity S-wave (km/s) = 3.45154 3.60138 3.52726
# Velocity P-wave (km/s) = 5.58867 5.75196 5.67090
#
# Compressibility (1/GPa) = 0.03383873
#
# Stress axis : x y z
#
# Youngs Moduli (GPa) = 68.18390 65.97528 56.43679
#
# Poissons Ratio (x) = 0.19739 0.21590
# Poissons Ratio (y) = 0.20400 0.00195
# Poissons Ratio (z) = 0.26083 0.00228
#
# Static dielectric constant tensor:
#      x y z
#    x 3.473440 0.000000 0.000000 
#    y 0.000000 3.557380 0.000000 
#    z 0.000000 0.000000 5.905370 
# 
# 
# High freq. dielectric constant tensor:
#      x y z
#    x 1.754960 0.000000 0.000000 
#    y 0.000000 1.751840 0.000000 
#    z 0.000000 0.000000 1.755220 
# 
# From -- ./inp_files/19834.got.cif
#   From: 2010.03.12/outbox.cif.g09.slc.cpg/sg53_10_cif.got.tgz:19834.got - 2010.04.16 14:36:59.
