data_PCOD8221733
_publ_section_title
;
Structure prediction by ZEFSAII (Michael W. Deem and Ramdas Pophale) SiO2 
 PCOD8221733
Probable space group: P M N A
;
_chemical_formula_sum "Si O2"
_cell_formula_units_Z 48
_cell_length_a 8.708689
_cell_length_b 15.416647
_cell_length_c 17.747853
_cell_angle_alpha 90.000000
_cell_angle_beta 90.000000
_cell_angle_gamma 90.000000
_cell_volume 2382.805165
_symmetry_space_group_name_H-M "P M N A"
_symmetry_group_IT_number 53
_symmetry_cell_setting 'orthorhombic'
loop_
_space_group_symop_operation_xyz
x,y,z
1/2-x,-y,1/2+z
x,-y,-z
1/2-x,y,1/2-z
-x,-y,-z
1/2+x,y,1/2-z
-x,y,z
1/2+x,-y,1/2+z
loop_
_atom_site_type_symbol
_atom_site_label
_atom_site_fract_x
_atom_site_fract_y
_atom_site_fract_z
Si Si1 0.679602 0.137369 0.072213
Si Si2 0.818610 0.661102 0.166579
Si Si3 0.818843 0.007093 0.828098
Si Si4 0.820118 0.828713 0.399910
Si Si5 0.820440 0.701121 0.668370
Si Si6 0.819476 0.488709 0.332236
O O1 0.500000 0.121571 0.087467
O O2 0.738753 0.226261 0.110560
O O3 0.773905 0.057245 0.104876
O O4 0.715831 0.141233 0.984303
O O5 0.750000 0.671929 0.250000
O O6 0.760547 0.737124 0.112984
O O7 0.762437 0.570490 0.127363
O O8 0.000000 0.662791 0.172224
O O9 0.750000 0.970623 0.750000
O O10 0.748843 0.101695 0.842518
O O11 0.000000 0.014347 0.821702
O O12 0.000000 0.819087 0.384755
O O13 0.750000 0.716831 0.750000
O O14 0.781823 0.606031 0.632204
O O15 0.000000 0.709030 0.680588
O O16 0.750000 0.484773 0.250000
O O17 0.000000 0.507029 0.329607
#
# Coordination Sequence:
#
# PCOD8221733 Si02
#       6
#     8   8   8   8   8   8
#     4  10  22  40  60  84 115 150 186 226 277 333
#     4  11  21  35  56  82 112 145 187 234 280 331
#     4  12  25  41  62  87 114 144 184 230 276 329
#     4  11  23  40  60  82 113 150 186 227 278 334
#     4   9  18  33  55  83 112 145 186 230 274 324
#     4   9  16  29  51  79 110 143 183 229 276 323
#
# _framework density 20.144324000000001
#
# number of rings (size 3 to 8) (size 9 to 14) (size 15 to 20)
#    0.000    1.667    0.000    6.500    0.000    6.000 
#    0.000    0.833    0.000    5.000    0.000    0.000 
#    0.000    0.000    0.000    0.000    0.000    0.000 
#
# Total GULP energy -595173.471539 kJ/mol
# GULP energy per Si atom -12399.447324 kJ/mol
# Density = 2.009847 g / cm^3
# Si number density = 20.144324 Si / 1000 Ang^3
#
#
#
# Elastic Constant Matrix: (Units=GPa)
#
#
# Indices 1 2 3 4 5 6 
#
# 1 117.8810 43.2866 31.3423 0.0000 0.0000 0.0000
# 2 43.2866 121.2873 18.2034 0.0000 0.0000 0.0000
# 3 31.3423 18.2034 55.7530 0.0000 0.0000 0.0000
# 4 0.0000 0.0000 0.0000 8.3392 0.0000 0.0000
# 5 0.0000 0.0000 0.0000 0.0000 26.2238 0.0000
# 6 0.0000 0.0000 0.0000 0.0000 0.0000 48.3561
#
#
#
# Elastic Compliance Matrix: (Units=1/GPa)
#
#
# Indices 1 2 3 4 5 6 
#
# 1 0.011014 -0.003156 -0.005161 0.000000 0.000000 0.000000
# 2 -0.003156 0.009574 -0.001352 0.000000 0.000000 0.000000
# 3 -0.005161 -0.001352 0.021279 0.000000 0.000000 0.000000
# 4 0.000000 0.000000 0.000000 0.119915 0.000000 0.000000
# 5 0.000000 0.000000 0.000000 0.000000 0.038133 0.000000
# 6 0.000000 0.000000 0.000000 0.000000 0.000000 0.020680
#
#
# Mechanical properties :
#
#
# Convention : Reuss Voigt Hill
#
# Bulk Modulus (GPa) = 44.38703 53.39844 48.89273
# Shear Modulus (GPa) = 20.20655 30.05643 25.13149
#
# Velocity S-wave (km/s) = 3.17059 3.86690 3.53593
# Velocity P-wave (km/s) = 5.95700 6.81929 6.40268
#
# Compressibility (1/GPa) = 0.02252911
#
# Stress axis : x y z
#
# Youngs Moduli (GPa) = 90.78969 104.44720 46.99450
#
# Poissons Ratio (x) = 0.32967 0.24256
# Poissons Ratio (y) = 0.28656 0.06352
# Poissons Ratio (z) = 0.46860 0.14117
#
# Static dielectric constant tensor:
#      x y z
#    x 3.612650 0.000000 0.000000 
#    y 0.000000 4.532740 0.000000 
#    z 0.000000 0.000000 3.415540 
# 
# 
# High freq. dielectric constant tensor:
#      x y z
#    x 1.791650 0.000000 0.000000 
#    y 0.000000 1.812890 0.000000 
#    z 0.000000 0.000000 1.758170 
# 
# From -- ./inp_files/26212.got.cif
#   From: 2010.03.12/outbox.cif.g09.slc.cpg/sg53_14_cif.got.tgz:26212.got - 2010.04.16 14:36:59.
