data_PCOD8221116
_publ_section_title
;
Structure prediction by ZEFSAII (Michael W. Deem and Ramdas Pophale) SiO2 
 PCOD8221116
Probable space group: P M N A
;
_chemical_formula_sum "Si O2"
_cell_formula_units_Z 48
_cell_length_a 30.618983
_cell_length_b 7.607201
_cell_length_c 11.549401
_cell_angle_alpha 90.000000
_cell_angle_beta 90.000000
_cell_angle_gamma 90.000000
_cell_volume 2690.141434
_symmetry_space_group_name_H-M "P M N A"
_symmetry_group_IT_number 53
_symmetry_cell_setting 'orthorhombic'
loop_
_space_group_symop_operation_xyz
x,y,z
1/2-x,-y,1/2+z
x,-y,-z
1/2-x,y,1/2-z
-x,-y,-z
1/2+x,y,1/2-z
-x,y,z
1/2+x,-y,1/2+z
loop_
_atom_site_type_symbol
_atom_site_label
_atom_site_fract_x
_atom_site_fract_y
_atom_site_fract_z
Si Si1 0.285983 0.834312 0.663542
Si Si2 0.808394 0.781074 0.244940
Si Si3 0.250652 0.320206 0.940021
Si Si4 0.616518 0.781357 0.622359
Si Si5 0.603604 0.178036 0.643161
Si Si6 0.952162 0.506305 0.136591
O O1 0.250000 0.746306 0.750000
O O2 0.268320 0.815776 0.533564
O O3 0.335087 0.753257 0.676252
O O4 0.289826 0.038517 0.692240
O O5 0.785702 0.638053 0.159362
O O6 0.794103 0.758154 0.378302
O O7 0.860256 0.768931 0.237959
O O8 0.264243 0.500000 0.000000
O O9 0.621137 0.766940 0.483765
O O10 0.584181 0.635313 0.676697
O O11 0.594589 0.970195 0.652190
O O12 0.561317 0.295131 0.673835
O O13 0.000000 0.465586 0.191501
O O14 0.956443 0.500000 0.000000
#
# Coordination Sequence:
#
# PCOD8221116 Si02
#       6
#     8   8   8   8   8   8
#     4  11  21  33  53  70 103 145 181 207 259 308
#     4  10  21  36  49  68 103 141 178 220 246 314
#     4  11  23  32  48  76 101 134 185 221 256 295
#     4   9  18  29  45  73  95 130 172 212 249 314
#     4   9  17  30  50  65  98 133 170 206 261 308
#     4   9  18  30  46  67  95 129 168 216 265 314
#
# _framework density 17.842928000000001
#
# number of rings (size 3 to 8) (size 9 to 14) (size 15 to 20)
#    0.000    2.167    3.333    0.500    4.667    0.667 
#    0.000    3.333    0.000    0.000    0.000    0.000 
#    0.000    6.000    0.000   18.333    0.000    1.500 
#
# Total GULP energy -594802.596612 kJ/mol
# GULP energy per Si atom -12391.720763 kJ/mol
# Density = 1.780232 g / cm^3
# Si number density = 17.842928 Si / 1000 Ang^3
#
#
#
# Elastic Constant Matrix: (Units=GPa)
#
#
# Indices 1 2 3 4 5 6 
#
# 1 141.7639 59.0742 37.9831 0.0000 0.0000 0.0000
# 2 59.0742 90.9312 31.3594 0.0000 0.0000 0.0000
# 3 37.9831 31.3594 58.8435 0.0000 0.0000 0.0000
# 4 0.0000 0.0000 0.0000 17.3043 0.0000 0.0000
# 5 0.0000 0.0000 0.0000 0.0000 10.9259 0.0000
# 6 0.0000 0.0000 0.0000 0.0000 0.0000 23.8158
#
#
#
# Elastic Compliance Matrix: (Units=1/GPa)
#
#
# Indices 1 2 3 4 5 6 
#
# 1 0.010317 -0.005398 -0.003783 0.000000 0.000000 0.000000
# 2 -0.005398 0.016298 -0.005201 0.000000 0.000000 0.000000
# 3 -0.003783 -0.005201 0.022208 0.000000 0.000000 0.000000
# 4 0.000000 0.000000 0.000000 0.057789 0.000000 0.000000
# 5 0.000000 0.000000 0.000000 0.000000 0.091525 0.000000
# 6 0.000000 0.000000 0.000000 0.000000 0.000000 0.041989
#
#
# Mechanical properties :
#
#
# Convention : Reuss Voigt Hill
#
# Bulk Modulus (GPa) = 49.85361 60.93020 55.39191
# Shear Modulus (GPa) = 18.14381 21.28400 19.71391
#
# Velocity S-wave (km/s) = 3.19229 3.45752 3.32755
# Velocity P-wave (km/s) = 6.44892 7.08248 6.77311
#
# Compressibility (1/GPa) = 0.02005873
#
# Stress axis : x y z
#
# Youngs Moduli (GPa) = 96.92883 61.35767 45.02894
#
# Poissons Ratio (x) = 0.33120 0.17033
# Poissons Ratio (y) = 0.52321 0.23421
# Poissons Ratio (z) = 0.36666 0.31914
#
# Static dielectric constant tensor:
#      x y z
#    x 3.477540 0.000000 0.000000 
#    y 0.000000 3.358880 0.000000 
#    z 0.000000 0.000000 3.038160 
# 
# 
# High freq. dielectric constant tensor:
#      x y z
#    x 1.677450 0.000000 0.000000 
#    y 0.000000 1.698740 0.000000 
#    z 0.000000 0.000000 1.635510 
# 
# From -- ./inp_files/12996.got.cif
#   From: 2010.03.12/outbox.cif.g09.slc.cpg/sg53_7_cif.got.tgz:12996.got - 2010.04.16 14:36:59.
