data_PCOD8221067
_publ_section_title
;
Structure prediction by ZEFSAII (Michael W. Deem and Ramdas Pophale) SiO2 
 PCOD8221067
Probable space group: P M N A
;
_chemical_formula_sum "Si O2"
_cell_formula_units_Z 64
_cell_length_a 18.187234
_cell_length_b 22.675638
_cell_length_c 7.616928
_cell_angle_alpha 90.000000
_cell_angle_beta 90.000000
_cell_angle_gamma 90.000000
_cell_volume 3141.275449
_symmetry_space_group_name_H-M "P M N A"
_symmetry_group_IT_number 53
_symmetry_cell_setting 'orthorhombic'
loop_
_space_group_symop_operation_xyz
x,y,z
1/2-x,-y,1/2+z
x,-y,-z
1/2-x,y,1/2-z
-x,-y,-z
1/2+x,y,1/2-z
-x,y,z
1/2+x,-y,1/2+z
loop_
_atom_site_type_symbol
_atom_site_label
_atom_site_fract_x
_atom_site_fract_y
_atom_site_fract_z
Si Si1 0.416309 0.430591 0.485501
Si Si2 0.412042 0.641638 0.854545
Si Si3 0.665885 0.004955 0.705988
Si Si4 0.581768 0.759218 0.248678
Si Si5 0.582040 0.106313 0.259753
Si Si6 0.919361 0.230596 0.336911
Si Si7 0.337079 0.642898 0.229811
Si Si8 0.918581 0.884945 0.165731
O O1 0.407309 0.500000 0.500000
O O2 0.500000 0.410700 0.518752
O O3 0.392167 0.407307 0.291762
O O4 0.366302 0.406524 0.640100
O O5 0.500000 0.642461 0.898971
O O6 0.386672 0.706013 0.774526
O O7 0.365971 0.628503 0.032371
O O8 0.750000 0.008574 0.750000
O O9 0.630837 0.948707 0.808663
O O10 0.654563 0.000000 0.500000
O O11 0.627823 0.065838 0.770908
O O12 0.500000 0.749062 0.329511
O O13 0.634133 0.705612 0.301568
O O14 0.617591 0.819943 0.319726
O O15 0.575705 0.763953 0.042728
O O16 0.500000 0.103447 0.174781
O O17 0.622154 0.169586 0.215895
O O18 0.575643 0.097249 0.465452
O O19 0.000000 0.223667 0.250421
O O20 0.250000 0.642886 0.250000
O O21 0.000000 0.882400 0.251635
#
# Coordination Sequence:
#
# PCOD8221067 Si02
#       8
#     8   8   8   8   8   8   8   8
#     4  10  22  41  67  96 120 156 213 259 294 352
#     4   9  19  38  64  91 123 158 201 260 305 347
#     4  10  21  35  48  68 102 140 177 219 277 344
#     4   9  18  34  56  81 111 144 188 239 286 340
#     4   9  17  31  52  75  98 130 179 233 283 334
#     4   8  15  29  52  81 106 134 175 231 291 336
#     4  11  23  39  58  90 129 169 199 241 304 367
#     4   9  18  32  54  78  98 132 182 236 282 327
#
# _framework density 20.373888999999998
#
# number of rings (size 3 to 8) (size 9 to 14) (size 15 to 20)
#    0.000    2.625    0.000    2.250    1.750    4.000 
#    2.250    5.625    0.000    3.750    0.000    0.000 
#    0.000    0.000    0.000    0.000    0.000    0.000 
#
# Total GULP energy -792965.234268 kJ/mol
# GULP energy per Si atom -12390.081785 kJ/mol
# Density = 2.032752 g / cm^3
# Si number density = 20.373889 Si / 1000 Ang^3
#
#
#
# Elastic Constant Matrix: (Units=GPa)
#
#
# Indices 1 2 3 4 5 6 
#
# 1 101.3542 70.7874 33.4174 0.0000 0.0000 0.0000
# 2 70.7874 132.3869 30.0609 0.0000 0.0000 0.0000
# 3 33.4174 30.0609 39.9538 0.0000 0.0000 0.0000
# 4 0.0000 0.0000 0.0000 24.0005 0.0000 0.0000
# 5 0.0000 0.0000 0.0000 0.0000 13.1024 0.0000
# 6 0.0000 0.0000 0.0000 0.0000 0.0000 10.9323
#
#
#
# Elastic Compliance Matrix: (Units=1/GPa)
#
#
# Indices 1 2 3 4 5 6 
#
# 1 0.018374 -0.007640 -0.009620 0.000000 0.000000 0.000000
# 2 -0.007640 0.012287 -0.002854 0.000000 0.000000 0.000000
# 3 -0.009620 -0.002854 0.035222 0.000000 0.000000 0.000000
# 4 0.000000 0.000000 0.000000 0.041666 0.000000 0.000000
# 5 0.000000 0.000000 0.000000 0.000000 0.076322 0.000000
# 6 0.000000 0.000000 0.000000 0.000000 0.000000 0.091472
#
#
# Mechanical properties :
#
#
# Convention : Reuss Voigt Hill
#
# Bulk Modulus (GPa) = 38.97874 60.24737 49.61305
# Shear Modulus (GPa) = 15.42620 18.90232 17.16426
#
# Velocity S-wave (km/s) = 2.75463 3.04924 2.90567
# Velocity P-wave (km/s) = 5.41208 6.48323 5.97172
#
# Compressibility (1/GPa) = 0.02565501
#
# Stress axis : x y z
#
# Youngs Moduli (GPa) = 54.42385 81.38637 28.39109
#
# Poissons Ratio (x) = 0.62183 0.27311
# Poissons Ratio (y) = 0.41582 0.08103
# Poissons Ratio (z) = 0.52354 0.23229
#
# Static dielectric constant tensor:
#      x y z
#    x 3.405740 0.000000 0.000000 
#    y 0.000000 4.204780 0.000000 
#    z 0.000000 0.000000 3.534830 
# 
# 
# High freq. dielectric constant tensor:
#      x y z
#    x 1.755370 0.000000 0.000000 
#    y 0.000000 1.813860 0.000000 
#    z 0.000000 0.000000 1.785490 
# 
# From -- ./inp_files/8929.got.cif
#   From: 2010.03.12/outbox.cif.g09.slc.cpg/sg53_5_cif.got.tgz:8929.got - 2010.04.16 14:36:59.
