data_PCOD8221098
_publ_section_title
;
Structure prediction by ZEFSAII (Michael W. Deem and Ramdas Pophale) SiO2 
 PCOD8221098
Probable space group: P M N A
;
_chemical_formula_sum "Si O2"
_cell_formula_units_Z 28
_cell_length_a 14.233605
_cell_length_b 17.579043
_cell_length_c 5.156526
_cell_angle_alpha 90.000000
_cell_angle_beta 90.000000
_cell_angle_gamma 90.000000
_cell_volume 1290.230636
_symmetry_space_group_name_H-M "P M N A"
_symmetry_group_IT_number 53
_symmetry_cell_setting 'orthorhombic'
loop_
_space_group_symop_operation_xyz
x,y,z
1/2-x,-y,1/2+z
x,-y,-z
1/2-x,y,1/2-z
-x,-y,-z
1/2+x,y,1/2-z
-x,y,z
1/2+x,-y,1/2+z
loop_
_atom_site_type_symbol
_atom_site_label
_atom_site_fract_x
_atom_site_fract_y
_atom_site_fract_z
Si Si1 0.107292 0.740516 0.896542
Si Si2 0.887076 0.826070 0.392793
Si Si3 0.250000 0.953641 0.250000
Si Si4 0.313454 0.417191 0.497924
O O1 0.151688 0.773383 0.630448
O O2 0.113577 0.650330 0.947501
O O3 0.000000 0.762754 0.880665
O O4 0.151876 0.783626 0.138919
O O5 0.836373 0.907263 0.379996
O O6 0.000000 0.836665 0.400447
O O7 0.289512 0.000000 0.500000
O O8 0.365358 0.500000 0.500000
O O9 0.250000 0.418474 0.250000
O O10 0.250000 0.402399 0.750000
#
# Coordination Sequence:
#
# PCOD8221098 Si02
#       4
#     8   8   4   8
#     4  10  21  38  60  87 117 159 204 243 296 350
#     4  10  23  41  62  91 122 155 200 249 296 355
#     4  12  26  42  64  94 120 156 200 238 308 378
#     4  10  21  35  54  86 122 159 201 247 299 346
#
# _framework density 21.701547000000001
#
# number of rings (size 3 to 8) (size 9 to 14) (size 15 to 20)
#    0.000    1.714    0.000    3.429    6.000    1.714 
#    0.000    0.000    0.000   10.286    0.000    0.000 
#    0.000    0.000    0.000    0.000    0.000    0.000 
#
# Total GULP energy -346938.852383 kJ/mol
# GULP energy per Si atom -12390.673299 kJ/mol
# Density = 2.165215 g / cm^3
# Si number density = 21.701547 Si / 1000 Ang^3
#
#
#
# Elastic Constant Matrix: (Units=GPa)
#
#
# Indices 1 2 3 4 5 6 
#
# 1 29.7674 28.7073 28.9033 0.0000 0.0000 0.0000
# 2 28.7073 134.9246 66.3828 0.0000 0.0000 0.0000
# 3 28.9033 66.3828 200.1494 0.0000 0.0000 0.0000
# 4 0.0000 0.0000 0.0000 47.8401 0.0000 0.0000
# 5 0.0000 0.0000 0.0000 0.0000 19.1109 0.0000
# 6 0.0000 0.0000 0.0000 0.0000 0.0000 27.1275
#
#
#
# Elastic Compliance Matrix: (Units=1/GPa)
#
#
# Indices 1 2 3 4 5 6 
#
# 1 0.044732 -0.007575 -0.003947 0.000000 0.000000 0.000000
# 2 -0.007575 0.010140 -0.002269 0.000000 0.000000 0.000000
# 3 -0.003947 -0.002269 0.006319 0.000000 0.000000 0.000000
# 4 0.000000 0.000000 0.000000 0.020903 0.000000 0.000000
# 5 0.000000 0.000000 0.000000 0.000000 0.052326 0.000000
# 6 0.000000 0.000000 0.000000 0.000000 0.000000 0.036863
#
#
# Mechanical properties :
#
#
# Convention : Reuss Voigt Hill
#
# Bulk Modulus (GPa) = 29.75544 68.09201 48.92373
# Shear Modulus (GPa) = 23.80180 34.87225 29.33703
#
# Velocity S-wave (km/s) = 3.31536 4.01297 3.68073
# Velocity P-wave (km/s) = 5.32883 7.27438 6.37624
#
# Compressibility (1/GPa) = 0.03360730
#
# Stress axis : x y z
#
# Youngs Moduli (GPa) = 22.35535 98.62230 158.25694
#
# Poissons Ratio (x) = 0.74710 0.62467
# Poissons Ratio (y) = 0.16935 0.35909
# Poissons Ratio (z) = 0.08824 0.22378
#
# Static dielectric constant tensor:
#      x y z
#    x 3.405710 0.000000 0.000000 
#    y 0.000000 8.647900 0.000000 
#    z 0.000000 0.000000 4.483430 
# 
# 
# High freq. dielectric constant tensor:
#      x y z
#    x 1.826520 0.000000 0.000000 
#    y 0.000000 1.860920 0.000000 
#    z 0.000000 0.000000 1.882470 
# 
# From -- ./inp_files/1154.got.cif
#   From: 2010.03.12/outbox.cif.g09.slc.cpg/sg53_1_cif.got.tgz:1154.got - 2010.04.16 14:36:59.
