data_PCOD8221371
_publ_section_title
;
Structure prediction by ZEFSAII (Michael W. Deem and Ramdas Pophale) SiO2 
 PCOD8221371
Probable space group: P M N A
;
_chemical_formula_sum "Si O2"
_cell_formula_units_Z 40
_cell_length_a 25.288052
_cell_length_b 8.953244
_cell_length_c 9.722363
_cell_angle_alpha 90.000000
_cell_angle_beta 90.000000
_cell_angle_gamma 90.000000
_cell_volume 2201.241178
_symmetry_space_group_name_H-M "P M N A"
_symmetry_group_IT_number 53
_symmetry_cell_setting 'orthorhombic'
loop_
_space_group_symop_operation_xyz
x,y,z
1/2-x,-y,1/2+z
x,-y,-z
1/2-x,y,1/2-z
-x,-y,-z
1/2+x,y,1/2-z
-x,y,z
1/2+x,-y,1/2+z
loop_
_atom_site_type_symbol
_atom_site_label
_atom_site_fract_x
_atom_site_fract_y
_atom_site_fract_z
Si Si1 0.560185 0.336152 0.517721
Si Si2 0.900763 0.834104 0.261578
Si Si3 0.603061 0.839280 0.724628
Si Si4 0.802628 0.014833 0.836819
Si Si5 0.437997 0.326095 0.020689
O O1 0.586383 0.500000 0.500000
O O2 0.500000 0.346302 0.468907
O O3 0.564371 0.282324 0.674603
O O4 0.588847 0.211724 0.427894
O O5 0.840779 0.842950 0.199696
O O6 0.903117 0.772514 0.416342
O O7 0.925632 0.001789 0.257806
O O8 0.666676 0.866907 0.720152
O O9 0.584397 0.712904 0.829394
O O10 0.750000 0.035227 0.750000
O O11 0.790954 0.000000 0.000000
O O12 0.500000 0.287196 0.007676
O O13 0.427477 0.500000 0.000000
#
# Coordination Sequence:
#
# PCOD8221371 Si02
#       5
#     8   8   8   8   8
#     4  11  21  35  57  84 122 162 185 225 293 351
#     4  10  21  38  57  89 113 152 199 246 279 341
#     4  10  21  38  57  89 113 152 199 246 279 341
#     4  10  22  40  65  90 112 144 195 252 309 346
#     4  11  23  37  55  86 128 166 193 227 287 349
#
# _framework density 18.171565999999999
#
# number of rings (size 3 to 8) (size 9 to 14) (size 15 to 20)
#    1.200    0.400    2.000    3.600    2.800    8.000 
#    0.000    0.000    0.000    7.200    0.000    0.000 
#    0.000    0.000    0.000    0.000    0.000    0.000 
#
# Total GULP energy -495743.018658 kJ/mol
# GULP energy per Si atom -12393.575466 kJ/mol
# Density = 1.813021 g / cm^3
# Si number density = 18.171566 Si / 1000 Ang^3
#
#
#
# Elastic Constant Matrix: (Units=GPa)
#
#
# Indices 1 2 3 4 5 6 
#
# 1 82.3972 31.9398 35.6189 0.0000 0.0000 0.0000
# 2 31.9398 89.8293 17.7410 0.0000 0.0000 0.0000
# 3 35.6189 17.7410 84.3228 0.0000 0.0000 0.0000
# 4 0.0000 0.0000 0.0000 39.3032 0.0000 0.0000
# 5 0.0000 0.0000 0.0000 0.0000 32.9812 0.0000
# 6 0.0000 0.0000 0.0000 0.0000 0.0000 1.8201
#
#
#
# Elastic Compliance Matrix: (Units=1/GPa)
#
#
# Indices 1 2 3 4 5 6 
#
# 1 0.016553 -0.004700 -0.006004 0.000000 0.000000 0.000000
# 2 -0.004700 0.012949 -0.000739 0.000000 0.000000 0.000000
# 3 -0.006004 -0.000739 0.014551 0.000000 0.000000 0.000000
# 4 0.000000 0.000000 0.000000 0.025443 0.000000 0.000000
# 5 0.000000 0.000000 0.000000 0.000000 0.030320 0.000000
# 6 0.000000 0.000000 0.000000 0.000000 0.000000 0.549429
#
#
# Mechanical properties :
#
#
# Convention : Reuss Voigt Hill
#
# Bulk Modulus (GPa) = 47.24093 47.46098 47.35095
# Shear Modulus (GPa) = 7.36174 26.23754 16.79964
#
# Velocity S-wave (km/s) = 2.01495 3.80396 3.04386
# Velocity P-wave (km/s) = 5.60954 6.74303 6.20224
#
# Compressibility (1/GPa) = 0.02116808
#
# Stress axis : x y z
#
# Youngs Moduli (GPa) = 60.41031 77.22388 68.72545
#
# Poissons Ratio (x) = 0.36296 0.41259
# Poissons Ratio (y) = 0.28393 0.05079
# Poissons Ratio (z) = 0.36267 0.05708
#
# Static dielectric constant tensor:
#      x y z
#    x 3.042490 0.000000 0.000000 
#    y 0.000000 3.288590 0.000000 
#    z 0.000000 0.000000 3.265330 
# 
# 
# High freq. dielectric constant tensor:
#      x y z
#    x 1.675340 0.000000 0.000000 
#    y 0.000000 1.699260 0.000000 
#    z 0.000000 0.000000 1.720600 
# 
# From -- ./inp_files/11576.got.cif
#   From: 2010.03.12/outbox.cif.g09.slc.cpg/sg53_6_cif.got.tgz:11576.got - 2010.04.16 14:36:59.
