data_PCOD8221489
_publ_section_title
;
Structure prediction by ZEFSAII (Michael W. Deem and Ramdas Pophale) SiO2 
 PCOD8221489
Probable space group: P M N A
;
_chemical_formula_sum "Si O2"
_cell_formula_units_Z 48
_cell_length_a 31.021178
_cell_length_b 7.621227
_cell_length_c 10.065400
_cell_angle_alpha 90.000000
_cell_angle_beta 90.000000
_cell_angle_gamma 90.000000
_cell_volume 2379.656225
_symmetry_space_group_name_H-M "P M N A"
_symmetry_group_IT_number 53
_symmetry_cell_setting 'orthorhombic'
loop_
_space_group_symop_operation_xyz
x,y,z
1/2-x,-y,1/2+z
x,-y,-z
1/2-x,y,1/2-z
-x,-y,-z
1/2+x,y,1/2-z
-x,y,z
1/2+x,-y,1/2+z
loop_
_atom_site_type_symbol
_atom_site_label
_atom_site_fract_x
_atom_site_fract_y
_atom_site_fract_z
Si Si1 0.344411 0.800447 0.020595
Si Si2 0.383814 0.763442 0.748481
Si Si3 0.549465 0.517493 0.344439
Si Si4 0.741671 0.647663 0.096044
Si Si5 0.396363 0.824795 0.265968
Si Si6 0.170637 0.199244 0.995505
O O1 0.356861 0.709975 0.880860
O O2 0.295620 0.792463 0.078596
O O3 0.377480 0.736563 0.133093
O O4 0.354735 0.000000 0.000000
O O5 0.423171 0.629080 0.733881
O O6 0.349159 0.734518 0.632996
O O7 0.402677 0.963929 0.743387
O O8 0.558674 0.500000 0.500000
O O9 0.500000 0.480700 0.309762
O O10 0.560000 0.717673 0.298079
O O11 0.750000 0.597846 0.250000
O O12 0.786593 0.693354 0.029661
O O13 0.721621 0.500000 0.000000
O O14 0.363896 0.771760 0.381868
O O15 0.185680 0.000000 0.000000
#
# Coordination Sequence:
#
# PCOD8221489 Si02
#       6
#     8   8   8   8   8   8
#     4  10  23  43  64  88 124 170 211 257 312 367
#     4  10  23  40  67  94 123 164 212 253 315 379
#     4  11  24  40  66  97 126 161 205 263 322 381
#     4  12  27  39  56  90 127 165 213 261 304 358
#     4  10  21  42  65  92 124 165 206 258 313 370
#     4  10  21  39  62  84 118 165 206 253 302 359
#
# _framework density 20.170981000000001
#
# number of rings (size 3 to 8) (size 9 to 14) (size 15 to 20)
#    0.000    1.500    3.333    0.500    7.000    0.667 
#    0.000    3.333    0.000    3.000    0.000    0.000 
#    0.000    0.000    0.000    0.000    0.000    0.000 
#
# Total GULP energy -594899.054059 kJ/mol
# GULP energy per Si atom -12393.730293 kJ/mol
# Density = 2.012507 g / cm^3
# Si number density = 20.170981 Si / 1000 Ang^3
#
#
#
# Elastic Constant Matrix: (Units=GPa)
#
#
# Indices 1 2 3 4 5 6 
#
# 1 92.1240 41.3782 48.1428 0.0000 0.0000 0.0000
# 2 41.3782 64.7598 31.2282 0.0000 0.0000 0.0000
# 3 48.1428 31.2282 165.9049 0.0000 0.0000 0.0000
# 4 0.0000 0.0000 0.0000 11.9392 0.0000 0.0000
# 5 0.0000 0.0000 0.0000 0.0000 15.6425 0.0000
# 6 0.0000 0.0000 0.0000 0.0000 0.0000 22.7085
#
#
#
# Elastic Compliance Matrix: (Units=1/GPa)
#
#
# Indices 1 2 3 4 5 6 
#
# 1 0.016551 -0.009084 -0.003093 0.000000 0.000000 0.000000
# 2 -0.009084 0.021969 -0.001499 0.000000 0.000000 0.000000
# 3 -0.003093 -0.001499 0.007207 0.000000 0.000000 0.000000
# 4 0.000000 0.000000 0.000000 0.083758 0.000000 0.000000
# 5 0.000000 0.000000 0.000000 0.000000 0.063928 0.000000
# 6 0.000000 0.000000 0.000000 0.000000 0.000000 0.044036
#
#
# Mechanical properties :
#
#
# Convention : Reuss Voigt Hill
#
# Bulk Modulus (GPa) = 54.42149 62.69857 58.56003
# Shear Modulus (GPa) = 18.45510 23.52734 20.99122
#
# Velocity S-wave (km/s) = 3.02807 3.41896 3.22943
# Velocity P-wave (km/s) = 6.26612 6.83643 6.55748
#
# Compressibility (1/GPa) = 0.01837509
#
# Stress axis : x y z
#
# Youngs Moduli (GPa) = 60.41751 45.51902 138.74827
#
# Poissons Ratio (x) = 0.41350 0.42916
# Poissons Ratio (y) = 0.54883 0.20801
# Poissons Ratio (z) = 0.18688 0.06824
#
# Static dielectric constant tensor:
#      x y z
#    x 3.425880 0.000000 0.000000 
#    y 0.000000 4.922820 0.000000 
#    z 0.000000 0.000000 4.648580 
# 
# 
# High freq. dielectric constant tensor:
#      x y z
#    x 1.773710 0.000000 0.000000 
#    y 0.000000 1.787970 0.000000 
#    z 0.000000 0.000000 1.803680 
# 
# From -- ./inp_files/12969.got.cif
#   From: 2010.03.12/outbox.cif.g09.slc.cpg/sg53_7_cif.got.tgz:12969.got - 2010.04.16 14:36:59.
