data_PCOD8221393
_publ_section_title
;
Structure prediction by ZEFSAII (Michael W. Deem and Ramdas Pophale) SiO2 
 PCOD8221393
Probable space group: P M N A
;
_chemical_formula_sum "Si O2"
_cell_formula_units_Z 40
_cell_length_a 14.142169
_cell_length_b 8.249679
_cell_length_c 15.545335
_cell_angle_alpha 90.000000
_cell_angle_beta 90.000000
_cell_angle_gamma 90.000000
_cell_volume 1813.648656
_symmetry_space_group_name_H-M "P M N A"
_symmetry_group_IT_number 53
_symmetry_cell_setting 'orthorhombic'
loop_
_space_group_symop_operation_xyz
x,y,z
1/2-x,-y,1/2+z
x,-y,-z
1/2-x,y,1/2-z
-x,-y,-z
1/2+x,y,1/2-z
-x,y,z
1/2+x,-y,1/2+z
loop_
_atom_site_type_symbol
_atom_site_label
_atom_site_fract_x
_atom_site_fract_y
_atom_site_fract_z
Si Si1 0.157055 0.684029 0.299188
Si Si2 0.110060 0.805958 0.790871
Si Si3 0.398709 0.161655 0.640188
Si Si4 0.215776 0.179218 0.536545
Si Si5 0.794740 0.329569 0.360478
O O1 0.250000 0.745642 0.250000
O O2 0.081891 0.722956 0.224378
O O3 0.142143 0.793247 0.385131
O O4 0.162291 0.499268 0.329201
O O5 0.143705 0.805447 0.690931
O O6 0.182025 0.681856 0.839576
O O7 0.000000 0.752762 0.800457
O O8 0.129006 0.982106 0.829120
O O9 0.500000 0.158465 0.591558
O O10 0.320645 0.222651 0.572368
O O11 0.190859 0.306764 0.461853
O O12 0.209274 0.000000 0.500000
#
# Coordination Sequence:
#
# PCOD8221393 Si02
#       5
#     8   8   8   8   8
#     4  10  21  38  59  85 119 165 205 245 307 371
#     4  10  21  38  63  91 123 164 210 253 308 374
#     4  10  22  39  62  93 125 162 209 259 310 376
#     4  11  21  35  62  91 120 162 208 251 309 369
#     4  11  21  39  60  93 127 168 204 259 317 366
#
# _framework density 22.054988999999999
#
# number of rings (size 3 to 8) (size 9 to 14) (size 15 to 20)
#    0.000    1.600    4.000    1.800    5.600    2.000 
#    0.000    1.000    0.000    9.600    0.000    0.000 
#    0.000    0.000    0.000    0.000    0.000    0.000 
#
# Total GULP energy -495537.555008 kJ/mol
# GULP energy per Si atom -12388.438875 kJ/mol
# Density = 2.200479 g / cm^3
# Si number density = 22.054989 Si / 1000 Ang^3
#
#
#
# Elastic Constant Matrix: (Units=GPa)
#
#
# Indices 1 2 3 4 5 6 
#
# 1 52.5942 0.2529 -23.6455 0.0000 0.0000 0.0000
# 2 0.2529 80.3077 21.2926 0.0000 0.0000 0.0000
# 3 -23.6455 21.2926 100.6965 0.0000 0.0000 0.0000
# 4 0.0000 0.0000 0.0000 41.3857 0.0000 0.0000
# 5 0.0000 0.0000 0.0000 0.0000 15.9801 0.0000
# 6 0.0000 0.0000 0.0000 0.0000 0.0000 10.3581
#
#
#
# Elastic Compliance Matrix: (Units=1/GPa)
#
#
# Indices 1 2 3 4 5 6 
#
# 1 0.021423 -0.001485 0.005345 0.000000 0.000000 0.000000
# 2 -0.001485 0.013295 -0.003160 0.000000 0.000000 0.000000
# 3 0.005345 -0.003160 0.011854 0.000000 0.000000 0.000000
# 4 0.000000 0.000000 0.000000 0.024163 0.000000 0.000000
# 5 0.000000 0.000000 0.000000 0.000000 0.062578 0.000000
# 6 0.000000 0.000000 0.000000 0.000000 0.000000 0.096543
#
#
# Mechanical properties :
#
#
# Convention : Reuss Voigt Hill
#
# Bulk Modulus (GPa) = 20.84528 25.48874 23.16701
# Shear Modulus (GPa) = 20.45443 29.25800 24.85622
#
# Velocity S-wave (km/s) = 3.04868 3.64619 3.36074
# Velocity P-wave (km/s) = 4.67596 5.41371 5.05830
#
# Compressibility (1/GPa) = 0.04797250
#
# Stress axis : x y z
#
# Youngs Moduli (GPa) = 46.67780 75.21869 84.35984
#
# Poissons Ratio (x) = 0.11166 -0.45086
# Poissons Ratio (y) = 0.06929 0.26656
# Poissons Ratio (z) = -0.24947 0.23767
#
# Static dielectric constant tensor:
#      x y z
#    x 3.904560 0.000000 0.000000 
#    y 0.000000 3.820710 0.000000 
#    z 0.000000 0.000000 4.408050 
# 
# 
# High freq. dielectric constant tensor:
#      x y z
#    x 1.843710 0.000000 0.000000 
#    y 0.000000 1.859860 0.000000 
#    z 0.000000 0.000000 1.875850 
# 
# From -- ./inp_files/22443.got.cif
#   From: 2010.03.12/outbox.cif.g09.slc.cpg/sg53_12_cif.got.tgz:22443.got - 2010.04.16 14:36:59.
