data_PCOD8221272
_publ_section_title
;
Structure prediction by ZEFSAII (Michael W. Deem and Ramdas Pophale) SiO2 
 PCOD8221272
Probable space group: P M N A
;
_chemical_formula_sum "Si O2"
_cell_formula_units_Z 48
_cell_length_a 8.688642
_cell_length_b 30.817489
_cell_length_c 8.902830
_cell_angle_alpha 90.000000
_cell_angle_beta 90.000000
_cell_angle_gamma 90.000000
_cell_volume 2383.840717
_symmetry_space_group_name_H-M "P M N A"
_symmetry_group_IT_number 53
_symmetry_cell_setting 'orthorhombic'
loop_
_space_group_symop_operation_xyz
x,y,z
1/2-x,-y,1/2+z
x,-y,-z
1/2-x,y,1/2-z
-x,-y,-z
1/2+x,y,1/2-z
-x,y,z
1/2+x,-y,1/2+z
loop_
_atom_site_type_symbol
_atom_site_label
_atom_site_fract_x
_atom_site_fract_y
_atom_site_fract_z
Si Si1 0.181709 0.286011 0.085300
Si Si2 0.182369 0.127222 0.088496
Si Si3 0.182441 0.543009 0.915264
Si Si4 0.182584 0.206644 0.587358
Si Si5 0.181157 0.041529 0.912421
Si Si6 0.180551 0.372390 0.913148
O O1 0.250000 0.279519 0.250000
O O2 0.000000 0.278370 0.091606
O O3 0.256314 0.252514 0.970090
O O4 0.225763 0.333386 0.024148
O O5 0.250000 0.117601 0.250000
O O6 0.000000 0.134431 0.093964
O O7 0.263044 0.169830 0.025870
O O8 0.231102 0.085986 0.990676
O O9 0.250000 0.544530 0.750000
O O10 0.000000 0.544216 0.901868
O O11 0.240414 0.500000 0.000000
O O12 0.245096 0.583742 0.011160
O O13 0.250000 0.196256 0.750000
O O14 0.000000 0.207682 0.596501
O O15 0.250000 0.041635 0.750000
O O16 0.000000 0.037673 0.901080
O O17 0.249274 0.000000 0.000000
O O18 0.250000 0.364801 0.750000
O O19 0.000000 0.375490 0.891189
#
# Coordination Sequence:
#
# PCOD8221272 Si02
#       6
#     8   8   8   8   8   8
#     4  11  23  40  61  87 118 153 195 240 291 347
#     4  11  23  40  62  89 121 157 198 242 292 347
#     4  10  21  37  57  84 116 150 191 236 284 340
#     4  12  25  42  63  88 119 154 195 242 293 348
#     4  10  22  39  60  88 120 155 196 241 290 345
#     4  10  22  38  58  85 116 151 192 238 287 343
#
# _framework density 20.135573000000001
#
# number of rings (size 3 to 8) (size 9 to 14) (size 15 to 20)
#    0.000    1.333    0.000    5.500    0.000    6.667 
#    0.000    0.000    0.000    0.000    0.000    0.000 
#    0.000    0.000    0.000    0.000    0.000    0.000 
#
# Total GULP energy -595468.570729 kJ/mol
# GULP energy per Si atom -12405.595224 kJ/mol
# Density = 2.008974 g / cm^3
# Si number density = 20.135573 Si / 1000 Ang^3
#
#
#
# Elastic Constant Matrix: (Units=GPa)
#
#
# Indices 1 2 3 4 5 6 
#
# 1 70.4959 44.6891 35.9724 0.0000 0.0000 0.0000
# 2 44.6891 126.5170 33.4000 0.0000 0.0000 0.0000
# 3 35.9724 33.4000 132.2175 0.0000 0.0000 0.0000
# 4 0.0000 0.0000 0.0000 43.1291 0.0000 0.0000
# 5 0.0000 0.0000 0.0000 0.0000 39.7828 0.0000
# 6 0.0000 0.0000 0.0000 0.0000 0.0000 -0.0433
#
#
#
# Elastic Compliance Matrix: (Units=1/GPa)
#
#
# Indices 1 2 3 4 5 6 
#
# 1 0.020010 -0.006033 -0.003920 0.000000 0.000000 0.000000
# 2 -0.006033 0.010288 -0.000957 0.000000 0.000000 0.000000
# 3 -0.003920 -0.000957 0.008872 0.000000 0.000000 0.000000
# 4 0.000000 0.000000 0.000000 0.023186 0.000000 0.000000
# 5 0.000000 0.000000 0.000000 0.000000 0.025136 0.000000
# 6 0.000000 0.000000 0.000000 0.000000 0.000000-23.079989
#
#
# Mechanical properties :
#
#
# Convention : Reuss Voigt Hill
#
# Bulk Modulus (GPa) = 57.64248 61.92818 59.78533
# Shear Modulus (GPa) = -0.21772 30.91832 15.35030
#
# Velocity S-wave (km/s) = -0.32919 3.92281 2.76406
# Velocity P-wave (km/s) = 5.34274 7.16521 6.32001
#
# Compressibility (1/GPa) = 0.01734832
#
# Stress axis : x y z
#
# Youngs Moduli (GPa) = 49.97467 97.20140 112.71813
#
# Poissons Ratio (x) = 0.58644 0.44186
# Poissons Ratio (y) = 0.30151 0.10792
# Poissons Ratio (z) = 0.19590 0.09306
#
# Static dielectric constant tensor:
#      x y z
#    x 3.654950 0.000000 0.000000 
#    y 0.000000 4.111840 0.000000 
#    z 0.000000 0.000000 3.690410 
# 
# 
# High freq. dielectric constant tensor:
#      x y z
#    x 1.785510 0.000000 0.000000 
#    y 0.000000 1.808440 0.000000 
#    z 0.000000 0.000000 1.804450 
# 
# From -- ./inp_files/6659.got.cif
#   From: 2010.03.12/outbox.cif.g09.slc.cpg/sg53_4_cif.got.tgz:6659.got - 2010.04.16 14:36:59.
