data_PCOD8221674
_publ_section_title
;
Structure prediction by ZEFSAII (Michael W. Deem and Ramdas Pophale) SiO2 
 PCOD8221674
Probable space group: P M N A
;
_chemical_formula_sum "Si O2"
_cell_formula_units_Z 28
_cell_length_a 9.339919
_cell_length_b 6.410682
_cell_length_c 22.379160
_cell_angle_alpha 90.000000
_cell_angle_beta 90.000000
_cell_angle_gamma 90.000000
_cell_volume 1339.957814
_symmetry_space_group_name_H-M "P M N A"
_symmetry_group_IT_number 53
_symmetry_cell_setting 'orthorhombic'
loop_
_space_group_symop_operation_xyz
x,y,z
1/2-x,-y,1/2+z
x,-y,-z
1/2-x,y,1/2-z
-x,-y,-z
1/2+x,y,1/2-z
-x,y,z
1/2+x,-y,1/2+z
loop_
_atom_site_type_symbol
_atom_site_label
_atom_site_fract_x
_atom_site_fract_y
_atom_site_fract_z
Si Si1 0.666796 0.498452 0.810705
Si Si2 0.255757 0.500000 0.500000
Si Si3 0.839983 0.220392 0.896498
Si Si4 0.657429 0.172085 0.088956
O O1 0.750000 0.541505 0.750000
O O2 0.500000 0.448351 0.798967
O O3 0.737492 0.300982 0.843792
O O4 0.686763 0.705890 0.849664
O O5 0.352505 0.383131 0.548950
O O6 0.157279 0.331290 0.466622
O O7 0.000000 0.184899 0.871467
O O8 0.777683 0.002165 0.920149
O O9 0.500000 0.067963 0.090475
#
# Coordination Sequence:
#
# PCOD8221674 Si02
#       4
#     8   4   8   8
#     4  10  22  41  63  86 115 151 193 241 290 344
#     4  10  22  38  60  86 118 156 198 242 288 340
#     4  11  23  38  59  87 120 156 194 239 290 345
#     4  10  22  39  60  87 118 154 196 241 292 347
#
# _framework density 20.896182
#
# number of rings (size 3 to 8) (size 9 to 14) (size 15 to 20)
#    0.000    1.714    0.000    3.429    0.000   13.714 
#    0.000    2.857    0.000    0.000    0.000    0.000 
#    0.000    0.000    0.000    0.000    0.000    0.000 
#
# Total GULP energy -347256.711365 kJ/mol
# GULP energy per Si atom -12402.025406 kJ/mol
# Density = 2.084862 g / cm^3
# Si number density = 20.896182 Si / 1000 Ang^3
#
#
#
# Elastic Constant Matrix: (Units=GPa)
#
#
# Indices 1 2 3 4 5 6 
#
# 1 173.6013 56.8038 46.6561 0.0000 0.0000 0.0000
# 2 56.8038 94.1211 22.6015 0.0000 0.0000 0.0000
# 3 46.6561 22.6015 109.0096 0.0000 0.0000 0.0000
# 4 0.0000 0.0000 0.0000 17.7248 0.0000 0.0000
# 5 0.0000 0.0000 0.0000 0.0000 14.9862 0.0000
# 6 0.0000 0.0000 0.0000 0.0000 0.0000 25.5291
#
#
#
# Elastic Compliance Matrix: (Units=1/GPa)
#
#
# Indices 1 2 3 4 5 6 
#
# 1 0.007764 -0.004092 -0.002475 0.000000 0.000000 0.000000
# 2 -0.004092 0.013337 -0.001014 0.000000 0.000000 0.000000
# 3 -0.002475 -0.001014 0.010443 0.000000 0.000000 0.000000
# 4 0.000000 0.000000 0.000000 0.056418 0.000000 0.000000
# 5 0.000000 0.000000 0.000000 0.000000 0.066728 0.000000
# 6 0.000000 0.000000 0.000000 0.000000 0.000000 0.039171
#
#
# Mechanical properties :
#
#
# Convention : Reuss Voigt Hill
#
# Bulk Modulus (GPa) = 61.03617 69.87277 65.45447
# Shear Modulus (GPa) = 23.31172 28.35937 25.83554
#
# Velocity S-wave (km/s) = 3.34368 3.68796 3.52003
# Velocity P-wave (km/s) = 6.64677 7.18647 6.92188
#
# Compressibility (1/GPa) = 0.01638373
#
# Stress axis : x y z
#
# Youngs Moduli (GPa) = 128.79577 74.97665 95.75823
#
# Poissons Ratio (x) = 0.30677 0.23698
# Poissons Ratio (y) = 0.52698 0.09711
# Poissons Ratio (z) = 0.31874 0.07604
#
# Static dielectric constant tensor:
#      x y z
#    x 3.671120 0.000000 0.000000 
#    y 0.000000 3.682540 0.000000 
#    z 0.000000 0.000000 3.765230 
# 
# 
# High freq. dielectric constant tensor:
#      x y z
#    x 1.823100 0.000000 0.000000 
#    y 0.000000 1.814550 0.000000 
#    z 0.000000 0.000000 1.818330 
# 
# From -- ./inp_files/35883.got.cif
#   From: 2010.03.12/outbox.cif.g09.slc.cpg/sg53_18_cif.got.tgz:35883.got - 2010.04.16 14:36:59.
