data_PCOD8221438
_publ_section_title
;
Structure prediction by ZEFSAII (Michael W. Deem and Ramdas Pophale) SiO2 
 PCOD8221438
Probable space group: P M N A
;
_chemical_formula_sum "Si O2"
_cell_formula_units_Z 40
_cell_length_a 8.722142
_cell_length_b 24.791292
_cell_length_c 9.200638
_cell_angle_alpha 90.000000
_cell_angle_beta 90.000000
_cell_angle_gamma 90.000000
_cell_volume 1989.483113
_symmetry_space_group_name_H-M "P M N A"
_symmetry_group_IT_number 53
_symmetry_cell_setting 'orthorhombic'
loop_
_space_group_symop_operation_xyz
x,y,z
1/2-x,-y,1/2+z
x,-y,-z
1/2-x,y,1/2-z
-x,-y,-z
1/2+x,y,1/2-z
-x,y,z
1/2+x,-y,1/2+z
loop_
_atom_site_type_symbol
_atom_site_label
_atom_site_fract_x
_atom_site_fract_y
_atom_site_fract_z
Si Si1 0.318522 0.352975 0.092697
Si Si2 0.680036 0.051136 0.094991
Si Si3 0.179919 0.264171 0.902872
Si Si4 0.322242 0.446873 0.594208
Si Si5 0.178969 0.139308 0.901210
O O1 0.250000 0.365798 0.250000
O O2 0.500000 0.351691 0.105280
O O3 0.257891 0.295610 0.035529
O O4 0.267543 0.398321 0.980045
O O5 0.750000 0.039840 0.250000
O O6 0.500000 0.058322 0.106648
O O7 0.748774 0.106065 0.031933
O O8 0.728163 0.000000 0.000000
O O9 0.250000 0.284027 0.750000
O O10 0.217835 0.201676 0.929170
O O11 0.000000 0.275960 0.900401
O O12 0.299922 0.500000 0.500000
O O13 0.250000 0.458642 0.750000
O O14 0.500000 0.430973 0.609891
O O15 0.250000 0.119214 0.750000
O O16 0.000000 0.128323 0.894068
#
# Coordination Sequence:
#
# PCOD8221438 Si02
#       5
#     8   8   8   8   8
#     4  12  25  41  62  88 121 159 200 247 297 350
#     4  11  24  40  60  86 117 154 195 241 293 350
#     4  10  21  39  62  89 120 156 198 242 293 350
#     4  11  24  42  65  92 123 159 199 244 295 351
#     4  10  21  38  62  89 119 155 195 242 293 349
#
# _framework density 20.105725
#
# number of rings (size 3 to 8) (size 9 to 14) (size 15 to 20)
#    0.000    1.200    0.000    6.000    0.000    9.600 
#    0.000    0.000    0.000    0.000    0.000    0.000 
#    0.000    0.000    0.000    0.000    0.000    0.000 
#
# Total GULP energy -496317.954721 kJ/mol
# GULP energy per Si atom -12407.948868 kJ/mol
# Density = 2.005996 g / cm^3
# Si number density = 20.105725 Si / 1000 Ang^3
#
#
#
# Elastic Constant Matrix: (Units=GPa)
#
#
# Indices 1 2 3 4 5 6 
#
# 1 134.3386 57.9173 66.3529 0.0000 0.0000 0.0000
# 2 57.9173 90.3865 53.8240 0.0000 0.0000 0.0000
# 3 66.3529 53.8240 144.9304 0.0000 0.0000 0.0000
# 4 0.0000 0.0000 0.0000 100.6198 0.0000 0.0000
# 5 0.0000 0.0000 0.0000 0.0000 41.8661 0.0000
# 6 0.0000 0.0000 0.0000 0.0000 0.0000 28.9442
#
#
#
# Elastic Compliance Matrix: (Units=1/GPa)
#
#
# Indices 1 2 3 4 5 6 
#
# 1 0.011334 -0.005357 -0.003199 0.000000 0.000000 0.000000
# 2 -0.005357 0.016737 -0.003763 0.000000 0.000000 0.000000
# 3 -0.003199 -0.003763 0.009762 0.000000 0.000000 0.000000
# 4 0.000000 0.000000 0.000000 0.009938 0.000000 0.000000
# 5 0.000000 0.000000 0.000000 0.000000 0.023886 0.000000
# 6 0.000000 0.000000 0.000000 0.000000 0.000000 0.034549
#
#
# Mechanical properties :
#
#
# Convention : Reuss Voigt Hill
#
# Bulk Modulus (GPa) = 75.79357 80.64934 78.22145
# Shear Modulus (GPa) = 36.97026 47.05679 42.01353
#
# Velocity S-wave (km/s) = 4.29277 4.84309 4.57621
# Velocity P-wave (km/s) = 7.89619 8.45421 8.17996
#
# Compressibility (1/GPa) = 0.01319373
#
# Stress axis : x y z
#
# Youngs Moduli (GPa) = 88.23202 59.74687 102.43624
#
# Poissons Ratio (x) = 0.32008 0.32773
# Poissons Ratio (y) = 0.47268 0.38549
# Poissons Ratio (z) = 0.28228 0.22484
#
# Static dielectric constant tensor:
#      x y z
#    x 3.826980 0.000000 0.000000 
#    y 0.000000 3.756970 0.000000 
#    z 0.000000 0.000000 3.730600 
# 
# 
# High freq. dielectric constant tensor:
#      x y z
#    x 1.803830 0.000000 0.000000 
#    y 0.000000 1.796930 0.000000 
#    z 0.000000 0.000000 1.793190 
# 
# From -- ./inp_files/6282.got.cif
#   From: 2010.03.12/outbox.cif.g09.slc.cpg/sg53_4_cif.got.tgz:6282.got - 2010.04.16 14:36:59.
