data_PCOD8221885
_publ_section_title
;
Structure prediction by ZEFSAII (Michael W. Deem and Ramdas Pophale) SiO2 
 PCOD8221885
Probable space group: P M N A
;
_chemical_formula_sum "Si O2"
_cell_formula_units_Z 64
_cell_length_a 30.737901
_cell_length_b 11.893458
_cell_length_c 8.618320
_cell_angle_alpha 90.000000
_cell_angle_beta 90.000000
_cell_angle_gamma 90.000000
_cell_volume 3150.684862
_symmetry_space_group_name_H-M "P M N A"
_symmetry_group_IT_number 53
_symmetry_cell_setting 'orthorhombic'
loop_
_space_group_symop_operation_xyz
x,y,z
1/2-x,-y,1/2+z
x,-y,-z
1/2-x,y,1/2-z
-x,-y,-z
1/2+x,y,1/2-z
-x,y,z
1/2+x,-y,1/2+z
loop_
_atom_site_type_symbol
_atom_site_label
_atom_site_fract_x
_atom_site_fract_y
_atom_site_fract_z
Si Si1 0.049366 0.719454 0.821818
Si Si2 0.705475 0.266523 0.183211
Si Si3 0.878543 0.869969 0.318053
Si Si4 0.121457 0.869969 0.681947
Si Si5 0.205475 0.266523 0.683211
Si Si6 0.415231 0.500000 0.820033
Si Si7 0.549366 0.719454 0.321818
Si Si8 0.821491 0.500000 0.818018
O O1 0.080159 0.821298 0.771796
O O2 0.056861 0.610101 0.716623
O O3 0.000000 0.760496 0.797743
O O4 0.058503 0.687264 1.000000
O O5 0.750000 0.213389 0.250000
O O6 0.664935 0.192041 0.241128
O O7 0.701064 0.392224 0.244665
O O8 0.707775 0.267025 1.000000
O O9 0.885611 0.850097 0.500000
O O10 0.835065 0.807959 0.258872
O O11 0.919841 0.821298 0.228204
O O12 0.873941 0.000000 0.275774
O O13 0.250000 0.213389 0.750000
O O14 0.201064 0.392224 0.744665
O O15 0.443139 0.389899 0.783377
O O16 0.372485 0.500000 0.715933
O O17 0.401652 0.500000 0.000000
O O18 0.500000 0.760496 0.297743
O O19 0.813244 0.500000 0.000000
#
# Coordination Sequence:
#
# PCOD8221885 Si02
#       8
#     8   8   8   8   8   8   8   8
#     4  11  24  41  63  93 127 163 205 254 308 367
#     4  11  23  40  63  92 126 163 206 254 307 367
#     4  10  23  43  65  89 121 164 213 260 306 362
#     4  10  23  43  65  89 121 164 213 260 306 362
#     4  11  23  40  63  92 126 163 206 254 307 367
#     4  12  23  38  63  94 126 163 202 248 308 374
#     4  11  24  41  63  93 127 163 205 254 308 367
#     4  12  23  38  63  93 127 162 201 250 308 370
#
# _framework density 20.313044000000001
#
# number of rings (size 3 to 8) (size 9 to 14) (size 15 to 20)
#    0.000    1.000    2.500    4.500    0.000    6.000 
#    0.000    2.500    0.000    0.000    0.000    0.000 
#    0.000    0.000    0.000    0.000    0.000    0.000 
#
# Total GULP energy -794034.837729 kJ/mol
# GULP energy per Si atom -12406.794340 kJ/mol
# Density = 2.026681 g / cm^3
# Si number density = 20.313044 Si / 1000 Ang^3
#
#
#
# Elastic Constant Matrix: (Units=GPa)
#
#
# Indices 1 2 3 4 5 6 
#
# 1 158.4006 56.2991 38.4701 0.0000 0.0000 0.0000
# 2 56.2991 121.2390 29.6062 0.0000 0.0000 0.0000
# 3 38.4701 29.6062 66.6096 0.0000 0.0000 0.0000
# 4 0.0000 0.0000 0.0000 22.9020 0.0000 0.0000
# 5 0.0000 0.0000 0.0000 0.0000 36.4717 0.0000
# 6 0.0000 0.0000 0.0000 0.0000 0.0000 12.6629
#
#
#
# Elastic Compliance Matrix: (Units=1/GPa)
#
#
# Indices 1 2 3 4 5 6 
#
# 1 0.008199 -0.002974 -0.003414 0.000000 0.000000 0.000000
# 2 -0.002974 0.010331 -0.002874 0.000000 0.000000 0.000000
# 3 -0.003414 -0.002874 0.018262 0.000000 0.000000 0.000000
# 4 0.000000 0.000000 0.000000 0.043664 0.000000 0.000000
# 5 0.000000 0.000000 0.000000 0.000000 0.027418 0.000000
# 6 0.000000 0.000000 0.000000 0.000000 0.000000 0.078971
#
#
# Mechanical properties :
#
#
# Convention : Reuss Voigt Hill
#
# Bulk Modulus (GPa) = 54.73884 66.11112 60.42498
# Shear Modulus (GPa) = 23.64526 29.19890 26.42208
#
# Velocity S-wave (km/s) = 3.41551 3.79548 3.61050
# Velocity P-wave (km/s) = 6.52383 7.19891 6.86967
#
# Compressibility (1/GPa) = 0.01826856
#
# Stress axis : x y z
#
# Youngs Moduli (GPa) = 121.96462 96.79607 54.75875
#
# Poissons Ratio (x) = 0.28785 0.18692
# Poissons Ratio (y) = 0.36270 0.15740
# Poissons Ratio (z) = 0.41634 0.27823
#
# Static dielectric constant tensor:
#      x y z
#    x 3.931450 0.000000 0.000000 
#    y 0.000000 3.600920 0.000000 
#    z 0.000000 0.000000 3.704290 
# 
# 
# High freq. dielectric constant tensor:
#      x y z
#    x 1.811070 0.000000 0.000000 
#    y 0.000000 1.787130 0.000000 
#    z 0.000000 0.000000 1.799800 
# 
# From -- ./inp_files/13249.got.cif
#   From: 2010.03.12/outbox.cif.g09.slc.cpg/sg53_7_cif.got.tgz:13249.got - 2010.04.16 14:36:59.
