data_PCOD8221614
_publ_section_title
;
Structure prediction by ZEFSAII (Michael W. Deem and Ramdas Pophale) SiO2 
 PCOD8221614
Probable space group: P M N A
;
_chemical_formula_sum "Si O2"
_cell_formula_units_Z 36
_cell_length_a 14.872032
_cell_length_b 19.514287
_cell_length_c 5.410109
_cell_angle_alpha 90.000000
_cell_angle_beta 90.000000
_cell_angle_gamma 90.000000
_cell_volume 1570.106149
_symmetry_space_group_name_H-M "P M N A"
_symmetry_group_IT_number 53
_symmetry_cell_setting 'orthorhombic'
loop_
_space_group_symop_operation_xyz
x,y,z
1/2-x,-y,1/2+z
x,-y,-z
1/2-x,y,1/2-z
-x,-y,-z
1/2+x,y,1/2-z
-x,y,z
1/2+x,-y,1/2+z
loop_
_atom_site_type_symbol
_atom_site_label
_atom_site_fract_x
_atom_site_fract_y
_atom_site_fract_z
Si Si1 0.099561 0.288444 0.038515
Si Si2 0.306176 0.577037 0.502297
Si Si3 0.401922 0.175036 0.078566
Si Si4 0.356376 0.035992 0.252504
Si Si5 0.250000 0.789501 0.250000
O O1 0.107477 0.250930 0.303635
O O2 0.000000 0.272798 0.928751
O O3 0.111204 0.370386 0.038744
O O4 0.180850 0.259992 0.881923
O O5 0.345666 0.500000 0.500000
O O6 0.250000 0.590829 0.250000
O O7 0.250000 0.588207 0.750000
O O8 0.500000 0.171362 0.945106
O O9 0.395096 0.113498 0.275530
O O10 0.314312 0.161140 0.908802
O O11 0.250000 0.035775 0.250000
O O12 0.393718 0.000000 0.500000
O O13 0.393092 0.000000 0.000000
#
# Coordination Sequence:
#
# PCOD8221614 Si02
#       5
#     8   8   8   8   4
#     4  11  24  41  66  99 136 179 230 285 343 409
#     4  10  21  41  68  99 138 185 228 277 343 409
#     4  11  26  43  67 101 133 178 232 283 346 412
#     4  10  23  42  68  99 134 182 226 275 340 406
#     4  12  22  42  70  94 134 180 224 288 342 412
#
# _framework density 22.928386
#
# number of rings (size 3 to 8) (size 9 to 14) (size 15 to 20)
#    0.000    1.333    1.111    4.000    7.778    1.333 
#    0.000    0.000    0.000    4.000    0.000    0.000 
#    0.000    0.000    0.000    0.000    0.000    0.000 
#
# Total GULP energy -445971.257773 kJ/mol
# GULP energy per Si atom -12388.090494 kJ/mol
# Density = 2.287620 g / cm^3
# Si number density = 22.928386 Si / 1000 Ang^3
#
#
#
# Elastic Constant Matrix: (Units=GPa)
#
#
# Indices 1 2 3 4 5 6 
#
# 1 172.1420 49.3820 57.5870 0.0000 0.0000 0.0000
# 2 49.3820 143.1741 46.4610 0.0000 0.0000 0.0000
# 3 57.5870 46.4610 134.2592 0.0000 0.0000 0.0000
# 4 0.0000 0.0000 0.0000 20.4084 0.0000 0.0000
# 5 0.0000 0.0000 0.0000 0.0000 31.8407 0.0000
# 6 0.0000 0.0000 0.0000 0.0000 0.0000 141.7412
#
#
#
# Elastic Compliance Matrix: (Units=1/GPa)
#
#
# Indices 1 2 3 4 5 6 
#
# 1 0.007112 -0.001648 -0.002480 0.000000 0.000000 0.000000
# 2 -0.001648 0.008250 -0.002148 0.000000 0.000000 0.000000
# 3 -0.002480 -0.002148 0.009255 0.000000 0.000000 0.000000
# 4 0.000000 0.000000 0.000000 0.048999 0.000000 0.000000
# 5 0.000000 0.000000 0.000000 0.000000 0.031406 0.000000
# 6 0.000000 0.000000 0.000000 0.000000 0.000000 0.007055
#
#
# Mechanical properties :
#
#
# Convention : Reuss Voigt Hill
#
# Bulk Modulus (GPa) = 82.88656 84.04835 83.46745
# Shear Modulus (GPa) = 38.86468 58.54109 48.70289
#
# Velocity S-wave (km/s) = 4.12156 5.05842 4.61383
# Velocity P-wave (km/s) = 7.67322 8.41744 8.05393
#
# Compressibility (1/GPa) = 0.01206468
#
# Stress axis : x y z
#
# Youngs Moduli (GPa) = 140.61586 121.21219 108.04560
#
# Poissons Ratio (x) = 0.19977 0.26795
# Poissons Ratio (y) = 0.23174 0.23209
# Poissons Ratio (z) = 0.34873 0.26037
#
# Static dielectric constant tensor:
#      x y z
#    x 4.658230 0.000000 0.000000 
#    y 0.000000 4.493230 0.000000 
#    z 0.000000 0.000000 4.239760 
# 
# 
# High freq. dielectric constant tensor:
#      x y z
#    x 1.904660 0.000000 0.000000 
#    y 0.000000 1.917880 0.000000 
#    z 0.000000 0.000000 1.893910 
# 
# From -- ./inp_files/1340.got.cif
#   From: 2010.03.12/outbox.cif.g09.slc.cpg/sg53_1_cif.got.tgz:1340.got - 2010.04.16 14:36:59.
