data_PCOD8221477
_publ_section_title
;
Structure prediction by ZEFSAII (Michael W. Deem and Ramdas Pophale) SiO2 
 PCOD8221477
Probable space group: P M N A
;
_chemical_formula_sum "Si O2"
_cell_formula_units_Z 48
_cell_length_a 15.388981
_cell_length_b 17.376307
_cell_length_c 8.577487
_cell_angle_alpha 90.000000
_cell_angle_beta 90.000000
_cell_angle_gamma 90.000000
_cell_volume 2293.651403
_symmetry_space_group_name_H-M "P M N A"
_symmetry_group_IT_number 53
_symmetry_cell_setting 'orthorhombic'
loop_
_space_group_symop_operation_xyz
x,y,z
1/2-x,-y,1/2+z
x,-y,-z
1/2-x,y,1/2-z
-x,-y,-z
1/2+x,y,1/2-z
-x,y,z
1/2+x,-y,1/2+z
loop_
_atom_site_type_symbol
_atom_site_label
_atom_site_fract_x
_atom_site_fract_y
_atom_site_fract_z
Si Si1 0.658884 0.807770 0.317639
Si Si2 0.500000 0.916801 0.686045
Si Si3 0.846588 0.349895 0.314695
Si Si4 0.500000 0.910699 0.315446
Si Si5 0.098609 0.344480 0.658774
Si Si6 0.846509 0.504930 0.184392
Si Si7 0.653982 0.809284 0.686804
O O1 0.750000 0.838028 0.250000
O O2 0.585137 0.865877 0.255339
O O3 0.641026 0.721783 0.261363
O O4 0.660848 0.805523 0.502449
O O5 0.500000 0.915310 0.500577
O O6 0.587682 0.874999 0.745177
O O7 0.500000 0.003163 0.754278
O O8 0.750000 0.351915 0.250000
O O9 0.845662 0.352214 0.501514
O O10 0.892958 0.427151 0.250396
O O11 0.887518 0.270519 0.251541
O O12 0.098372 0.422494 0.758477
O O13 0.000000 0.323813 0.614183
O O14 0.750000 0.514220 0.250000
O O15 0.845143 0.500000 0.000000
O O16 0.750000 0.827251 0.750000
#
# Coordination Sequence:
#
# PCOD8221477 Si02
#       7
#     8   4   8   4   8   8   8
#     4  11  21  40  66  90 127 166 209 260 309 373
#     4   9  20  38  65  88 131 164 197 261 308 377
#     4  10  21  39  60  87 121 162 211 254 306 366
#     4   9  20  40  61  96 123 164 209 245 318 377
#     4  12  25  40  61  92 127 163 212 265 314 370
#     4  11  22  40  63  87 123 168 217 262 310 368
#     4  10  21  39  63  94 122 165 214 251 314 373
#
# _framework density 20.927329
#
# number of rings (size 3 to 8) (size 9 to 14) (size 15 to 20)
#    0.000    1.500    0.833    6.000    1.167    2.333 
#    0.000    0.000    0.000    7.000    0.000    0.000 
#    0.000    0.000    0.000    0.000    0.000    0.000 
#
# Total GULP energy -595220.144241 kJ/mol
# GULP energy per Si atom -12400.419672 kJ/mol
# Density = 2.087970 g / cm^3
# Si number density = 20.927329 Si / 1000 Ang^3
#
#
#
# Elastic Constant Matrix: (Units=GPa)
#
#
# Indices 1 2 3 4 5 6 
#
# 1 130.1812 66.4448 40.0070 0.0000 0.0000 0.0000
# 2 66.4448 186.9653 48.5774 0.0000 0.0000 0.0000
# 3 40.0070 48.5774 128.2350 0.0000 0.0000 0.0000
# 4 0.0000 0.0000 0.0000 21.5884 0.0000 0.0000
# 5 0.0000 0.0000 0.0000 0.0000 21.3919 0.0000
# 6 0.0000 0.0000 0.0000 0.0000 0.0000 25.6313
#
#
#
# Elastic Compliance Matrix: (Units=1/GPa)
#
#
# Indices 1 2 3 4 5 6 
#
# 1 0.009795 -0.002980 -0.001927 0.000000 0.000000 0.000000
# 2 -0.002980 0.006839 -0.001661 0.000000 0.000000 0.000000
# 3 -0.001927 -0.001661 0.009029 0.000000 0.000000 0.000000
# 4 0.000000 0.000000 0.000000 0.046321 0.000000 0.000000
# 5 0.000000 0.000000 0.000000 0.000000 0.046747 0.000000
# 6 0.000000 0.000000 0.000000 0.000000 0.000000 0.039015
#
#
# Mechanical properties :
#
#
# Convention : Reuss Voigt Hill
#
# Bulk Modulus (GPa) = 79.83154 83.93775 81.88465
# Shear Modulus (GPa) = 28.56207 33.07913 30.82060
#
# Velocity S-wave (km/s) = 3.69836 3.98007 3.84180
# Velocity P-wave (km/s) = 7.51445 7.83055 7.67413
#
# Compressibility (1/GPa) = 0.01252638
#
# Stress axis : x y z
#
# Youngs Moduli (GPa) = 102.09363 146.21317 110.75977
#
# Poissons Ratio (x) = 0.43577 0.21342
# Poissons Ratio (y) = 0.30427 0.18398
# Poissons Ratio (z) = 0.19672 0.24286
#
# Static dielectric constant tensor:
#      x y z
#    x 3.815560 0.000000 0.000000 
#    y 0.000000 4.446520 0.000000 
#    z 0.000000 0.000000 3.646130 
# 
# 
# High freq. dielectric constant tensor:
#      x y z
#    x 1.816410 0.000000 0.000000 
#    y 0.000000 1.828590 0.000000 
#    z 0.000000 0.000000 1.815100 
# 
# From -- ./inp_files/10039.got.cif
#   From: 2010.03.12/outbox.cif.g09.slc.cpg/sg53_6_cif.got.tgz:10039.got - 2010.04.16 14:36:59.
