data_PCOD8221003
_publ_section_title
;
Structure prediction by ZEFSAII (Michael W. Deem and Ramdas Pophale) SiO2 
 PCOD8221003
Probable space group: P M N A
;
_chemical_formula_sum "Si O2"
_cell_formula_units_Z 56
_cell_length_a 16.732943
_cell_length_b 11.668985
_cell_length_c 13.413497
_cell_angle_alpha 90.000000
_cell_angle_beta 90.000000
_cell_angle_gamma 90.000000
_cell_volume 2619.071952
_symmetry_space_group_name_H-M "P M N A"
_symmetry_group_IT_number 53
_symmetry_cell_setting 'orthorhombic'
loop_
_space_group_symop_operation_xyz
x,y,z
1/2-x,-y,1/2+z
x,-y,-z
1/2-x,y,1/2-z
-x,-y,-z
1/2+x,y,1/2-z
-x,y,z
1/2+x,-y,1/2+z
loop_
_atom_site_type_symbol
_atom_site_label
_atom_site_fract_x
_atom_site_fract_y
_atom_site_fract_z
Si Si1 0.843244 0.718844 0.614504
Si Si2 0.093441 0.311324 0.857354
Si Si3 0.343051 0.522623 0.744522
Si Si4 0.091908 0.859297 0.789260
Si Si5 0.591458 0.879688 0.043732
Si Si6 0.839142 0.305012 0.069191
Si Si7 0.341292 0.900431 0.251924
O O1 0.867974 0.590865 0.653481
O O2 0.847545 0.801415 0.710346
O O3 0.900949 0.771577 0.530752
O O4 0.755315 0.717330 0.567619
O O5 0.107121 0.406547 0.771073
O O6 0.142992 0.198286 0.831497
O O7 0.000000 0.284516 0.865055
O O8 0.129331 0.350920 0.963343
O O9 0.250000 0.491546 0.750000
O O10 0.362926 0.600030 0.649507
O O11 0.115448 0.812543 0.899061
O O12 0.000000 0.829263 0.763666
O O13 0.102762 0.994767 0.783856
O O14 0.500000 0.897342 0.071978
O O15 0.638192 0.850513 0.143672
O O16 0.625409 0.000000 0.000000
O O17 0.250000 0.939917 0.250000
#
# Coordination Sequence:
#
# PCOD8221003 Si02
#       7
#     8   8   8   8   8   8   8
#     4  10  20  39  65  94 122 160 213 264 310 372
#     4  12  25  41  62  91 128 167 210 259 318 380
#     4   9  21  41  65  89 123 163 211 262 309 368
#     4  11  21  37  61  92 128 162 206 266 323 374
#     4  11  22  38  63  93 124 160 205 258 313 370
#     4  10  22  40  62  92 125 167 214 256 310 381
#     4  12  25  42  62  88 125 170 209 257 318 388
#
# _framework density 21.381620999999999
#
# number of rings (size 3 to 8) (size 9 to 14) (size 15 to 20)
#    0.000    1.286    1.429    6.000    0.000    4.571 
#    0.000    3.571    0.000    1.714    0.000    0.000 
#    0.000    0.000    0.000    0.000    0.000    0.000 
#
# Total GULP energy -694452.993023 kJ/mol
# GULP energy per Si atom -12400.946304 kJ/mol
# Density = 2.133296 g / cm^3
# Si number density = 21.381621 Si / 1000 Ang^3
#
#
#
# Elastic Constant Matrix: (Units=GPa)
#
#
# Indices 1 2 3 4 5 6 
#
# 1 91.6678 22.2412 26.2155 0.0000 0.0000 0.0000
# 2 22.2412 85.0503 23.1677 0.0000 0.0000 0.0000
# 3 26.2155 23.1677 86.8276 0.0000 0.0000 0.0000
# 4 0.0000 0.0000 0.0000 36.4027 0.0000 0.0000
# 5 0.0000 0.0000 0.0000 0.0000 32.1613 0.0000
# 6 0.0000 0.0000 0.0000 0.0000 0.0000 19.8612
#
#
#
# Elastic Compliance Matrix: (Units=1/GPa)
#
#
# Indices 1 2 3 4 5 6 
#
# 1 0.012375 -0.002392 -0.003098 0.000000 0.000000 0.000000
# 2 -0.002392 0.013142 -0.002784 0.000000 0.000000 0.000000
# 3 -0.003098 -0.002784 0.013195 0.000000 0.000000 0.000000
# 4 0.000000 0.000000 0.000000 0.027470 0.000000 0.000000
# 5 0.000000 0.000000 0.000000 0.000000 0.031093 0.000000
# 6 0.000000 0.000000 0.000000 0.000000 0.000000 0.050349
#
#
# Mechanical properties :
#
#
# Convention : Reuss Voigt Hill
#
# Bulk Modulus (GPa) = 45.11984 45.19938 45.15961
# Shear Modulus (GPa) = 29.14385 30.47981 29.81183
#
# Velocity S-wave (km/s) = 3.69593 3.77969 3.73805
# Velocity P-wave (km/s) = 6.27385 6.34298 6.30851
#
# Compressibility (1/GPa) = 0.02216320
#
# Stress axis : x y z
#
# Youngs Moduli (GPa) = 80.80536 76.09322 75.78413
#
# Poissons Ratio (x) = 0.18204 0.23479
# Poissons Ratio (y) = 0.19331 0.21100
# Poissons Ratio (z) = 0.25035 0.21186
#
# Static dielectric constant tensor:
#      x y z
#    x 3.694440 0.000000 0.000000 
#    y 0.000000 3.884260 0.000000 
#    z 0.000000 0.000000 3.898150 
# 
# 
# High freq. dielectric constant tensor:
#      x y z
#    x 1.836870 0.000000 0.000000 
#    y 0.000000 1.835930 0.000000 
#    z 0.000000 0.000000 1.833630 
# 
# From -- ./inp_files/22819.got.cif
#   From: 2010.03.12/outbox.cif.g09.slc.cpg/sg53_12_cif.got.tgz:22819.got - 2010.04.16 14:36:59.
