data_PCOD8221301
_publ_section_title
;
Structure prediction by ZEFSAII (Michael W. Deem and Ramdas Pophale) SiO2 
 PCOD8221301
Probable space group: P M N A
;
_chemical_formula_sum "Si O2"
_cell_formula_units_Z 40
_cell_length_a 9.477794
_cell_length_b 24.279343
_cell_length_c 8.983126
_cell_angle_alpha 90.000000
_cell_angle_beta 90.000000
_cell_angle_gamma 90.000000
_cell_volume 2067.148549
_symmetry_space_group_name_H-M "P M N A"
_symmetry_group_IT_number 53
_symmetry_cell_setting 'orthorhombic'
loop_
_space_group_symop_operation_xyz
x,y,z
1/2-x,-y,1/2+z
x,-y,-z
1/2-x,y,1/2-z
-x,-y,-z
1/2+x,y,1/2-z
-x,y,z
1/2+x,-y,1/2+z
loop_
_atom_site_type_symbol
_atom_site_label
_atom_site_fract_x
_atom_site_fract_y
_atom_site_fract_z
Si Si1 0.500000 0.560535 0.569821
Si Si2 0.664923 0.154824 0.099021
Si Si3 0.837557 0.742780 0.388542
Si Si4 0.500000 0.558703 0.924586
Si Si5 0.667147 0.053950 0.403871
Si Si6 0.253068 0.378834 0.924441
O O1 0.500000 0.500000 0.500000
O O2 0.500000 0.553485 0.746894
O O3 0.377269 0.598223 0.511507
O O4 0.750000 0.164473 0.250000
O O5 0.500000 0.138657 0.124144
O O6 0.751042 0.105284 0.015822
O O7 0.674169 0.211843 0.014129
O O8 0.750000 0.766135 0.250000
O O9 0.764730 0.686719 0.443824
O O10 0.000000 0.731194 0.343200
O O11 0.500000 0.500000 0.000000
O O12 0.372158 0.592758 0.983389
O O13 0.750000 0.044590 0.250000
O O14 0.500000 0.066414 0.380631
O O15 0.688783 0.000000 0.500000
O O16 0.250000 0.395383 0.750000
#
# Coordination Sequence:
#
# PCOD8221301 Si02
#       6
#     4   8   8   4   8   8
#     4  12  26  42  64  96 122 162 205 248 313 364
#     4  10  21  38  59  88 122 159 201 250 303 358
#     4  10  23  41  63  90 121 158 200 246 299 357
#     4  12  24  42  66  90 126 160 201 256 299 372
#     4  10  21  37  58  86 120 160 206 253 306 362
#     4  11  23  43  64  90 124 161 204 252 308 367
#
# _framework density 19.350325000000002
#
# number of rings (size 3 to 8) (size 9 to 14) (size 15 to 20)
#    0.000    1.400    1.000    5.400    4.200    5.600 
#    0.000    4.000    0.000    0.000    0.000    0.000 
#    0.000    0.000    0.000    0.000    0.000    0.000 
#
# Total GULP energy -495600.489709 kJ/mol
# GULP energy per Si atom -12390.012243 kJ/mol
# Density = 1.930628 g / cm^3
# Si number density = 19.350325 Si / 1000 Ang^3
#
#
#
# Elastic Constant Matrix: (Units=GPa)
#
#
# Indices 1 2 3 4 5 6 
#
# 1 182.2204 69.2995 63.9249 0.0000 0.0000 0.0000
# 2 69.2995 121.9482 65.8593 0.0000 0.0000 0.0000
# 3 63.9249 65.8593 121.5749 0.0000 0.0000 0.0000
# 4 0.0000 0.0000 0.0000 41.3145 0.0000 0.0000
# 5 0.0000 0.0000 0.0000 0.0000 33.7875 0.0000
# 6 0.0000 0.0000 0.0000 0.0000 0.0000 38.6379
#
#
#
# Elastic Compliance Matrix: (Units=1/GPa)
#
#
# Indices 1 2 3 4 5 6 
#
# 1 0.007425 -0.002984 -0.002288 0.000000 0.000000 0.000000
# 2 -0.002984 0.012791 -0.005360 0.000000 0.000000 0.000000
# 3 -0.002288 -0.005360 0.012332 0.000000 0.000000 0.000000
# 4 0.000000 0.000000 0.000000 0.024205 0.000000 0.000000
# 5 0.000000 0.000000 0.000000 0.000000 0.029597 0.000000
# 6 0.000000 0.000000 0.000000 0.000000 0.000000 0.025881
#
#
# Mechanical properties :
#
#
# Convention : Reuss Voigt Hill
#
# Bulk Modulus (GPa) = 88.61801 91.54565 90.08183
# Shear Modulus (GPa) = 36.42851 37.85863 37.14357
#
# Velocity S-wave (km/s) = 4.34358 4.42802 4.38600
# Velocity P-wave (km/s) = 8.42921 8.57645 8.50315
#
# Compressibility (1/GPa) = 0.01128439
#
# Stress axis : x y z
#
# Youngs Moduli (GPa) = 134.67517 78.18245 81.09091
#
# Poissons Ratio (x) = 0.23330 0.18552
# Poissons Ratio (y) = 0.40188 0.43464
# Poissons Ratio (z) = 0.30810 0.41905
#
# Static dielectric constant tensor:
#      x y z
#    x 3.906410 0.000000 0.000000 
#    y 0.000000 3.841080 0.000000 
#    z 0.000000 0.000000 3.367360 
# 
# 
# High freq. dielectric constant tensor:
#      x y z
#    x 1.780100 0.000000 0.000000 
#    y 0.000000 1.772490 0.000000 
#    z 0.000000 0.000000 1.745830 
# 
# From -- ./inp_files/6378.got.cif
#   From: 2010.03.12/outbox.cif.g09.slc.cpg/sg53_4_cif.got.tgz:6378.got - 2010.04.16 14:36:59.
