data_PCOD8221837
_publ_section_title
;
Structure prediction by ZEFSAII (Michael W. Deem and Ramdas Pophale) SiO2 
 PCOD8221837
Probable space group: P M N A
;
_chemical_formula_sum "Si O2"
_cell_formula_units_Z 20
_cell_length_a 27.727316
_cell_length_b 5.172513
_cell_length_c 5.272993
_cell_angle_alpha 90.000000
_cell_angle_beta 90.000000
_cell_angle_gamma 90.000000
_cell_volume 756.252142
_symmetry_space_group_name_H-M "P M N A"
_symmetry_group_IT_number 53
_symmetry_cell_setting 'orthorhombic'
loop_
_space_group_symop_operation_xyz
x,y,z
1/2-x,-y,1/2+z
x,-y,-z
1/2-x,y,1/2-z
-x,-y,-z
1/2+x,y,1/2-z
-x,y,z
1/2+x,-y,1/2+z
loop_
_atom_site_type_symbol
_atom_site_label
_atom_site_fract_x
_atom_site_fract_y
_atom_site_fract_z
Si Si1 0.422667 0.000000 0.000000
Si Si2 0.000000 0.322643 0.746822
Si Si3 0.750000 0.831902 0.750000
Si Si4 0.853073 0.736519 0.843362
O O1 0.388825 0.772959 0.892187
O O2 0.454016 0.129874 0.772824
O O3 0.000000 0.500000 0.500000
O O4 0.000000 0.500000 0.000000
O O5 0.798644 0.658552 0.757163
O O6 0.754625 0.000000 0.500000
O O7 0.875282 0.500000 0.000000
O O8 0.850718 0.000000 0.000000
#
# Coordination Sequence:
#
# PCOD8221837 Si02
#       4
#     4   4   4   8
#     4  11  28  52  82 122 164 212 286 347 422 504
#     4  11  30  53  87 116 164 214 280 354 434 500
#     4  10  22  50  76 120 170 220 272 340 404 492
#     4  11  27  47  82 118 169 220 278 336 415 495
#
# _framework density 26.446204999999999
#
# number of rings (size 3 to 8) (size 9 to 14) (size 15 to 20)
#    0.000    1.200    2.000    0.000   11.200    8.000 
#    0.000    3.000    0.000    0.000    0.000    0.000 
#    0.000    0.000    0.000    0.000    0.000    0.000 
#
# Total GULP energy -247996.864575 kJ/mol
# GULP energy per Si atom -12399.843229 kJ/mol
# Density = 2.638601 g / cm^3
# Si number density = 26.446205 Si / 1000 Ang^3
#
#
#
# Elastic Constant Matrix: (Units=GPa)
#
#
# Indices 1 2 3 4 5 6 
#
# 1 200.8890 55.7318 54.9650 0.0000 0.0000 0.0000
# 2 55.7318 140.1284 59.4588 0.0000 0.0000 0.0000
# 3 54.9650 59.4588 165.1768 0.0000 0.0000 0.0000
# 4 0.0000 0.0000 0.0000 67.3190 0.0000 0.0000
# 5 0.0000 0.0000 0.0000 0.0000 12.9469 0.0000
# 6 0.0000 0.0000 0.0000 0.0000 0.0000 -45.7867
#
#
#
# Elastic Compliance Matrix: (Units=1/GPa)
#
#
# Indices 1 2 3 4 5 6 
#
# 1 0.005824 -0.001763 -0.001303 0.000000 0.000000 0.000000
# 2 -0.001763 0.008957 -0.002637 0.000000 0.000000 0.000000
# 3 -0.001303 -0.002637 0.007437 0.000000 0.000000 0.000000
# 4 0.000000 0.000000 0.000000 0.014855 0.000000 0.000000
# 5 0.000000 0.000000 0.000000 0.000000 0.077239 0.000000
# 6 0.000000 0.000000 0.000000 0.000000 0.000000 -0.021840
#
#
# Mechanical properties :
#
#
# Convention : Reuss Voigt Hill
#
# Bulk Modulus (GPa) = 92.50828 94.05615 93.28222
# Shear Modulus (GPa) = 46.51976 29.29841 37.90908
#
# Velocity S-wave (km/s) = 4.19863 3.33205 3.79019
# Velocity P-wave (km/s) = 7.65248 7.10251 7.38262
#
# Compressibility (1/GPa) = 0.01080984
#
# Stress axis : x y z
#
# Youngs Moduli (GPa) = 171.71538 111.64871 134.45983
#
# Poissons Ratio (x) = 0.19686 0.17523
# Poissons Ratio (y) = 0.30277 0.35463
# Poissons Ratio (z) = 0.22378 0.29446
#
# Static dielectric constant tensor:
#      x y z
#    x 5.684140 0.000000 0.000000 
#    y 0.000000 4.641050 0.000000 
#    z 0.000000 0.000000 4.676570 
# 
# 
# High freq. dielectric constant tensor:
#      x y z
#    x 2.088770 0.000000 0.000000 
#    y 0.000000 2.052000 0.000000 
#    z 0.000000 0.000000 2.058120 
# 
# From -- ./inp_files/3992.got.cif
#   From: 2010.03.12/outbox.cif.g09.slc.cpg/sg53_2_cif.got.tgz:3992.got - 2010.04.16 14:36:59.
