data_PCOD8221206
_publ_section_title
;
Structure prediction by ZEFSAII (Michael W. Deem and Ramdas Pophale) SiO2 
 PCOD8221206
Probable space group: P M N A
;
_chemical_formula_sum "Si O2"
_cell_formula_units_Z 48
_cell_length_a 8.773539
_cell_length_b 14.305906
_cell_length_c 20.391306
_cell_angle_alpha 90.000000
_cell_angle_beta 90.000000
_cell_angle_gamma 90.000000
_cell_volume 2559.382640
_symmetry_space_group_name_H-M "P M N A"
_symmetry_group_IT_number 53
_symmetry_cell_setting 'orthorhombic'
loop_
_space_group_symop_operation_xyz
x,y,z
1/2-x,-y,1/2+z
x,-y,-z
1/2-x,y,1/2-z
-x,-y,-z
1/2+x,y,1/2-z
-x,y,z
1/2+x,-y,1/2+z
loop_
_atom_site_type_symbol
_atom_site_label
_atom_site_fract_x
_atom_site_fract_y
_atom_site_fract_z
Si Si1 0.179704 0.058480 0.436851
Si Si2 0.678893 0.751770 0.522198
Si Si3 0.178947 0.562044 0.317186
Si Si4 0.819880 0.946951 0.180243
Si Si5 0.820997 0.745789 0.128698
Si Si6 0.178374 0.435963 0.438673
O O1 0.227395 0.165416 0.444733
O O2 0.000000 0.050151 0.427666
O O3 0.236041 0.000000 0.500000
O O4 0.261025 0.020565 0.372456
O O5 0.500000 0.772173 0.528456
O O6 0.729925 0.742605 0.446817
O O7 0.722463 0.657572 0.560022
O O8 0.250000 0.524064 0.250000
O O9 0.236136 0.665859 0.331642
O O10 0.228529 0.490931 0.373841
O O11 0.000000 0.566543 0.309892
O O12 0.750000 0.973514 0.250000
O O13 0.767050 0.843577 0.159263
O O14 0.000000 0.954104 0.184168
O O15 0.000000 0.730126 0.136076
O O16 0.222525 0.500000 0.500000
O O17 0.000000 0.410591 0.439470
#
# Coordination Sequence:
#
# PCOD8221206 Si02
#       6
#     8   8   8   8   8   8
#     4  11  23  39  62  89 119 158 201 245 295 354
#     4  11  22  37  61  92 121 152 195 249 297 346
#     4  11  23  38  59  85 120 158 195 242 294 351
#     4  11  23  40  60  87 124 160 199 245 297 356
#     4  10  21  36  58  89 123 156 192 240 298 354
#     4  10  21  39  60  85 117 155 197 243 293 349
#
# _framework density 18.754522999999999
#
# number of rings (size 3 to 8) (size 9 to 14) (size 15 to 20)
#    0.000    1.333    3.333    2.500    0.000    5.667 
#    0.000    0.833    0.000    2.000    0.000    0.000 
#    0.000    0.000    0.000    0.000    0.000    0.000 
#
# Total GULP energy -595546.607094 kJ/mol
# GULP energy per Si atom -12407.220981 kJ/mol
# Density = 1.871184 g / cm^3
# Si number density = 18.754523 Si / 1000 Ang^3
#
#
#
# Elastic Constant Matrix: (Units=GPa)
#
#
# Indices 1 2 3 4 5 6 
#
# 1 48.7928 27.2900 35.8658 0.0000 0.0000 0.0000
# 2 27.2900 105.4821 56.9028 0.0000 0.0000 0.0000
# 3 35.8658 56.9028 149.4388 0.0000 0.0000 0.0000
# 4 0.0000 0.0000 0.0000 24.9503 0.0000 0.0000
# 5 0.0000 0.0000 0.0000 0.0000 30.7802 0.0000
# 6 0.0000 0.0000 0.0000 0.0000 0.0000 28.4754
#
#
#
# Elastic Compliance Matrix: (Units=1/GPa)
#
#
# Indices 1 2 3 4 5 6 
#
# 1 0.026338 -0.004284 -0.004690 0.000000 0.000000 0.000000
# 2 -0.004284 0.012628 -0.003780 0.000000 0.000000 0.000000
# 3 -0.004690 -0.003780 0.009257 0.000000 0.000000 0.000000
# 4 0.000000 0.000000 0.000000 0.040080 0.000000 0.000000
# 5 0.000000 0.000000 0.000000 0.000000 0.032488 0.000000
# 6 0.000000 0.000000 0.000000 0.000000 0.000000 0.035118
#
#
# Mechanical properties :
#
#
# Convention : Reuss Voigt Hill
#
# Bulk Modulus (GPa) = 44.02502 60.42566 52.22534
# Shear Modulus (GPa) = 26.45650 29.08484 27.77067
#
# Velocity S-wave (km/s) = 3.75997 3.94231 3.85222
# Velocity P-wave (km/s) = 6.50962 7.28091 6.90604
#
# Compressibility (1/GPa) = 0.02271436
#
# Stress axis : x y z
#
# Youngs Moduli (GPa) = 37.96729 79.18954 108.02944
#
# Poissons Ratio (x) = 0.33926 0.50666
# Poissons Ratio (y) = 0.16266 0.40837
# Poissons Ratio (z) = 0.17807 0.29935
#
# Static dielectric constant tensor:
#      x y z
#    x 3.399120 0.000000 0.000000 
#    y 0.000000 3.406710 0.000000 
#    z 0.000000 0.000000 3.578170 
# 
# 
# High freq. dielectric constant tensor:
#      x y z
#    x 1.734550 0.000000 0.000000 
#    y 0.000000 1.729040 0.000000 
#    z 0.000000 0.000000 1.732990 
# 
# From -- ./inp_files/26149.got.cif
#   From: 2010.03.12/outbox.cif.g09.slc.cpg/sg53_14_cif.got.tgz:26149.got - 2010.04.16 14:36:59.
