data_PCOD8221059
_publ_section_title
;
Structure prediction by ZEFSAII (Michael W. Deem and Ramdas Pophale) SiO2 
 PCOD8221059
Probable space group: P M N A
;
_chemical_formula_sum "Si O2"
_cell_formula_units_Z 64
_cell_length_a 25.173405
_cell_length_b 15.242491
_cell_length_c 9.588387
_cell_angle_alpha 90.000000
_cell_angle_beta 90.000000
_cell_angle_gamma 90.000000
_cell_volume 3679.115861
_symmetry_space_group_name_H-M "P M N A"
_symmetry_group_IT_number 53
_symmetry_cell_setting 'orthorhombic'
loop_
_space_group_symop_operation_xyz
x,y,z
1/2-x,-y,1/2+z
x,-y,-z
1/2-x,y,1/2-z
-x,-y,-z
1/2+x,y,1/2-z
-x,y,z
1/2+x,-y,1/2+z
loop_
_atom_site_type_symbol
_atom_site_label
_atom_site_fract_x
_atom_site_fract_y
_atom_site_fract_z
Si Si1 0.804372 0.808882 0.661208
Si Si2 0.301665 0.495315 0.664517
Si Si3 0.694723 0.190770 0.833395
Si Si4 0.128781 0.346145 0.228889
Si Si5 0.200058 0.999784 0.344610
Si Si6 0.441015 0.602122 0.977067
Si Si7 0.939309 0.397004 0.987056
Si Si8 0.620340 0.655099 0.238512
O O1 0.750000 0.798294 0.750000
O O2 0.794566 0.786530 0.497157
O O3 0.849842 0.747392 0.722897
O O4 0.829772 0.907291 0.679993
O O5 0.289272 0.500000 0.500000
O O6 0.250000 0.468577 0.750000
O O7 0.321537 0.588037 0.723934
O O8 0.343714 0.421159 0.698911
O O9 0.750000 0.199108 0.750000
O O10 0.652112 0.253717 0.759348
O O11 0.668911 0.092180 0.819230
O O12 0.081450 0.381482 0.324558
O O13 0.100918 0.339409 0.079194
O O14 0.250000 0.998037 0.250000
O O15 0.222922 0.000000 0.500000
O O16 0.500000 0.644326 0.991050
O O17 0.445665 0.500000 0.000000
O O18 0.398332 0.643346 0.081046
O O19 0.000000 0.386273 0.034334
O O20 0.922603 0.500000 0.000000
O O21 0.932355 0.353131 0.834365
#
# Coordination Sequence:
#
# PCOD8221059 Si02
#       8
#     8   8   8   8   8   8   8   8
#     4  10  21  34  55  81 112 145 178 216 261 318
#     4  12  26  38  51  74 110 150 181 210 257 320
#     4  10  21  34  55  81 112 145 178 216 261 318
#     4  12  21  37  54  80 108 140 178 218 267 323
#     4   8  16  34  52  76 107 140 178 218 257 306
#     4  11  22  36  56  79 104 137 179 232 271 303
#     4  11  22  40  60  77 102 141 185 232 273 309
#     4  12  21  37  54  80 108 140 178 218 267 323
#
# _framework density 17.395482999999999
#
# number of rings (size 3 to 8) (size 9 to 14) (size 15 to 20)
#    0.000    1.250    5.000    1.500    3.500    4.000 
#    0.000    0.000    0.000    0.000    0.000    5.250 
#    0.000    0.000    0.000    0.000    0.000    0.000 
#
# Total GULP energy -793093.844594 kJ/mol
# GULP energy per Si atom -12392.091322 kJ/mol
# Density = 1.735589 g / cm^3
# Si number density = 17.395483 Si / 1000 Ang^3
#
#
#
# Elastic Constant Matrix: (Units=GPa)
#
#
# Indices 1 2 3 4 5 6 
#
# 1 70.9153 35.4629 28.0317 0.0000 0.0000 0.0000
# 2 35.4629 110.8867 32.6308 0.0000 0.0000 0.0000
# 3 28.0317 32.6308 76.5917 0.0000 0.0000 0.0000
# 4 0.0000 0.0000 0.0000 20.9056 0.0000 0.0000
# 5 0.0000 0.0000 0.0000 0.0000 53.7085 0.0000
# 6 0.0000 0.0000 0.0000 0.0000 0.0000 17.7677
#
#
#
# Elastic Compliance Matrix: (Units=1/GPa)
#
#
# Indices 1 2 3 4 5 6 
#
# 1 0.018198 -0.004413 -0.004780 0.000000 0.000000 0.000000
# 2 -0.004413 0.011381 -0.003234 0.000000 0.000000 0.000000
# 3 -0.004780 -0.003234 0.016183 0.000000 0.000000 0.000000
# 4 0.000000 0.000000 0.000000 0.047834 0.000000 0.000000
# 5 0.000000 0.000000 0.000000 0.000000 0.018619 0.000000
# 6 0.000000 0.000000 0.000000 0.000000 0.000000 0.056282
#
#
# Mechanical properties :
#
#
# Convention : Reuss Voigt Hill
#
# Bulk Modulus (GPa) = 47.82723 50.07160 48.94941
# Shear Modulus (GPa) = 24.96002 29.29425 27.12713
#
# Velocity S-wave (km/s) = 3.79206 4.10813 3.95325
# Velocity P-wave (km/s) = 6.83569 7.16582 7.00270
#
# Compressibility (1/GPa) = 0.02090859
#
# Stress axis : x y z
#
# Youngs Moduli (GPa) = 54.95199 87.86439 61.79214
#
# Poissons Ratio (x) = 0.38777 0.29536
# Poissons Ratio (y) = 0.24252 0.19981
# Poissons Ratio (z) = 0.26267 0.28412
#
# Static dielectric constant tensor:
#      x y z
#    x 3.408630 0.000000 0.000000 
#    y 0.000000 3.982810 0.000000 
#    z 0.000000 0.000000 3.421240 
# 
# 
# High freq. dielectric constant tensor:
#      x y z
#    x 1.650110 0.000000 0.000000 
#    y 0.000000 1.662370 0.000000 
#    z 0.000000 0.000000 1.693770 
# 
# From -- ./inp_files/11939.got.cif
#   From: 2010.03.12/outbox.cif.g09.slc.cpg/sg53_6_cif.got.tgz:11939.got - 2010.04.16 14:36:59.
