data_PCOD8221865
_publ_section_title
;
Structure prediction by ZEFSAII (Michael W. Deem and Ramdas Pophale) SiO2 
 PCOD8221865
Probable space group: P M N A
;
_chemical_formula_sum "Si O2"
_cell_formula_units_Z 40
_cell_length_a 15.405992
_cell_length_b 7.937967
_cell_length_c 15.855459
_cell_angle_alpha 90.000000
_cell_angle_beta 90.000000
_cell_angle_gamma 90.000000
_cell_volume 1938.999853
_symmetry_space_group_name_H-M "P M N A"
_symmetry_group_IT_number 53
_symmetry_cell_setting 'orthorhombic'
loop_
_space_group_symop_operation_xyz
x,y,z
1/2-x,-y,1/2+z
x,-y,-z
1/2-x,y,1/2-z
-x,-y,-z
1/2+x,y,1/2-z
-x,y,z
1/2+x,-y,1/2+z
loop_
_atom_site_type_symbol
_atom_site_label
_atom_site_fract_x
_atom_site_fract_y
_atom_site_fract_z
Si Si1 0.093909 0.374948 0.923284
Si Si2 0.147520 0.554885 0.255597
Si Si3 0.401133 0.862690 0.132839
Si Si4 0.815496 0.217504 0.326822
Si Si5 0.247057 0.187608 0.506621
O O1 0.105954 0.473892 0.835886
O O2 0.177913 0.261550 0.935324
O O3 0.000000 0.278486 0.920975
O O4 0.091134 0.500000 0.000000
O O5 0.250000 0.581374 0.250000
O O6 0.105717 0.723422 0.294170
O O7 0.126096 0.383562 0.307966
O O8 0.500000 0.877553 0.102592
O O9 0.345364 0.798934 0.053478
O O10 0.371318 0.047688 0.163849
O O11 0.750000 0.187664 0.250000
O O12 0.763169 0.263863 0.412894
O O13 0.279250 0.000000 0.500000
#
# Coordination Sequence:
#
# PCOD8221865 Si02
#       5
#     8   8   8   8   8
#     4  11  23  40  64  94 127 164 212 266 322 382
#     4  11  21  41  68  91 131 174 210 263 323 376
#     4  11  24  41  65  96 132 171 214 266 319 380
#     4  10  23  41  66  94 124 173 216 260 322 381
#     4  10  23  42  65  91 128 168 212 263 323 381
#
# _framework density 20.629190000000001
#
# number of rings (size 3 to 8) (size 9 to 14) (size 15 to 20)
#    0.000    1.400    2.000    3.600    2.800    5.600 
#    0.000    2.000    0.000    0.000    0.000    0.000 
#    0.000    0.000    0.000    0.000    0.000    0.000 
#
# Total GULP energy -495752.678007 kJ/mol
# GULP energy per Si atom -12393.816950 kJ/mol
# Density = 2.058224 g / cm^3
# Si number density = 20.629190 Si / 1000 Ang^3
#
#
#
# Elastic Constant Matrix: (Units=GPa)
#
#
# Indices 1 2 3 4 5 6 
#
# 1 152.4127 42.5078 40.2649 0.0000 0.0000 0.0000
# 2 42.5078 114.7794 48.1013 0.0000 0.0000 0.0000
# 3 40.2649 48.1013 137.5722 0.0000 0.0000 0.0000
# 4 0.0000 0.0000 0.0000 29.8746 0.0000 0.0000
# 5 0.0000 0.0000 0.0000 0.0000 60.1443 0.0000
# 6 0.0000 0.0000 0.0000 0.0000 0.0000 20.9319
#
#
#
# Elastic Compliance Matrix: (Units=1/GPa)
#
#
# Indices 1 2 3 4 5 6 
#
# 1 0.007554 -0.002192 -0.001444 0.000000 0.000000 0.000000
# 2 -0.002192 0.010844 -0.003150 0.000000 0.000000 0.000000
# 3 -0.001444 -0.003150 0.008793 0.000000 0.000000 0.000000
# 4 0.000000 0.000000 0.000000 0.033473 0.000000 0.000000
# 5 0.000000 0.000000 0.000000 0.000000 0.016627 0.000000
# 6 0.000000 0.000000 0.000000 0.000000 0.000000 0.047774
#
#
# Mechanical properties :
#
#
# Convention : Reuss Voigt Hill
#
# Bulk Modulus (GPa) = 73.43193 74.05694 73.74444
# Shear Modulus (GPa) = 34.92147 40.44952 37.68549
#
# Velocity S-wave (km/s) = 4.11885 4.43289 4.27875
# Velocity P-wave (km/s) = 7.63501 7.88528 7.76115
#
# Compressibility (1/GPa) = 0.01361805
#
# Stress axis : x y z
#
# Youngs Moduli (GPa) = 132.37738 92.21369 113.72605
#
# Poissons Ratio (x) = 0.20216 0.16427
# Poissons Ratio (y) = 0.29021 0.35824
# Poissons Ratio (z) = 0.19121 0.29048
#
# Static dielectric constant tensor:
#      x y z
#    x 3.968380 0.000000 0.000000 
#    y 0.000000 0.861610 0.000000 
#    z 0.000000 0.000000 2.858630 
# 
# 
# High freq. dielectric constant tensor:
#      x y z
#    x 1.805030 0.000000 0.000000 
#    y 0.000000 1.803090 0.000000 
#    z 0.000000 0.000000 1.824960 
# 
# From -- ./inp_files/22387.got.cif
#   From: 2010.03.12/outbox.cif.g09.slc.cpg/sg53_12_cif.got.tgz:22387.got - 2010.04.16 14:36:59.
