data_PCOD8221964
_publ_section_title
;
Structure prediction by ZEFSAII (Michael W. Deem and Ramdas Pophale) SiO2 
 PCOD8221964
Probable space group: P M N A
;
_chemical_formula_sum "Si O2"
_cell_formula_units_Z 40
_cell_length_a 9.990944
_cell_length_b 9.943205
_cell_length_c 20.687770
_cell_angle_alpha 90.000000
_cell_angle_beta 90.000000
_cell_angle_gamma 90.000000
_cell_volume 2055.164537
_symmetry_space_group_name_H-M "P M N A"
_symmetry_group_IT_number 53
_symmetry_cell_setting 'orthorhombic'
loop_
_space_group_symop_operation_xyz
x,y,z
1/2-x,-y,1/2+z
x,-y,-z
1/2-x,y,1/2-z
-x,-y,-z
1/2+x,y,1/2-z
-x,y,z
1/2+x,-y,1/2+z
loop_
_atom_site_type_symbol
_atom_site_label
_atom_site_fract_x
_atom_site_fract_y
_atom_site_fract_z
Si Si1 0.661800 0.661457 0.313088
Si Si2 0.000000 0.976566 0.598502
Si Si3 0.735962 0.971372 0.322587
Si Si4 0.736515 0.382174 0.549198
Si Si5 0.000000 0.229402 0.508038
Si Si6 0.500000 0.805051 0.478550
Si Si7 0.500000 0.929962 0.603155
O O1 0.750000 0.618990 0.250000
O O2 0.500000 0.635468 0.303819
O O3 0.684820 0.818719 0.327041
O O4 0.725359 0.577311 0.374187
O O5 0.000000 0.825762 0.566479
O O6 0.126266 0.002351 0.642550
O O7 0.000000 0.091934 0.545910
O O8 0.750000 0.018973 0.250000
O O9 0.630386 0.072934 0.353193
O O10 0.695043 0.500000 0.500000
O O11 0.877071 0.324534 0.525711
O O12 0.631907 0.263719 0.546291
O O13 0.500000 0.800536 0.556690
O O14 0.500000 0.949404 0.447084
#
# Coordination Sequence:
#
# PCOD8221964 Si02
#       7
#     8   4   8   8   4   4   4
#     4  11  23  38  60  90 125 154 198 254 310 356
#     4  11  21  36  58  83 128 150 195 247 301 378
#     4  11  20  32  55  85 120 153 194 244 304 360
#     4  12  23  40  62  90 121 157 209 252 294 361
#     4  11  23  38  56  91 120 162 189 247 315 348
#     4  11  21  36  60  85 116 152 195 241 309 348
#     4  11  19  36  56  85 120 146 187 249 299 372
#
# _framework density 19.463163000000002
#
# number of rings (size 3 to 8) (size 9 to 14) (size 15 to 20)
#    0.000    0.800    6.000    2.400    5.600    3.200 
#    0.000    0.000    0.000    7.200    0.000    0.000 
#    0.000    0.000    0.000    0.000    0.000    0.000 
#
# Total GULP energy -495638.694836 kJ/mol
# GULP energy per Si atom -12390.967371 kJ/mol
# Density = 1.941886 g / cm^3
# Si number density = 19.463163 Si / 1000 Ang^3
#
#
#
# Elastic Constant Matrix: (Units=GPa)
#
#
# Indices 1 2 3 4 5 6 
#
# 1 128.5608 6.3009 35.7845 0.0000 0.0000 0.0000
# 2 6.3009 18.6287 25.9377 0.0000 0.0000 0.0000
# 3 35.7845 25.9377 154.2836 0.0000 0.0000 0.0000
# 4 0.0000 0.0000 0.0000 31.6932 0.0000 0.0000
# 5 0.0000 0.0000 0.0000 0.0000 40.7294 0.0000
# 6 0.0000 0.0000 0.0000 0.0000 0.0000 -14.7773
#
#
#
# Elastic Compliance Matrix: (Units=1/GPa)
#
#
# Indices 1 2 3 4 5 6 
#
# 1 0.008316 -0.000166 -0.001901 0.000000 0.000000 0.000000
# 2 -0.000166 0.070090 -0.011745 0.000000 0.000000 0.000000
# 3 -0.001901 -0.011745 0.008897 0.000000 0.000000 0.000000
# 4 0.000000 0.000000 0.000000 0.031552 0.000000 0.000000
# 5 0.000000 0.000000 0.000000 0.000000 0.024552 0.000000
# 6 0.000000 0.000000 0.000000 0.000000 0.000000 -0.067672
#
#
# Mechanical properties :
#
#
# Convention : Reuss Voigt Hill
#
# Bulk Modulus (GPa) = 16.75629 48.61324 32.68476
# Shear Modulus (GPa) = 40.56735 27.09241 33.82988
#
# Velocity S-wave (km/s) = 4.57038 3.73498 4.17363
# Velocity P-wave (km/s) = 6.03979 6.60540 6.32892
#
# Compressibility (1/GPa) = 0.05967909
#
# Stress axis : x y z
#
# Youngs Moduli (GPa) = 120.25523 14.26742 112.39826
#
# Poissons Ratio (x) = 0.00237 0.21365
# Poissons Ratio (y) = 0.01997 1.32009
# Poissons Ratio (z) = 0.22858 0.16757
#
# Static dielectric constant tensor:
#      x y z
#    x 3.619600 0.000000 0.000000 
#    y 0.000000 3.276320 0.000000 
#    z 0.000000 0.000000 4.206270 
# 
# 
# High freq. dielectric constant tensor:
#      x y z
#    x 1.778120 0.000000 0.000000 
#    y 0.000000 1.706720 0.000000 
#    z 0.000000 0.000000 1.783020 
# 
# From -- ./inp_files/30428.got.cif
#   From: 2010.03.12/outbox.cif.g09.slc.cpg/sg53_16_cif.got.tgz:30428.got - 2010.04.16 14:36:59.
