data_PCOD8221761
_publ_section_title
;
Structure prediction by ZEFSAII (Michael W. Deem and Ramdas Pophale) SiO2 
 PCOD8221761
Probable space group: P M N A
;
_chemical_formula_sum "Si O2"
_cell_formula_units_Z 48
_cell_length_a 18.149755
_cell_length_b 8.831528
_cell_length_c 14.738248
_cell_angle_alpha 90.000000
_cell_angle_beta 90.000000
_cell_angle_gamma 90.000000
_cell_volume 2362.394796
_symmetry_space_group_name_H-M "P M N A"
_symmetry_group_IT_number 53
_symmetry_cell_setting 'orthorhombic'
loop_
_space_group_symop_operation_xyz
x,y,z
1/2-x,-y,1/2+z
x,-y,-z
1/2-x,y,1/2-z
-x,-y,-z
1/2+x,y,1/2-z
-x,y,z
1/2+x,-y,1/2+z
loop_
_atom_site_type_symbol
_atom_site_label
_atom_site_fract_x
_atom_site_fract_y
_atom_site_fract_z
Si Si1 0.084741 0.816763 0.357966
Si Si2 0.583883 0.653351 0.321464
Si Si3 0.830491 0.108835 0.287829
Si Si4 0.811800 0.177569 0.484193
Si Si5 0.850388 0.177665 0.979067
Si Si6 0.585094 0.682563 0.648666
O O1 0.089959 0.681747 0.285782
O O2 0.124787 0.756782 0.449590
O O3 0.000000 0.857568 0.381232
O O4 0.123886 0.960281 0.312689
O O5 0.500000 0.660550 0.354742
O O6 0.627040 0.784529 0.376094
O O7 0.616809 0.486953 0.340105
O O8 0.750000 0.062143 0.250000
O O9 0.826426 0.213125 0.378335
O O10 0.870469 0.202251 0.210610
O O11 0.731978 0.242698 0.509288
O O12 0.810635 0.000000 0.500000
O O13 0.905242 0.268241 0.044739
O O14 0.856050 0.000000 0.000000
O O15 0.500000 0.689152 0.677095
#
# Coordination Sequence:
#
# PCOD8221761 Si02
#       6
#     8   8   8   8   8   8
#     4  10  22  40  64  92 119 161 212 255 307 368
#     4  10  23  40  58  87 125 161 203 253 306 370
#     4  11  21  39  62  90 124 157 202 259 302 368
#     4   9  21  37  59  88 123 154 193 258 308 351
#     4  11  21  37  61  91 122 160 202 253 308 363
#     4  11  23  40  60  86 124 164 201 251 311 369
#
# _framework density 20.318365
#
# number of rings (size 3 to 8) (size 9 to 14) (size 15 to 20)
#    0.000    1.667    1.667    2.500    4.667    7.667 
#    3.000    0.833    0.000    3.000    0.000    0.000 
#    0.000    0.000    0.000    0.000    0.000    0.000 
#
# Total GULP energy -595219.727712 kJ/mol
# GULP energy per Si atom -12400.410994 kJ/mol
# Density = 2.027212 g / cm^3
# Si number density = 20.318365 Si / 1000 Ang^3
#
#
#
# Elastic Constant Matrix: (Units=GPa)
#
#
# Indices 1 2 3 4 5 6 
#
# 1 104.3680 27.2570 31.8425 0.0000 0.0000 0.0000
# 2 27.2570 61.5034 9.5562 0.0000 0.0000 0.0000
# 3 31.8425 9.5562 102.5948 0.0000 0.0000 0.0000
# 4 0.0000 0.0000 0.0000 21.0525 0.0000 0.0000
# 5 0.0000 0.0000 0.0000 0.0000 41.7179 0.0000
# 6 0.0000 0.0000 0.0000 0.0000 0.0000 7.9502
#
#
#
# Elastic Compliance Matrix: (Units=1/GPa)
#
#
# Indices 1 2 3 4 5 6 
#
# 1 0.011799 -0.004729 -0.003222 0.000000 0.000000 0.000000
# 2 -0.004729 0.018393 -0.000246 0.000000 0.000000 0.000000
# 3 -0.003222 -0.000246 0.010770 0.000000 0.000000 0.000000
# 4 0.000000 0.000000 0.000000 0.047500 0.000000 0.000000
# 5 0.000000 0.000000 0.000000 0.000000 0.023971 0.000000
# 6 0.000000 0.000000 0.000000 0.000000 0.000000 0.125783
#
#
# Mechanical properties :
#
#
# Convention : Reuss Voigt Hill
#
# Bulk Modulus (GPa) = 40.69943 45.08641 42.89292
# Shear Modulus (GPa) = 19.02602 27.46482 23.24542
#
# Velocity S-wave (km/s) = 3.06338 3.68057 3.38606
# Velocity P-wave (km/s) = 5.70848 6.34825 6.03684
#
# Compressibility (1/GPa) = 0.02457037
#
# Stress axis : x y z
#
# Youngs Moduli (GPa) = 84.75026 54.36837 92.85146
#
# Poissons Ratio (x) = 0.25709 0.29914
# Poissons Ratio (y) = 0.40075 0.02280
# Poissons Ratio (z) = 0.27304 0.01335
#
# Static dielectric constant tensor:
#      x y z
#    x 3.878850 0.000000 0.000000 
#    y 0.000000 3.420230 0.000000 
#    z 0.000000 0.000000 4.057280 
# 
# 
# High freq. dielectric constant tensor:
#      x y z
#    x 1.800810 0.000000 0.000000 
#    y 0.000000 1.766050 0.000000 
#    z 0.000000 0.000000 1.809640 
# 
# From -- ./inp_files/23611.got.cif
#   From: 2010.03.12/outbox.cif.g09.slc.cpg/sg53_12_cif.got.tgz:23611.got - 2010.04.16 14:36:59.
