data_PCOD8221894
_publ_section_title
;
Structure prediction by ZEFSAII (Michael W. Deem and Ramdas Pophale) SiO2 
 PCOD8221894
Probable space group: P M N A
;
_chemical_formula_sum "Si O2"
_cell_formula_units_Z 40
_cell_length_a 8.922299
_cell_length_b 14.341113
_cell_length_c 15.590523
_cell_angle_alpha 90.000000
_cell_angle_beta 90.000000
_cell_angle_gamma 90.000000
_cell_volume 1994.896255
_symmetry_space_group_name_H-M "P M N A"
_symmetry_group_IT_number 53
_symmetry_cell_setting 'orthorhombic'
loop_
_space_group_symop_operation_xyz
x,y,z
1/2-x,-y,1/2+z
x,-y,-z
1/2-x,y,1/2-z
-x,-y,-z
1/2+x,y,1/2-z
-x,y,z
1/2+x,-y,1/2+z
loop_
_atom_site_type_symbol
_atom_site_label
_atom_site_fract_x
_atom_site_fract_y
_atom_site_fract_z
Si Si1 0.822904 0.206839 0.336733
Si Si2 0.177626 0.604156 0.398833
Si Si3 0.176820 0.398924 0.407224
Si Si4 0.672659 0.890546 0.505940
Si Si5 0.176650 0.215958 0.835252
O O1 0.750000 0.167065 0.250000
O O2 0.765198 0.313617 0.349098
O O3 0.773555 0.145170 0.416681
O O4 0.000000 0.201066 0.328264
O O5 0.225126 0.499369 0.368770
O O6 0.235993 0.615943 0.496244
O O7 0.265983 0.677874 0.341532
O O8 0.000000 0.621022 0.389631
O O9 0.000000 0.397422 0.414504
O O10 0.500000 0.864723 0.523954
O O11 0.728473 0.843703 0.417534
O O12 0.696675 0.000000 0.500000
O O13 0.250000 0.170828 0.750000
O O14 0.000000 0.214449 0.824440
#
# Coordination Sequence:
#
# PCOD8221894 Si02
#       5
#     8   8   8   8   8
#     4  11  22  38  61  90 121 156 196 238 289 347
#     4   9  16  33  58  84 117 155 196 235 281 339
#     4   8  16  31  56  85 117 157 193 233 282 337
#     4  10  23  44  65  86 115 149 191 247 301 350
#     4  11  23  38  59  87 118 152 192 239 291 347
#
# _framework density 20.051167
#
# number of rings (size 3 to 8) (size 9 to 14) (size 15 to 20)
#    0.000    2.200    2.000    2.400    0.000    2.800 
#    0.000    8.000    0.000    0.000    0.000    0.000 
#    0.000    0.000    0.000    0.000    0.000    0.000 
#
# Total GULP energy -495948.947517 kJ/mol
# GULP energy per Si atom -12398.723688 kJ/mol
# Density = 2.000553 g / cm^3
# Si number density = 20.051167 Si / 1000 Ang^3
#
#
#
# Elastic Constant Matrix: (Units=GPa)
#
#
# Indices 1 2 3 4 5 6 
#
# 1 69.2183 36.7265 52.2642 0.0000 0.0000 0.0000
# 2 36.7265 95.3646 50.5152 0.0000 0.0000 0.0000
# 3 52.2642 50.5152 140.9362 0.0000 0.0000 0.0000
# 4 0.0000 0.0000 0.0000 9.3033 0.0000 0.0000
# 5 0.0000 0.0000 0.0000 0.0000 31.0902 0.0000
# 6 0.0000 0.0000 0.0000 0.0000 0.0000 25.3707
#
#
#
# Elastic Compliance Matrix: (Units=1/GPa)
#
#
# Indices 1 2 3 4 5 6 
#
# 1 0.021908 -0.005102 -0.006295 0.000000 0.000000 0.000000
# 2 -0.005102 0.014132 -0.003173 0.000000 0.000000 0.000000
# 3 -0.006295 -0.003173 0.010567 0.000000 0.000000 0.000000
# 4 0.000000 0.000000 0.000000 0.107488 0.000000 0.000000
# 5 0.000000 0.000000 0.000000 0.000000 0.032165 0.000000
# 6 0.000000 0.000000 0.000000 0.000000 0.000000 0.039416
#
#
# Mechanical properties :
#
#
# Convention : Reuss Voigt Hill
#
# Bulk Modulus (GPa) = 57.25648 64.94785 61.10216
# Shear Modulus (GPa) = 19.18366 24.22040 21.70203
#
# Velocity S-wave (km/s) = 3.09647 3.47930 3.29345
# Velocity P-wave (km/s) = 6.43439 6.97152 6.70833
#
# Compressibility (1/GPa) = 0.01746527
#
# Stress axis : x y z
#
# Youngs Moduli (GPa) = 45.64609 70.76200 94.63186
#
# Poissons Ratio (x) = 0.36105 0.59574
# Poissons Ratio (y) = 0.23290 0.30028
# Poissons Ratio (z) = 0.28736 0.22453
#
# Static dielectric constant tensor:
#      x y z
#    x 3.353840 0.000000 0.000000 
#    y 0.000000 3.854790 0.000000 
#    z 0.000000 0.000000 3.695830 
# 
# 
# High freq. dielectric constant tensor:
#      x y z
#    x 1.760470 0.000000 0.000000 
#    y 0.000000 1.783180 0.000000 
#    z 0.000000 0.000000 1.785080 
# 
# From -- ./inp_files/19848.got.cif
#   From: 2010.03.12/outbox.cif.g09.slc.cpg/sg53_10_cif.got.tgz:19848.got - 2010.04.16 14:36:59.
