data_PCOD8221628
_publ_section_title
;
Structure prediction by ZEFSAII (Michael W. Deem and Ramdas Pophale) SiO2 
 PCOD8221628
Probable space group: P M N A
;
_chemical_formula_sum "Si O2"
_cell_formula_units_Z 32
_cell_length_a 9.433761
_cell_length_b 11.204795
_cell_length_c 14.828428
_cell_angle_alpha 90.000000
_cell_angle_beta 90.000000
_cell_angle_gamma 90.000000
_cell_volume 1567.414635
_symmetry_space_group_name_H-M "P M N A"
_symmetry_group_IT_number 53
_symmetry_cell_setting 'orthorhombic'
loop_
_space_group_symop_operation_xyz
x,y,z
1/2-x,-y,1/2+z
x,-y,-z
1/2-x,y,1/2-z
-x,-y,-z
1/2+x,y,1/2-z
-x,y,z
1/2+x,-y,1/2+z
loop_
_atom_site_type_symbol
_atom_site_label
_atom_site_fract_x
_atom_site_fract_y
_atom_site_fract_z
Si Si1 0.000000 0.370575 0.542884
Si Si2 0.000000 0.914336 0.861432
Si Si3 0.779492 0.237740 0.645480
Si Si4 0.000000 0.767024 0.638733
Si Si5 0.000000 0.169119 0.935764
Si Si6 0.000000 0.962920 0.396951
Si Si7 0.250000 0.198159 0.250000
O O1 0.000000 0.500000 0.500000
O O2 0.865717 0.350736 0.607115
O O3 0.000000 0.269155 0.465216
O O4 0.853158 0.879473 0.813355
O O5 0.000000 0.055782 0.869706
O O6 0.000000 0.856493 0.959407
O O7 0.750000 0.257502 0.750000
O O8 0.637186 0.244926 0.588232
O O9 0.861028 0.112665 0.628975
O O10 0.144574 0.720441 0.687624
O O11 0.000000 0.911436 0.656109
O O12 0.000000 0.000000 0.500000
#
# Coordination Sequence:
#
# PCOD8221628 Si02
#       7
#     4   4   8   4   4   4   4
#     4  11  25  50  72  85 122 180 232 275 330 388
#     4  10  22  32  51  87 129 171 200 235 311 384
#     4  11  24  40  65 100 131 171 216 269 329 400
#     4  11  21  39  60  95 127 168 214 259 329 388
#     4  11  22  34  56  88 129 162 203 252 310 382
#     4  11  22  36  62  92 138 177 207 245 325 408
#     4  10  22  34  56  86 126 160 206 260 310 384
#
# _framework density 20.415783999999999
#
# number of rings (size 3 to 8) (size 9 to 14) (size 15 to 20)
#    0.000    1.250    2.500    4.500   14.000    0.000 
#    2.250    0.625    0.000    0.000    0.000    0.000 
#    0.000    0.000    0.000    0.000    0.000    0.000 
#
# Total GULP energy -396695.047693 kJ/mol
# GULP energy per Si atom -12396.720240 kJ/mol
# Density = 2.036932 g / cm^3
# Si number density = 20.415784 Si / 1000 Ang^3
#
#
#
# Elastic Constant Matrix: (Units=GPa)
#
#
# Indices 1 2 3 4 5 6 
#
# 1 179.8763 34.7146 60.8545 0.0000 0.0000 0.0000
# 2 34.7146 83.0249 32.5319 0.0000 0.0000 0.0000
# 3 60.8545 32.5319 124.2207 0.0000 0.0000 0.0000
# 4 0.0000 0.0000 0.0000 24.9286 0.0000 0.0000
# 5 0.0000 0.0000 0.0000 0.0000 48.4686 0.0000
# 6 0.0000 0.0000 0.0000 0.0000 0.0000 11.5799
#
#
#
# Elastic Compliance Matrix: (Units=1/GPa)
#
#
# Indices 1 2 3 4 5 6 
#
# 1 0.006881 -0.001734 -0.002917 0.000000 0.000000 0.000000
# 2 -0.001734 0.013859 -0.002780 0.000000 0.000000 0.000000
# 3 -0.002917 -0.002780 0.010207 0.000000 0.000000 0.000000
# 4 0.000000 0.000000 0.000000 0.040114 0.000000 0.000000
# 5 0.000000 0.000000 0.000000 0.000000 0.020632 0.000000
# 6 0.000000 0.000000 0.000000 0.000000 0.000000 0.086356
#
#
# Mechanical properties :
#
#
# Convention : Reuss Voigt Hill
#
# Bulk Modulus (GPa) = 62.16876 71.48042 66.82459
# Shear Modulus (GPa) = 25.21775 34.26349 29.74062
#
# Velocity S-wave (km/s) = 3.51837 4.10113 3.82088
# Velocity P-wave (km/s) = 6.85730 7.58380 7.22968
#
# Compressibility (1/GPa) = 0.01608525
#
# Stress axis : x y z
#
# Youngs Moduli (GPa) = 145.33181 72.15555 97.97129
#
# Poissons Ratio (x) = 0.12513 0.28575
# Poissons Ratio (y) = 0.25203 0.27235
# Poissons Ratio (z) = 0.42389 0.20059
#
# Static dielectric constant tensor:
#      x y z
#    x 4.070950 0.000000 0.000000 
#    y 0.000000 3.185060 0.000000 
#    z 0.000000 0.000000 3.989700 
# 
# 
# High freq. dielectric constant tensor:
#      x y z
#    x 1.822900 0.000000 0.000000 
#    y 0.000000 1.730050 0.000000 
#    z 0.000000 0.000000 1.829490 
# 
# From -- ./inp_files/19699.got.cif
#   From: 2010.03.12/outbox.cif.g09.slc.cpg/sg53_10_cif.got.tgz:19699.got - 2010.04.16 14:36:59.
