data_PCOD8221744
_publ_section_title
;
Structure prediction by ZEFSAII (Michael W. Deem and Ramdas Pophale) SiO2 
 PCOD8221744
Probable space group: P M N A
;
_chemical_formula_sum "Si O2"
_cell_formula_units_Z 32
_cell_length_a 15.279625
_cell_length_b 16.480773
_cell_length_c 4.944365
_cell_angle_alpha 90.000000
_cell_angle_beta 90.000000
_cell_angle_gamma 90.000000
_cell_volume 1245.090148
_symmetry_space_group_name_H-M "P M N A"
_symmetry_group_IT_number 53
_symmetry_cell_setting 'orthorhombic'
loop_
_space_group_symop_operation_xyz
x,y,z
1/2-x,-y,1/2+z
x,-y,-z
1/2-x,y,1/2-z
-x,-y,-z
1/2+x,y,1/2-z
-x,y,z
1/2+x,-y,1/2+z
loop_
_atom_site_type_symbol
_atom_site_label
_atom_site_fract_x
_atom_site_fract_y
_atom_site_fract_z
Si Si1 0.000000 0.558224 0.746969
Si Si2 0.324118 0.594675 0.555734
Si Si3 0.099562 0.290666 0.653153
Si Si4 0.900742 0.818176 0.832600
Si Si5 0.750000 0.944772 0.750000
O O1 0.000000 0.500000 0.500000
O O2 0.912396 0.612793 0.765826
O O3 0.000000 0.500000 0.000000
O O4 0.308087 0.500000 0.500000
O O5 0.250000 0.630878 0.750000
O O6 0.334339 0.638872 0.263658
O O7 0.133711 0.250609 0.376459
O O8 0.000000 0.327691 0.622083
O O9 0.099672 0.218189 0.868808
O O10 0.835412 0.893284 0.826945
O O11 0.000000 0.845153 0.753019
O O12 0.777505 0.000000 0.500000
#
# Coordination Sequence:
#
# PCOD8221744 Si02
#       5
#     4   8   8   8   4
#     4  10  22  40  62  86 130 174 226 301 354 413
#     4  11  24  42  63 100 135 188 245 305 360 416
#     4  10  22  44  70  98 137 192 239 290 350 412
#     4  10  24  46  72 106 145 184 233 281 344 419
#     4  12  26  46  76 114 146 182 226 276 350 430
#
# _framework density 25.700951
#
# number of rings (size 3 to 8) (size 9 to 14) (size 15 to 20)
#    0.000    1.500    1.250    2.250    1.750    7.000 
#    0.000    0.000    0.000    0.000    0.000    0.000 
#    0.000    0.000    0.000    0.000    0.000    0.000 
#
# Total GULP energy -397007.537092 kJ/mol
# GULP energy per Si atom -12406.485534 kJ/mol
# Density = 2.564245 g / cm^3
# Si number density = 25.700951 Si / 1000 Ang^3
#
#
#
# Elastic Constant Matrix: (Units=GPa)
#
#
# Indices 1 2 3 4 5 6 
#
# 1 122.9011 21.3567 0.0453 0.0000 0.0000 0.0000
# 2 21.3567 94.2550 -9.9345 0.0000 0.0000 0.0000
# 3 0.0453 -9.9345 72.7847 0.0000 0.0000 0.0000
# 4 0.0000 0.0000 0.0000 31.4719 0.0000 0.0000
# 5 0.0000 0.0000 0.0000 0.0000 41.2239 0.0000
# 6 0.0000 0.0000 0.0000 0.0000 0.0000 72.1158
#
#
#
# Elastic Compliance Matrix: (Units=1/GPa)
#
#
# Indices 1 2 3 4 5 6 
#
# 1 0.008475 -0.001949 -0.000271 0.000000 0.000000 0.000000
# 2 -0.001949 0.011213 0.001532 0.000000 0.000000 0.000000
# 3 -0.000271 0.001532 0.013948 0.000000 0.000000 0.000000
# 4 0.000000 0.000000 0.000000 0.031774 0.000000 0.000000
# 5 0.000000 0.000000 0.000000 0.000000 0.024258 0.000000
# 6 0.000000 0.000000 0.000000 0.000000 0.000000 0.013867
#
#
# Mechanical properties :
#
#
# Convention : Reuss Voigt Hill
#
# Bulk Modulus (GPa) = 30.99907 34.76398 32.88152
# Shear Modulus (GPa) = 43.22815 47.52720 45.37768
#
# Velocity S-wave (km/s) = 4.10563 4.30494 4.20647
# Velocity P-wave (km/s) = 5.87899 6.18593 6.03441
#
# Compressibility (1/GPa) = 0.03225903
#
# Stress axis : x y z
#
# Youngs Moduli (GPa) = 117.98849 89.18570 71.69294
#
# Poissons Ratio (x) = 0.17382 0.01945
# Poissons Ratio (y) = 0.22996 -0.10981
# Poissons Ratio (z) = 0.03201 -0.13660
#
# Static dielectric constant tensor:
#      x y z
#    x 5.274280 0.000000 0.000000 
#    y 0.000000 4.369890 0.000000 
#    z 0.000000 0.000000 5.021140 
# 
# 
# High freq. dielectric constant tensor:
#      x y z
#    x 2.041130 0.000000 0.000000 
#    y 0.000000 2.007960 0.000000 
#    z 0.000000 0.000000 2.061590 
# 
# From -- ./inp_files/1294.got.cif
#   From: 2010.03.12/outbox.cif.g09.slc.cpg/sg53_1_cif.got.tgz:1294.got - 2010.04.16 14:36:59.
