data_PCOD8221980
_publ_section_title
;
Structure prediction by ZEFSAII (Michael W. Deem and Ramdas Pophale) SiO2 
 PCOD8221980
Probable space group: P M N A
;
_chemical_formula_sum "Si O2"
_cell_formula_units_Z 40
_cell_length_a 13.421670
_cell_length_b 9.800771
_cell_length_c 17.215460
_cell_angle_alpha 90.000000
_cell_angle_beta 90.000000
_cell_angle_gamma 90.000000
_cell_volume 2264.568333
_symmetry_space_group_name_H-M "P M N A"
_symmetry_group_IT_number 53
_symmetry_cell_setting 'orthorhombic'
loop_
_space_group_symop_operation_xyz
x,y,z
1/2-x,-y,1/2+z
x,-y,-z
1/2-x,y,1/2-z
-x,-y,-z
1/2+x,y,1/2-z
-x,y,z
1/2+x,-y,1/2+z
loop_
_atom_site_type_symbol
_atom_site_label
_atom_site_fract_x
_atom_site_fract_y
_atom_site_fract_z
Si Si1 0.612018 0.359378 0.954765
Si Si2 0.883686 0.717986 0.867762
Si Si3 0.770131 0.495428 0.334829
Si Si4 0.384889 0.775023 0.807745
Si Si5 0.778184 0.866286 0.551815
O O1 0.500000 0.323326 0.926710
O O2 0.687816 0.376568 0.882779
O O3 0.612965 0.500000 0.000000
O O4 0.651458 0.239874 0.008464
O O5 0.832284 0.568278 0.869724
O O6 0.861727 0.790157 0.784125
O O7 0.834367 0.810900 0.935080
O O8 0.000000 0.700734 0.884618
O O9 0.750000 0.555595 0.250000
O O10 0.852687 0.376172 0.333764
O O11 0.500000 0.793856 0.825175
O O12 0.326546 0.885722 0.861644
O O13 0.772806 0.000000 0.500000
#
# Coordination Sequence:
#
# PCOD8221980 Si02
#       5
#     8   8   8   8   8
#     4  11  20  33  55  80 106 133 167 213 267 313
#     4   9  18  33  54  75  99 138 181 213 249 308
#     4   9  17  31  51  78 106 133 169 215 261 309
#     4   9  16  30  53  77  99 129 173 217 258 311
#     4  11  22  34  50  77 111 139 171 216 263 305
#
# _framework density 17.663411
#
# number of rings (size 3 to 8) (size 9 to 14) (size 15 to 20)
#    0.000    2.200    4.000    3.000    0.000    2.800 
#    0.000    4.000    0.000    0.000    0.000    0.000 
#    0.000    0.000    0.000    0.000    0.000    0.000 
#
# Total GULP energy -495714.747072 kJ/mol
# GULP energy per Si atom -12392.868677 kJ/mol
# Density = 1.762321 g / cm^3
# Si number density = 17.663411 Si / 1000 Ang^3
#
#
#
# Elastic Constant Matrix: (Units=GPa)
#
#
# Indices 1 2 3 4 5 6 
#
# 1 141.1990 38.8967 51.7404 0.0000 0.0000 0.0000
# 2 38.8967 52.6199 31.1119 0.0000 0.0000 0.0000
# 3 51.7404 31.1119 79.0231 0.0000 0.0000 0.0000
# 4 0.0000 0.0000 0.0000 23.2113 0.0000 0.0000
# 5 0.0000 0.0000 0.0000 0.0000 26.1273 0.0000
# 6 0.0000 0.0000 0.0000 0.0000 0.0000 68.6660
#
#
#
# Elastic Compliance Matrix: (Units=1/GPa)
#
#
# Indices 1 2 3 4 5 6 
#
# 1 0.010119 -0.004644 -0.004797 0.000000 0.000000 0.000000
# 2 -0.004644 0.026901 -0.007551 0.000000 0.000000 0.000000
# 3 -0.004797 -0.007551 0.018768 0.000000 0.000000 0.000000
# 4 0.000000 0.000000 0.000000 0.043082 0.000000 0.000000
# 5 0.000000 0.000000 0.000000 0.000000 0.038274 0.000000
# 6 0.000000 0.000000 0.000000 0.000000 0.000000 0.014563
#
#
# Mechanical properties :
#
#
# Convention : Reuss Voigt Hill
#
# Bulk Modulus (GPa) = 45.86032 57.37111 51.61572
# Shear Modulus (GPa) = 25.91194 33.67378 29.79286
#
# Velocity S-wave (km/s) = 3.83428 4.37099 4.11140
# Velocity P-wave (km/s) = 6.75441 7.61740 7.19885
#
# Compressibility (1/GPa) = 0.02180534
#
# Stress axis : x y z
#
# Youngs Moduli (GPa) = 98.82027 37.17284 53.28104
#
# Poissons Ratio (x) = 0.17262 0.25561
# Poissons Ratio (y) = 0.45890 0.40231
# Poissons Ratio (z) = 0.47408 0.28068
#
# Static dielectric constant tensor:
#      x y z
#    x 3.507210 0.000000 0.000000 
#    y 0.000000 3.220420 0.000000 
#    z 0.000000 0.000000 3.668970 
# 
# 
# High freq. dielectric constant tensor:
#      x y z
#    x 1.696990 0.000000 0.000000 
#    y 0.000000 1.621810 0.000000 
#    z 0.000000 0.000000 1.688240 
# 
# From -- ./inp_files/28064.got.cif
#   From: 2010.03.12/outbox.cif.g09.slc.cpg/sg53_15_cif.got.tgz:28064.got - 2010.04.16 14:36:59.
