data_PCOD8221334
_publ_section_title
;
Structure prediction by ZEFSAII (Michael W. Deem and Ramdas Pophale) SiO2 
 PCOD8221334
Probable space group: P M N A
;
_chemical_formula_sum "Si O2"
_cell_formula_units_Z 64
_cell_length_a 13.974994
_cell_length_b 12.182903
_cell_length_c 18.425186
_cell_angle_alpha 90.000000
_cell_angle_beta 90.000000
_cell_angle_gamma 90.000000
_cell_volume 3136.998400
_symmetry_space_group_name_H-M "P M N A"
_symmetry_group_IT_number 53
_symmetry_cell_setting 'orthorhombic'
loop_
_space_group_symop_operation_xyz
x,y,z
1/2-x,-y,1/2+z
x,-y,-z
1/2-x,y,1/2-z
-x,-y,-z
1/2+x,y,1/2-z
-x,y,z
1/2+x,-y,1/2+z
loop_
_atom_site_type_symbol
_atom_site_label
_atom_site_fract_x
_atom_site_fract_y
_atom_site_fract_z
Si Si1 0.805349 0.477356 0.914190
Si Si2 0.607477 0.755196 0.852976
Si Si3 0.613935 0.863910 0.708274
Si Si4 0.109549 0.982389 0.580749
Si Si5 0.605062 0.523033 0.915159
Si Si6 0.611981 0.701038 0.583582
Si Si7 0.273989 0.916385 0.325776
Si Si8 0.611286 0.745476 0.421605
O O1 0.695352 0.450230 0.888670
O O2 0.844573 0.590537 0.880875
O O3 0.869228 0.375155 0.887630
O O4 0.811804 0.500000 0.000000
O O5 0.500000 0.728839 0.830222
O O6 0.657069 0.797001 0.777869
O O7 0.643564 0.645691 0.894211
O O8 0.616502 0.852082 0.910474
O O9 0.500000 0.881226 0.716813
O O10 0.641960 0.798403 0.636348
O O11 0.662046 0.981280 0.699564
O O12 0.175397 0.047646 0.636717
O O13 0.000000 0.023364 0.591968
O O14 0.147101 0.000000 0.500000
O O15 0.500000 0.496594 0.879707
O O16 0.593710 0.500000 0.000000
O O17 0.500000 0.681094 0.578321
O O18 0.649478 0.738362 0.504381
O O19 0.250000 0.853591 0.250000
O O20 0.331809 0.838924 0.379767
O O21 0.500000 0.774972 0.416573
#
# Coordination Sequence:
#
# PCOD8221334 Si02
#       8
#     8   8   8   8   8   8   8   8
#     4   9  18  34  59  84 115 155 198 244 304 367
#     4   9  18  36  58  83 120 158 199 253 315 369
#     4  10  21  37  59  90 124 158 194 253 323 381
#     4  10  23  40  59  84 118 163 212 257 304 369
#     4   9  18  32  55  86 119 156 202 255 306 354
#     4   9  19  35  60  91 118 148 196 249 312 380
#     4  12  25  39  61  87 120 163 209 254 316 379
#     4  10  22  40  61  88 121 160 201 255 315 375
#
# _framework density 20.401668000000001
#
# number of rings (size 3 to 8) (size 9 to 14) (size 15 to 20)
#    0.000    2.250    1.250    0.750    3.500    4.000 
#    0.000    5.000    0.000    1.500    0.000    0.000 
#    0.000    0.000    0.000    0.000    0.000    0.000 
#
# Total GULP energy -792864.281205 kJ/mol
# GULP energy per Si atom -12388.504394 kJ/mol
# Density = 2.035523 g / cm^3
# Si number density = 20.401668 Si / 1000 Ang^3
#
#
#
# Elastic Constant Matrix: (Units=GPa)
#
#
# Indices 1 2 3 4 5 6 
#
# 1 52.2164 37.6258 37.3678 0.0000 0.0000 0.0000
# 2 37.6258 84.5442 46.3103 0.0000 0.0000 0.0000
# 3 37.3678 46.3103 106.3571 0.0000 0.0000 0.0000
# 4 0.0000 0.0000 0.0000 29.4169 0.0000 0.0000
# 5 0.0000 0.0000 0.0000 0.0000 18.7831 0.0000
# 6 0.0000 0.0000 0.0000 0.0000 0.0000 19.6702
#
#
#
# Elastic Compliance Matrix: (Units=1/GPa)
#
#
# Indices 1 2 3 4 5 6 
#
# 1 0.031246 -0.010364 -0.006465 0.000000 0.000000 0.000000
# 2 -0.010364 0.018971 -0.004619 0.000000 0.000000 0.000000
# 3 -0.006465 -0.004619 0.013685 0.000000 0.000000 0.000000
# 4 0.000000 0.000000 0.000000 0.033994 0.000000 0.000000
# 5 0.000000 0.000000 0.000000 0.000000 0.053239 0.000000
# 6 0.000000 0.000000 0.000000 0.000000 0.000000 0.050838
#
#
# Mechanical properties :
#
#
# Convention : Reuss Voigt Hill
#
# Bulk Modulus (GPa) = 47.60795 53.96951 50.78873
# Shear Modulus (GPa) = 19.85133 21.69496 20.77315
#
# Velocity S-wave (km/s) = 3.12272 3.26451 3.19440
# Velocity P-wave (km/s) = 6.03223 6.38124 6.20919
#
# Compressibility (1/GPa) = 0.02100489
#
# Stress axis : x y z
#
# Youngs Moduli (GPa) = 32.00388 52.71260 73.07304
#
# Poissons Ratio (x) = 0.54634 0.47243
# Poissons Ratio (y) = 0.33170 0.33751
# Poissons Ratio (z) = 0.20691 0.24347
#
# Static dielectric constant tensor:
#      x y z
#    x 3.955820 0.000000 0.000000 
#    y 0.000000 3.678640 0.000000 
#    z 0.000000 0.000000 3.774860 
# 
# 
# High freq. dielectric constant tensor:
#      x y z
#    x 1.816540 0.000000 0.000000 
#    y 0.000000 1.782560 0.000000 
#    z 0.000000 0.000000 1.779650 
# 
# From -- ./inp_files/28588.got.cif
#   From: 2010.03.12/outbox.cif.g09.slc.cpg/sg53_15_cif.got.tgz:28588.got - 2010.04.16 14:36:59.
