data_PCOD8221469
_publ_section_title
;
Structure prediction by ZEFSAII (Michael W. Deem and Ramdas Pophale) SiO2 
 PCOD8221469
Probable space group: P M N A
;
_chemical_formula_sum "Si O2"
_cell_formula_units_Z 56
_cell_length_a 23.865856
_cell_length_b 4.977434
_cell_length_c 24.727166
_cell_angle_alpha 90.000000
_cell_angle_beta 90.000000
_cell_angle_gamma 90.000000
_cell_volume 2937.357929
_symmetry_space_group_name_H-M "P M N A"
_symmetry_group_IT_number 53
_symmetry_cell_setting 'orthorhombic'
loop_
_space_group_symop_operation_xyz
x,y,z
1/2-x,-y,1/2+z
x,-y,-z
1/2-x,y,1/2-z
-x,-y,-z
1/2+x,y,1/2-z
-x,y,z
1/2+x,-y,1/2+z
loop_
_atom_site_type_symbol
_atom_site_label
_atom_site_fract_x
_atom_site_fract_y
_atom_site_fract_z
Si Si1 0.733986 0.344050 0.810689
Si Si2 0.177097 0.878735 0.944893
Si Si3 0.332745 0.168190 0.153724
Si Si4 0.194624 0.766912 0.535291
Si Si5 0.563749 0.032349 0.221061
Si Si6 0.063756 0.537418 0.207958
Si Si7 0.843010 0.616786 0.121906
O O1 0.750000 0.259173 0.750000
O O2 0.690633 0.591336 0.809070
O O3 0.788428 0.449959 0.842471
O O4 0.707300 0.089960 0.841047
O O5 0.243371 0.862549 0.950497
O O6 0.154398 0.582699 0.929866
O O7 0.160178 0.076270 0.896550
O O8 0.150515 0.000000 0.000000
O O9 0.337536 0.270243 0.091854
O O10 0.395591 0.097711 0.171531
O O11 0.194509 0.500000 0.500000
O O12 0.164970 0.000000 0.500000
O O13 0.500000 0.040777 0.199126
O O14 0.572130 0.238006 0.270309
O O15 0.580465 0.741410 0.244065
O O16 0.100969 0.579619 0.155591
O O17 0.000000 0.592107 0.190032
#
# Coordination Sequence:
#
# PCOD8221469 Si02
#       7
#     8   8   8   8   8   8   8
#     4  12  23  34  52  85 120 146 174 225 289 345
#     4  11  22  36  56  80 112 149 192 229 276 338
#     4  12  22  37  55  84 114 149 185 230 282 335
#     4  11  21  36  55  78 113 147 189 229 272 333
#     4  10  21  39  59  82 112 152 193 227 270 336
#     4  10  22  39  60  83 111 151 194 228 270 338
#     4  12  20  37  56  83 113 148 184 230 284 333
#
# _framework density 19.064751999999999
#
# number of rings (size 3 to 8) (size 9 to 14) (size 15 to 20)
#    0.000    0.857    2.857    6.857    0.000    0.000 
#    0.000    0.000    0.000    3.429    0.000    0.000 
#    0.000    0.000    0.000    0.000    0.000    0.000 
#
# Total GULP energy -694634.264509 kJ/mol
# GULP energy per Si atom -12404.183295 kJ/mol
# Density = 1.902136 g / cm^3
# Si number density = 19.064752 Si / 1000 Ang^3
#
#
#
# Elastic Constant Matrix: (Units=GPa)
#
#
# Indices 1 2 3 4 5 6 
#
# 1 74.3568 16.0656 43.1812 0.0000 0.0000 0.0000
# 2 16.0656 89.3288 15.4300 0.0000 0.0000 0.0000
# 3 43.1812 15.4300 100.6941 0.0000 0.0000 0.0000
# 4 0.0000 0.0000 0.0000 33.9867 0.0000 0.0000
# 5 0.0000 0.0000 0.0000 0.0000 21.3197 0.0000
# 6 0.0000 0.0000 0.0000 0.0000 0.0000 15.7497
#
#
#
# Elastic Compliance Matrix: (Units=1/GPa)
#
#
# Indices 1 2 3 4 5 6 
#
# 1 0.018244 -0.001982 -0.007520 0.000000 0.000000 0.000000
# 2 -0.001982 0.011714 -0.000945 0.000000 0.000000 0.000000
# 3 -0.007520 -0.000945 0.013301 0.000000 0.000000 0.000000
# 4 0.000000 0.000000 0.000000 0.029423 0.000000 0.000000
# 5 0.000000 0.000000 0.000000 0.000000 0.046905 0.000000
# 6 0.000000 0.000000 0.000000 0.000000 0.000000 0.063493
#
#
# Mechanical properties :
#
#
# Convention : Reuss Voigt Hill
#
# Bulk Modulus (GPa) = 44.71331 45.97037 45.34184
# Shear Modulus (GPa) = 23.64850 26.85806 25.25328
#
# Velocity S-wave (km/s) = 3.52580 3.75745 3.64346
# Velocity P-wave (km/s) = 6.33082 6.55665 6.44472
#
# Compressibility (1/GPa) = 0.02236471
#
# Stress axis : x y z
#
# Youngs Moduli (GPa) = 54.81250 85.36551 75.18402
#
# Poissons Ratio (x) = 0.16921 0.56538
# Poissons Ratio (y) = 0.10865 0.07105
# Poissons Ratio (z) = 0.41219 0.08067
#
# Static dielectric constant tensor:
#      x y z
#    x 3.308640 0.000000 0.000000 
#    y 0.000000 3.723270 0.000000 
#    z 0.000000 0.000000 3.597780 
# 
# 
# High freq. dielectric constant tensor:
#      x y z
#    x 1.710930 0.000000 0.000000 
#    y 0.000000 1.765310 0.000000 
#    z 0.000000 0.000000 1.737340 
# 
# From -- ./inp_files/37229.got.cif
#   From: 2010.03.12/outbox.cif.g09.slc.cpg/sg53_19_cif.got.tgz:37229.got - 2010.04.16 14:36:59.
