data_PCOD8221911
_publ_section_title
;
Structure prediction by ZEFSAII (Michael W. Deem and Ramdas Pophale) SiO2 
 PCOD8221911
Probable space group: P M N A
;
_chemical_formula_sum "Si O2"
_cell_formula_units_Z 48
_cell_length_a 30.162083
_cell_length_b 9.072067
_cell_length_c 9.444787
_cell_angle_alpha 90.000000
_cell_angle_beta 90.000000
_cell_angle_gamma 90.000000
_cell_volume 2584.400092
_symmetry_space_group_name_H-M "P M N A"
_symmetry_group_IT_number 53
_symmetry_cell_setting 'orthorhombic'
loop_
_space_group_symop_operation_xyz
x,y,z
1/2-x,-y,1/2+z
x,-y,-z
1/2-x,y,1/2-z
-x,-y,-z
1/2+x,y,1/2-z
-x,y,z
1/2+x,-y,1/2+z
loop_
_atom_site_type_symbol
_atom_site_label
_atom_site_fract_x
_atom_site_fract_y
_atom_site_fract_z
Si Si1 0.500000 0.068659 0.651280
Si Si2 0.140782 0.726751 0.336781
Si Si3 0.000000 0.416122 0.856356
Si Si4 0.401473 0.980252 0.330540
Si Si5 0.705560 0.486866 0.165784
Si Si6 0.930029 0.480777 0.354440
Si Si7 0.634975 0.237393 0.149233
O O1 0.500000 0.242629 0.629728
O O2 0.500000 0.000000 0.500000
O O3 0.453353 0.018141 0.724942
O O4 0.186029 0.647042 0.284614
O O5 0.111504 0.586684 0.378481
O O6 0.144862 0.815289 0.486733
O O7 0.119991 0.823298 0.211124
O O8 0.956282 0.470609 0.781048
O O9 0.000000 0.500000 0.000000
O O10 0.369982 0.097979 0.252967
O O11 0.399336 0.000000 0.500000
O O12 0.750000 0.455321 0.250000
O O13 0.673610 0.347821 0.201194
O O14 0.715652 0.500000 0.000000
O O15 0.958595 0.500000 0.500000
O O16 0.913094 0.314620 0.334627
#
# Coordination Sequence:
#
# PCOD8221911 Si02
#       7
#     4   8   4   8   8   8   8
#     4  10  24  39  48  75 121 151 186 239 287 324
#     4   9  18  38  57  79 110 146 183 225 282 322
#     4  12  23  33  55  76 108 150 186 236 287 325
#     4  11  22  36  56  78 116 152 190 232 274 332
#     4   9  19  37  62  89 115 140 176 231 282 337
#     4   9  19  35  55  76 103 139 190 234 269 324
#     4   9  20  36  58  81 109 147 182 226 278 334
#
# _framework density 18.572977000000002
#
# number of rings (size 3 to 8) (size 9 to 14) (size 15 to 20)
#    0.000    2.333    1.667    2.750    4.667    1.333 
#    0.000    6.667    0.000    0.000    0.000    0.000 
#    0.000    0.000    0.000    0.000    0.000    0.000 
#
# Total GULP energy -594643.039420 kJ/mol
# GULP energy per Si atom -12388.396655 kJ/mol
# Density = 1.853070 g / cm^3
# Si number density = 18.572977 Si / 1000 Ang^3
#
#
#
# Elastic Constant Matrix: (Units=GPa)
#
#
# Indices 1 2 3 4 5 6 
#
# 1 99.7103 33.9373 40.3780 0.0000 0.0000 0.0000
# 2 33.9373 76.3606 35.7141 0.0000 0.0000 0.0000
# 3 40.3780 35.7141 89.8850 0.0000 0.0000 0.0000
# 4 0.0000 0.0000 0.0000 35.2143 0.0000 0.0000
# 5 0.0000 0.0000 0.0000 0.0000 30.7867 0.0000
# 6 0.0000 0.0000 0.0000 0.0000 0.0000 25.0952
#
#
#
# Elastic Compliance Matrix: (Units=1/GPa)
#
#
# Indices 1 2 3 4 5 6 
#
# 1 0.013085 -0.003766 -0.004382 0.000000 0.000000 0.000000
# 2 -0.003766 0.017169 -0.005130 0.000000 0.000000 0.000000
# 3 -0.004382 -0.005130 0.015132 0.000000 0.000000 0.000000
# 4 0.000000 0.000000 0.000000 0.028398 0.000000 0.000000
# 5 0.000000 0.000000 0.000000 0.000000 0.032482 0.000000
# 6 0.000000 0.000000 0.000000 0.000000 0.000000 0.039848
#
#
# Mechanical properties :
#
#
# Convention : Reuss Voigt Hill
#
# Bulk Modulus (GPa) = 53.10542 54.00165 53.55353
# Shear Modulus (GPa) = 27.94139 28.61433 28.27786
#
# Velocity S-wave (km/s) = 3.88288 3.92936 3.90619
# Velocity P-wave (km/s) = 6.98264 7.05160 7.01720
#
# Compressibility (1/GPa) = 0.01883047
#
# Stress axis : x y z
#
# Youngs Moduli (GPa) = 76.42153 58.24503 66.08536
#
# Poissons Ratio (x) = 0.21936 0.28957
# Poissons Ratio (y) = 0.28782 0.33901
# Poissons Ratio (z) = 0.33486 0.29879
#
# Static dielectric constant tensor:
#      x y z
#    x 3.096280 0.000000 0.000000 
#    y 0.000000 3.353380 0.000000 
#    z 0.000000 0.000000 3.277440 
# 
# 
# High freq. dielectric constant tensor:
#      x y z
#    x 1.708680 0.000000 0.000000 
#    y 0.000000 1.720850 0.000000 
#    z 0.000000 0.000000 1.714010 
# 
# From -- ./inp_files/13095.got.cif
#   From: 2010.03.12/outbox.cif.g09.slc.cpg/sg53_7_cif.got.tgz:13095.got - 2010.04.16 14:36:59.
