data_PCOD8221571
_publ_section_title
;
Structure prediction by ZEFSAII (Michael W. Deem and Ramdas Pophale) SiO2 
 PCOD8221571
Probable space group: P M N A
;
_chemical_formula_sum "Si O2"
_cell_formula_units_Z 48
_cell_length_a 8.711986
_cell_length_b 15.012119
_cell_length_c 18.660996
_cell_angle_alpha 90.000000
_cell_angle_beta 90.000000
_cell_angle_gamma 90.000000
_cell_volume 2440.585277
_symmetry_space_group_name_H-M "P M N A"
_symmetry_group_IT_number 53
_symmetry_cell_setting 'orthorhombic'
loop_
_space_group_symop_operation_xyz
x,y,z
1/2-x,-y,1/2+z
x,-y,-z
1/2-x,y,1/2-z
-x,-y,-z
1/2+x,y,1/2-z
-x,y,z
1/2+x,-y,1/2+z
loop_
_atom_site_type_symbol
_atom_site_label
_atom_site_fract_x
_atom_site_fract_y
_atom_site_fract_z
Si Si1 0.678835 0.850406 0.081451
Si Si2 0.319725 0.661654 0.409497
Si Si3 0.320057 0.991475 0.671814
Si Si4 0.824502 0.843118 0.583296
Si Si5 0.181225 0.494963 0.674145
Si Si6 0.678673 0.358166 0.060665
O O1 0.500000 0.834536 0.096016
O O2 0.767604 0.762178 0.105398
O O3 0.738947 0.932728 0.126107
O O4 0.709009 0.871307 0.998265
O O5 0.500000 0.654818 0.401071
O O6 0.242683 0.601054 0.348999
O O7 0.271721 0.627444 0.487832
O O8 0.250000 0.991677 0.750000
O O9 0.500000 0.009519 0.675529
O O10 0.288546 0.896344 0.635239
O O11 0.789590 0.738829 0.594085
O O12 0.000000 0.865682 0.603820
O O13 0.250000 0.523034 0.750000
O O14 0.235329 0.568977 0.617101
O O15 0.000000 0.491988 0.680201
O O16 0.500000 0.368556 0.040797
#
# Coordination Sequence:
#
# PCOD8221571 Si02
#       6
#     8   8   8   8   8   8
#     4  10  21  40  64  87 114 149 189 235 287 340
#     4  11  22  37  60  89 117 148 191 238 283 337
#     4  12  25  39  57  84 118 154 192 234 283 339
#     4   9  19  38  62  87 115 149 188 232 284 338
#     4  11  23  39  58  83 117 155 194 236 287 342
#     4   9  20  39  62  86 115 152 191 235 286 337
#
# _framework density 19.667413
#
# number of rings (size 3 to 8) (size 9 to 14) (size 15 to 20)
#    0.000    1.667    0.000    6.000    0.000   10.000 
#    0.000    5.000    0.000    0.000    0.000    0.000 
#    0.000    0.000    0.000    0.000    0.000    0.000 
#
# Total GULP energy -595479.908462 kJ/mol
# GULP energy per Si atom -12405.831426 kJ/mol
# Density = 1.962265 g / cm^3
# Si number density = 19.667413 Si / 1000 Ang^3
#
#
#
# Elastic Constant Matrix: (Units=GPa)
#
#
# Indices 1 2 3 4 5 6 
#
# 1 60.5025 12.9328 27.4718 0.0000 0.0000 0.0000
# 2 12.9328 80.4194 42.1251 0.0000 0.0000 0.0000
# 3 27.4718 42.1251 81.6371 0.0000 0.0000 0.0000
# 4 0.0000 0.0000 0.0000 10.9212 0.0000 0.0000
# 5 0.0000 0.0000 0.0000 0.0000 35.8380 0.0000
# 6 0.0000 0.0000 0.0000 0.0000 0.0000 28.1726
#
#
#
# Elastic Compliance Matrix: (Units=1/GPa)
#
#
# Indices 1 2 3 4 5 6 
#
# 1 0.019519 0.000413 -0.006782 0.000000 0.000000 0.000000
# 2 0.000413 0.017050 -0.008937 0.000000 0.000000 0.000000
# 3 -0.006782 -0.008937 0.019143 0.000000 0.000000 0.000000
# 4 0.000000 0.000000 0.000000 0.091565 0.000000 0.000000
# 5 0.000000 0.000000 0.000000 0.000000 0.027903 0.000000
# 6 0.000000 0.000000 0.000000 0.000000 0.000000 0.035495
#
#
# Mechanical properties :
#
#
# Convention : Reuss Voigt Hill
#
# Bulk Modulus (GPa) = 39.83842 43.06871 41.45357
# Shear Modulus (GPa) = 20.02779 24.32165 22.17472
#
# Velocity S-wave (km/s) = 3.19458 3.52041 3.36145
# Velocity P-wave (km/s) = 5.82299 6.20246 6.01571
#
# Compressibility (1/GPa) = 0.02510140
#
# Stress axis : x y z
#
# Youngs Moduli (GPa) = 51.23162 58.65255 52.23878
#
# Poissons Ratio (x) = -0.02425 0.35427
# Poissons Ratio (y) = -0.02118 0.46684
# Poissons Ratio (z) = 0.34744 0.52416
#
# Static dielectric constant tensor:
#      x y z
#    x 3.591820 0.000000 0.000000 
#    y 0.000000 3.713040 0.000000 
#    z 0.000000 0.000000 3.579290 
# 
# 
# High freq. dielectric constant tensor:
#      x y z
#    x 1.771030 0.000000 0.000000 
#    y 0.000000 1.779680 0.000000 
#    z 0.000000 0.000000 1.763630 
# 
# From -- ./inp_files/26186.got.cif
#   From: 2010.03.12/outbox.cif.g09.slc.cpg/sg53_14_cif.got.tgz:26186.got - 2010.04.16 14:36:59.
