data_PCOD8221344
_publ_section_title
;
Structure prediction by ZEFSAII (Michael W. Deem and Ramdas Pophale) SiO2 
 PCOD8221344
Probable space group: P M N A
;
_chemical_formula_sum "Si O2"
_cell_formula_units_Z 48
_cell_length_a 14.394319
_cell_length_b 8.937245
_cell_length_c 18.260223
_cell_angle_alpha 90.000000
_cell_angle_beta 90.000000
_cell_angle_gamma 90.000000
_cell_volume 2349.096532
_symmetry_space_group_name_H-M "P M N A"
_symmetry_group_IT_number 53
_symmetry_cell_setting 'orthorhombic'
loop_
_space_group_symop_operation_xyz
x,y,z
1/2-x,-y,1/2+z
x,-y,-z
1/2-x,y,1/2-z
-x,-y,-z
1/2+x,y,1/2-z
-x,y,z
1/2+x,-y,1/2+z
loop_
_atom_site_type_symbol
_atom_site_label
_atom_site_fract_x
_atom_site_fract_y
_atom_site_fract_z
Si Si1 0.186641 0.451834 0.813845
Si Si2 0.000000 0.823493 0.670525
Si Si3 0.000000 0.992578 0.180345
Si Si4 0.306173 0.357930 0.451818
Si Si5 0.000000 0.548803 0.772124
Si Si6 0.500000 0.261396 0.419710
Si Si7 0.674476 0.910842 0.929589
Si Si8 0.296013 0.880702 0.327481
O O1 0.250000 0.510548 0.750000
O O2 0.191277 0.589077 0.868738
O O3 0.086625 0.436787 0.775135
O O4 0.220297 0.293791 0.848135
O O5 0.000000 0.651034 0.698261
O O6 0.090780 0.858967 0.622309
O O7 0.000000 0.922677 0.742733
O O8 0.000000 0.091267 0.106718
O O9 0.906651 0.896662 0.176209
O O10 0.279651 0.500000 0.500000
O O11 0.409576 0.295153 0.470357
O O12 0.228213 0.232685 0.461351
O O13 0.000000 0.644805 0.845698
O O14 0.748953 0.013648 0.887366
O O15 0.634630 0.000000 0.000000
O O16 0.250000 0.919816 0.250000
#
# Coordination Sequence:
#
# PCOD8221344 Si02
#       8
#     8   4   4   8   4   4   8   8
#     4  10  21  37  60  91 121 158 205 256 313 373
#     4  11  23  40  67  92 127 170 220 268 317 384
#     4  11  19  38  64  99 122 158 206 264 321 378
#     4  11  22  40  62  86 127 166 208 261 315 390
#     4   9  19  36  60  90 120 158 202 260 307 372
#     4   9  19  34  60  91 119 152 201 250 320 380
#     4  12  25  42  63  93 128 172 219 266 323 384
#     4  11  22  38  64  96 130 164 207 267 321 381
#
# _framework density 20.433385999999999
#
# number of rings (size 3 to 8) (size 9 to 14) (size 15 to 20)
#    0.000    1.333    3.333    3.000    0.000    0.667 
#    0.000    3.750    0.000    0.000    0.000    0.000 
#    0.000    0.000    0.000    0.000    0.000    0.000 
#
# Total GULP energy -595026.070945 kJ/mol
# GULP energy per Si atom -12396.376478 kJ/mol
# Density = 2.038688 g / cm^3
# Si number density = 20.433386 Si / 1000 Ang^3
#
#
#
# Elastic Constant Matrix: (Units=GPa)
#
#
# Indices 1 2 3 4 5 6 
#
# 1 109.8777 20.3296 21.8798 0.0000 0.0000 0.0000
# 2 20.3296 82.0851 29.2823 0.0000 0.0000 0.0000
# 3 21.8798 29.2823 55.6363 0.0000 0.0000 0.0000
# 4 0.0000 0.0000 0.0000 37.2182 0.0000 0.0000
# 5 0.0000 0.0000 0.0000 0.0000 22.9259 0.0000
# 6 0.0000 0.0000 0.0000 0.0000 0.0000 37.8109
#
#
#
# Elastic Compliance Matrix: (Units=1/GPa)
#
#
# Indices 1 2 3 4 5 6 
#
# 1 0.009989 -0.001321 -0.003233 0.000000 0.000000 0.000000
# 2 -0.001321 0.015173 -0.007467 0.000000 0.000000 0.000000
# 3 -0.003233 -0.007467 0.023175 0.000000 0.000000 0.000000
# 4 0.000000 0.000000 0.000000 0.026869 0.000000 0.000000
# 5 0.000000 0.000000 0.000000 0.000000 0.043619 0.000000
# 6 0.000000 0.000000 0.000000 0.000000 0.000000 0.026447
#
#
# Mechanical properties :
#
#
# Convention : Reuss Voigt Hill
#
# Bulk Modulus (GPa) = 41.15801 43.39807 42.27804
# Shear Modulus (GPa) = 28.18298 31.33149 29.75723
#
# Velocity S-wave (km/s) = 3.71787 3.92005 3.82030
# Velocity P-wave (km/s) = 6.21420 6.46328 6.33996
#
# Compressibility (1/GPa) = 0.02429661
#
# Stress axis : x y z
#
# Youngs Moduli (GPa) = 100.10798 65.90629 43.14953
#
# Poissons Ratio (x) = 0.08703 0.13952
# Poissons Ratio (y) = 0.13219 0.32218
# Poissons Ratio (z) = 0.32369 0.49209
#
# Static dielectric constant tensor:
#      x y z
#    x 3.823570 0.000000 0.000000 
#    y 0.000000 3.633530 0.000000 
#    z 0.000000 0.000000 3.647440 
# 
# 
# High freq. dielectric constant tensor:
#      x y z
#    x 1.806020 0.000000 0.000000 
#    y 0.000000 1.801870 0.000000 
#    z 0.000000 0.000000 1.792610 
# 
# From -- ./inp_files/28337.got.cif
#   From: 2010.03.12/outbox.cif.g09.slc.cpg/sg53_15_cif.got.tgz:28337.got - 2010.04.16 14:36:59.
