data_PCOD8221739
_publ_section_title
;
Structure prediction by ZEFSAII (Michael W. Deem and Ramdas Pophale) SiO2 
 PCOD8221739
Probable space group: P M N A
;
_chemical_formula_sum "Si O2"
_cell_formula_units_Z 32
_cell_length_a 16.045186
_cell_length_b 10.412467
_cell_length_c 8.657489
_cell_angle_alpha 90.000000
_cell_angle_beta 90.000000
_cell_angle_gamma 90.000000
_cell_volume 1446.406425
_symmetry_space_group_name_H-M "P M N A"
_symmetry_group_IT_number 53
_symmetry_cell_setting 'orthorhombic'
loop_
_space_group_symop_operation_xyz
x,y,z
1/2-x,-y,1/2+z
x,-y,-z
1/2-x,y,1/2-z
-x,-y,-z
1/2+x,y,1/2-z
-x,y,z
1/2+x,-y,1/2+z
loop_
_atom_site_type_symbol
_atom_site_label
_atom_site_fract_x
_atom_site_fract_y
_atom_site_fract_z
Si Si1 0.658238 0.489420 0.682526
Si Si2 0.843027 0.751854 0.687495
Si Si3 0.903435 0.751515 0.352490
Si Si4 0.595902 0.006280 0.669194
O O1 0.661152 0.500000 0.500000
O O2 0.750000 0.472188 0.750000
O O3 0.617455 0.621878 0.743139
O O4 0.602773 0.370717 0.739526
O O5 0.750000 0.771016 0.750000
O O6 0.845776 0.736023 0.502956
O O7 0.896344 0.873935 0.738673
O O8 0.000000 0.769760 0.401187
O O9 0.865570 0.876098 0.265895
O O10 0.500000 0.040826 0.645113
O O11 0.639453 0.000000 0.500000
#
# Coordination Sequence:
#
# PCOD8221739 Si02
#       4
#     8   8   8   8
#     4  11  23  41  63  91 128 166 211 265 318 375
#     4  11  23  39  61  91 123 163 210 256 311 371
#     4  11  24  42  66  95 128 168 212 261 317 377
#     4  10  22  40  61  89 124 159 201 255 311 370
#
# _framework density 22.123795000000001
#
# number of rings (size 3 to 8) (size 9 to 14) (size 15 to 20)
#    0.000    1.250    0.000    6.750    0.000    8.500 
#    0.000    0.000    0.000    0.000    0.000    0.000 
#    0.000    0.000    0.000    0.000    0.000    0.000 
#
# Total GULP energy -396887.596524 kJ/mol
# GULP energy per Si atom -12402.737391 kJ/mol
# Density = 2.207344 g / cm^3
# Si number density = 22.123795 Si / 1000 Ang^3
#
#
#
# Elastic Constant Matrix: (Units=GPa)
#
#
# Indices 1 2 3 4 5 6 
#
# 1 50.7120 12.6907 32.3002 0.0000 0.0000 0.0000
# 2 12.6907 198.1464 78.0527 0.0000 0.0000 0.0000
# 3 32.3002 78.0527 214.8987 0.0000 0.0000 0.0000
# 4 0.0000 0.0000 0.0000 48.9470 0.0000 0.0000
# 5 0.0000 0.0000 0.0000 0.0000 28.9876 0.0000
# 6 0.0000 0.0000 0.0000 0.0000 0.0000 17.6042
#
#
#
# Elastic Compliance Matrix: (Units=1/GPa)
#
#
# Indices 1 2 3 4 5 6 
#
# 1 0.021809 -0.000123 -0.003233 0.000000 0.000000 0.000000
# 2 -0.000123 0.005890 -0.002121 0.000000 0.000000 0.000000
# 3 -0.003233 -0.002121 0.005910 0.000000 0.000000 0.000000
# 4 0.000000 0.000000 0.000000 0.020430 0.000000 0.000000
# 5 0.000000 0.000000 0.000000 0.000000 0.034498 0.000000
# 6 0.000000 0.000000 0.000000 0.000000 0.000000 0.056805
#
#
# Mechanical properties :
#
#
# Convention : Reuss Voigt Hill
#
# Bulk Modulus (GPa) = 44.14124 78.87159 61.50641
# Shear Modulus (GPa) = 30.51617 41.82199 36.16908
#
# Velocity S-wave (km/s) = 3.71797 4.35255 4.04771
# Velocity P-wave (km/s) = 6.19890 7.80942 7.05030
#
# Compressibility (1/GPa) = 0.02265455
#
# Stress axis : x y z
#
# Youngs Moduli (GPa) = 45.85170 169.77703 169.21551
#
# Poissons Ratio (x) = 0.02091 0.54713
# Poissons Ratio (y) = 0.00565 0.35887
# Poissons Ratio (z) = 0.14825 0.36006
#
# Static dielectric constant tensor:
#      x y z
#    x 3.648070 0.000000 0.000000 
#    y 0.000000 4.347290 0.000000 
#    z 0.000000 0.000000 4.180500 
# 
# 
# High freq. dielectric constant tensor:
#      x y z
#    x 1.842990 0.000000 0.000000 
#    y 0.000000 1.893070 0.000000 
#    z 0.000000 0.000000 1.888810 
# 
# From -- ./inp_files/8151.got.cif
#   From: 2010.03.12/outbox.cif.g09.slc.cpg/sg53_5_cif.got.tgz:8151.got - 2010.04.16 14:36:59.
