data_PCOD8221069
_publ_section_title
;
Structure prediction by ZEFSAII (Michael W. Deem and Ramdas Pophale) SiO2 
 PCOD8221069
Probable space group: P M N A
;
_chemical_formula_sum "Si O2"
_cell_formula_units_Z 64
_cell_length_a 9.202482
_cell_length_b 20.518816
_cell_length_c 17.978522
_cell_angle_alpha 90.000000
_cell_angle_beta 90.000000
_cell_angle_gamma 90.000000
_cell_volume 3394.777066
_symmetry_space_group_name_H-M "P M N A"
_symmetry_group_IT_number 53
_symmetry_cell_setting 'orthorhombic'
loop_
_space_group_symop_operation_xyz
x,y,z
1/2-x,-y,1/2+z
x,-y,-z
1/2-x,y,1/2-z
-x,-y,-z
1/2+x,y,1/2-z
-x,y,z
1/2+x,-y,1/2+z
loop_
_atom_site_type_symbol
_atom_site_label
_atom_site_fract_x
_atom_site_fract_y
_atom_site_fract_z
Si Si1 0.329000 0.622732 0.397253
Si Si2 0.329519 0.625018 0.566525
Si Si3 0.673789 0.989354 0.674263
Si Si4 0.669515 0.106318 0.065676
Si Si5 0.827919 0.510741 0.825564
Si Si6 0.669741 0.891411 0.108541
Si Si7 0.160757 0.251633 0.431474
Si Si8 0.839090 0.253673 0.608238
O O1 0.500000 0.629090 0.393474
O O2 0.276440 0.613555 0.482189
O O3 0.273958 0.560406 0.351389
O O4 0.263750 0.688706 0.361372
O O5 0.500000 0.633193 0.570311
O O6 0.277008 0.563103 0.613414
O O7 0.264156 0.691823 0.600489
O O8 0.750000 0.965311 0.750000
O O9 0.500000 0.987548 0.681952
O O10 0.727362 0.062230 0.656534
O O11 0.725264 0.942507 0.608243
O O12 0.500000 0.091409 0.082646
O O13 0.711090 0.179377 0.092901
O O14 0.700197 0.097473 0.978473
O O15 0.750000 0.530077 0.750000
O O16 0.000000 0.512270 0.814495
O O17 0.500000 0.905208 0.125611
O O18 0.712708 0.818003 0.133903
O O19 0.160017 0.253358 0.519848
O O20 0.000000 0.265368 0.400322
O O21 0.000000 0.267828 0.639017
#
# Coordination Sequence:
#
# PCOD8221069 Si02
#       8
#     8   8   8   8   8   8   8   8
#     4   9  17  31  52  75  99 129 166 208 250 293
#     4   9  17  31  52  75  99 129 166 208 250 293
#     4  12  25  38  53  75 105 139 177 218 257 302
#     4   9  18  35  58  81 107 138 169 206 256 309
#     4  10  21  35  49  69  99 134 170 206 250 300
#     4   9  18  35  58  81 107 138 169 206 256 309
#     4   8  15  29  51  79 106 130 160 201 249 300
#     4   8  15  29  51  79 106 130 160 201 249 300
#
# _framework density 18.85249
#
# number of rings (size 3 to 8) (size 9 to 14) (size 15 to 20)
#    0.000    2.750    0.000    3.375    0.000    5.500 
#    0.000    3.750    0.000    6.750    0.000    0.000 
#    0.000    0.000    0.000    0.000    0.000    0.000 
#
# Total GULP energy -793404.858725 kJ/mol
# GULP energy per Si atom -12396.950918 kJ/mol
# Density = 1.880958 g / cm^3
# Si number density = 18.852490 Si / 1000 Ang^3
#
#
#
# Elastic Constant Matrix: (Units=GPa)
#
#
# Indices 1 2 3 4 5 6 
#
# 1 57.0558 31.5531 18.9344 0.0000 0.0000 0.0000
# 2 31.5531 100.4915 5.8759 0.0000 0.0000 0.0000
# 3 18.9344 5.8759 32.3662 0.0000 0.0000 0.0000
# 4 0.0000 0.0000 0.0000 4.4646 0.0000 0.0000
# 5 0.0000 0.0000 0.0000 0.0000 24.7473 0.0000
# 6 0.0000 0.0000 0.0000 0.0000 0.0000 38.2391
#
#
#
# Elastic Compliance Matrix: (Units=1/GPa)
#
#
# Indices 1 2 3 4 5 6 
#
# 1 0.026296 -0.007436 -0.014033 0.000000 0.000000 0.000000
# 2 -0.007436 0.012161 0.002142 0.000000 0.000000 0.000000
# 3 -0.014033 0.002142 0.038717 0.000000 0.000000 0.000000
# 4 0.000000 0.000000 0.000000 0.223985 0.000000 0.000000
# 5 0.000000 0.000000 0.000000 0.000000 0.040409 0.000000
# 6 0.000000 0.000000 0.000000 0.000000 0.000000 0.026151
#
#
# Mechanical properties :
#
#
# Convention : Reuss Voigt Hill
#
# Bulk Modulus (GPa) = 25.96066 33.62672 29.79369
# Shear Modulus (GPa) = 11.92710 22.39352 17.16031
#
# Velocity S-wave (km/s) = 2.51799 3.45023 3.02029
# Velocity P-wave (km/s) = 4.71742 5.80927 5.29158
#
# Compressibility (1/GPa) = 0.03851982
#
# Stress axis : x y z
#
# Youngs Moduli (GPa) = 38.02839 82.23238 25.82832
#
# Poissons Ratio (x) = 0.61149 0.36246
# Poissons Ratio (y) = 0.28278 -0.05534
# Poissons Ratio (z) = 0.53367 -0.17618
#
# Static dielectric constant tensor:
#      x y z
#    x 3.398010 0.000000 0.000000 
#    y 0.000000 3.816970 0.000000 
#    z 0.000000 0.000000 3.173660 
# 
# 
# High freq. dielectric constant tensor:
#      x y z
#    x 1.719300 0.000000 0.000000 
#    y 0.000000 1.749810 0.000000 
#    z 0.000000 0.000000 1.700650 
# 
# From -- ./inp_files/26929.got.cif
#   From: 2010.03.12/outbox.cif.g09.slc.cpg/sg53_14_cif.got.tgz:26929.got - 2010.04.16 14:36:59.
