data_PCOD8221482
_publ_section_title
;
Structure prediction by ZEFSAII (Michael W. Deem and Ramdas Pophale) SiO2 
 PCOD8221482
Probable space group: P M N A
;
_chemical_formula_sum "Si O2"
_cell_formula_units_Z 48
_cell_length_a 9.014855
_cell_length_b 15.111085
_cell_length_c 17.454889
_cell_angle_alpha 90.000000
_cell_angle_beta 90.000000
_cell_angle_gamma 90.000000
_cell_volume 2377.778991
_symmetry_space_group_name_H-M "P M N A"
_symmetry_group_IT_number 53
_symmetry_cell_setting 'orthorhombic'
loop_
_space_group_symop_operation_xyz
x,y,z
1/2-x,-y,1/2+z
x,-y,-z
1/2-x,y,1/2-z
-x,-y,-z
1/2+x,y,1/2-z
-x,y,z
1/2+x,-y,1/2+z
loop_
_atom_site_type_symbol
_atom_site_label
_atom_site_fract_x
_atom_site_fract_y
_atom_site_fract_z
Si Si1 0.330684 0.180321 0.923014
Si Si2 0.673453 0.647734 0.171011
Si Si3 0.827104 0.509569 0.912828
Si Si4 0.824679 0.140406 0.077966
Si Si5 0.172382 0.311145 0.170052
Si Si6 0.328709 0.008506 0.830115
O O1 0.500000 0.176309 0.953230
O O2 0.290876 0.276449 0.890520
O O3 0.307845 0.109886 0.854937
O O4 0.218336 0.160132 0.990982
O O5 0.750000 0.674304 0.250000
O O6 0.500000 0.637999 0.186202
O O7 0.734918 0.555214 0.140855
O O8 0.791275 0.609154 0.887526
O O9 0.000000 0.485959 0.904353
O O10 0.773534 0.500000 0.000000
O O11 0.770171 0.221129 0.131261
O O12 0.743439 0.051917 0.104554
O O13 0.000000 0.126716 0.082368
O O14 0.250000 0.328261 0.250000
O O15 0.000000 0.304728 0.187237
O O16 0.250000 0.990823 0.750000
O O17 0.500000 0.982658 0.820999
#
# Coordination Sequence:
#
# PCOD8221482 Si02
#       6
#     8   8   8   8   8   8
#     4  10  23  41  60  85 118 154 191 237 291 344
#     4  11  23  39  60  87 118 153 195 241 290 344
#     4  10  21  39  61  85 116 153 192 237 290 346
#     4  11  23  39  61  88 116 151 195 239 288 346
#     4  10  22  38  57  83 114 150 190 233 284 340
#     4  11  23  40  61  86 118 154 193 237 287 342
#
# _framework density 20.186904999999999
#
# number of rings (size 3 to 8) (size 9 to 14) (size 15 to 20)
#    0.000    1.500    0.000    4.500    0.000   11.000 
#    0.000    0.000    0.000    0.000    0.000    0.000 
#    0.000    0.000    0.000    0.000    0.000    0.000 
#
# Total GULP energy -595558.067539 kJ/mol
# GULP energy per Si atom -12407.459740 kJ/mol
# Density = 2.014096 g / cm^3
# Si number density = 20.186905 Si / 1000 Ang^3
#
#
#
# Elastic Constant Matrix: (Units=GPa)
#
#
# Indices 1 2 3 4 5 6 
#
# 1 84.6196 31.4602 37.0545 0.0000 0.0000 0.0000
# 2 31.4602 78.3313 2.8362 0.0000 0.0000 0.0000
# 3 37.0545 2.8362 92.9328 0.0000 0.0000 0.0000
# 4 0.0000 0.0000 0.0000 32.0127 0.0000 0.0000
# 5 0.0000 0.0000 0.0000 0.0000 40.2103 0.0000
# 6 0.0000 0.0000 0.0000 0.0000 0.0000 24.5471
#
#
#
# Elastic Compliance Matrix: (Units=1/GPa)
#
#
# Indices 1 2 3 4 5 6 
#
# 1 0.017215 -0.006673 -0.006660 0.000000 0.000000 0.000000
# 2 -0.006673 0.015367 0.002192 0.000000 0.000000 0.000000
# 3 -0.006660 0.002192 0.013349 0.000000 0.000000 0.000000
# 4 0.000000 0.000000 0.000000 0.031238 0.000000 0.000000
# 5 0.000000 0.000000 0.000000 0.000000 0.024869 0.000000
# 6 0.000000 0.000000 0.000000 0.000000 0.000000 0.040738
#
#
# Mechanical properties :
#
#
# Convention : Reuss Voigt Hill
#
# Bulk Modulus (GPa) = 42.28695 44.28729 43.28712
# Shear Modulus (GPa) = 28.91143 31.65621 30.28382
#
# Velocity S-wave (km/s) = 3.78853 3.96429 3.87741
# Velocity P-wave (km/s) = 6.33486 6.55289 6.44480
#
# Compressibility (1/GPa) = 0.02364796
#
# Stress axis : x y z
#
# Youngs Moduli (GPa) = 58.08884 65.07467 74.91069
#
# Poissons Ratio (x) = 0.43424 0.49893
# Poissons Ratio (y) = 0.38762 -0.16418
# Poissons Ratio (z) = 0.38689 -0.14262
#
# Static dielectric constant tensor:
#      x y z
#    x 3.676800 0.000000 0.000000 
#    y 0.000000 3.851630 0.000000 
#    z 0.000000 0.000000 3.667770 
# 
# 
# High freq. dielectric constant tensor:
#      x y z
#    x 1.789820 0.000000 0.000000 
#    y 0.000000 1.803610 0.000000 
#    z 0.000000 0.000000 1.797730 
# 
# From -- ./inp_files/26170.got.cif
#   From: 2010.03.12/outbox.cif.g09.slc.cpg/sg53_14_cif.got.tgz:26170.got - 2010.04.16 14:36:59.
