data_PCOD8221530
_publ_section_title
;
Structure prediction by ZEFSAII (Michael W. Deem and Ramdas Pophale) SiO2 
 PCOD8221530
Probable space group: P M N A
;
_chemical_formula_sum "Si O2"
_cell_formula_units_Z 64
_cell_length_a 15.771947
_cell_length_b 12.775729
_cell_length_c 15.440694
_cell_angle_alpha 90.000000
_cell_angle_beta 90.000000
_cell_angle_gamma 90.000000
_cell_volume 3111.270823
_symmetry_space_group_name_H-M "P M N A"
_symmetry_group_IT_number 53
_symmetry_cell_setting 'orthorhombic'
loop_
_space_group_symop_operation_xyz
x,y,z
1/2-x,-y,1/2+z
x,-y,-z
1/2-x,y,1/2-z
-x,-y,-z
1/2+x,y,1/2-z
-x,y,z
1/2+x,-y,1/2+z
loop_
_atom_site_type_symbol
_atom_site_label
_atom_site_fract_x
_atom_site_fract_y
_atom_site_fract_z
Si Si1 0.681590 0.923576 0.674737
Si Si2 0.097350 0.567890 0.414838
Si Si3 0.405495 0.511469 0.734878
Si Si4 0.244616 0.710177 0.477411
Si Si5 0.904442 0.103551 0.743079
Si Si6 0.902797 0.295768 0.861453
Si Si7 0.300503 0.306545 0.338067
Si Si8 0.699963 0.066115 0.927338
O O1 0.750000 0.914119 0.750000
O O2 0.651810 0.806091 0.647623
O O3 0.602102 0.990966 0.709848
O O4 0.722411 0.989186 0.596595
O O5 0.098799 0.500000 0.500000
O O6 0.127781 0.495391 0.334109
O O7 0.165491 0.660703 0.425204
O O8 0.000000 0.610140 0.398636
O O9 0.500000 0.553958 0.736309
O O10 0.398286 0.394657 0.700442
O O11 0.359861 0.593346 0.672516
O O12 0.337215 0.681632 0.438861
O O13 0.242549 0.672265 0.577455
O O14 0.236086 0.833742 0.475879
O O15 0.870657 0.195073 0.806645
O O16 0.852370 0.103531 0.654895
O O17 0.000000 0.127770 0.717500
O O18 0.000000 0.279591 0.895774
O O19 0.250000 0.297081 0.250000
O O20 0.646255 0.000000 0.000000
#
# Coordination Sequence:
#
# PCOD8221530 Si02
#       8
#     8   8   8   8   8   8   8   8
#     4   9  19  38  60  84 122 163 205 255 308 371
#     4  10  23  43  64  93 130 167 216 269 321 391
#     4  10  23  42  62  87 126 165 203 266 328 379
#     4  12  24  38  69  96 123 174 215 265 330 390
#     4  10  21  39  64  94 128 168 213 268 330 384
#     4  10  23  41  63  97 128 158 212 274 324 377
#     4  11  24  40  61  90 125 167 216 257 312 402
#     4  11  21  38  61  92 130 167 214 266 321 383
#
# _framework density 20.570371999999999
#
# number of rings (size 3 to 8) (size 9 to 14) (size 15 to 20)
#    0.000    1.625    2.500    1.500    3.500    3.750 
#    0.000    1.250    0.000    2.250    0.000    0.000 
#    0.000    0.000    0.000    0.000    0.000    0.000 
#
# Total GULP energy -793140.178528 kJ/mol
# GULP energy per Si atom -12392.815290 kJ/mol
# Density = 2.052355 g / cm^3
# Si number density = 20.570372 Si / 1000 Ang^3
#
#
#
# Elastic Constant Matrix: (Units=GPa)
#
#
# Indices 1 2 3 4 5 6 
#
# 1 81.6134 34.8093 42.2554 0.0000 0.0000 0.0000
# 2 34.8093 106.8781 23.6949 0.0000 0.0000 0.0000
# 3 42.2554 23.6949 103.0397 0.0000 0.0000 0.0000
# 4 0.0000 0.0000 0.0000 34.4150 0.0000 0.0000
# 5 0.0000 0.0000 0.0000 0.0000 27.4345 0.0000
# 6 0.0000 0.0000 0.0000 0.0000 0.0000 17.6105
#
#
#
# Elastic Compliance Matrix: (Units=1/GPa)
#
#
# Indices 1 2 3 4 5 6 
#
# 1 0.017218 -0.004260 -0.006082 0.000000 0.000000 0.000000
# 2 -0.004260 0.010913 -0.000763 0.000000 0.000000 0.000000
# 3 -0.006082 -0.000763 0.012374 0.000000 0.000000 0.000000
# 4 0.000000 0.000000 0.000000 0.029057 0.000000 0.000000
# 5 0.000000 0.000000 0.000000 0.000000 0.036450 0.000000
# 6 0.000000 0.000000 0.000000 0.000000 0.000000 0.056784
#
#
# Mechanical properties :
#
#
# Convention : Reuss Voigt Hill
#
# Bulk Modulus (GPa) = 54.65098 54.78340 54.71719
# Shear Modulus (GPa) = 26.16371 28.61010 27.38691
#
# Velocity S-wave (km/s) = 3.57026 3.73344 3.65276
# Velocity P-wave (km/s) = 6.60463 6.72865 6.66693
#
# Compressibility (1/GPa) = 0.01829793
#
# Stress axis : x y z
#
# Youngs Moduli (GPa) = 58.07746 91.63499 80.81229
#
# Poissons Ratio (x) = 0.39033 0.49146
# Poissons Ratio (y) = 0.24739 0.06164
# Poissons Ratio (z) = 0.35320 0.06989
#
# Static dielectric constant tensor:
#      x y z
#    x 3.629090 0.000000 0.000000 
#    y 0.000000 4.042700 0.000000 
#    z 0.000000 0.000000 3.822070 
# 
# 
# High freq. dielectric constant tensor:
#      x y z
#    x 1.777730 0.000000 0.000000 
#    y 0.000000 1.818760 0.000000 
#    z 0.000000 0.000000 1.815240 
# 
# From -- ./inp_files/23901.got.cif
#   From: 2010.03.12/outbox.cif.g09.slc.cpg/sg53_12_cif.got.tgz:23901.got - 2010.04.16 14:36:59.
