data_PCOD8221247
_publ_section_title
;
Structure prediction by ZEFSAII (Michael W. Deem and Ramdas Pophale) SiO2 
 PCOD8221247
Probable space group: P M N A
;
_chemical_formula_sum "Si O2"
_cell_formula_units_Z 64
_cell_length_a 8.693390
_cell_length_b 15.023918
_cell_length_c 24.389859
_cell_angle_alpha 90.000000
_cell_angle_beta 90.000000
_cell_angle_gamma 90.000000
_cell_volume 3185.529692
_symmetry_space_group_name_H-M "P M N A"
_symmetry_group_IT_number 53
_symmetry_cell_setting 'orthorhombic'
loop_
_space_group_symop_operation_xyz
x,y,z
1/2-x,-y,1/2+z
x,-y,-z
1/2-x,y,1/2-z
-x,-y,-z
1/2+x,y,1/2-z
-x,y,z
1/2+x,-y,1/2+z
loop_
_atom_site_type_symbol
_atom_site_label
_atom_site_fract_x
_atom_site_fract_y
_atom_site_fract_z
Si Si1 0.681606 0.930832 0.808256
Si Si2 0.176579 0.268530 0.489530
Si Si3 0.675776 0.362140 0.193060
Si Si4 0.319207 0.119235 0.692058
Si Si5 0.679350 0.264402 0.883361
Si Si6 0.327533 0.537088 0.137142
Si Si7 0.836080 0.566068 0.952731
Si Si8 0.679683 0.781288 0.617764
O O1 0.750000 0.901227 0.750000
O O2 0.500000 0.938504 0.803076
O O3 0.725976 0.858266 0.852786
O O4 0.748025 0.025756 0.826953
O O5 0.229965 0.261477 0.552721
O O6 0.197535 0.369974 0.470205
O O7 0.279663 0.210805 0.447174
O O8 0.000000 0.240314 0.483184
O O9 0.750000 0.330972 0.250000
O O10 0.500000 0.328341 0.191520
O O11 0.681542 0.470624 0.189657
O O12 0.765860 0.315020 0.142205
O O13 0.250000 0.150445 0.750000
O O14 0.500000 0.107937 0.698664
O O15 0.282302 0.191982 0.646482
O O16 0.500000 0.240588 0.877503
O O17 0.715163 0.359329 0.853615
O O18 0.500000 0.534783 0.112110
O O19 0.205310 0.496334 0.097044
O O20 0.000000 0.617620 0.939807
O O21 0.874660 0.500000 0.000000
O O22 0.500000 0.796047 0.627638
#
# Coordination Sequence:
#
# PCOD8221247 Si02
#       8
#     8   8   8   8   8   8   8   8
#     4  11  22  41  68  95 122 154 198 248 300 362
#     4  11  22  37  59  86 121 163 205 247 297 358
#     4  11  23  38  56  81 117 160 205 251 305 362
#     4  11  23  42  68  95 123 155 195 248 303 358
#     4  10  22  40  62  90 122 161 205 251 301 356
#     4  10  21  37  57  80 113 157 203 247 295 354
#     4  11  21  32  52  82 115 152 200 250 295 344
#     4  12  24  39  60  89 124 158 198 249 303 361
#
# _framework density 20.090851000000001
#
# number of rings (size 3 to 8) (size 9 to 14) (size 15 to 20)
#    0.000    1.125    2.500    5.625    0.000    3.000 
#    0.000    1.875    0.000    3.750    0.000    0.000 
#    0.000    0.000    0.000    0.000    0.000    0.000 
#
# Total GULP energy -793324.485494 kJ/mol
# GULP energy per Si atom -12395.695086 kJ/mol
# Density = 2.004512 g / cm^3
# Si number density = 20.090851 Si / 1000 Ang^3
#
#
#
# Elastic Constant Matrix: (Units=GPa)
#
#
# Indices 1 2 3 4 5 6 
#
# 1 126.0953 36.5741 37.4650 0.0000 0.0000 0.0000
# 2 36.5741 105.5031 40.8211 0.0000 0.0000 0.0000
# 3 37.4650 40.8211 78.3500 0.0000 0.0000 0.0000
# 4 0.0000 0.0000 0.0000 30.1082 0.0000 0.0000
# 5 0.0000 0.0000 0.0000 0.0000 31.1902 0.0000
# 6 0.0000 0.0000 0.0000 0.0000 0.0000 29.7027
#
#
#
# Elastic Compliance Matrix: (Units=1/GPa)
#
#
# Indices 1 2 3 4 5 6 
#
# 1 0.009549 -0.001933 -0.003559 0.000000 0.000000 0.000000
# 2 -0.001933 0.012263 -0.005465 0.000000 0.000000 0.000000
# 3 -0.003559 -0.005465 0.017312 0.000000 0.000000 0.000000
# 4 0.000000 0.000000 0.000000 0.033214 0.000000 0.000000
# 5 0.000000 0.000000 0.000000 0.000000 0.032061 0.000000
# 6 0.000000 0.000000 0.000000 0.000000 0.000000 0.033667
#
#
# Mechanical properties :
#
#
# Convention : Reuss Voigt Hill
#
# Bulk Modulus (GPa) = 58.10432 59.96321 59.03377
# Shear Modulus (GPa) = 30.17220 31.20610 30.68915
#
# Velocity S-wave (km/s) = 3.87950 3.94540 3.91259
# Velocity P-wave (km/s) = 7.00363 7.11799 7.06104
#
# Compressibility (1/GPa) = 0.01721043
#
# Stress axis : x y z
#
# Youngs Moduli (GPa) = 104.72757 81.54630 57.76318
#
# Poissons Ratio (x) = 0.15765 0.20556
# Poissons Ratio (y) = 0.20246 0.31566
# Poissons Ratio (z) = 0.37269 0.44563
#
# Static dielectric constant tensor:
#      x y z
#    x 3.728360 0.000000 0.000000 
#    y 0.000000 3.585820 0.000000 
#    z 0.000000 0.000000 3.651320 
# 
# 
# High freq. dielectric constant tensor:
#      x y z
#    x 1.798440 0.000000 0.000000 
#    y 0.000000 1.774620 0.000000 
#    z 0.000000 0.000000 1.778790 
# 
# From -- ./inp_files/34264.got.cif
#   From: 2010.03.12/outbox.cif.g09.slc.cpg/sg53_18_cif.got.tgz:34264.got - 2010.04.16 14:36:59.
