data_PCOD8221366
_publ_section_title
;
Structure prediction by ZEFSAII (Michael W. Deem and Ramdas Pophale) SiO2 
 PCOD8221366
Probable space group: P M N A
;
_chemical_formula_sum "Si O2"
_cell_formula_units_Z 36
_cell_length_a 25.844855
_cell_length_b 15.703683
_cell_length_c 5.060172
_cell_angle_alpha 90.000000
_cell_angle_beta 90.000000
_cell_angle_gamma 90.000000
_cell_volume 2053.718423
_symmetry_space_group_name_H-M "P M N A"
_symmetry_group_IT_number 53
_symmetry_cell_setting 'orthorhombic'
loop_
_space_group_symop_operation_xyz
x,y,z
1/2-x,-y,1/2+z
x,-y,-z
1/2-x,y,1/2-z
-x,-y,-z
1/2+x,y,1/2-z
-x,y,z
1/2+x,-y,1/2+z
loop_
_atom_site_type_symbol
_atom_site_label
_atom_site_fract_x
_atom_site_fract_y
_atom_site_fract_z
Si Si1 0.218689 0.500000 0.000000
Si Si2 0.689771 0.243474 0.815495
Si Si3 0.845011 0.660046 0.828091
Si Si4 0.941167 0.442393 0.253417
Si Si5 0.688468 0.950045 0.247087
O O1 0.250000 0.459273 0.750000
O O2 0.185743 0.571840 0.852240
O O3 0.750000 0.252554 0.750000
O O4 0.655090 0.296090 0.612433
O O5 0.670170 0.147026 0.780200
O O6 0.680816 0.277953 0.111596
O O7 0.904250 0.640000 0.751252
O O8 0.925945 0.500000 0.500000
O O9 0.000000 0.408980 0.271420
O O10 0.931746 0.500000 0.000000
O O11 0.750000 0.953173 0.250000
O O12 0.665954 0.000000 0.500000
O O13 0.665310 0.000000 0.000000
#
# Coordination Sequence:
#
# PCOD8221366 Si02
#       5
#     4   8   8   8   8
#     4  12  24  34  47  68 103 148 182 200 234 298
#     4  11  22  34  49  76 108 138 167 208 249 294
#     4  12  22  35  51  72 103 135 176 212 250 296
#     4  10  21  38  56  72  92 127 176 224 264 292
#     4   9  17  31  50  69  96 133 169 201 244 296
#
# _framework density 17.529181999999999
#
# number of rings (size 3 to 8) (size 9 to 14) (size 15 to 20)
#    0.000    1.333    1.111    6.667    1.556    3.556 
#    0.000    0.000    0.000    0.000    0.000    0.000 
#    0.000   17.778    0.000    0.000    0.000    0.000 
#
# Total GULP energy -446413.187460 kJ/mol
# GULP energy per Si atom -12400.366318 kJ/mol
# Density = 1.748928 g / cm^3
# Si number density = 17.529182 Si / 1000 Ang^3
#
#
#
# Elastic Constant Matrix: (Units=GPa)
#
#
# Indices 1 2 3 4 5 6 
#
# 1 65.1946 29.9830 14.7860 0.0000 0.0000 0.0000
# 2 29.9830 112.2125 38.1396 0.0000 0.0000 0.0000
# 3 14.7860 38.1396 118.4223 0.0000 0.0000 0.0000
# 4 0.0000 0.0000 0.0000 36.0635 0.0000 0.0000
# 5 0.0000 0.0000 0.0000 0.0000 21.8286 0.0000
# 6 0.0000 0.0000 0.0000 0.0000 0.0000 8.5856
#
#
#
# Elastic Compliance Matrix: (Units=1/GPa)
#
#
# Indices 1 2 3 4 5 6 
#
# 1 0.017549 -0.004429 -0.000765 0.000000 0.000000 0.000000
# 2 -0.004429 0.011125 -0.003030 0.000000 0.000000 0.000000
# 3 -0.000765 -0.003030 0.009516 0.000000 0.000000 0.000000
# 4 0.000000 0.000000 0.000000 0.027729 0.000000 0.000000
# 5 0.000000 0.000000 0.000000 0.000000 0.045811 0.000000
# 6 0.000000 0.000000 0.000000 0.000000 0.000000 0.116473
#
#
# Mechanical properties :
#
#
# Convention : Reuss Voigt Hill
#
# Bulk Modulus (GPa) = 45.99363 51.29409 48.64386
# Shear Modulus (GPa) = 19.84927 27.49027 23.66977
#
# Velocity S-wave (km/s) = 3.36870 3.96442 3.67864
# Velocity P-wave (km/s) = 6.43631 7.09092 6.77153
#
# Compressibility (1/GPa) = 0.02174214
#
# Stress axis : x y z
#
# Youngs Moduli (GPa) = 56.98298 89.88785 105.08985
#
# Poissons Ratio (x) = 0.39813 0.08036
# Poissons Ratio (y) = 0.25239 0.31842
# Poissons Ratio (z) = 0.04357 0.27235
#
# Static dielectric constant tensor:
#      x y z
#    x 3.025400 0.000000 0.000000 
#    y 0.000000 3.311920 0.000000 
#    z 0.000000 0.000000 3.546560 
# 
# 
# High freq. dielectric constant tensor:
#      x y z
#    x 1.630590 0.000000 0.000000 
#    y 0.000000 1.671560 0.000000 
#    z 0.000000 0.000000 1.706420 
# 
# From -- ./inp_files/3585.got.cif
#   From: 2010.03.12/outbox.cif.g09.slc.cpg/sg53_2_cif.got.tgz:3585.got - 2010.04.16 14:36:59.
