data_PCOD8221317
_publ_section_title
;
Structure prediction by ZEFSAII (Michael W. Deem and Ramdas Pophale) SiO2 
 PCOD8221317
Probable space group: P M N A
;
_chemical_formula_sum "Si O2"
_cell_formula_units_Z 48
_cell_length_a 7.996336
_cell_length_b 9.880975
_cell_length_c 30.870413
_cell_angle_alpha 90.000000
_cell_angle_beta 90.000000
_cell_angle_gamma 90.000000
_cell_volume 2439.120604
_symmetry_space_group_name_H-M "P M N A"
_symmetry_group_IT_number 53
_symmetry_cell_setting 'orthorhombic'
loop_
_space_group_symop_operation_xyz
x,y,z
1/2-x,-y,1/2+z
x,-y,-z
1/2-x,y,1/2-z
-x,-y,-z
1/2+x,y,1/2-z
-x,y,z
1/2+x,-y,1/2+z
loop_
_atom_site_type_symbol
_atom_site_label
_atom_site_fract_x
_atom_site_fract_y
_atom_site_fract_z
Si Si1 0.000000 0.587042 0.936412
Si Si2 0.188375 0.462689 0.705125
Si Si3 0.000000 0.289918 0.971749
Si Si4 0.194111 0.028299 0.126877
Si Si5 0.802239 0.836550 0.297664
Si Si6 0.815797 0.325036 0.141068
Si Si7 0.690523 0.096996 0.959804
O O1 0.000000 0.429699 0.946356
O O2 0.166183 0.622649 0.908549
O O3 0.000000 0.684515 0.977362
O O4 0.250000 0.528669 0.750000
O O5 0.272109 0.316205 0.695519
O O6 0.202689 0.569672 0.666735
O O7 0.000000 0.422656 0.712182
O O8 0.170432 0.214153 0.958663
O O9 0.211480 0.926418 0.166545
O O10 0.299331 0.983240 0.085254
O O11 0.000000 0.041964 0.113325
O O12 0.264077 0.175452 0.141514
O O13 0.750000 0.888651 0.250000
O O14 0.000000 0.849450 0.304508
O O15 0.000000 0.322351 0.163442
O O16 0.500000 0.154754 0.964109
O O17 0.732173 0.000000 0.000000
#
# Coordination Sequence:
#
# PCOD8221317 Si02
#       7
#     4   8   4   8   8   8   8
#     4   9  22  40  64  92 122 165 210 257 314 384
#     4  10  21  37  59  85 116 159 201 253 309 372
#     4  11  21  42  68  92 125 172 209 266 327 368
#     4  11  22  38  62  90 121 164 207 256 317 372
#     4  10  22  39  59  89 122 157 207 263 314 373
#     4   9  21  38  57  84 118 158 201 249 301 375
#     4  11  24  39  63  96 128 167 215 264 317 386
#
# _framework density 19.679224000000001
#
# number of rings (size 3 to 8) (size 9 to 14) (size 15 to 20)
#    0.500    1.333    0.833    2.750    2.333    4.000 
#    0.000    2.500    0.000    0.000    0.000    0.000 
#    0.000    0.000    0.000    0.000    0.000    0.000 
#
# Total GULP energy -595030.027644 kJ/mol
# GULP energy per Si atom -12396.458909 kJ/mol
# Density = 1.963443 g / cm^3
# Si number density = 19.679224 Si / 1000 Ang^3
#
#
#
# Elastic Constant Matrix: (Units=GPa)
#
#
# Indices 1 2 3 4 5 6 
#
# 1 69.6514 26.3985 12.4111 0.0000 0.0000 0.0000
# 2 26.3985 117.5096 66.1351 0.0000 0.0000 0.0000
# 3 12.4111 66.1351 131.0031 0.0000 0.0000 0.0000
# 4 0.0000 0.0000 0.0000 28.2350 0.0000 0.0000
# 5 0.0000 0.0000 0.0000 0.0000 31.2724 0.0000
# 6 0.0000 0.0000 0.0000 0.0000 0.0000 45.7053
#
#
#
# Elastic Compliance Matrix: (Units=1/GPa)
#
#
# Indices 1 2 3 4 5 6 
#
# 1 0.015709 -0.003760 0.000410 0.000000 0.000000 0.000000
# 2 -0.003760 0.012787 -0.006099 0.000000 0.000000 0.000000
# 3 0.000410 -0.006099 0.010674 0.000000 0.000000 0.000000
# 4 0.000000 0.000000 0.000000 0.035417 0.000000 0.000000
# 5 0.000000 0.000000 0.000000 0.000000 0.031977 0.000000
# 6 0.000000 0.000000 0.000000 0.000000 0.000000 0.021879
#
#
# Mechanical properties :
#
#
# Convention : Reuss Voigt Hill
#
# Bulk Modulus (GPa) = 49.32978 58.67262 54.00120
# Shear Modulus (GPa) = 32.44663 35.25717 33.85190
#
# Velocity S-wave (km/s) = 4.06492 4.23731 4.15201
# Velocity P-wave (km/s) = 6.86679 7.33614 7.10534
#
# Compressibility (1/GPa) = 0.02027173
#
# Stress axis : x y z
#
# Youngs Moduli (GPa) = 63.65724 78.20281 93.68793
#
# Poissons Ratio (x) = 0.29402 -0.03839
# Poissons Ratio (y) = 0.23933 0.57143
# Poissons Ratio (z) = -0.02608 0.47698
#
# Static dielectric constant tensor:
#      x y z
#    x 3.439830 0.000000 0.000000 
#    y 0.000000 3.524560 0.000000 
#    z 0.000000 0.000000 3.530020 
# 
# 
# High freq. dielectric constant tensor:
#      x y z
#    x 1.757600 0.000000 0.000000 
#    y 0.000000 1.768050 0.000000 
#    z 0.000000 0.000000 1.771850 
# 
# From -- ./inp_files/37855.got.cif
#   From: 2010.03.12/outbox.cif.g09.slc.cpg/sg53_19_cif.got.tgz:37855.got - 2010.04.16 14:36:59.
