data_PCOD8221720
_publ_section_title
;
Structure prediction by ZEFSAII (Michael W. Deem and Ramdas Pophale) SiO2 
 PCOD8221720
Probable space group: P M N A
;
_chemical_formula_sum "Si O2"
_cell_formula_units_Z 48
_cell_length_a 10.101629
_cell_length_b 15.035668
_cell_length_c 16.787798
_cell_angle_alpha 90.000000
_cell_angle_beta 90.000000
_cell_angle_gamma 90.000000
_cell_volume 2549.810333
_symmetry_space_group_name_H-M "P M N A"
_symmetry_group_IT_number 53
_symmetry_cell_setting 'orthorhombic'
loop_
_space_group_symop_operation_xyz
x,y,z
1/2-x,-y,1/2+z
x,-y,-z
1/2-x,y,1/2-z
-x,-y,-z
1/2+x,y,1/2-z
-x,y,z
1/2+x,-y,1/2+z
loop_
_atom_site_type_symbol
_atom_site_label
_atom_site_fract_x
_atom_site_fract_y
_atom_site_fract_z
Si Si1 0.261191 0.232265 0.066014
Si Si2 0.000000 0.009686 0.593991
Si Si3 0.846798 0.313122 0.681437
Si Si4 0.152068 0.400904 0.516486
Si Si5 0.500000 0.838366 0.647087
Si Si6 0.500000 0.181233 0.168066
Si Si7 0.268108 0.863600 0.096568
Si Si8 0.000000 0.033194 0.910048
O O1 0.123091 0.203395 0.101793
O O2 0.370303 0.228792 0.134518
O O3 0.255448 0.332740 0.032414
O O4 0.298338 0.165234 0.994327
O O5 0.000000 0.920161 0.642796
O O6 0.000000 0.000000 0.500000
O O7 0.129988 0.061004 0.621974
O O8 0.750000 0.349921 0.750000
O O9 0.836794 0.383589 0.610305
O O10 0.788229 0.218529 0.655185
O O11 0.000000 0.303982 0.709717
O O12 0.203721 0.500000 0.500000
O O13 0.000000 0.388265 0.488373
O O14 0.500000 0.807311 0.737620
O O15 0.500000 0.945773 0.645268
O O16 0.123480 0.903883 0.107898
O O17 0.000000 0.000000 0.000000
#
# Coordination Sequence:
#
# PCOD8221720 Si02
#       8
#     8   4   8   8   4   4   8   4
#     4  11  20  40  61  85 115 154 202 243 301 358
#     4  12  20  34  60  80 109 152 214 263 280 337
#     4  10  22  39  62  94 127 156 197 253 310 356
#     4   9  19  40  72  96 114 155 205 241 288 372
#     4  12  26  38  53  86 128 160 197 253 302 352
#     4  12  24  36  57  82 116 162 205 251 292 344
#     4  11  21  36  61  83 111 163 207 248 296 360
#     4  12  22  38  56  82 121 166 202 251 308 345
#
# _framework density 18.824929999999998
#
# number of rings (size 3 to 8) (size 9 to 14) (size 15 to 20)
#    0.000    1.167    5.000    2.000    1.167    1.333 
#    1.500    2.083    0.000    0.000    0.000    0.000 
#    0.000    0.000    0.000    0.000    0.000    0.000 
#
# Total GULP energy -595350.088216 kJ/mol
# GULP energy per Si atom -12403.126838 kJ/mol
# Density = 1.878208 g / cm^3
# Si number density = 18.824930 Si / 1000 Ang^3
#
#
#
# Elastic Constant Matrix: (Units=GPa)
#
#
# Indices 1 2 3 4 5 6 
#
# 1 124.8561 47.4321 30.7325 0.0000 0.0000 0.0000
# 2 47.4321 115.2333 33.0693 0.0000 0.0000 0.0000
# 3 30.7325 33.0693 83.6467 0.0000 0.0000 0.0000
# 4 0.0000 0.0000 0.0000 18.0006 0.0000 0.0000
# 5 0.0000 0.0000 0.0000 0.0000 27.8705 0.0000
# 6 0.0000 0.0000 0.0000 0.0000 0.0000 25.0709
#
#
#
# Elastic Compliance Matrix: (Units=1/GPa)
#
#
# Indices 1 2 3 4 5 6 
#
# 1 0.009864 -0.003407 -0.002277 0.000000 0.000000 0.000000
# 2 -0.003407 0.010965 -0.003083 0.000000 0.000000 0.000000
# 3 -0.002277 -0.003083 0.014011 0.000000 0.000000 0.000000
# 4 0.000000 0.000000 0.000000 0.055554 0.000000 0.000000
# 5 0.000000 0.000000 0.000000 0.000000 0.035880 0.000000
# 6 0.000000 0.000000 0.000000 0.000000 0.000000 0.039887
#
#
# Mechanical properties :
#
#
# Convention : Reuss Voigt Hill
#
# Bulk Modulus (GPa) = 57.78619 60.68933 59.23776
# Shear Modulus (GPa) = 26.39029 28.35522 27.37276
#
# Velocity S-wave (km/s) = 3.74823 3.88527 3.81736
# Velocity P-wave (km/s) = 7.03531 7.24126 7.13903
#
# Compressibility (1/GPa) = 0.01730517
#
# Stress axis : x y z
#
# Youngs Moduli (GPa) = 101.37956 91.19805 71.37378
#
# Poissons Ratio (x) = 0.31068 0.16254
# Poissons Ratio (y) = 0.34536 0.22007
# Poissons Ratio (z) = 0.23087 0.28120
#
# Static dielectric constant tensor:
#      x y z
#    x 3.507270 0.000000 0.000000 
#    y 0.000000 3.412080 0.000000 
#    z 0.000000 0.000000 3.658160 
# 
# 
# High freq. dielectric constant tensor:
#      x y z
#    x 1.736810 0.000000 0.000000 
#    y 0.000000 1.722420 0.000000 
#    z 0.000000 0.000000 1.726240 
# 
# From -- ./inp_files/26360.got.cif
#   From: 2010.03.12/outbox.cif.g09.slc.cpg/sg53_14_cif.got.tgz:26360.got - 2010.04.16 14:36:59.
