data_PCOD8221088
_publ_section_title
;
Structure prediction by ZEFSAII (Michael W. Deem and Ramdas Pophale) SiO2 
 PCOD8221088
Probable space group: P M N A
;
_chemical_formula_sum "Si O2"
_cell_formula_units_Z 48
_cell_length_a 8.712757
_cell_length_b 30.484551
_cell_length_c 9.131902
_cell_angle_alpha 90.000000
_cell_angle_beta 90.000000
_cell_angle_gamma 90.000000
_cell_volume 2425.474129
_symmetry_space_group_name_H-M "P M N A"
_symmetry_group_IT_number 53
_symmetry_cell_setting 'orthorhombic'
loop_
_space_group_symop_operation_xyz
x,y,z
1/2-x,-y,1/2+z
x,-y,-z
1/2-x,y,1/2-z
-x,-y,-z
1/2+x,y,1/2-z
-x,y,z
1/2+x,-y,1/2+z
loop_
_atom_site_type_symbol
_atom_site_label
_atom_site_fract_x
_atom_site_fract_y
_atom_site_fract_z
Si Si1 0.318454 0.541250 0.092286
Si Si2 0.318511 0.378515 0.096193
Si Si3 0.681948 0.121112 0.409745
Si Si4 0.322712 0.043700 0.906940
Si Si5 0.818672 0.199149 0.590349
Si Si6 0.320063 0.719465 0.903341
O O1 0.250000 0.536411 0.250000
O O2 0.500000 0.540937 0.101468
O O3 0.257591 0.500000 0.000000
O O4 0.258394 0.586955 0.023438
O O5 0.250000 0.393387 0.250000
O O6 0.500000 0.380204 0.109281
O O7 0.261477 0.329401 0.054229
O O8 0.750000 0.112298 0.250000
O O9 0.500000 0.124034 0.398136
O O10 0.728322 0.081952 0.516317
O O11 0.747265 0.165979 0.474209
O O12 0.250000 0.034343 0.750000
O O13 0.500000 0.057910 0.891122
O O14 0.305640 0.000000 0.000000
O O15 0.750000 0.191209 0.750000
O O16 0.773664 0.247764 0.534203
O O17 0.000000 0.191933 0.597509
O O18 0.250000 0.735516 0.750000
O O19 0.500000 0.719603 0.879227
#
# Coordination Sequence:
#
# PCOD8221088 Si02
#       6
#     8   8   8   8   8   8
#     4  10  21  35  52  76 106 139 177 222 270 324
#     4   9  18  34  54  78 107 139 179 224 272 327
#     4  12  25  42  64  89 119 154 194 239 288 341
#     4  11  24  42  65  93 125 160 198 240 287 338
#     4  11  23  39  58  83 115 150 190 235 285 337
#     4   9  19  35  56  80 108 143 182 227 276 330
#
# _framework density 19.789944999999999
#
# number of rings (size 3 to 8) (size 9 to 14) (size 15 to 20)
#    0.000    1.667    0.000    4.500    0.000    7.000 
#    0.000    0.000    0.000    0.000    0.000    0.000 
#    0.000    0.000    0.000    0.000    0.000    0.000 
#
# Total GULP energy -595338.200552 kJ/mol
# GULP energy per Si atom -12402.879178 kJ/mol
# Density = 1.974490 g / cm^3
# Si number density = 19.789945 Si / 1000 Ang^3
#
#
#
# Elastic Constant Matrix: (Units=GPa)
#
#
# Indices 1 2 3 4 5 6 
#
# 1 79.7123 42.0309 42.1920 0.0000 0.0000 0.0000
# 2 42.0309 111.8798 54.8616 0.0000 0.0000 0.0000
# 3 42.1920 54.8616 135.9741 0.0000 0.0000 0.0000
# 4 0.0000 0.0000 0.0000 22.9758 0.0000 0.0000
# 5 0.0000 0.0000 0.0000 0.0000 35.3830 0.0000
# 6 0.0000 0.0000 0.0000 0.0000 0.0000 -33.0816
#
#
#
# Elastic Compliance Matrix: (Units=1/GPa)
#
#
# Indices 1 2 3 4 5 6 
#
# 1 0.016764 -0.004671 -0.003317 0.000000 0.000000 0.000000
# 2 -0.004671 0.012444 -0.003571 0.000000 0.000000 0.000000
# 3 -0.003317 -0.003571 0.009825 0.000000 0.000000 0.000000
# 4 0.000000 0.000000 0.000000 0.043524 0.000000 0.000000
# 5 0.000000 0.000000 0.000000 0.000000 0.028262 0.000000
# 6 0.000000 0.000000 0.000000 0.000000 0.000000 -0.030228
#
#
# Mechanical properties :
#
#
# Convention : Reuss Voigt Hill
#
# Bulk Modulus (GPa) = 62.84052 67.30391 65.07221
# Shear Modulus (GPa) = 45.86532 17.62090 31.74311
#
# Velocity S-wave (km/s) = 4.81938 2.98719 4.00934
# Velocity P-wave (km/s) = 7.92409 6.78091 7.37468
#
# Compressibility (1/GPa) = 0.01591330
#
# Stress axis : x y z
#
# Youngs Moduli (GPa) = 59.65185 80.35748 101.78564
#
# Poissons Ratio (x) = 0.37538 0.33762
# Poissons Ratio (y) = 0.27865 0.36352
# Poissons Ratio (z) = 0.19787 0.28699
#
# Static dielectric constant tensor:
#      x y z
#    x 3.631000 0.000000 0.000000 
#    y 0.000000 4.111810 0.000000 
#    z 0.000000 0.000000 3.582590 
# 
# 
# High freq. dielectric constant tensor:
#      x y z
#    x 1.772400 0.000000 0.000000 
#    y 0.000000 1.790260 0.000000 
#    z 0.000000 0.000000 1.776850 
# 
# From -- ./inp_files/6689.got.cif
#   From: 2010.03.12/outbox.cif.g09.slc.cpg/sg53_4_cif.got.tgz:6689.got - 2010.04.16 14:36:59.
