data_PCOD8221118
_publ_section_title
;
Structure prediction by ZEFSAII (Michael W. Deem and Ramdas Pophale) SiO2 
 PCOD8221118
Probable space group: P M N A
;
_chemical_formula_sum "Si O2"
_cell_formula_units_Z 48
_cell_length_a 9.095439
_cell_length_b 31.511622
_cell_length_c 9.164457
_cell_angle_alpha 90.000000
_cell_angle_beta 90.000000
_cell_angle_gamma 90.000000
_cell_volume 2626.643677
_symmetry_space_group_name_H-M "P M N A"
_symmetry_group_IT_number 53
_symmetry_cell_setting 'orthorhombic'
loop_
_space_group_symop_operation_xyz
x,y,z
1/2-x,-y,1/2+z
x,-y,-z
1/2-x,y,1/2-z
-x,-y,-z
1/2+x,y,1/2-z
-x,y,z
1/2+x,-y,1/2+z
loop_
_atom_site_type_symbol
_atom_site_label
_atom_site_fract_x
_atom_site_fract_y
_atom_site_fract_z
Si Si1 0.327138 0.539955 0.905022
Si Si2 0.828588 0.869547 0.905664
Si Si3 0.828383 0.791389 0.594640
Si Si4 0.670599 0.962355 0.597961
Si Si5 0.673058 0.620265 0.096144
Si Si6 0.670805 0.697782 0.903524
O O1 0.250000 0.538978 0.750000
O O2 0.500000 0.538385 0.877264
O O3 0.273984 0.500000 0.000000
O O4 0.279514 0.582142 0.990537
O O5 0.750000 0.871915 0.750000
O O6 0.749980 0.830450 0.994407
O O7 0.805739 0.916021 0.979282
O O8 0.000000 0.859116 0.887536
O O9 0.750000 0.790011 0.750000
O O10 0.802233 0.744689 0.525832
O O11 0.000000 0.801464 0.610489
O O12 0.750000 0.964310 0.750000
O O13 0.500000 0.970363 0.628052
O O14 0.737109 0.000000 0.500000
O O15 0.750000 0.614381 0.250000
O O16 0.500000 0.620511 0.123792
O O17 0.728034 0.663861 0.021182
O O18 0.750000 0.691219 0.750000
O O19 0.500000 0.690556 0.870309
#
# Coordination Sequence:
#
# PCOD8221118 Si02
#       6
#     8   8   8   8   8   8
#     4  10  21  36  55  80 107 134 167 206 246 291
#     4   9  15  24  40  62  88 116 147 185 229 275
#     4   9  15  24  40  63  90 116 146 187 232 276
#     4   9  18  31  46  66  92 120 152 191 232 277
#     4  10  21  36  52  73 101 132 168 205 241 285
#     4   9  18  31  48  71  97 124 156 196 239 284
#
# _framework density 18.274273000000001
#
# number of rings (size 3 to 8) (size 9 to 14) (size 15 to 20)
#    0.000    2.667    0.000    3.000    0.000    3.333 
#    0.000    0.000    0.000    1.000    0.000    7.000 
#    0.000    0.000    0.000    0.000    0.000    0.000 
#
# Total GULP energy -594737.245832 kJ/mol
# GULP energy per Si atom -12390.359288 kJ/mol
# Density = 1.823268 g / cm^3
# Si number density = 18.274273 Si / 1000 Ang^3
#
#
#
# Elastic Constant Matrix: (Units=GPa)
#
#
# Indices 1 2 3 4 5 6 
#
# 1 71.5217 58.4198 36.9408 0.0000 0.0000 0.0000
# 2 58.4198 196.6389 67.2509 0.0000 0.0000 0.0000
# 3 36.9408 67.2509 90.5454 0.0000 0.0000 0.0000
# 4 0.0000 0.0000 0.0000 14.5994 0.0000 0.0000
# 5 0.0000 0.0000 0.0000 0.0000 22.7595 0.0000
# 6 0.0000 0.0000 0.0000 0.0000 0.0000 26.8224
#
#
#
# Elastic Compliance Matrix: (Units=1/GPa)
#
#
# Indices 1 2 3 4 5 6 
#
# 1 0.020037 -0.004232 -0.005032 0.000000 0.000000 0.000000
# 2 -0.004232 0.007711 -0.004001 0.000000 0.000000 0.000000
# 3 -0.005032 -0.004001 0.016068 0.000000 0.000000 0.000000
# 4 0.000000 0.000000 0.000000 0.068496 0.000000 0.000000
# 5 0.000000 0.000000 0.000000 0.000000 0.043938 0.000000
# 6 0.000000 0.000000 0.000000 0.000000 0.000000 0.037282
#
#
# Mechanical properties :
#
#
# Convention : Reuss Voigt Hill
#
# Bulk Modulus (GPa) = 57.84288 75.99211 66.91749
# Shear Modulus (GPa) = 22.14115 25.90924 24.02519
#
# Velocity S-wave (km/s) = 3.48458 3.76945 3.62981
# Velocity P-wave (km/s) = 6.92179 7.78585 7.36650
#
# Compressibility (1/GPa) = 0.01728821
#
# Stress axis : x y z
#
# Youngs Moduli (GPa) = 49.90662 129.68489 62.23435
#
# Poissons Ratio (x) = 0.54885 0.31313
# Poissons Ratio (y) = 0.21121 0.24897
# Poissons Ratio (z) = 0.25111 0.51881
#
# Static dielectric constant tensor:
#      x y z
#    x 3.374240 0.000000 0.000000 
#    y 0.000000 4.732450 0.000000 
#    z 0.000000 0.000000 2.894220 
# 
# 
# High freq. dielectric constant tensor:
#      x y z
#    x 1.709750 0.000000 0.000000 
#    y 0.000000 1.744960 0.000000 
#    z 0.000000 0.000000 1.651640 
# 
# From -- ./inp_files/6741.got.cif
#   From: 2010.03.12/outbox.cif.g09.slc.cpg/sg53_4_cif.got.tgz:6741.got - 2010.04.16 14:36:59.
