data_PCOD8221365
_publ_section_title
;
Structure prediction by ZEFSAII (Michael W. Deem and Ramdas Pophale) SiO2 
 PCOD8221365
Probable space group: P M N A
;
_chemical_formula_sum "Si O2"
_cell_formula_units_Z 40
_cell_length_a 22.897097
_cell_length_b 5.159734
_cell_length_c 16.890708
_cell_angle_alpha 90.000000
_cell_angle_beta 90.000000
_cell_angle_gamma 90.000000
_cell_volume 1995.517731
_symmetry_space_group_name_H-M "P M N A"
_symmetry_group_IT_number 53
_symmetry_cell_setting 'orthorhombic'
loop_
_space_group_symop_operation_xyz
x,y,z
1/2-x,-y,1/2+z
x,-y,-z
1/2-x,y,1/2-z
-x,-y,-z
1/2+x,y,1/2-z
-x,y,z
1/2+x,-y,1/2+z
loop_
_atom_site_type_symbol
_atom_site_label
_atom_site_fract_x
_atom_site_fract_y
_atom_site_fract_z
Si Si1 0.381971 0.915055 0.910256
Si Si2 0.375821 0.836194 0.251102
Si Si3 0.500000 0.765160 0.244156
Si Si4 0.807810 0.670004 0.797630
Si Si5 0.500000 0.267175 0.139153
Si Si6 0.237835 0.746868 0.553193
O O1 0.439712 0.732898 0.910928
O O2 0.320905 0.767450 0.892307
O O3 0.385236 0.147730 0.844971
O O4 0.374468 0.000000 0.000000
O O5 0.438800 0.771961 0.292788
O O6 0.329519 0.618054 0.275230
O O7 0.357517 0.120444 0.279666
O O8 0.500000 0.507447 0.194781
O O9 0.500000 0.009564 0.188511
O O10 0.750000 0.739945 0.750000
O O11 0.793152 0.691341 0.890552
O O12 0.227857 0.500000 0.500000
O O13 0.250583 0.000000 0.500000
#
# Coordination Sequence:
#
# PCOD8221365 Si02
#       6
#     8   8   4   8   4   8
#     4  10  22  37  57  83 123 169 208 247 285 345
#     4  11  23  40  60  90 119 163 202 252 301 355
#     4  10  22  38  61  84 122 153 208 250 296 357
#     4  12  24  39  64  89 123 157 205 248 308 361
#     4  10  21  38  52  82 118 171 212 242 278 335
#     4  11  25  41  60  89 122 162 204 252 306 363
#
# _framework density 20.044924000000002
#
# number of rings (size 3 to 8) (size 9 to 14) (size 15 to 20)
#    0.000    1.200    2.000    4.500    5.600    3.200 
#    0.000    4.500    0.000    0.000    0.000   14.000 
#    0.000    0.000    0.000    0.000    0.000    0.000 
#
# Total GULP energy -495687.405485 kJ/mol
# GULP energy per Si atom -12392.185137 kJ/mol
# Density = 1.999930 g / cm^3
# Si number density = 20.044924 Si / 1000 Ang^3
#
#
#
# Elastic Constant Matrix: (Units=GPa)
#
#
# Indices 1 2 3 4 5 6 
#
# 1 124.6418 27.9045 45.1408 0.0000 0.0000 0.0000
# 2 27.9045 118.9652 24.9909 0.0000 0.0000 0.0000
# 3 45.1408 24.9909 59.4034 0.0000 0.0000 0.0000
# 4 0.0000 0.0000 0.0000 28.6680 0.0000 0.0000
# 5 0.0000 0.0000 0.0000 0.0000 28.7174 0.0000
# 6 0.0000 0.0000 0.0000 0.0000 0.0000 54.2079
#
#
#
# Elastic Compliance Matrix: (Units=1/GPa)
#
#
# Indices 1 2 3 4 5 6 
#
# 1 0.011160 -0.000917 -0.008095 0.000000 0.000000 0.000000
# 2 -0.000917 0.009296 -0.003214 0.000000 0.000000 0.000000
# 3 -0.008095 -0.003214 0.024337 0.000000 0.000000 0.000000
# 4 0.000000 0.000000 0.000000 0.034882 0.000000 0.000000
# 5 0.000000 0.000000 0.000000 0.000000 0.034822 0.000000
# 6 0.000000 0.000000 0.000000 0.000000 0.000000 0.018448
#
#
# Mechanical properties :
#
#
# Convention : Reuss Voigt Hill
#
# Bulk Modulus (GPa) = 49.15961 55.45366 52.30663
# Shear Modulus (GPa) = 30.45499 35.98360 33.21929
#
# Velocity S-wave (km/s) = 3.90210 4.24151 4.07534
# Velocity P-wave (km/s) = 6.69924 7.19111 6.94952
#
# Compressibility (1/GPa) = 0.02034190
#
# Stress axis : x y z
#
# Youngs Moduli (GPa) = 89.60655 107.57202 41.08941
#
# Poissons Ratio (x) = 0.09867 0.33260
# Poissons Ratio (y) = 0.08219 0.13205
# Poissons Ratio (z) = 0.72532 0.34572
#
# Static dielectric constant tensor:
#      x y z
#    x 4.712060 0.000000 0.000000 
#    y 0.000000 3.458210 0.000000 
#    z 0.000000 0.000000 3.405500 
# 
# 
# High freq. dielectric constant tensor:
#      x y z
#    x 1.802550 0.000000 0.000000 
#    y 0.000000 1.789960 0.000000 
#    z 0.000000 0.000000 1.743790 
# 
# From -- ./inp_files/29219.got.cif
#   From: 2010.03.12/outbox.cif.g09.slc.cpg/sg53_15_cif.got.tgz:29219.got - 2010.04.16 14:36:59.
