data_PCOD8221208
_publ_section_title
;
Structure prediction by ZEFSAII (Michael W. Deem and Ramdas Pophale) SiO2 
 PCOD8221208
Probable space group: P M N A
;
_chemical_formula_sum "Si O2"
_cell_formula_units_Z 48
_cell_length_a 18.520818
_cell_length_b 11.955272
_cell_length_c 11.502323
_cell_angle_alpha 90.000000
_cell_angle_beta 90.000000
_cell_angle_gamma 90.000000
_cell_volume 2546.860656
_symmetry_space_group_name_H-M "P M N A"
_symmetry_group_IT_number 53
_symmetry_cell_setting 'orthorhombic'
loop_
_space_group_symop_operation_xyz
x,y,z
1/2-x,-y,1/2+z
x,-y,-z
1/2-x,y,1/2-z
-x,-y,-z
1/2+x,y,1/2-z
-x,y,z
1/2+x,-y,1/2+z
loop_
_atom_site_type_symbol
_atom_site_label
_atom_site_fract_x
_atom_site_fract_y
_atom_site_fract_z
Si Si1 0.325690 0.239732 0.440096
Si Si2 0.204150 0.476487 0.133565
Si Si3 0.666385 0.943287 0.741126
Si Si4 0.917498 0.344870 0.867081
Si Si5 0.917787 0.152257 0.691948
Si Si6 0.317313 0.872626 0.982714
O O1 0.312156 0.345194 0.355400
O O2 0.351910 0.132143 0.369207
O O3 0.388129 0.266141 0.530796
O O4 0.250046 0.210210 0.503412
O O5 0.250000 0.511010 0.250000
O O6 0.129148 0.543158 0.143205
O O7 0.236616 0.500000 0.000000
O O8 0.750000 0.978721 0.750000
O O9 0.648799 0.866578 0.853618
O O10 0.620171 0.056123 0.731384
O O11 0.911636 0.273267 0.750026
O O12 0.000000 0.378996 0.893186
O O13 0.880709 0.163426 0.567631
O O14 0.000000 0.115871 0.673734
O O15 0.290470 0.000000 0.000000
#
# Coordination Sequence:
#
# PCOD8221208 Si02
#       6
#     8   8   8   8   8   8
#     4  10  21  36  59  85 114 148 191 236 286 341
#     4  10  22  39  63  91 113 151 197 246 289 345
#     4   9  19  34  55  84 117 151 188 238 287 335
#     4  10  24  39  56  84 116 152 191 236 286 341
#     4  10  22  36  54  83 118 153 191 231 281 345
#     4   9  19  33  57  86 115 150 187 241 284 341
#
# _framework density 18.846731999999999
#
# number of rings (size 3 to 8) (size 9 to 14) (size 15 to 20)
#    0.000    2.333    0.000    1.500   11.667    6.667 
#    0.000    1.667    0.000    3.500    0.000    0.000 
#    0.000    0.000    0.000    0.000    0.000    0.000 
#
# Total GULP energy -594897.691512 kJ/mol
# GULP energy per Si atom -12393.701906 kJ/mol
# Density = 1.880384 g / cm^3
# Si number density = 18.846732 Si / 1000 Ang^3
#
#
#
# Elastic Constant Matrix: (Units=GPa)
#
#
# Indices 1 2 3 4 5 6 
#
# 1 125.0653 61.1801 52.9917 0.0000 0.0000 0.0000
# 2 61.1801 78.3346 22.4366 0.0000 0.0000 0.0000
# 3 52.9917 22.4366 89.0837 0.0000 0.0000 0.0000
# 4 0.0000 0.0000 0.0000 23.1642 0.0000 0.0000
# 5 0.0000 0.0000 0.0000 0.0000 20.6962 0.0000
# 6 0.0000 0.0000 0.0000 0.0000 0.0000 24.3186
#
#
#
# Elastic Compliance Matrix: (Units=1/GPa)
#
#
# Indices 1 2 3 4 5 6 
#
# 1 0.016113 -0.010604 -0.006914 0.000000 0.000000 0.000000
# 2 -0.010604 0.020737 0.001085 0.000000 0.000000 0.000000
# 3 -0.006914 0.001085 0.015065 0.000000 0.000000 0.000000
# 4 0.000000 0.000000 0.000000 0.043170 0.000000 0.000000
# 5 0.000000 0.000000 0.000000 0.000000 0.048318 0.000000
# 6 0.000000 0.000000 0.000000 0.000000 0.000000 0.041121
#
#
# Mechanical properties :
#
#
# Convention : Reuss Voigt Hill
#
# Bulk Modulus (GPa) = 52.49725 62.85559 57.67642
# Shear Modulus (GPa) = 22.34756 24.02748 23.18752
#
# Velocity S-wave (km/s) = 3.44721 3.57443 3.51140
# Velocity P-wave (km/s) = 6.61511 7.10343 6.86361
#
# Compressibility (1/GPa) = 0.01904862
#
# Stress axis : x y z
#
# Youngs Moduli (GPa) = 62.06339 48.22382 66.37935
#
# Poissons Ratio (x) = 0.51135 0.45894
# Poissons Ratio (y) = 0.65811 -0.07202
# Poissons Ratio (z) = 0.42910 -0.05232
#
# Static dielectric constant tensor:
#      x y z
#    x 3.333480 0.000000 0.000000 
#    y 0.000000 3.437930 0.000000 
#    z 0.000000 0.000000 4.209520 
# 
# 
# High freq. dielectric constant tensor:
#      x y z
#    x 1.713900 0.000000 0.000000 
#    y 0.000000 1.734130 0.000000 
#    z 0.000000 0.000000 1.740870 
# 
# From -- ./inp_files/16906.got.cif
#   From: 2010.03.12/outbox.cif.g09.slc.cpg/sg53_9_cif.got.tgz:16906.got - 2010.04.16 14:36:59.
