data_PCOD8221269
_publ_section_title
;
Structure prediction by ZEFSAII (Michael W. Deem and Ramdas Pophale) SiO2 
 PCOD8221269
Probable space group: P M N A
;
_chemical_formula_sum "Si O2"
_cell_formula_units_Z 56
_cell_length_a 9.113900
_cell_length_b 16.082908
_cell_length_c 19.311864
_cell_angle_alpha 90.000000
_cell_angle_beta 90.000000
_cell_angle_gamma 90.000000
_cell_volume 2830.694695
_symmetry_space_group_name_H-M "P M N A"
_symmetry_group_IT_number 53
_symmetry_cell_setting 'orthorhombic'
loop_
_space_group_symop_operation_xyz
x,y,z
1/2-x,-y,1/2+z
x,-y,-z
1/2-x,y,1/2-z
-x,-y,-z
1/2+x,y,1/2-z
-x,y,z
1/2+x,-y,1/2+z
loop_
_atom_site_type_symbol
_atom_site_label
_atom_site_fract_x
_atom_site_fract_y
_atom_site_fract_z
Si Si1 0.827733 0.297099 0.819712
Si Si2 0.332178 0.563529 0.939947
Si Si3 0.327089 0.143357 0.324452
Si Si4 0.166898 0.753243 0.567669
Si Si5 0.330084 0.013987 0.580337
Si Si6 0.829102 0.178127 0.578772
Si Si7 0.830417 0.488516 0.817487
O O1 0.750000 0.264914 0.750000
O O2 0.761356 0.250315 0.884744
O O3 0.790418 0.393182 0.832909
O O4 0.000000 0.280063 0.813377
O O5 0.500000 0.547005 0.917449
O O6 0.306886 0.659546 0.960244
O O7 0.221998 0.546881 0.878359
O O8 0.287080 0.500000 0.000000
O O9 0.250000 0.136156 0.250000
O O10 0.500000 0.152702 0.312809
O O11 0.269608 0.223520 0.367171
O O12 0.287613 0.063549 0.371378
O O13 0.200177 0.813966 0.503317
O O14 0.000000 0.764034 0.593083
O O15 0.500000 0.037638 0.589779
O O16 0.230156 0.090068 0.606067
O O17 0.293368 0.000000 0.500000
O O18 0.000000 0.187213 0.596952
O O19 0.750000 0.521520 0.750000
O O20 0.000000 0.501424 0.805100
#
# Coordination Sequence:
#
# PCOD8221269 Si02
#       7
#     8   8   8   8   8   8   8
#     4  10  21  37  57  83 118 155 195 244 297 354
#     4  10  21  38  60  86 120 157 197 247 299 352
#     4  11  24  42  65  90 121 159 200 250 301 356
#     4  10  22  39  60  88 120 158 200 243 295 354
#     4  10  21  40  63  87 118 157 198 242 296 352
#     4  11  22  36  61  91 120 155 196 242 293 354
#     4  10  21  37  58  83 112 152 197 243 296 354
#
# _framework density 19.783128999999999
#
# number of rings (size 3 to 8) (size 9 to 14) (size 15 to 20)
#    0.000    1.714    1.429    2.571    0.000    6.857 
#    0.000    1.429    0.000    0.000    0.000    0.000 
#    0.000    0.000    0.000    0.000    0.000    0.000 
#
# Total GULP energy -694561.006142 kJ/mol
# GULP energy per Si atom -12402.875110 kJ/mol
# Density = 1.973810 g / cm^3
# Si number density = 19.783129 Si / 1000 Ang^3
#
#
#
# Elastic Constant Matrix: (Units=GPa)
#
#
# Indices 1 2 3 4 5 6 
#
# 1 81.8921 41.1316 46.2136 0.0000 0.0000 0.0000
# 2 41.1316 87.3511 40.7979 0.0000 0.0000 0.0000
# 3 46.2136 40.7979 102.1155 0.0000 0.0000 0.0000
# 4 0.0000 0.0000 0.0000 48.8495 0.0000 0.0000
# 5 0.0000 0.0000 0.0000 0.0000 39.2003 0.0000
# 6 0.0000 0.0000 0.0000 0.0000 0.0000 35.6351
#
#
#
# Elastic Compliance Matrix: (Units=1/GPa)
#
#
# Indices 1 2 3 4 5 6 
#
# 1 0.018606 -0.005936 -0.006049 0.000000 0.000000 0.000000
# 2 -0.005936 0.015968 -0.003693 0.000000 0.000000 0.000000
# 3 -0.006049 -0.003693 0.014006 0.000000 0.000000 0.000000
# 4 0.000000 0.000000 0.000000 0.020471 0.000000 0.000000
# 5 0.000000 0.000000 0.000000 0.000000 0.025510 0.000000
# 6 0.000000 0.000000 0.000000 0.000000 0.000000 0.028062
#
#
# Mechanical properties :
#
#
# Convention : Reuss Voigt Hill
#
# Bulk Modulus (GPa) = 58.05896 58.62720 58.34308
# Shear Modulus (GPa) = 31.30457 34.28468 32.79463
#
# Velocity S-wave (km/s) = 3.98224 4.16748 4.07591
# Velocity P-wave (km/s) = 7.11025 7.27024 7.19069
#
# Compressibility (1/GPa) = 0.01722387
#
# Stress axis : x y z
#
# Youngs Moduli (GPa) = 53.74564 62.62458 71.39870
#
# Poissons Ratio (x) = 0.37174 0.43188
# Poissons Ratio (y) = 0.31904 0.26369
# Poissons Ratio (z) = 0.32510 0.23129
#
# Static dielectric constant tensor:
#      x y z
#    x 3.592760 0.000000 0.000000 
#    y 0.000000 3.597670 0.000000 
#    z 0.000000 0.000000 3.748940 
# 
# 
# High freq. dielectric constant tensor:
#      x y z
#    x 1.777480 0.000000 0.000000 
#    y 0.000000 1.772570 0.000000 
#    z 0.000000 0.000000 1.769920 
# 
# From -- ./inp_files/30767.got.cif
#   From: 2010.03.12/outbox.cif.g09.slc.cpg/sg53_16_cif.got.tgz:30767.got - 2010.04.16 14:36:59.
