data_PCOD8221825
_publ_section_title
;
Structure prediction by ZEFSAII (Michael W. Deem and Ramdas Pophale) SiO2 
 PCOD8221825
Probable space group: P M N A
;
_chemical_formula_sum "Si O2"
_cell_formula_units_Z 56
_cell_length_a 21.634456
_cell_length_b 9.527735
_cell_length_c 13.776319
_cell_angle_alpha 90.000000
_cell_angle_beta 90.000000
_cell_angle_gamma 90.000000
_cell_volume 2839.676316
_symmetry_space_group_name_H-M "P M N A"
_symmetry_group_IT_number 53
_symmetry_cell_setting 'orthorhombic'
loop_
_space_group_symop_operation_xyz
x,y,z
1/2-x,-y,1/2+z
x,-y,-z
1/2-x,y,1/2-z
-x,-y,-z
1/2+x,y,1/2-z
-x,y,z
1/2+x,-y,1/2+z
loop_
_atom_site_type_symbol
_atom_site_label
_atom_site_fract_x
_atom_site_fract_y
_atom_site_fract_z
Si Si1 0.697604 0.653318 0.959748
Si Si2 0.567999 0.145170 0.552573
Si Si3 0.000000 0.463586 0.342952
Si Si4 0.500000 0.282308 0.968244
Si Si5 0.883804 0.688230 0.733347
Si Si6 0.377400 0.130481 0.939386
Si Si7 0.072789 0.992200 0.252146
Si Si8 0.659526 0.355210 0.445681
O O1 0.663747 0.682917 0.856967
O O2 0.769340 0.688269 0.951383
O O3 0.683647 0.500000 0.000000
O O4 0.673161 0.749469 0.047325
O O5 0.500000 0.220055 0.553338
O O6 0.589510 0.101284 0.659449
O O7 0.617896 0.239940 0.498793
O O8 0.560086 0.000000 0.500000
O O9 0.939716 0.419359 0.283702
O O10 0.000000 0.632022 0.365357
O O11 0.000000 0.390633 0.445700
O O12 0.441786 0.183148 0.983236
O O13 0.853370 0.630875 0.831476
O O14 0.907752 0.845433 0.753827
O O15 0.384843 0.086857 0.829088
O O16 0.353223 0.000000 0.000000
O O17 0.000000 0.985498 0.277854
O O18 0.646146 0.500000 0.500000
#
# Coordination Sequence:
#
# PCOD8221825 Si02
#       8
#     8   8   4   4   8   8   8   8
#     4  11  25  45  66  92 134 175 210 265 325 388
#     4  10  22  43  69  92 127 169 210 267 322 369
#     4  11  22  34  65  97 129 174 213 261 326 404
#     4  11  21  36  56  98 140 173 201 263 330 385
#     4  12  22  42  67  95 128 171 219 263 327 386
#     4  12  22  37  64 100 135 169 210 259 320 393
#     4  11  22  39  64 100 136 169 208 264 329 383
#     4  11  27  47  67  92 126 171 228 272 313 375
#
# _framework density 19.720556999999999
#
# number of rings (size 3 to 8) (size 9 to 14) (size 15 to 20)
#    0.000    0.857    5.714    1.500    1.000    3.143 
#    0.000    2.143    0.000    0.000    0.000    0.000 
#    0.000    0.000    0.000    0.000    0.000    0.000 
#
# Total GULP energy -694267.529157 kJ/mol
# GULP energy per Si atom -12397.634449 kJ/mol
# Density = 1.967567 g / cm^3
# Si number density = 19.720557 Si / 1000 Ang^3
#
#
#
# Elastic Constant Matrix: (Units=GPa)
#
#
# Indices 1 2 3 4 5 6 
#
# 1 111.4308 51.7769 45.9350 0.0000 0.0000 0.0000
# 2 51.7769 84.7945 33.1215 0.0000 0.0000 0.0000
# 3 45.9350 33.1215 130.1330 0.0000 0.0000 0.0000
# 4 0.0000 0.0000 0.0000 32.3837 0.0000 0.0000
# 5 0.0000 0.0000 0.0000 0.0000 -3.4699 0.0000
# 6 0.0000 0.0000 0.0000 0.0000 0.0000 0.3306
#
#
#
# Elastic Compliance Matrix: (Units=1/GPa)
#
#
# Indices 1 2 3 4 5 6 
#
# 1 0.013482 -0.007077 -0.002958 0.000000 0.000000 0.000000
# 2 -0.007077 0.016810 -0.001780 0.000000 0.000000 0.000000
# 3 -0.002958 -0.001780 0.009182 0.000000 0.000000 0.000000
# 4 0.000000 0.000000 0.000000 0.030880 0.000000 0.000000
# 5 0.000000 0.000000 0.000000 0.000000 -0.288190 0.000000
# 6 0.000000 0.000000 0.000000 0.000000 0.000000 3.024948
#
#
# Mechanical properties :
#
#
# Convention : Reuss Voigt Hill
#
# Bulk Modulus (GPa) = 63.11793 65.33610 64.22702
# Shear Modulus (GPa) = 1.76303 18.88386 10.32344
#
# Velocity S-wave (km/s) = 0.94655 3.09782 2.29046
# Velocity P-wave (km/s) = 5.76804 6.78220 6.29557
#
# Compressibility (1/GPa) = 0.01584336
#
# Stress axis : x y z
#
# Youngs Moduli (GPa) = 74.17461 59.48865 108.91343
#
# Poissons Ratio (x) = 0.42099 0.32213
# Poissons Ratio (y) = 0.52492 0.19391
# Poissons Ratio (z) = 0.21938 0.10592
#
# Static dielectric constant tensor:
#      x y z
#    x 3.642720 0.000000 0.000000 
#    y 0.000000 3.767420 0.000000 
#    z 0.000000 0.000000 3.741180 
# 
# 
# High freq. dielectric constant tensor:
#      x y z
#    x 1.765290 0.000000 0.000000 
#    y 0.000000 1.776420 0.000000 
#    z 0.000000 0.000000 1.780100 
# 
# From -- ./inp_files/24384.got.cif
#   From: 2010.03.12/outbox.cif.g09.slc.cpg/sg53_13_cif.got.tgz:24384.got - 2010.04.16 14:36:59.
