data_PCOD8221271
_publ_section_title
;
Structure prediction by ZEFSAII (Michael W. Deem and Ramdas Pophale) SiO2 
 PCOD8221271
Probable space group: P M N A
;
_chemical_formula_sum "Si O2"
_cell_formula_units_Z 40
_cell_length_a 8.646445
_cell_length_b 25.725646
_cell_length_c 9.152598
_cell_angle_alpha 90.000000
_cell_angle_beta 90.000000
_cell_angle_gamma 90.000000
_cell_volume 2035.861644
_symmetry_space_group_name_H-M "P M N A"
_symmetry_group_IT_number 53
_symmetry_cell_setting 'orthorhombic'
loop_
_space_group_symop_operation_xyz
x,y,z
1/2-x,-y,1/2+z
x,-y,-z
1/2-x,y,1/2-z
-x,-y,-z
1/2+x,y,1/2-z
-x,y,z
1/2+x,-y,1/2+z
loop_
_atom_site_type_symbol
_atom_site_label
_atom_site_fract_x
_atom_site_fract_y
_atom_site_fract_z
Si Si1 0.318566 0.950222 0.905310
Si Si2 0.683093 0.157653 0.410596
Si Si3 0.182517 0.350844 0.410527
Si Si4 0.683341 0.250648 0.909243
Si Si5 0.816790 0.550018 0.410984
O O1 0.250000 0.963971 0.750000
O O2 0.500000 0.938874 0.895120
O O3 0.235704 0.898892 0.968573
O O4 0.278007 0.000000 0.000000
O O5 0.750000 0.169152 0.250000
O O6 0.500000 0.160925 0.402203
O O7 0.745887 0.198271 0.526919
O O8 0.250000 0.353478 0.250000
O O9 0.236592 0.297934 0.487831
O O10 0.245738 0.399046 0.505448
O O11 0.000000 0.353614 0.397937
O O12 0.750000 0.261352 0.750000
O O13 0.500000 0.245614 0.900811
O O14 0.757488 0.500000 0.500000
O O15 0.750000 0.548480 0.250000
O O16 0.000000 0.550653 0.399489
#
# Coordination Sequence:
#
# PCOD8221271 Si02
#       5
#     8   8   8   8   8
#     4  10  21  37  58  84 114 148 188 232 279 334
#     4  11  22  38  60  84 113 149 189 233 282 336
#     4  10  22  38  58  84 113 148 189 233 281 337
#     4  11  23  39  58  83 114 147 188 234 284 339
#     4  10  21  37  57  84 116 149 189 234 281 335
#
# _framework density 19.647698999999999
#
# number of rings (size 3 to 8) (size 9 to 14) (size 15 to 20)
#    0.000    1.600    0.000    6.000    0.000    6.800 
#    0.000    2.000    0.000    0.000    0.000    0.000 
#    0.000    0.000    0.000    0.000    0.000    0.000 
#
# Total GULP energy -496148.993434 kJ/mol
# GULP energy per Si atom -12403.724836 kJ/mol
# Density = 1.960298 g / cm^3
# Si number density = 19.647699 Si / 1000 Ang^3
#
#
#
# Elastic Constant Matrix: (Units=GPa)
#
#
# Indices 1 2 3 4 5 6 
#
# 1 83.6749 56.1769 48.2242 0.0000 0.0000 0.0000
# 2 56.1769 156.4359 97.1287 0.0000 0.0000 0.0000
# 3 48.2242 97.1287 161.1997 0.0000 0.0000 0.0000
# 4 0.0000 0.0000 0.0000 46.8391 0.0000 0.0000
# 5 0.0000 0.0000 0.0000 0.0000 39.3907 0.0000
# 6 0.0000 0.0000 0.0000 0.0000 0.0000 6.4961
#
#
#
# Elastic Compliance Matrix: (Units=1/GPa)
#
#
# Indices 1 2 3 4 5 6 
#
# 1 0.016198 -0.004487 -0.002142 0.000000 0.000000 0.000000
# 2 -0.004487 0.011456 -0.005560 0.000000 0.000000 0.000000
# 3 -0.002142 -0.005560 0.010195 0.000000 0.000000 0.000000
# 4 0.000000 0.000000 0.000000 0.021350 0.000000 0.000000
# 5 0.000000 0.000000 0.000000 0.000000 0.025387 0.000000
# 6 0.000000 0.000000 0.000000 0.000000 0.000000 0.153937
#
#
# Mechanical properties :
#
#
# Convention : Reuss Voigt Hill
#
# Bulk Modulus (GPa) = 74.24018 89.37445 81.80732
# Shear Modulus (GPa) = 18.69920 31.86389 25.28154
#
# Velocity S-wave (km/s) = 3.08835 4.03148 3.59101
# Velocity P-wave (km/s) = 7.11231 8.20108 7.67602
#
# Compressibility (1/GPa) = 0.01346979
#
# Stress axis : x y z
#
# Youngs Moduli (GPa) = 61.73645 87.29105 98.08950
#
# Poissons Ratio (x) = 0.39164 0.21015
# Poissons Ratio (y) = 0.27698 0.54542
# Poissons Ratio (z) = 0.13227 0.48538
#
# Static dielectric constant tensor:
#      x y z
#    x 3.605810 0.000000 0.000000 
#    y 0.000000 3.972670 0.000000 
#    z 0.000000 0.000000 3.451070 
# 
# 
# High freq. dielectric constant tensor:
#      x y z
#    x 1.769950 0.000000 0.000000 
#    y 0.000000 1.786520 0.000000 
#    z 0.000000 0.000000 1.771380 
# 
# From -- ./inp_files/6286.got.cif
#   From: 2010.03.12/outbox.cif.g09.slc.cpg/sg53_4_cif.got.tgz:6286.got - 2010.04.16 14:36:59.
