data_PCOD8221834
_publ_section_title
;
Structure prediction by ZEFSAII (Michael W. Deem and Ramdas Pophale) SiO2 
 PCOD8221834
Probable space group: P M N A
;
_chemical_formula_sum "Si O2"
_cell_formula_units_Z 32
_cell_length_a 9.398779
_cell_length_b 11.850509
_cell_length_c 13.280769
_cell_angle_alpha 90.000000
_cell_angle_beta 90.000000
_cell_angle_gamma 90.000000
_cell_volume 1479.216236
_symmetry_space_group_name_H-M "P M N A"
_symmetry_group_IT_number 53
_symmetry_cell_setting 'orthorhombic'
loop_
_space_group_symop_operation_xyz
x,y,z
1/2-x,-y,1/2+z
x,-y,-z
1/2-x,y,1/2-z
-x,-y,-z
1/2+x,y,1/2-z
-x,y,z
1/2+x,-y,1/2+z
loop_
_atom_site_type_symbol
_atom_site_label
_atom_site_fract_x
_atom_site_fract_y
_atom_site_fract_z
Si Si1 0.781761 0.838297 0.855677
Si Si2 0.750000 0.605097 0.250000
Si Si3 0.000000 0.239683 0.679039
Si Si4 0.500000 0.552199 0.387182
Si Si5 0.000000 0.775551 0.007077
Si Si6 0.000000 0.035967 0.837171
Si Si7 0.500000 0.874210 0.970404
O O1 0.750000 0.775226 0.750000
O O2 0.866632 0.758292 0.932685
O O3 0.631796 0.858380 0.900803
O O4 0.861216 0.957051 0.833180
O O5 0.641974 0.685856 0.190645
O O6 0.647640 0.527730 0.324521
O O7 0.000000 0.126475 0.746760
O O8 0.000000 0.209027 0.563209
O O9 0.500000 0.500000 0.500000
O O10 0.500000 0.687838 0.401334
O O11 0.000000 0.899581 0.055456
O O12 0.500000 0.000000 0.000000
#
# Coordination Sequence:
#
# PCOD8221834 Si02
#       7
#     8   4   4   4   4   4   4
#     4  11  23  36  52  83 127 175 212 250 302 369
#     4  10  22  44  72  98 124 158 214 262 340 388
#     4  11  23  37  65  92 125 167 215 273 307 376
#     4  11  24  46  74 101 127 159 207 273 333 395
#     4  11  21  42  61  83 123 167 207 258 323 373
#     4  11  22  35  59  83 124 175 214 258 307 362
#     4  12  22  30  50  85 119 159 220 254 298 346
#
# _framework density 21.633075999999999
#
# number of rings (size 3 to 8) (size 9 to 14) (size 15 to 20)
#    0.000    1.000    2.500    7.500    5.250    0.000 
#    2.250    2.500    0.000    0.000    0.000    0.000 
#    0.000    0.000    0.000    0.000    0.000    0.000 
#
# Total GULP energy -396496.539605 kJ/mol
# GULP energy per Si atom -12390.516863 kJ/mol
# Density = 2.158384 g / cm^3
# Si number density = 21.633076 Si / 1000 Ang^3
#
#
#
# Elastic Constant Matrix: (Units=GPa)
#
#
# Indices 1 2 3 4 5 6 
#
# 1 192.7629 12.5026 65.5454 0.0000 0.0000 0.0000
# 2 12.5026 24.3708 8.3065 0.0000 0.0000 0.0000
# 3 65.5454 8.3065 135.6724 0.0000 0.0000 0.0000
# 4 0.0000 0.0000 0.0000 41.7268 0.0000 0.0000
# 5 0.0000 0.0000 0.0000 0.0000 57.0754 0.0000
# 6 0.0000 0.0000 0.0000 0.0000 0.0000 11.5126
#
#
#
# Elastic Compliance Matrix: (Units=1/GPa)
#
#
# Indices 1 2 3 4 5 6 
#
# 1 0.006326 -0.002251 -0.002918 0.000000 0.000000 0.000000
# 2 -0.002251 0.042708 -0.001527 0.000000 0.000000 0.000000
# 3 -0.002918 -0.001527 0.008874 0.000000 0.000000 0.000000
# 4 0.000000 0.000000 0.000000 0.023965 0.000000 0.000000
# 5 0.000000 0.000000 0.000000 0.000000 0.017521 0.000000
# 6 0.000000 0.000000 0.000000 0.000000 0.000000 0.086862
#
#
# Mechanical properties :
#
#
# Convention : Reuss Voigt Hill
#
# Bulk Modulus (GPa) = 22.46432 58.39057 40.42744
# Shear Modulus (GPa) = 23.31142 39.82639 31.56890
#
# Velocity S-wave (km/s) = 3.28622 4.29534 3.82421
# Velocity P-wave (km/s) = 4.98054 7.18678 6.18286
#
# Compressibility (1/GPa) = 0.04451504
#
# Stress axis : x y z
#
# Youngs Moduli (GPa) = 158.07657 23.41488 112.68687
#
# Poissons Ratio (x) = 0.05270 0.32887
# Poissons Ratio (y) = 0.35577 0.17213
# Poissons Ratio (z) = 0.46133 0.03577
#
# Static dielectric constant tensor:
#      x y z
#    x 4.261360 0.000000 0.000000 
#    y 0.000000 3.520460 0.000000 
#    z 0.000000 0.000000 4.287330 
# 
# 
# High freq. dielectric constant tensor:
#      x y z
#    x 1.871090 0.000000 0.000000 
#    y 0.000000 1.801940 0.000000 
#    z 0.000000 0.000000 1.878550 
# 
# From -- ./inp_files/13835.got.cif
#   From: 2010.03.12/outbox.cif.g09.slc.cpg/sg53_7_cif.got.tgz:13835.got - 2010.04.16 14:36:59.
