data_PCOD8221288
_publ_section_title
;
Structure prediction by ZEFSAII (Michael W. Deem and Ramdas Pophale) SiO2 
 PCOD8221288
Probable space group: P M N A
;
_chemical_formula_sum "Si O2"
_cell_formula_units_Z 48
_cell_length_a 8.668463
_cell_length_b 30.489120
_cell_length_c 9.498882
_cell_angle_alpha 90.000000
_cell_angle_beta 90.000000
_cell_angle_gamma 90.000000
_cell_volume 2510.495701
_symmetry_space_group_name_H-M "P M N A"
_symmetry_group_IT_number 53
_symmetry_cell_setting 'orthorhombic'
loop_
_space_group_symop_operation_xyz
x,y,z
1/2-x,-y,1/2+z
x,-y,-z
1/2-x,y,1/2-z
-x,-y,-z
1/2+x,y,1/2-z
-x,y,z
1/2+x,-y,1/2+z
loop_
_atom_site_type_symbol
_atom_site_label
_atom_site_fract_x
_atom_site_fract_y
_atom_site_fract_z
Si Si1 0.817650 0.537163 0.601557
Si Si2 0.179719 0.960523 0.395584
Si Si3 0.682318 0.364768 0.099425
Si Si4 0.817054 0.794158 0.594865
Si Si5 0.817206 0.131857 0.903024
Si Si6 0.818062 0.712640 0.404438
O O1 0.749180 0.500000 0.500000
O O2 0.750000 0.524514 0.750000
O O3 0.764237 0.586093 0.556013
O O4 0.000000 0.534855 0.608140
O O5 0.250000 0.977030 0.250000
O O6 0.268621 0.917187 0.446742
O O7 0.000000 0.948933 0.378949
O O8 0.210089 0.000000 0.500000
O O9 0.750000 0.350963 0.250000
O O10 0.500000 0.361532 0.113974
O O11 0.743151 0.331781 0.979220
O O12 0.750000 0.787955 0.750000
O O13 0.749208 0.837498 0.524334
O O14 0.763951 0.753194 0.499945
O O15 0.000000 0.797977 0.604401
O O16 0.750000 0.144702 0.750000
O O17 0.000000 0.136206 0.896737
O O18 0.750000 0.717174 0.250000
O O19 0.000000 0.711713 0.389468
#
# Coordination Sequence:
#
# PCOD8221288 Si02
#       6
#     8   8   8   8   8   8
#     4   9  18  32  50  73 103 137 173 216 263 313
#     4  10  21  37  58  84 114 148 187 229 273 323
#     4   9  18  34  53  75 103 136 175 217 264 315
#     4  11  23  39  58  82 110 141 180 223 271 324
#     4  11  22  38  60  84 113 148 185 227 274 323
#     4  10  22  37  55  79 107 139 175 218 266 319
#
# _framework density 19.119729
#
# number of rings (size 3 to 8) (size 9 to 14) (size 15 to 20)
#    0.000    2.000    0.000    4.500    0.000    6.333 
#    0.000    1.667    0.000    0.000    0.000    0.000 
#    0.000    0.000    0.000    0.000    0.000    0.000 
#
# Total GULP energy -595235.094039 kJ/mol
# GULP energy per Si atom -12400.731126 kJ/mol
# Density = 1.907621 g / cm^3
# Si number density = 19.119729 Si / 1000 Ang^3
#
#
#
# Elastic Constant Matrix: (Units=GPa)
#
#
# Indices 1 2 3 4 5 6 
#
# 1 66.5095 43.6041 51.1981 0.0000 0.0000 0.0000
# 2 43.6041 131.4954 104.6178 0.0000 0.0000 0.0000
# 3 51.1981 104.6178 163.4015 0.0000 0.0000 0.0000
# 4 0.0000 0.0000 0.0000 51.9338 0.0000 0.0000
# 5 0.0000 0.0000 0.0000 0.0000 36.3564 0.0000
# 6 0.0000 0.0000 0.0000 0.0000 0.0000 11.4316
#
#
#
# Elastic Compliance Matrix: (Units=1/GPa)
#
#
# Indices 1 2 3 4 5 6 
#
# 1 0.020554 -0.003449 -0.004232 0.000000 0.000000 0.000000
# 2 -0.003449 0.016079 -0.009214 0.000000 0.000000 0.000000
# 3 -0.004232 -0.009214 0.013345 0.000000 0.000000 0.000000
# 4 0.000000 0.000000 0.000000 0.019255 0.000000 0.000000
# 5 0.000000 0.000000 0.000000 0.000000 0.027505 0.000000
# 6 0.000000 0.000000 0.000000 0.000000 0.000000 0.087477
#
#
# Mechanical properties :
#
#
# Convention : Reuss Voigt Hill
#
# Bulk Modulus (GPa) = 61.77126 84.47183 73.12154
# Shear Modulus (GPa) = 22.38108 30.74344 26.56226
#
# Velocity S-wave (km/s) = 3.42508 4.01427 3.73132
# Velocity P-wave (km/s) = 6.92960 8.10939 7.54259
#
# Compressibility (1/GPa) = 0.01618876
#
# Stress axis : x y z
#
# Youngs Moduli (GPa) = 48.65153 62.19216 74.93282
#
# Poissons Ratio (x) = 0.21448 0.31713
# Poissons Ratio (y) = 0.16779 0.69044
# Poissons Ratio (z) = 0.20590 0.57305
#
# Static dielectric constant tensor:
#      x y z
#    x 3.498510 0.000000 0.000000 
#    y 0.000000 3.819380 0.000000 
#    z 0.000000 0.000000 3.570260 
# 
# 
# High freq. dielectric constant tensor:
#      x y z
#    x 1.744970 0.000000 0.000000 
#    y 0.000000 1.758940 0.000000 
#    z 0.000000 0.000000 1.744140 
# 
# From -- ./inp_files/6655.got.cif
#   From: 2010.03.12/outbox.cif.g09.slc.cpg/sg53_4_cif.got.tgz:6655.got - 2010.04.16 14:36:59.
