data_PCOD8221549
_publ_section_title
;
Structure prediction by ZEFSAII (Michael W. Deem and Ramdas Pophale) SiO2 
 PCOD8221549
Probable space group: P M N A
;
_chemical_formula_sum "Si O2"
_cell_formula_units_Z 40
_cell_length_a 14.463968
_cell_length_b 9.434540
_cell_length_c 13.364611
_cell_angle_alpha 90.000000
_cell_angle_beta 90.000000
_cell_angle_gamma 90.000000
_cell_volume 1823.746640
_symmetry_space_group_name_H-M "P M N A"
_symmetry_group_IT_number 53
_symmetry_cell_setting 'orthorhombic'
loop_
_space_group_symop_operation_xyz
x,y,z
1/2-x,-y,1/2+z
x,-y,-z
1/2-x,y,1/2-z
-x,-y,-z
1/2+x,y,1/2-z
-x,y,z
1/2+x,-y,1/2+z
loop_
_atom_site_type_symbol
_atom_site_label
_atom_site_fract_x
_atom_site_fract_y
_atom_site_fract_z
Si Si1 0.342922 0.000000 0.500000
Si Si2 0.602815 0.720097 0.604572
Si Si3 0.895667 0.808276 0.676998
Si Si4 0.703704 0.904609 0.152958
Si Si5 0.396311 0.685828 0.040431
Si Si6 0.260127 0.500000 0.500000
O O1 0.399259 0.116365 0.435713
O O2 0.281556 0.100350 0.569107
O O3 0.500000 0.659220 0.584719
O O4 0.624414 0.717567 0.723221
O O5 0.676923 0.615598 0.555050
O O6 0.880189 0.717219 0.577052
O O7 0.000000 0.867701 0.679376
O O8 0.824232 0.936150 0.677776
O O9 0.750000 0.832171 0.250000
O O10 0.613845 0.823024 0.111115
O O11 0.500000 0.624038 0.057556
O O12 0.313643 0.579489 0.074113
#
# Coordination Sequence:
#
# PCOD8221549 Si02
#       6
#     4   8   8   8   8   4
#     4  12  21  40  65  96 130 182 221 284 335 400
#     4  11  24  43  68 101 139 182 233 280 340 409
#     4  10  21  39  68  99 130 174 230 284 334 402
#     4  12  21  37  67 101 135 172 223 281 341 398
#     4  11  24  44  67  98 138 179 224 281 343 403
#     4  12  24  44  68  96 138 184 224 280 346 404
#
# _framework density 21.932872
#
# number of rings (size 3 to 8) (size 9 to 14) (size 15 to 20)
#    0.000    0.800    6.000    1.500    0.000    1.600 
#    3.600    0.000    0.000    0.000    0.000    0.000 
#    0.000    0.000    0.000    0.000    0.000    0.000 
#
# Total GULP energy -495691.426587 kJ/mol
# GULP energy per Si atom -12392.285665 kJ/mol
# Density = 2.188295 g / cm^3
# Si number density = 21.932872 Si / 1000 Ang^3
#
#
#
# Elastic Constant Matrix: (Units=GPa)
#
#
# Indices 1 2 3 4 5 6 
#
# 1 146.2296 49.5929 35.6153 0.0000 0.0000 0.0000
# 2 49.5929 85.1168 25.6696 0.0000 0.0000 0.0000
# 3 35.6153 25.6696 106.2373 0.0000 0.0000 0.0000
# 4 0.0000 0.0000 0.0000 17.9533 0.0000 0.0000
# 5 0.0000 0.0000 0.0000 0.0000 27.4931 0.0000
# 6 0.0000 0.0000 0.0000 0.0000 0.0000 29.6878
#
#
#
# Elastic Compliance Matrix: (Units=1/GPa)
#
#
# Indices 1 2 3 4 5 6 
#
# 1 0.008849 -0.004596 -0.001856 0.000000 0.000000 0.000000
# 2 -0.004596 0.015059 -0.002098 0.000000 0.000000 0.000000
# 3 -0.001856 -0.002098 0.010542 0.000000 0.000000 0.000000
# 4 0.000000 0.000000 0.000000 0.055700 0.000000 0.000000
# 5 0.000000 0.000000 0.000000 0.000000 0.036373 0.000000
# 6 0.000000 0.000000 0.000000 0.000000 0.000000 0.033684
#
#
# Mechanical properties :
#
#
# Convention : Reuss Voigt Hill
#
# Bulk Modulus (GPa) = 57.63618 62.14880 59.89249
# Shear Modulus (GPa) = 27.30877 30.14057 28.72467
#
# Velocity S-wave (km/s) = 3.53244 3.71107 3.62285
# Velocity P-wave (km/s) = 6.55538 6.83814 6.69825
#
# Compressibility (1/GPa) = 0.01735021
#
# Stress axis : x y z
#
# Youngs Moduli (GPa) = 113.00142 66.40437 94.85844
#
# Poissons Ratio (x) = 0.30522 0.17607
# Poissons Ratio (y) = 0.51939 0.19900
# Poissons Ratio (z) = 0.20975 0.13930
#
# Static dielectric constant tensor:
#      x y z
#    x 4.158860 0.000000 0.000000 
#    y 0.000000 3.801740 0.000000 
#    z 0.000000 0.000000 4.015630 
# 
# 
# High freq. dielectric constant tensor:
#      x y z
#    x 1.882280 0.000000 0.000000 
#    y 0.000000 1.846570 0.000000 
#    z 0.000000 0.000000 1.854000 
# 
# From -- ./inp_files/22479.got.cif
#   From: 2010.03.12/outbox.cif.g09.slc.cpg/sg53_12_cif.got.tgz:22479.got - 2010.04.16 14:36:59.
