data_PCOD8221222
_publ_section_title
;
Structure prediction by ZEFSAII (Michael W. Deem and Ramdas Pophale) SiO2 
 PCOD8221222
Probable space group: P M N A
;
_chemical_formula_sum "Si O2"
_cell_formula_units_Z 56
_cell_length_a 8.603332
_cell_length_b 14.456039
_cell_length_c 25.727472
_cell_angle_alpha 90.000000
_cell_angle_beta 90.000000
_cell_angle_gamma 90.000000
_cell_volume 3199.728341
_symmetry_space_group_name_H-M "P M N A"
_symmetry_group_IT_number 53
_symmetry_cell_setting 'orthorhombic'
loop_
_space_group_symop_operation_xyz
x,y,z
1/2-x,-y,1/2+z
x,-y,-z
1/2-x,y,1/2-z
-x,-y,-z
1/2+x,y,1/2-z
-x,y,z
1/2+x,-y,1/2+z
loop_
_atom_site_type_symbol
_atom_site_label
_atom_site_fract_x
_atom_site_fract_y
_atom_site_fract_z
Si Si1 0.315384 0.898287 0.941244
Si Si2 0.184488 0.609385 0.194925
Si Si3 0.319280 0.392186 0.497868
Si Si4 0.181774 0.398844 0.195926
Si Si5 0.316277 0.900691 0.057692
Si Si6 0.682387 0.292261 0.100098
Si Si7 0.316429 0.707175 0.096553
O O1 0.500000 0.892843 0.942753
O O2 0.255643 0.813581 0.905750
O O3 0.258492 0.999228 0.920027
O O4 0.249557 0.884843 0.999658
O O5 0.250000 0.643441 0.250000
O O6 0.237289 0.503649 0.184853
O O7 0.266436 0.672779 0.152617
O O8 0.000000 0.621377 0.192447
O O9 0.280950 0.500000 0.500000
O O10 0.500000 0.374229 0.486406
O O11 0.218402 0.348070 0.452169
O O12 0.273760 0.349900 0.553041
O O13 0.250000 0.361204 0.250000
O O14 0.231541 0.333994 0.149187
O O15 0.000000 0.396223 0.201680
O O16 0.500000 0.905042 0.053599
O O17 0.264821 0.815198 0.093687
O O18 0.500000 0.296941 0.110504
O O19 0.500000 0.695156 0.087941
#
# Coordination Sequence:
#
# PCOD8221222 Si02
#       7
#     8   8   8   8   8   8   8
#     4   8  14  27  48  74 103 133 167 206 249 300
#     4  10  21  37  55  75 101 135 173 212 254 301
#     4  11  23  35  46  67 104 144 173 203 250 305
#     4  10  21  37  55  75 101 135 173 212 254 301
#     4   8  14  27  48  74 103 133 167 206 249 300
#     4  11  20  32  53  79 103 132 170 212 256 303
#     4  11  20  32  53  79 103 132 170 212 256 303
#
# _framework density 17.501484999999999
#
# number of rings (size 3 to 8) (size 9 to 14) (size 15 to 20)
#    0.000    2.143    1.429    3.857    0.000    6.286 
#    0.000    0.000    0.000    5.143    0.000    0.000 
#    0.000    0.000    0.000    0.000    0.000    0.000 
#
# Total GULP energy -694227.581925 kJ/mol
# GULP energy per Si atom -12396.921106 kJ/mol
# Density = 1.746165 g / cm^3
# Si number density = 17.501485 Si / 1000 Ang^3
#
#
#
# Elastic Constant Matrix: (Units=GPa)
#
#
# Indices 1 2 3 4 5 6 
#
# 1 22.0013 19.0635 3.1599 0.0000 0.0000 0.0000
# 2 19.0635 137.6676 64.9092 0.0000 0.0000 0.0000
# 3 3.1599 64.9092 104.6499 0.0000 0.0000 0.0000
# 4 0.0000 0.0000 0.0000 262.1506 0.0000 0.0000
# 5 0.0000 0.0000 0.0000 0.0000 31.3538 0.0000
# 6 0.0000 0.0000 0.0000 0.0000 0.0000 9.8966
#
#
#
# Elastic Compliance Matrix: (Units=1/GPa)
#
#
# Indices 1 2 3 4 5 6 
#
# 1 0.052902 -0.009289 0.004164 0.000000 0.000000 0.000000
# 2 -0.009289 0.011897 -0.007099 0.000000 0.000000 0.000000
# 3 0.004164 -0.007099 0.013833 0.000000 0.000000 0.000000
# 4 0.000000 0.000000 0.000000 0.003815 0.000000 0.000000
# 5 0.000000 0.000000 0.000000 0.000000 0.031894 0.000000
# 6 0.000000 0.000000 0.000000 0.000000 0.000000 0.101045
#
#
# Mechanical properties :
#
#
# Convention : Reuss Voigt Hill
#
# Bulk Modulus (GPa) = 18.45523 48.73157 33.59340
# Shear Modulus (GPa) = 19.38772 72.49261 45.94017
#
# Velocity S-wave (km/s) = 3.33194 6.44288 5.12896
# Velocity P-wave (km/s) = 5.03689 9.12427 7.36962
#
# Compressibility (1/GPa) = 0.05418518
#
# Stress axis : x y z
#
# Youngs Moduli (GPa) = 18.90276 84.05360 72.29121
#
# Poissons Ratio (x) = 0.78077 -0.30103
# Poissons Ratio (y) = 0.17559 0.51318
# Poissons Ratio (z) = -0.07871 0.59668
#
# Static dielectric constant tensor:
#      x y z
#    x 3.203030 0.000000 0.000000 
#    y 0.000000 3.731190 0.000000 
#    z 0.000000 0.000000 3.015210 
# 
# 
# High freq. dielectric constant tensor:
#      x y z
#    x 1.665060 0.000000 0.000000 
#    y 0.000000 1.684500 0.000000 
#    z 0.000000 0.000000 1.659380 
# 
# From -- ./inp_files/30738.got.cif
#   From: 2010.03.12/outbox.cif.g09.slc.cpg/sg53_16_cif.got.tgz:30738.got - 2010.04.16 14:36:59.
