data_PCOD8221049
_publ_section_title
;
Structure prediction by ZEFSAII (Michael W. Deem and Ramdas Pophale) SiO2 
 PCOD8221049
Probable space group: P M N A
;
_chemical_formula_sum "Si O2"
_cell_formula_units_Z 64
_cell_length_a 17.681628
_cell_length_b 5.243756
_cell_length_c 35.639975
_cell_angle_alpha 90.000000
_cell_angle_beta 90.000000
_cell_angle_gamma 90.000000
_cell_volume 3304.472296
_symmetry_space_group_name_H-M "P M N A"
_symmetry_group_IT_number 53
_symmetry_cell_setting 'orthorhombic'
loop_
_space_group_symop_operation_xyz
x,y,z
1/2-x,-y,1/2+z
x,-y,-z
1/2-x,y,1/2-z
-x,-y,-z
1/2+x,y,1/2-z
-x,y,z
1/2+x,-y,1/2+z
loop_
_atom_site_type_symbol
_atom_site_label
_atom_site_fract_x
_atom_site_fract_y
_atom_site_fract_z
Si Si1 0.913345 0.481413 0.835455
Si Si2 0.798795 0.485201 0.457555
Si Si3 0.660444 0.497679 0.743081
Si Si4 0.086390 0.019236 0.117021
Si Si5 0.088121 0.488963 0.390524
Si Si6 0.825856 0.002116 0.274643
Si Si7 0.227431 0.014566 0.927883
Si Si8 0.339822 0.010533 0.860542
O O1 0.857007 0.505622 0.800747
O O2 0.895010 0.713889 0.863033
O O3 0.000000 0.494124 0.821492
O O4 0.895817 0.214871 0.855394
O O5 0.828772 0.500000 0.500000
O O6 0.871427 0.490037 0.430847
O O7 0.751719 0.225704 0.452772
O O8 0.744842 0.725030 0.449519
O O9 0.750000 0.489195 0.750000
O O10 0.625944 0.745799 0.763917
O O11 0.625126 0.244846 0.762331
O O12 0.137921 0.997886 0.079986
O O13 0.000000 0.009415 0.103264
O O14 0.111229 0.735319 0.366508
O O15 0.000000 0.496138 0.399011
O O16 0.108134 0.235618 0.367424
O O17 0.750000 0.010367 0.250000
O O18 0.807211 0.994731 0.318578
O O19 0.267942 0.006888 0.887561
#
# Coordination Sequence:
#
# PCOD8221049 Si02
#       8
#     8   8   8   8   8   8   8   8
#     4  10  21  36  52  76 109 144 183 242 294 329
#     4  10  21  39  61  92 122 150 187 229 276 332
#     4  10  21  32  51  75 103 140 189 238 284 343
#     4  10  21  36  59  84 111 144 185 232 285 338
#     4  10  21  39  60  86 118 154 192 233 283 343
#     4  10  21  35  50  78 104 143 193 243 283 335
#     4  10  21  35  61  88 114 152 185 237 279 332
#     4  10  21  36  57  84 111 146 202 241 285 330
#
# _framework density 19.36769
#
# number of rings (size 3 to 8) (size 9 to 14) (size 15 to 20)
#    0.000    2.000    0.000    3.000    7.000    0.250 
#    0.000    3.750    0.000    6.750    0.000    0.000 
#    0.000    0.000    0.000    0.000    0.000    0.000 
#
# Total GULP energy -793607.156106 kJ/mol
# GULP energy per Si atom -12400.111814 kJ/mol
# Density = 1.932361 g / cm^3
# Si number density = 19.367690 Si / 1000 Ang^3
#
#
#
# Elastic Constant Matrix: (Units=GPa)
#
#
# Indices 1 2 3 4 5 6 
#
# 1 81.2613 12.6731 29.5580 0.0000 0.0000 0.0000
# 2 12.6731 138.0229 15.6632 0.0000 0.0000 0.0000
# 3 29.5580 15.6632 103.2266 0.0000 0.0000 0.0000
# 4 0.0000 0.0000 0.0000 19.8535 0.0000 0.0000
# 5 0.0000 0.0000 0.0000 0.0000 20.6245 0.0000
# 6 0.0000 0.0000 0.0000 0.0000 0.0000 14.3657
#
#
#
# Elastic Compliance Matrix: (Units=1/GPa)
#
#
# Indices 1 2 3 4 5 6 
#
# 1 0.013831 -0.000835 -0.003834 0.000000 0.000000 0.000000
# 2 -0.000835 0.007423 -0.000887 0.000000 0.000000 0.000000
# 3 -0.003834 -0.000887 0.010920 0.000000 0.000000 0.000000
# 4 0.000000 0.000000 0.000000 0.050369 0.000000 0.000000
# 5 0.000000 0.000000 0.000000 0.000000 0.048486 0.000000
# 6 0.000000 0.000000 0.000000 0.000000 0.000000 0.069610
#
#
# Mechanical properties :
#
#
# Convention : Reuss Voigt Hill
#
# Bulk Modulus (GPa) = 47.47983 48.69991 48.08987
# Shear Modulus (GPa) = 22.85504 28.60983 25.73243
#
# Velocity S-wave (km/s) = 3.43893 3.84760 3.64899
# Velocity P-wave (km/s) = 6.35110 6.70359 6.52973
#
# Compressibility (1/GPa) = 0.02106157
#
# Stress axis : x y z
#
# Youngs Moduli (GPa) = 72.30336 134.72523 91.57706
#
# Poissons Ratio (x) = 0.11248 0.35107
# Poissons Ratio (y) = 0.06036 0.08125
# Poissons Ratio (z) = 0.27718 0.11953
#
# Static dielectric constant tensor:
#      x y z
#    x 3.314480 0.000000 0.000000 
#    y 0.000000 7.703650 0.000000 
#    z 0.000000 0.000000 3.318620 
# 
# 
# High freq. dielectric constant tensor:
#      x y z
#    x 1.727640 0.000000 0.000000 
#    y 0.000000 1.790910 0.000000 
#    z 0.000000 0.000000 1.738520 
# 
# From -- ./inp_files/39047.got.cif
#   From: 2010.03.12/outbox.cif.g09.slc.cpg/sg53_20_cif.got.tgz:39047.got - 2010.04.16 14:36:59.
