data_PCOD8221542
_publ_section_title
;
Structure prediction by ZEFSAII (Michael W. Deem and Ramdas Pophale) SiO2 
 PCOD8221542
Probable space group: P M N A
;
_chemical_formula_sum "Si O2"
_cell_formula_units_Z 52
_cell_length_a 22.625032
_cell_length_b 20.052440
_cell_length_c 5.448869
_cell_angle_alpha 90.000000
_cell_angle_beta 90.000000
_cell_angle_gamma 90.000000
_cell_volume 2472.081557
_symmetry_space_group_name_H-M "P M N A"
_symmetry_group_IT_number 53
_symmetry_cell_setting 'orthorhombic'
loop_
_space_group_symop_operation_xyz
x,y,z
1/2-x,-y,1/2+z
x,-y,-z
1/2-x,y,1/2-z
-x,-y,-z
1/2+x,y,1/2-z
-x,y,z
1/2+x,-y,1/2+z
loop_
_atom_site_type_symbol
_atom_site_label
_atom_site_fract_x
_atom_site_fract_y
_atom_site_fract_z
Si Si1 0.250000 0.384698 0.750000
Si Si2 0.383685 0.828735 0.265116
Si Si3 0.328224 0.332295 0.137109
Si Si4 0.068287 0.686604 0.274791
Si Si5 0.683353 0.189386 0.254050
Si Si6 0.863793 0.573757 0.021754
Si Si7 0.932158 0.029956 0.749149
O O1 0.230893 0.335118 0.530475
O O2 0.308809 0.429324 0.711921
O O3 0.420620 0.761454 0.323559
O O4 0.346032 0.845472 0.509828
O O5 0.428119 0.890190 0.237590
O O6 0.345784 0.823902 0.013661
O O7 0.319293 0.268628 0.311751
O O8 0.332381 0.402745 0.273828
O O9 0.391271 0.323827 0.008698
O O10 0.000000 0.677606 0.345662
O O11 0.085966 0.628380 0.082304
O O12 0.750000 0.162498 0.250000
O O13 0.892092 0.500000 0.000000
O O14 0.000000 0.007620 0.749060
O O15 0.901932 0.000000 0.500000
O O16 0.902726 0.000000 0.000000
#
# Coordination Sequence:
#
# PCOD8221542 Si02
#       7
#     4   8   8   8   8   8   8
#     4  10  22  34  60  82 120 152 202 270 320 378
#     4  11  22  40  64  97 126 166 208 260 314 373
#     4  10  22  39  58  88 117 164 208 267 323 372
#     4  10  23  41  59  86 121 162 209 255 309 379
#     4  11  22  37  64  92 130 164 211 262 314 375
#     4  11  23  38  58  87 120 158 206 259 323 375
#     4  10  21  39  65  96 129 164 205 258 316 373
#
# _framework density 21.034903
#
# number of rings (size 3 to 8) (size 9 to 14) (size 15 to 20)
#    0.000    1.538    1.538    3.231    6.462    2.769 
#    0.000    2.308    0.000    9.231    0.000    0.000 
#    0.000    0.000    0.000    0.000    0.000    0.000 
#
# Total GULP energy -644333.545109 kJ/mol
# GULP energy per Si atom -12391.029714 kJ/mol
# Density = 2.098703 g / cm^3
# Si number density = 21.034903 Si / 1000 Ang^3
#
#
#
# Elastic Constant Matrix: (Units=GPa)
#
#
# Indices 1 2 3 4 5 6 
#
# 1 90.3473 15.0264 12.3413 0.0000 0.0000 0.0000
# 2 15.0264 130.5474 27.8469 0.0000 0.0000 0.0000
# 3 12.3413 27.8469 120.2322 0.0000 0.0000 0.0000
# 4 0.0000 0.0000 0.0000 26.4133 0.0000 0.0000
# 5 0.0000 0.0000 0.0000 0.0000 15.3520 0.0000
# 6 0.0000 0.0000 0.0000 0.0000 0.0000 23.9943
#
#
#
# Elastic Compliance Matrix: (Units=1/GPa)
#
#
# Indices 1 2 3 4 5 6 
#
# 1 0.011378 -0.001116 -0.000910 0.000000 0.000000 0.000000
# 2 -0.001116 0.008168 -0.001777 0.000000 0.000000 0.000000
# 3 -0.000910 -0.001777 0.008822 0.000000 0.000000 0.000000
# 4 0.000000 0.000000 0.000000 0.037860 0.000000 0.000000
# 5 0.000000 0.000000 0.000000 0.000000 0.065138 0.000000
# 6 0.000000 0.000000 0.000000 0.000000 0.000000 0.041677
#
#
# Mechanical properties :
#
#
# Convention : Reuss Voigt Hill
#
# Bulk Modulus (GPa) = 48.16198 50.17289 49.16744
# Shear Modulus (GPa) = 26.65697 32.21275 29.43486
#
# Velocity S-wave (km/s) = 3.56374 3.91755 3.74483
# Velocity P-wave (km/s) = 6.31503 6.66085 6.49024
#
# Compressibility (1/GPa) = 0.02076326
#
# Stress axis : x y z
#
# Youngs Moduli (GPa) = 87.88743 122.43568 113.35039
#
# Poissons Ratio (x) = 0.13660 0.10309
# Poissons Ratio (y) = 0.09805 0.20144
# Poissons Ratio (z) = 0.07994 0.21759
#
# Static dielectric constant tensor:
#      x y z
#    x 3.544210 0.000000 0.000000 
#    y 0.000000 3.637090 0.000000 
#    z 0.000000 0.000000 4.028780 
# 
# 
# High freq. dielectric constant tensor:
#      x y z
#    x 1.804850 0.000000 0.000000 
#    y 0.000000 1.811110 0.000000 
#    z 0.000000 0.000000 1.835220 
# 
# From -- ./inp_files/2988.got.cif
#   From: 2010.03.12/outbox.cif.g09.slc.cpg/sg53_2_cif.got.tgz:2988.got - 2010.04.16 14:36:59.
