data_PCOD8221363
_publ_section_title
;
Structure prediction by ZEFSAII (Michael W. Deem and Ramdas Pophale) SiO2 
 PCOD8221363
Probable space group: P M N A
;
_chemical_formula_sum "Si O2"
_cell_formula_units_Z 64
_cell_length_a 15.320024
_cell_length_b 17.972759
_cell_length_c 11.367286
_cell_angle_alpha 90.000000
_cell_angle_beta 90.000000
_cell_angle_gamma 90.000000
_cell_volume 3129.903757
_symmetry_space_group_name_H-M "P M N A"
_symmetry_group_IT_number 53
_symmetry_cell_setting 'orthorhombic'
loop_
_space_group_symop_operation_xyz
x,y,z
1/2-x,-y,1/2+z
x,-y,-z
1/2-x,y,1/2-z
-x,-y,-z
1/2+x,y,1/2-z
-x,y,z
1/2+x,-y,1/2+z
loop_
_atom_site_type_symbol
_atom_site_label
_atom_site_fract_x
_atom_site_fract_y
_atom_site_fract_z
Si Si1 0.265356 0.824400 0.988600
Si Si2 0.217147 0.027340 0.377652
Si Si3 0.599901 0.584720 0.487539
Si Si4 0.904385 0.588025 0.497492
Si Si5 0.596541 0.901118 0.144563
Si Si6 0.096857 0.810756 0.136800
Si Si7 0.753991 0.333084 0.386431
Si Si8 0.146615 0.343292 0.751276
O O1 0.332962 0.844411 0.090629
O O2 0.165389 0.824265 0.032808
O O3 0.281733 0.883143 0.882080
O O4 0.286172 0.742264 0.946964
O O5 0.250000 0.000102 0.250000
O O6 0.266987 0.000000 0.500000
O O7 0.122686 0.986810 0.382625
O O8 0.631442 0.500000 0.500000
O O9 0.500000 0.594708 0.530957
O O10 0.661160 0.639116 0.563873
O O11 0.607351 0.603613 0.350775
O O12 0.901908 0.500000 0.500000
O O13 0.830212 0.608630 0.590184
O O14 0.888443 0.625663 0.371263
O O15 0.000000 0.614985 0.540312
O O16 0.500000 0.887315 0.091639
O O17 0.596874 0.884836 0.283586
O O18 0.118120 0.740902 0.221298
O O19 0.000000 0.799172 0.081152
O O20 0.750000 0.318197 0.250000
O O21 0.250000 0.347695 0.750000
#
# Coordination Sequence:
#
# PCOD8221363 Si02
#       8
#     8   8   8   8   8   8   8   8
#     4  11  22  39  61  90 128 169 212 266 332 388
#     4  10  21  39  64  91 126 168 212 262 327 402
#     4  11  25  43  66  94 128 173 222 273 334 401
#     4  11  25  42  62  91 126 164 211 272 334 391
#     4  10  21  37  64  97 127 164 215 270 327 395
#     4  11  21  37  64  97 131 167 216 273 331 394
#     4  12  26  42  63  90 127 172 221 267 324 398
#     4  12  22  39  69  98 129 168 215 277 337 395
#
# _framework density 20.447914000000001
#
# number of rings (size 3 to 8) (size 9 to 14) (size 15 to 20)
#    0.000    1.000    2.500    5.250    1.750    4.250 
#    0.000    0.625    0.000    9.750    0.000    0.000 
#    0.000    0.000    0.000    0.000    0.000    0.000 
#
# Total GULP energy -793135.836746 kJ/mol
# GULP energy per Si atom -12392.747449 kJ/mol
# Density = 2.040137 g / cm^3
# Si number density = 20.447914 Si / 1000 Ang^3
#
#
#
# Elastic Constant Matrix: (Units=GPa)
#
#
# Indices 1 2 3 4 5 6 
#
# 1 142.3301 38.9021 26.6137 0.0000 0.0000 0.0000
# 2 38.9021 108.9930 11.6797 0.0000 0.0000 0.0000
# 3 26.6137 11.6797 75.4185 0.0000 0.0000 0.0000
# 4 0.0000 0.0000 0.0000 33.1503 0.0000 0.0000
# 5 0.0000 0.0000 0.0000 0.0000 16.1482 0.0000
# 6 0.0000 0.0000 0.0000 0.0000 0.0000 16.0231
#
#
#
# Elastic Compliance Matrix: (Units=1/GPa)
#
#
# Indices 1 2 3 4 5 6 
#
# 1 0.008220 -0.002667 -0.002488 0.000000 0.000000 0.000000
# 2 -0.002667 0.010195 -0.000638 0.000000 0.000000 0.000000
# 3 -0.002488 -0.000638 0.014236 0.000000 0.000000 0.000000
# 4 0.000000 0.000000 0.000000 0.030166 0.000000 0.000000
# 5 0.000000 0.000000 0.000000 0.000000 0.061926 0.000000
# 6 0.000000 0.000000 0.000000 0.000000 0.000000 0.062410
#
#
# Mechanical properties :
#
#
# Convention : Reuss Voigt Hill
#
# Bulk Modulus (GPa) = 47.46974 53.45918 50.46446
# Shear Modulus (GPa) = 24.30009 29.70072 27.00040
#
# Velocity S-wave (km/s) = 3.45104 3.81531 3.63774
# Velocity P-wave (km/s) = 6.25659 6.75349 6.50978
#
# Compressibility (1/GPa) = 0.02106605
#
# Stress axis : x y z
#
# Youngs Moduli (GPa) = 121.65250 98.08461 70.24476
#
# Poissons Ratio (x) = 0.26163 0.17474
# Poissons Ratio (y) = 0.32449 0.04479
# Poissons Ratio (z) = 0.30263 0.06254
#
# Static dielectric constant tensor:
#      x y z
#    x 3.914840 0.000000 0.000000 
#    y 0.000000 3.897890 0.000000 
#    z 0.000000 0.000000 3.787490 
# 
# 
# High freq. dielectric constant tensor:
#      x y z
#    x 1.803490 0.000000 0.000000 
#    y 0.000000 1.810000 0.000000 
#    z 0.000000 0.000000 1.788100 
# 
# From -- ./inp_files/16219.got.cif
#   From: 2010.03.12/outbox.cif.g09.slc.cpg/sg53_9_cif.got.tgz:16219.got - 2010.04.16 14:36:59.
