data_PCOD8221736
_publ_section_title
;
Structure prediction by ZEFSAII (Michael W. Deem and Ramdas Pophale) SiO2 
 PCOD8221736
Probable space group: P M N A
;
_chemical_formula_sum "Si O2"
_cell_formula_units_Z 64
_cell_length_a 8.750426
_cell_length_b 11.885450
_cell_length_c 30.857684
_cell_angle_alpha 90.000000
_cell_angle_beta 90.000000
_cell_angle_gamma 90.000000
_cell_volume 3209.284016
_symmetry_space_group_name_H-M "P M N A"
_symmetry_group_IT_number 53
_symmetry_cell_setting 'orthorhombic'
loop_
_space_group_symop_operation_xyz
x,y,z
1/2-x,-y,1/2+z
x,-y,-z
1/2-x,y,1/2-z
-x,-y,-z
1/2+x,y,1/2-z
-x,y,z
1/2+x,-y,1/2+z
loop_
_atom_site_type_symbol
_atom_site_label
_atom_site_fract_x
_atom_site_fract_y
_atom_site_fract_z
Si Si1 0.676755 0.737260 0.041239
Si Si2 0.820522 0.487884 0.825766
Si Si3 0.819359 0.736981 0.294518
Si Si4 0.321724 0.882896 0.625479
Si Si5 0.680424 0.268582 0.295099
Si Si6 0.680538 0.874779 0.123535
Si Si7 0.177558 0.281167 0.047071
Si Si8 0.175631 0.500060 0.582364
O O1 0.500000 0.765659 0.032080
O O2 0.742319 0.811430 0.080887
O O3 0.699299 0.606173 0.051399
O O4 0.776408 0.769660 0.999363
O O5 0.729632 0.391752 0.800749
O O6 0.763867 0.605546 0.805666
O O7 0.784340 0.487187 0.876485
O O8 0.000000 0.469366 0.819260
O O9 0.750000 0.785082 0.250000
O O10 0.753708 0.812430 0.333850
O O11 0.000000 0.743436 0.291817
O O12 0.500000 0.910509 0.629283
O O13 0.261981 0.813889 0.667030
O O14 0.284625 0.812022 0.582777
O O15 0.229004 0.997022 0.622879
O O16 0.750000 0.226281 0.250000
O O17 0.500000 0.264632 0.292218
O O18 0.500000 0.864660 0.124414
O O19 0.279493 0.390732 0.055194
O O20 0.000000 0.314682 0.048391
O O21 0.000000 0.507899 0.597898
#
# Coordination Sequence:
#
# PCOD8221736 Si02
#       8
#     8   8   8   8   8   8   8   8
#     4  10  22  41  61  88 123 157 196 246 300 357
#     4  11  21  37  62  91 125 160 197 244 301 361
#     4  11  23  41  62  91 125 159 200 247 299 357
#     4  10  23  43  61  83 120 157 199 252 301 349
#     4  10  22  40  60  87 122 155 193 244 294 351
#     4  10  23  43  63  85 118 157 204 252 297 354
#     4  11  23  40  61  90 124 157 199 248 298 360
#     4  11  21  37  62  90 124 161 196 242 301 361
#
# _framework density 19.942142
#
# number of rings (size 3 to 8) (size 9 to 14) (size 15 to 20)
#    0.000    1.500    2.500    2.250    0.000    8.500 
#    0.000    5.000    0.000    0.000    0.000    0.000 
#    0.000    0.000    0.000    0.000    0.000    0.000 
#
# Total GULP energy -793959.692692 kJ/mol
# GULP energy per Si atom -12405.620198 kJ/mol
# Density = 1.989675 g / cm^3
# Si number density = 19.942142 Si / 1000 Ang^3
#
#
#
# Elastic Constant Matrix: (Units=GPa)
#
#
# Indices 1 2 3 4 5 6 
#
# 1 37.1937 24.0423 30.4769 0.0000 0.0000 0.0000
# 2 24.0423 111.4971 52.2594 0.0000 0.0000 0.0000
# 3 30.4769 52.2594 163.3851 0.0000 0.0000 0.0000
# 4 0.0000 0.0000 0.0000 11.5730 0.0000 0.0000
# 5 0.0000 0.0000 0.0000 0.0000 37.4198 0.0000
# 6 0.0000 0.0000 0.0000 0.0000 0.0000 32.3233
#
#
#
# Elastic Compliance Matrix: (Units=1/GPa)
#
#
# Indices 1 2 3 4 5 6 
#
# 1 0.034068 -0.005138 -0.004711 0.000000 0.000000 0.000000
# 2 -0.005138 0.011325 -0.002664 0.000000 0.000000 0.000000
# 3 -0.004711 -0.002664 0.007851 0.000000 0.000000 0.000000
# 4 0.000000 0.000000 0.000000 0.086408 0.000000 0.000000
# 5 0.000000 0.000000 0.000000 0.000000 0.026724 0.000000
# 6 0.000000 0.000000 0.000000 0.000000 0.000000 0.030937
#
#
# Mechanical properties :
#
#
# Convention : Reuss Voigt Hill
#
# Bulk Modulus (GPa) = 35.43829 58.40368 46.92099
# Shear Modulus (GPa) = 21.57524 29.94971 25.76248
#
# Velocity S-wave (km/s) = 3.29278 3.87955 3.59815
# Velocity P-wave (km/s) = 5.68029 7.02979 6.39076
#
# Compressibility (1/GPa) = 0.02821806
#
# Stress axis : x y z
#
# Youngs Moduli (GPa) = 29.35301 88.29707 127.36443
#
# Poissons Ratio (x) = 0.45366 0.60008
# Poissons Ratio (y) = 0.15081 0.33931
# Poissons Ratio (z) = 0.13830 0.23523
#
# Static dielectric constant tensor:
#      x y z
#    x 3.521730 0.000000 0.000000 
#    y 0.000000 3.576960 0.000000 
#    z 0.000000 0.000000 3.973480 
# 
# 
# High freq. dielectric constant tensor:
#      x y z
#    x 1.771930 0.000000 0.000000 
#    y 0.000000 1.773990 0.000000 
#    z 0.000000 0.000000 1.795310 
# 
# From -- ./inp_files/38285.got.cif
#   From: 2010.03.12/outbox.cif.g09.slc.cpg/sg53_20_cif.got.tgz:38285.got - 2010.04.16 14:36:59.
