data_PCOD8221427
_publ_section_title
;
Structure prediction by ZEFSAII (Michael W. Deem and Ramdas Pophale) SiO2 
 PCOD8221427
Probable space group: P M N A
;
_chemical_formula_sum "Si O2"
_cell_formula_units_Z 64
_cell_length_a 8.487376
_cell_length_b 24.165456
_cell_length_c 14.626624
_cell_angle_alpha 90.000000
_cell_angle_beta 90.000000
_cell_angle_gamma 90.000000
_cell_volume 2999.939762
_symmetry_space_group_name_H-M "P M N A"
_symmetry_group_IT_number 53
_symmetry_cell_setting 'orthorhombic'
loop_
_space_group_symop_operation_xyz
x,y,z
1/2-x,-y,1/2+z
x,-y,-z
1/2-x,y,1/2-z
-x,-y,-z
1/2+x,y,1/2-z
-x,y,z
1/2+x,-y,1/2+z
loop_
_atom_site_type_symbol
_atom_site_label
_atom_site_fract_x
_atom_site_fract_y
_atom_site_fract_z
Si Si1 0.179836 0.434724 0.493030
Si Si2 0.817729 0.736602 0.343488
Si Si3 0.682345 0.381153 0.663026
Si Si4 0.685088 0.915219 0.348750
Si Si5 0.316745 0.244788 0.461966
Si Si6 0.187606 0.353573 0.147659
Si Si7 0.313476 0.966114 0.848898
Si Si8 0.315086 0.867731 0.976263
O O1 0.195184 0.500000 0.500000
O O2 0.298732 0.413414 0.569569
O O3 0.237723 0.409027 0.396731
O O4 0.000000 0.416255 0.510496
O O5 0.750000 0.764381 0.250000
O O6 0.798762 0.670986 0.336855
O O7 0.717065 0.754759 0.430389
O O8 0.000000 0.753056 0.356719
O O9 0.750000 0.416688 0.750000
O O10 0.500000 0.364099 0.673539
O O11 0.750000 0.897646 0.250000
O O12 0.500000 0.919293 0.341538
O O13 0.736903 0.869732 0.423044
O O14 0.751611 0.974450 0.381299
O O15 0.500000 0.239185 0.443411
O O16 0.254418 0.299884 0.410516
O O17 0.232367 0.189265 0.424608
O O18 0.250000 0.347336 0.250000
O O19 0.000000 0.358762 0.147320
O O20 0.250000 0.950255 0.750000
O O21 0.500000 0.968227 0.846546
O O22 0.251108 0.919187 0.917540
O O23 0.500000 0.870582 0.988456
#
# Coordination Sequence:
#
# PCOD8221427 Si02
#       8
#     8   8   8   8   8   8   8   8
#     4  11  24  42  66  96 129 165 208 259 314 372
#     4  11  21  36  61  89 120 157 197 245 300 364
#     4  11  21  36  60  90 123 159 199 244 300 361
#     4  11  22  38  62  90 123 163 206 255 313 378
#     4  11  24  42  63  91 124 163 211 260 311 371
#     4  11  25  45  70  95 127 169 214 262 313 373
#     4  10  21  38  61  88 121 160 206 258 313 373
#     4  11  24  40  60  89 124 163 207 259 314 369
#
# _framework density 21.333762
#
# number of rings (size 3 to 8) (size 9 to 14) (size 15 to 20)
#    0.000    1.125    1.250    7.125    0.000    7.500 
#    0.000    5.000    0.000    0.000    0.000    0.000 
#    0.000    0.000    0.000    0.000    0.000    0.000 
#
# Total GULP energy -793615.564266 kJ/mol
# GULP energy per Si atom -12400.243192 kJ/mol
# Density = 2.128521 g / cm^3
# Si number density = 21.333762 Si / 1000 Ang^3
#
#
#
# Elastic Constant Matrix: (Units=GPa)
#
#
# Indices 1 2 3 4 5 6 
#
# 1 90.6808 28.5241 23.9272 0.0000 0.0000 0.0000
# 2 28.5241 98.6278 43.2073 0.0000 0.0000 0.0000
# 3 23.9272 43.2073 109.5560 0.0000 0.0000 0.0000
# 4 0.0000 0.0000 0.0000 16.9894 0.0000 0.0000
# 5 0.0000 0.0000 0.0000 0.0000 30.8889 0.0000
# 6 0.0000 0.0000 0.0000 0.0000 0.0000 28.9742
#
#
#
# Elastic Compliance Matrix: (Units=1/GPa)
#
#
# Indices 1 2 3 4 5 6 
#
# 1 0.012347 -0.002889 -0.001557 0.000000 0.000000 0.000000
# 2 -0.002889 0.012933 -0.004470 0.000000 0.000000 0.000000
# 3 -0.001557 -0.004470 0.011231 0.000000 0.000000 0.000000
# 4 0.000000 0.000000 0.000000 0.058860 0.000000 0.000000
# 5 0.000000 0.000000 0.000000 0.000000 0.032374 0.000000
# 6 0.000000 0.000000 0.000000 0.000000 0.000000 0.034513
#
#
# Mechanical properties :
#
#
# Convention : Reuss Voigt Hill
#
# Bulk Modulus (GPa) = 53.53537 54.46464 54.00000
# Shear Modulus (GPa) = 26.83616 28.91759 27.87687
#
# Velocity S-wave (km/s) = 3.55056 3.68568 3.61876
# Velocity P-wave (km/s) = 6.47745 6.61041 6.54427
#
# Compressibility (1/GPa) = 0.01867924
#
# Stress axis : x y z
#
# Youngs Moduli (GPa) = 80.98954 77.32401 89.04230
#
# Poissons Ratio (x) = 0.22336 0.13868
# Poissons Ratio (y) = 0.23395 0.39798
# Poissons Ratio (z) = 0.12613 0.34560
#
# Static dielectric constant tensor:
#      x y z
#    x 3.836670 0.000000 0.000000 
#    y 0.000000 3.977970 0.000000 
#    z 0.000000 0.000000 4.265630 
# 
# 
# High freq. dielectric constant tensor:
#      x y z
#    x 1.847550 0.000000 0.000000 
#    y 0.000000 1.832340 0.000000 
#    z 0.000000 0.000000 1.842200 
# 
# From -- ./inp_files/20827.got.cif
#   From: 2010.03.12/outbox.cif.g09.slc.cpg/sg53_11_cif.got.tgz:20827.got - 2010.04.16 14:36:59.
