data_PCOD8221546
_publ_section_title
;
Structure prediction by ZEFSAII (Michael W. Deem and Ramdas Pophale) SiO2 
 PCOD8221546
Probable space group: P M N A
;
_chemical_formula_sum "Si O2"
_cell_formula_units_Z 56
_cell_length_a 14.426431
_cell_length_b 8.570321
_cell_length_c 20.142448
_cell_angle_alpha 90.000000
_cell_angle_beta 90.000000
_cell_angle_gamma 90.000000
_cell_volume 2490.395040
_symmetry_space_group_name_H-M "P M N A"
_symmetry_group_IT_number 53
_symmetry_cell_setting 'orthorhombic'
loop_
_space_group_symop_operation_xyz
x,y,z
1/2-x,-y,1/2+z
x,-y,-z
1/2-x,y,1/2-z
-x,-y,-z
1/2+x,y,1/2-z
-x,y,z
1/2+x,-y,1/2+z
loop_
_atom_site_type_symbol
_atom_site_label
_atom_site_fract_x
_atom_site_fract_y
_atom_site_fract_z
Si Si1 0.140857 0.362636 0.251781
Si Si2 0.397686 0.234664 0.111563
Si Si3 0.701904 0.854274 0.400258
Si Si4 0.601132 0.113913 0.850772
Si Si5 0.604658 0.824464 0.627449
Si Si6 0.275996 0.326980 0.471625
Si Si7 0.145419 0.701834 0.226837
O O1 0.250000 0.351793 0.250000
O O2 0.107715 0.354521 0.327614
O O3 0.102134 0.223891 0.204964
O O4 0.100975 0.529804 0.228094
O O5 0.500000 0.243004 0.078845
O O6 0.324899 0.272648 0.053827
O O7 0.379700 0.069710 0.146972
O O8 0.811096 0.812284 0.388649
O O9 0.683646 0.794328 0.474172
O O10 0.637851 0.761509 0.348399
O O11 0.675073 0.034939 0.390327
O O12 0.500000 0.152069 0.883956
O O13 0.595000 0.174443 0.774926
O O14 0.500000 0.863947 0.604373
O O15 0.648480 0.677110 0.587702
O O16 0.268082 0.500000 0.500000
O O17 0.250000 0.689490 0.250000
#
# Coordination Sequence:
#
# PCOD8221546 Si02
#       7
#     8   8   8   8   8   8   8
#     4  11  20  41  70 101 139 179 218 278 342 398
#     4  11  24  42  67 102 139 179 224 275 337 405
#     4  11  23  44  66  95 132 179 224 274 332 401
#     4  10  21  39  66  99 134 171 217 272 331 396
#     4  12  26  45  71 100 130 174 228 285 341 401
#     4  12  27  46  68  93 135 184 226 279 335 403
#     4   9  21  37  65 100 135 175 219 272 331 388
#
# _framework density 22.486391999999999
#
# number of rings (size 3 to 8) (size 9 to 14) (size 15 to 20)
#    0.000    1.143    2.857    2.571    4.000    6.286 
#    0.000    2.857    0.000    0.000    0.000    0.000 
#    0.000    0.000    0.000    0.000    0.000    0.000 
#
# Total GULP energy -694173.150811 kJ/mol
# GULP energy per Si atom -12395.949122 kJ/mol
# Density = 2.243521 g / cm^3
# Si number density = 22.486392 Si / 1000 Ang^3
#
#
#
# Elastic Constant Matrix: (Units=GPa)
#
#
# Indices 1 2 3 4 5 6 
#
# 1 112.2286 14.7183 13.2309 0.0000 0.0000 0.0000
# 2 14.7183 117.9390 37.3079 0.0000 0.0000 0.0000
# 3 13.2309 37.3079 100.9632 0.0000 0.0000 0.0000
# 4 0.0000 0.0000 0.0000 42.4218 0.0000 0.0000
# 5 0.0000 0.0000 0.0000 0.0000 20.6257 0.0000
# 6 0.0000 0.0000 0.0000 0.0000 0.0000 7.5781
#
#
#
# Elastic Compliance Matrix: (Units=1/GPa)
#
#
# Indices 1 2 3 4 5 6 
#
# 1 0.009127 -0.000861 -0.000878 0.000000 0.000000 0.000000
# 2 -0.000861 0.009683 -0.003465 0.000000 0.000000 0.000000
# 3 -0.000878 -0.003465 0.011300 0.000000 0.000000 0.000000
# 4 0.000000 0.000000 0.000000 0.023573 0.000000 0.000000
# 5 0.000000 0.000000 0.000000 0.000000 0.048483 0.000000
# 6 0.000000 0.000000 0.000000 0.000000 0.000000 0.131959
#
#
# Mechanical properties :
#
#
# Convention : Reuss Voigt Hill
#
# Bulk Modulus (GPa) = 50.75839 51.29388 51.02613
# Shear Modulus (GPa) = 19.91243 31.85005 25.88124
#
# Velocity S-wave (km/s) = 2.97902 3.76761 3.39628
# Velocity P-wave (km/s) = 5.86981 6.46430 6.17421
#
# Compressibility (1/GPa) = 0.01970118
#
# Stress axis : x y z
#
# Youngs Moduli (GPa) = 109.56709 103.27864 88.49545
#
# Poissons Ratio (x) = 0.08896 0.07768
# Poissons Ratio (y) = 0.09437 0.30664
# Poissons Ratio (z) = 0.09617 0.35786
#
# Static dielectric constant tensor:
#      x y z
#    x 4.198320 0.000000 0.000000 
#    y 0.000000 4.103080 0.000000 
#    z 0.000000 0.000000 3.978260 
# 
# 
# High freq. dielectric constant tensor:
#      x y z
#    x 1.889580 0.000000 0.000000 
#    y 0.000000 1.883710 0.000000 
#    z 0.000000 0.000000 1.875960 
# 
# From -- ./inp_files/32440.got.cif
#   From: 2010.03.12/outbox.cif.g09.slc.cpg/sg53_17_cif.got.tgz:32440.got - 2010.04.16 14:36:59.
