data_PCOD8221982
_publ_section_title
;
Structure prediction by ZEFSAII (Michael W. Deem and Ramdas Pophale) SiO2 
 PCOD8221982
Probable space group: P M N A
;
_chemical_formula_sum "Si O2"
_cell_formula_units_Z 40
_cell_length_a 20.855459
_cell_length_b 4.999120
_cell_length_c 20.386784
_cell_angle_alpha 90.000000
_cell_angle_beta 90.000000
_cell_angle_gamma 90.000000
_cell_volume 2125.504535
_symmetry_space_group_name_H-M "P M N A"
_symmetry_group_IT_number 53
_symmetry_cell_setting 'orthorhombic'
loop_
_space_group_symop_operation_xyz
x,y,z
1/2-x,-y,1/2+z
x,-y,-z
1/2-x,y,1/2-z
-x,-y,-z
1/2+x,y,1/2-z
-x,y,z
1/2+x,-y,1/2+z
loop_
_atom_site_type_symbol
_atom_site_label
_atom_site_fract_x
_atom_site_fract_y
_atom_site_fract_z
Si Si1 0.352549 0.101163 0.228434
Si Si2 0.426951 0.378000 0.814337
Si Si3 0.608838 0.743064 0.041114
Si Si4 0.744602 0.628534 0.435179
Si Si5 0.728564 0.885812 0.647924
O O1 0.385456 0.356162 0.195074
O O2 0.329887 0.163845 0.302200
O O3 0.292139 0.007348 0.184544
O O4 0.401408 0.854100 0.233532
O O5 0.500000 0.443859 0.796188
O O6 0.422437 0.259061 0.887459
O O7 0.685288 0.728755 0.045385
O O8 0.580045 0.500000 0.000000
O O9 0.587795 0.000000 0.000000
O O10 0.710682 0.500000 0.500000
O O11 0.746329 0.401047 0.380684
O O12 0.708382 0.891587 0.406566
#
# Coordination Sequence:
#
# PCOD8221982 Si02
#       5
#     8   8   8   8   8
#     4  11  22  38  56  81 107 146 192 229 291 326
#     4  12  24  39  55  77 112 149 199 240 269 320
#     4  11  21  34  52  73 109 151 193 228 260 306
#     4  11  20  33  55  85 115 144 179 226 283 331
#     4  11  20  36  59  80 111 143 183 233 278 353
#
# _framework density 18.819061999999999
#
# number of rings (size 3 to 8) (size 9 to 14) (size 15 to 20)
#    0.000    0.800    4.000    6.000    0.000    4.000 
#    0.000    0.000    0.000    0.000    0.000    0.000 
#    0.000   56.000    0.000    0.000    0.000    0.000 
#
# Total GULP energy -496050.488910 kJ/mol
# GULP energy per Si atom -12401.262223 kJ/mol
# Density = 1.877623 g / cm^3
# Si number density = 18.819062 Si / 1000 Ang^3
#
#
#
# Elastic Constant Matrix: (Units=GPa)
#
#
# Indices 1 2 3 4 5 6 
#
# 1 64.8384 26.6899 37.7304 0.0000 0.0000 0.0000
# 2 26.6899 122.2610 23.0549 0.0000 0.0000 0.0000
# 3 37.7304 23.0549 66.5516 0.0000 0.0000 0.0000
# 4 0.0000 0.0000 0.0000 35.5101 0.0000 0.0000
# 5 0.0000 0.0000 0.0000 0.0000 17.5204 0.0000
# 6 0.0000 0.0000 0.0000 0.0000 0.0000 16.0659
#
#
#
# Elastic Compliance Matrix: (Units=1/GPa)
#
#
# Indices 1 2 3 4 5 6 
#
# 1 0.023909 -0.002850 -0.012568 0.000000 0.000000 0.000000
# 2 -0.002850 0.009090 -0.001534 0.000000 0.000000 0.000000
# 3 -0.012568 -0.001534 0.022682 0.000000 0.000000 0.000000
# 4 0.000000 0.000000 0.000000 0.028161 0.000000 0.000000
# 5 0.000000 0.000000 0.000000 0.000000 0.057076 0.000000
# 6 0.000000 0.000000 0.000000 0.000000 0.000000 0.062243
#
#
# Mechanical properties :
#
#
# Convention : Reuss Voigt Hill
#
# Bulk Modulus (GPa) = 45.91350 47.62240 46.76795
# Shear Modulus (GPa) = 20.46452 24.89767 22.68109
#
# Velocity S-wave (km/s) = 3.30121 3.64126 3.47539
# Velocity P-wave (km/s) = 6.24347 6.56039 6.40389
#
# Compressibility (1/GPa) = 0.02178009
#
# Stress axis : x y z
#
# Youngs Moduli (GPa) = 41.82459 110.00515 44.08705
#
# Poissons Ratio (x) = 0.31346 0.55408
# Poissons Ratio (y) = 0.11918 0.06761
# Poissons Ratio (z) = 0.52565 0.16871
#
# Static dielectric constant tensor:
#      x y z
#    x 3.113750 0.000000 0.000000 
#    y 0.000000 3.513810 0.000000 
#    z 0.000000 0.000000 3.658860 
# 
# 
# High freq. dielectric constant tensor:
#      x y z
#    x 1.678480 0.000000 0.000000 
#    y 0.000000 1.755430 0.000000 
#    z 0.000000 0.000000 1.729340 
# 
# From -- ./inp_files/29210.got.cif
#   From: 2010.03.12/outbox.cif.g09.slc.cpg/sg53_15_cif.got.tgz:29210.got - 2010.04.16 14:36:59.
