data_PCOD8221977
_publ_section_title
;
Structure prediction by ZEFSAII (Michael W. Deem and Ramdas Pophale) SiO2 
 PCOD8221977
Probable space group: P M N A
;
_chemical_formula_sum "Si O2"
_cell_formula_units_Z 40
_cell_length_a 8.705389
_cell_length_b 11.520358
_cell_length_c 21.468402
_cell_angle_alpha 90.000000
_cell_angle_beta 90.000000
_cell_angle_gamma 90.000000
_cell_volume 2153.048815
_symmetry_space_group_name_H-M "P M N A"
_symmetry_group_IT_number 53
_symmetry_cell_setting 'orthorhombic'
loop_
_space_group_symop_operation_xyz
x,y,z
1/2-x,-y,1/2+z
x,-y,-z
1/2-x,y,1/2-z
-x,-y,-z
1/2+x,y,1/2-z
-x,y,z
1/2+x,-y,1/2+z
loop_
_atom_site_type_symbol
_atom_site_label
_atom_site_fract_x
_atom_site_fract_y
_atom_site_fract_z
Si Si1 0.829453 0.195249 0.006643
Si Si2 0.677105 0.120591 0.186960
Si Si3 0.318093 0.366202 0.317857
Si Si4 0.679073 0.416986 0.055510
Si Si5 0.829384 0.025276 0.906264
O O1 0.000000 0.252525 0.007834
O O2 0.786592 0.149864 0.936980
O O3 0.706293 0.285892 0.032174
O O4 0.829946 0.078580 0.045186
O O5 0.750000 0.076308 0.250000
O O6 0.500000 0.155015 0.193638
O O7 0.768659 0.235148 0.164848
O O8 0.699400 0.009291 0.143080
O O9 0.250000 0.404154 0.250000
O O10 0.500000 0.375821 0.313260
O O11 0.260215 0.442610 0.377250
O O12 0.500000 0.437322 0.066328
O O13 0.741933 0.500000 0.000000
O O14 0.000000 0.034193 0.876128
#
# Coordination Sequence:
#
# PCOD8221977 Si02
#       5
#     8   8   8   8   8
#     4   9  18  32  52  75 103 137 172 210 259 312
#     4  11  20  30  48  75 106 140 174 213 263 317
#     4  11  21  35  55  78 107 140 178 223 273 325
#     4  11  23  37  54  80 113 144 181 228 271 318
#     4   9  17  31  50  75 105 135 167 211 259 309
#
# _framework density 18.578306999999999
#
# number of rings (size 3 to 8) (size 9 to 14) (size 15 to 20)
#    0.000    1.800    2.000    6.600    0.000    2.400 
#    0.000    2.000    0.000    1.200    0.000    8.400 
#    0.000    0.000    0.000    0.000    0.000    0.000 
#
# Total GULP energy -495571.718713 kJ/mol
# GULP energy per Si atom -12389.292968 kJ/mol
# Density = 1.853602 g / cm^3
# Si number density = 18.578307 Si / 1000 Ang^3
#
#
#
# Elastic Constant Matrix: (Units=GPa)
#
#
# Indices 1 2 3 4 5 6 
#
# 1 109.9003 17.4881 53.0481 0.0000 0.0000 0.0000
# 2 17.4881 37.9815 35.6161 0.0000 0.0000 0.0000
# 3 53.0481 35.6161 132.7524 0.0000 0.0000 0.0000
# 4 0.0000 0.0000 0.0000 34.8011 0.0000 0.0000
# 5 0.0000 0.0000 0.0000 0.0000 29.3478 0.0000
# 6 0.0000 0.0000 0.0000 0.0000 0.0000 9.6531
#
#
#
# Elastic Compliance Matrix: (Units=1/GPa)
#
#
# Indices 1 2 3 4 5 6 
#
# 1 0.011321 -0.001297 -0.004176 0.000000 0.000000 0.000000
# 2 -0.001297 0.035327 -0.008960 0.000000 0.000000 0.000000
# 3 -0.004176 -0.008960 0.011605 0.000000 0.000000 0.000000
# 4 0.000000 0.000000 0.000000 0.028735 0.000000 0.000000
# 5 0.000000 0.000000 0.000000 0.000000 0.034074 0.000000
# 6 0.000000 0.000000 0.000000 0.000000 0.000000 0.103594
#
#
# Mechanical properties :
#
#
# Convention : Reuss Voigt Hill
#
# Bulk Modulus (GPa) = 34.02644 54.77098 44.39871
# Shear Modulus (GPa) = 18.98842 26.39253 22.69047
#
# Velocity S-wave (km/s) = 3.20046 3.77319 3.49856
# Velocity P-wave (km/s) = 5.65793 6.96618 6.34586
#
# Compressibility (1/GPa) = 0.02938891
#
# Stress axis : x y z
#
# Youngs Moduli (GPa) = 88.32924 28.30658 86.16651
#
# Poissons Ratio (x) = 0.03670 0.35984
# Poissons Ratio (y) = 0.11454 0.77204
# Poissons Ratio (z) = 0.36887 0.25362
#
# Static dielectric constant tensor:
#      x y z
#    x 3.447880 0.000000 0.000000 
#    y 0.000000 3.289550 0.000000 
#    z 0.000000 0.000000 4.217960 
# 
# 
# High freq. dielectric constant tensor:
#      x y z
#    x 1.723550 0.000000 0.000000 
#    y 0.000000 1.669620 0.000000 
#    z 0.000000 0.000000 1.730210 
# 
# From -- ./inp_files/30363.got.cif
#   From: 2010.03.12/outbox.cif.g09.slc.cpg/sg53_16_cif.got.tgz:30363.got - 2010.04.16 14:36:59.
