data_PCOD8221120
_publ_section_title
;
Structure prediction by ZEFSAII (Michael W. Deem and Ramdas Pophale) SiO2 
 PCOD8221120
Probable space group: P M N A
;
_chemical_formula_sum "Si O2"
_cell_formula_units_Z 48
_cell_length_a 8.778837
_cell_length_b 31.152884
_cell_length_c 9.112766
_cell_angle_alpha 90.000000
_cell_angle_beta 90.000000
_cell_angle_gamma 90.000000
_cell_volume 2492.214749
_symmetry_space_group_name_H-M "P M N A"
_symmetry_group_IT_number 53
_symmetry_cell_setting 'orthorhombic'
loop_
_space_group_symop_operation_xyz
x,y,z
1/2-x,-y,1/2+z
x,-y,-z
1/2-x,y,1/2-z
-x,-y,-z
1/2+x,y,1/2-z
-x,y,z
1/2+x,-y,1/2+z
loop_
_atom_site_type_symbol
_atom_site_label
_atom_site_fract_x
_atom_site_fract_y
_atom_site_fract_z
Si Si1 0.180007 0.540944 0.590551
Si Si2 0.175724 0.042606 0.594031
Si Si3 0.319775 0.376946 0.908426
Si Si4 0.178385 0.797038 0.591062
Si Si5 0.322197 0.297061 0.091296
Si Si6 0.819719 0.881882 0.911831
O O1 0.239708 0.500000 0.500000
O O2 0.250000 0.539695 0.750000
O O3 0.236015 0.583777 0.508759
O O4 0.000000 0.539976 0.606040
O O5 0.250000 0.033159 0.750000
O O6 0.267167 0.080245 0.516034
O O7 0.000000 0.056027 0.612257
O O8 0.192919 0.000000 0.500000
O O9 0.250000 0.382789 0.750000
O O10 0.500000 0.376365 0.892725
O O11 0.257689 0.332808 0.980400
O O12 0.250000 0.794092 0.750000
O O13 0.209731 0.750185 0.519202
O O14 0.262339 0.837114 0.512421
O O15 0.000000 0.807317 0.600475
O O16 0.250000 0.302935 0.250000
O O17 0.500000 0.303805 0.115926
O O18 0.750000 0.887768 0.750000
O O19 0.000000 0.881972 0.898674
#
# Coordination Sequence:
#
# PCOD8221120 Si02
#       6
#     8   8   8   8   8   8
#     4  10  21  36  55  80 108 138 175 218 263 316
#     4  11  24  41  61  85 113 145 182 224 270 321
#     4  10  21  36  52  75 106 139 178 220 265 317
#     4   9  16  29  50  76 106 138 176 221 268 317
#     4   9  18  32  52  77 104 136 176 223 268 316
#     4  11  21  35  57  84 114 147 184 225 271 322
#
# _framework density 19.259978
#
# number of rings (size 3 to 8) (size 9 to 14) (size 15 to 20)
#    0.000    2.000    0.000    5.000    0.000    5.000 
#    0.000    0.833    0.000    2.000    0.000    0.000 
#    0.000    0.000    0.000    0.000    0.000    0.000 
#
# Total GULP energy -595075.495096 kJ/mol
# GULP energy per Si atom -12397.406148 kJ/mol
# Density = 1.921614 g / cm^3
# Si number density = 19.259978 Si / 1000 Ang^3
#
#
#
# Elastic Constant Matrix: (Units=GPa)
#
#
# Indices 1 2 3 4 5 6 
#
# 1 97.5670 59.4928 45.1851 0.0000 0.0000 0.0000
# 2 59.4928 161.4220 64.1133 0.0000 0.0000 0.0000
# 3 45.1851 64.1133 118.7795 0.0000 0.0000 0.0000
# 4 0.0000 0.0000 0.0000 142.5864 0.0000 0.0000
# 5 0.0000 0.0000 0.0000 0.0000 30.1485 0.0000
# 6 0.0000 0.0000 0.0000 0.0000 0.0000 -14.1874
#
#
#
# Elastic Compliance Matrix: (Units=1/GPa)
#
#
# Indices 1 2 3 4 5 6 
#
# 1 0.014152 -0.003917 -0.003269 0.000000 0.000000 0.000000
# 2 -0.003917 0.008970 -0.003351 0.000000 0.000000 0.000000
# 3 -0.003269 -0.003351 0.011472 0.000000 0.000000 0.000000
# 4 0.000000 0.000000 0.000000 0.007013 0.000000 0.000000
# 5 0.000000 0.000000 0.000000 0.000000 0.033169 0.000000
# 6 0.000000 0.000000 0.000000 0.000000 0.000000 -0.070485
#
#
# Mechanical properties :
#
#
# Convention : Reuss Voigt Hill
#
# Bulk Modulus (GPa) = 73.97764 79.48345 76.73054
# Shear Modulus (GPa) = 167.37728 45.64131 106.50929
#
# Velocity S-wave (km/s) = 9.33235 4.87329 7.44452
# Velocity P-wave (km/s) = 12.43452 8.54538 10.66866
#
# Compressibility (1/GPa) = 0.01351760
#
# Stress axis : x y z
#
# Youngs Moduli (GPa) = 70.66124 111.48509 87.17215
#
# Poissons Ratio (x) = 0.43673 0.28498
# Poissons Ratio (y) = 0.27681 0.29215
# Poissons Ratio (z) = 0.23100 0.37363
#
# Static dielectric constant tensor:
#      x y z
#    x 3.575740 0.000000 0.000000 
#    y 0.000000 4.425680 0.000000 
#    z 0.000000 0.000000 3.283430 
# 
# 
# High freq. dielectric constant tensor:
#      x y z
#    x 1.752110 0.000000 0.000000 
#    y 0.000000 1.777610 0.000000 
#    z 0.000000 0.000000 1.725470 
# 
# From -- ./inp_files/6730.got.cif
#   From: 2010.03.12/outbox.cif.g09.slc.cpg/sg53_4_cif.got.tgz:6730.got - 2010.04.16 14:36:59.
