data_PCOD8221855
_publ_section_title
;
Structure prediction by ZEFSAII (Michael W. Deem and Ramdas Pophale) SiO2 
 PCOD8221855
Probable space group: P M N A
;
_chemical_formula_sum "Si O2"
_cell_formula_units_Z 48
_cell_length_a 13.090601
_cell_length_b 12.044677
_cell_length_c 14.625049
_cell_angle_alpha 90.000000
_cell_angle_beta 90.000000
_cell_angle_gamma 90.000000
_cell_volume 2305.961615
_symmetry_space_group_name_H-M "P M N A"
_symmetry_group_IT_number 53
_symmetry_cell_setting 'orthorhombic'
loop_
_space_group_symop_operation_xyz
x,y,z
1/2-x,-y,1/2+z
x,-y,-z
1/2-x,y,1/2-z
-x,-y,-z
1/2+x,y,1/2-z
-x,y,z
1/2+x,-y,1/2+z
loop_
_atom_site_type_symbol
_atom_site_label
_atom_site_fract_x
_atom_site_fract_y
_atom_site_fract_z
Si Si1 0.754089 0.186278 0.548200
Si Si2 0.879804 0.770022 0.684517
Si Si3 0.380743 0.623487 0.981351
Si Si4 0.881946 0.160194 0.122284
Si Si5 0.619075 0.999835 0.113643
Si Si6 0.384237 0.086293 0.687932
O O1 0.824380 0.295534 0.552444
O O2 0.675945 0.202672 0.465799
O O3 0.826624 0.076236 0.535651
O O4 0.689176 0.177328 0.641854
O O5 0.859527 0.659242 0.625111
O O6 0.837106 0.770582 0.788998
O O7 0.000000 0.796580 0.695330
O O8 0.833884 0.875321 0.626659
O O9 0.500000 0.631628 0.003455
O O10 0.339472 0.500000 0.000000
O O11 0.000000 0.189123 0.107963
O O12 0.866680 0.028964 0.134474
O O13 0.500000 0.005442 0.090664
O O14 0.642128 0.931163 0.206191
O O15 0.500000 0.127125 0.676618
#
# Coordination Sequence:
#
# PCOD8221855 Si02
#       6
#     8   8   8   8   8   8
#     4  12  21  30  57  89 113 147 193 245 285 346
#     4   8  17  36  57  78 114 156 189 232 293 348
#     4  10  23  41  58  78 110 153 198 245 294 342
#     4   9  19  34  54  85 121 154 186 228 291 357
#     4   9  19  34  53  84 122 154 187 231 291 357
#     4   9  19  35  52  79 124 163 186 222 286 358
#
# _framework density 20.81561
#
# number of rings (size 3 to 8) (size 9 to 14) (size 15 to 20)
#    0.000    2.500    0.000    4.000    4.667    2.000 
#    0.000    2.500    7.333    2.000    0.000    0.000 
#    0.000    0.000    0.000    0.000    0.000    0.000 
#
# Total GULP energy -595155.388971 kJ/mol
# GULP energy per Si atom -12399.070604 kJ/mol
# Density = 2.076823 g / cm^3
# Si number density = 20.815610 Si / 1000 Ang^3
#
#
#
# Elastic Constant Matrix: (Units=GPa)
#
#
# Indices 1 2 3 4 5 6 
#
# 1 42.3762 42.5316 21.8315 0.0000 0.0000 0.0000
# 2 42.5316 130.8118 56.9538 0.0000 0.0000 0.0000
# 3 21.8315 56.9538 108.6485 0.0000 0.0000 0.0000
# 4 0.0000 0.0000 0.0000 26.8528 0.0000 0.0000
# 5 0.0000 0.0000 0.0000 0.0000 30.1467 0.0000
# 6 0.0000 0.0000 0.0000 0.0000 0.0000 25.4389
#
#
#
# Elastic Compliance Matrix: (Units=1/GPa)
#
#
# Indices 1 2 3 4 5 6 
#
# 1 0.035191 -0.010836 -0.001391 0.000000 0.000000 0.000000
# 2 -0.010836 0.013242 -0.004764 0.000000 0.000000 0.000000
# 3 -0.001391 -0.004764 0.011981 0.000000 0.000000 0.000000
# 4 0.000000 0.000000 0.000000 0.037240 0.000000 0.000000
# 5 0.000000 0.000000 0.000000 0.000000 0.033171 0.000000
# 6 0.000000 0.000000 0.000000 0.000000 0.000000 0.039310
#
#
# Mechanical properties :
#
#
# Convention : Reuss Voigt Hill
#
# Bulk Modulus (GPa) = 37.83389 58.27449 48.05419
# Shear Modulus (GPa) = 23.48222 27.18899 25.33560
#
# Velocity S-wave (km/s) = 3.36237 3.61804 3.49254
# Velocity P-wave (km/s) = 5.76968 6.74610 6.27691
#
# Compressibility (1/GPa) = 0.02643133
#
# Stress axis : x y z
#
# Youngs Moduli (GPa) = 28.41665 75.51700 83.46686
#
# Poissons Ratio (x) = 0.81832 0.11608
# Poissons Ratio (y) = 0.30793 0.39765
# Poissons Ratio (z) = 0.03952 0.35977
#
# Static dielectric constant tensor:
#      x y z
#    x 4.135850 0.000000 0.000000 
#    y 0.000000 3.355010 0.000000 
#    z 0.000000 0.000000 3.933380 
# 
# 
# High freq. dielectric constant tensor:
#      x y z
#    x 1.847230 0.000000 0.000000 
#    y 0.000000 1.740760 0.000000 
#    z 0.000000 0.000000 1.831910 
# 
# From -- ./inp_files/22692.got.cif
#   From: 2010.03.12/outbox.cif.g09.slc.cpg/sg53_12_cif.got.tgz:22692.got - 2010.04.16 14:36:59.
