data_PCOD8221563
_publ_section_title
;
Structure prediction by ZEFSAII (Michael W. Deem and Ramdas Pophale) SiO2 
 PCOD8221563
Probable space group: P M N A
;
_chemical_formula_sum "Si O2"
_cell_formula_units_Z 64
_cell_length_a 20.704242
_cell_length_b 18.661221
_cell_length_c 7.954477
_cell_angle_alpha 90.000000
_cell_angle_beta 90.000000
_cell_angle_gamma 90.000000
_cell_volume 3073.342926
_symmetry_space_group_name_H-M "P M N A"
_symmetry_group_IT_number 53
_symmetry_cell_setting 'orthorhombic'
loop_
_space_group_symop_operation_xyz
x,y,z
1/2-x,-y,1/2+z
x,-y,-z
1/2-x,y,1/2-z
-x,-y,-z
1/2+x,y,1/2-z
-x,y,z
1/2+x,-y,1/2+z
loop_
_atom_site_type_symbol
_atom_site_label
_atom_site_fract_x
_atom_site_fract_y
_atom_site_fract_z
Si Si1 0.679706 0.582216 0.802304
Si Si2 0.772260 0.929690 0.574850
Si Si3 0.925776 0.690865 0.807648
Si Si4 0.385882 0.160833 0.174876
Si Si5 0.573051 0.311783 0.692908
Si Si6 0.868180 0.082288 0.984565
Si Si7 0.819820 0.581550 0.303429
Si Si8 0.071577 0.837847 0.318682
O O1 0.750000 0.614006 0.750000
O O2 0.619761 0.622202 0.716070
O O3 0.675549 0.500250 0.740560
O O4 0.671209 0.588746 0.999606
O O5 0.750000 0.962393 0.750000
O O6 0.814754 0.858846 0.605174
O O7 0.708758 0.905928 0.473810
O O8 0.808947 0.000000 0.500000
O O9 0.894630 0.754758 0.699453
O O10 0.000000 0.675374 0.748721
O O11 0.925413 0.714015 0.000743
O O12 0.400557 0.120847 0.351532
O O13 0.429318 0.137140 0.014449
O O14 0.500000 0.336286 0.742208
O O15 0.622075 0.376887 0.715224
O O16 0.596706 0.244335 0.804707
O O17 0.888896 0.110503 0.803029
O O18 0.888400 0.000000 0.000000
O O19 0.750000 0.613270 0.250000
O O20 0.000000 0.839967 0.245378
#
# Coordination Sequence:
#
# PCOD8221563 Si02
#       8
#     8   8   8   8   8   8   8   8
#     4  10  22  39  65  93 131 167 212 266 322 386
#     4   9  21  38  63  92 121 158 202 263 323 384
#     4  11  23  42  65  90 128 173 215 266 322 380
#     4  11  23  39  65  93 127 161 211 264 319 380
#     4  10  22  42  64  88 126 171 217 264 316 388
#     4  10  23  43  64  90 126 163 207 266 325 387
#     4  10  21  40  62  95 129 168 210 267 326 378
#     4  11  24  41  63  89 122 170 215 260 320 381
#
# _framework density 20.82423
#
# number of rings (size 3 to 8) (size 9 to 14) (size 15 to 20)
#    0.000    1.750    1.250    1.875    5.250    5.750 
#    4.500    3.125    0.000    0.000    0.000    0.000 
#    0.000    0.000    0.000    0.000    0.000    0.000 
#
# Total GULP energy -793184.285508 kJ/mol
# GULP energy per Si atom -12393.504461 kJ/mol
# Density = 2.077683 g / cm^3
# Si number density = 20.824230 Si / 1000 Ang^3
#
#
#
# Elastic Constant Matrix: (Units=GPa)
#
#
# Indices 1 2 3 4 5 6 
#
# 1 121.9996 67.8015 29.4756 0.0000 0.0000 0.0000
# 2 67.8015 95.6833 30.8224 0.0000 0.0000 0.0000
# 3 29.4756 30.8224 90.0607 0.0000 0.0000 0.0000
# 4 0.0000 0.0000 0.0000 31.2649 0.0000 0.0000
# 5 0.0000 0.0000 0.0000 0.0000 32.4678 0.0000
# 6 0.0000 0.0000 0.0000 0.0000 0.0000 -243.7877
#
#
#
# Elastic Compliance Matrix: (Units=1/GPa)
#
#
# Indices 1 2 3 4 5 6 
#
# 1 0.013656 -0.009258 -0.001301 0.000000 0.000000 0.000000
# 2 -0.009258 0.018022 -0.003138 0.000000 0.000000 0.000000
# 3 -0.001301 -0.003138 0.012603 0.000000 0.000000 0.000000
# 4 0.000000 0.000000 0.000000 0.031985 0.000000 0.000000
# 5 0.000000 0.000000 0.000000 0.000000 0.030800 0.000000
# 6 0.000000 0.000000 0.000000 0.000000 0.000000 -0.004102
#
#
# Mechanical properties :
#
#
# Convention : Reuss Voigt Hill
#
# Bulk Modulus (GPa) = 59.21345 62.66029 60.93687
# Shear Modulus (GPa) = 36.76835 -24.03472 6.36681
#
# Velocity S-wave (km/s) = 4.20652 -3.40099 1.75044
# Velocity P-wave (km/s) = 7.21732 3.83837 5.78026
#
# Compressibility (1/GPa) = 0.01688805
#
# Stress axis : x y z
#
# Youngs Moduli (GPa) = 73.22786 55.48797 79.34372
#
# Poissons Ratio (x) = 0.51368 0.10323
# Poissons Ratio (y) = 0.67791 0.24898
# Poissons Ratio (z) = 0.09528 0.17412
#
# Static dielectric constant tensor:
#      x y z
#    x 4.310170 0.000000 0.000000 
#    y 0.000000 3.650170 0.000000 
#    z 0.000000 0.000000 3.926080 
# 
# 
# High freq. dielectric constant tensor:
#      x y z
#    x 1.810240 0.000000 0.000000 
#    y 0.000000 1.803250 0.000000 
#    z 0.000000 0.000000 1.833600 
# 
# From -- ./inp_files/11200.got.cif
#   From: 2010.03.12/outbox.cif.g09.slc.cpg/sg53_6_cif.got.tgz:11200.got - 2010.04.16 14:36:59.
