data_PCOD8221584
_publ_section_title
;
Structure prediction by ZEFSAII (Michael W. Deem and Ramdas Pophale) SiO2 
 PCOD8221584
Probable space group: P M N A
;
_chemical_formula_sum "Si O2"
_cell_formula_units_Z 40
_cell_length_a 8.675675
_cell_length_b 12.283151
_cell_length_c 18.686828
_cell_angle_alpha 90.000000
_cell_angle_beta 90.000000
_cell_angle_gamma 90.000000
_cell_volume 1991.354838
_symmetry_space_group_name_H-M "P M N A"
_symmetry_group_IT_number 53
_symmetry_cell_setting 'orthorhombic'
loop_
_space_group_symop_operation_xyz
x,y,z
1/2-x,-y,1/2+z
x,-y,-z
1/2-x,y,1/2-z
-x,-y,-z
1/2+x,y,1/2-z
-x,y,z
1/2+x,-y,1/2+z
loop_
_atom_site_type_symbol
_atom_site_label
_atom_site_fract_x
_atom_site_fract_y
_atom_site_fract_z
Si Si1 0.817304 0.308594 0.052335
Si Si2 0.317774 0.677261 0.098603
Si Si3 0.319243 0.882189 0.328036
Si Si4 0.317756 0.524749 0.674692
Si Si5 0.180994 0.934466 0.933132
O O1 0.765960 0.386434 0.116560
O O2 0.752754 0.187852 0.070610
O O3 0.000000 0.310355 0.041073
O O4 0.739161 0.353731 0.980536
O O5 0.500000 0.675784 0.102228
O O6 0.255826 0.796015 0.118455
O O7 0.251990 0.592017 0.155438
O O8 0.250000 0.872326 0.250000
O O9 0.500000 0.859266 0.324703
O O10 0.281976 0.001897 0.359585
O O11 0.250000 0.564147 0.750000
O O12 0.500000 0.514335 0.679766
O O13 0.000000 0.925852 0.945816
O O14 0.254915 0.000000 0.000000
#
# Coordination Sequence:
#
# PCOD8221584 Si02
#       5
#     8   8   8   8   8
#     4  10  21  40  65  91 118 158 203 243 297 360
#     4  12  24  39  61  89 121 156 201 252 302 352
#     4  11  22  38  61  89 123 158 199 246 300 358
#     4  11  24  41  62  87 121 159 200 246 299 359
#     4   9  17  35  63  88 115 155 197 238 286 351
#
# _framework density 20.086825999999999
#
# number of rings (size 3 to 8) (size 9 to 14) (size 15 to 20)
#    0.000    1.400    2.000    4.200    0.000    4.800 
#    0.000    3.000    0.000    0.000    0.000    0.000 
#    0.000    0.000    0.000    0.000    0.000    0.000 
#
# Total GULP energy -496175.572497 kJ/mol
# GULP energy per Si atom -12404.389312 kJ/mol
# Density = 2.004111 g / cm^3
# Si number density = 20.086826 Si / 1000 Ang^3
#
#
#
# Elastic Constant Matrix: (Units=GPa)
#
#
# Indices 1 2 3 4 5 6 
#
# 1 78.6236 18.2624 44.1595 0.0000 0.0000 0.0000
# 2 18.2624 78.7644 27.4186 0.0000 0.0000 0.0000
# 3 44.1595 27.4186 134.8090 0.0000 0.0000 0.0000
# 4 0.0000 0.0000 0.0000 30.5626 0.0000 0.0000
# 5 0.0000 0.0000 0.0000 0.0000 31.5046 0.0000
# 6 0.0000 0.0000 0.0000 0.0000 0.0000 9.1725
#
#
#
# Elastic Compliance Matrix: (Units=1/GPa)
#
#
# Indices 1 2 3 4 5 6 
#
# 1 0.015878 -0.002013 -0.004792 0.000000 0.000000 0.000000
# 2 -0.002013 0.013919 -0.002171 0.000000 0.000000 0.000000
# 3 -0.004792 -0.002171 0.009429 0.000000 0.000000 0.000000
# 4 0.000000 0.000000 0.000000 0.032720 0.000000 0.000000
# 5 0.000000 0.000000 0.000000 0.000000 0.031741 0.000000
# 6 0.000000 0.000000 0.000000 0.000000 0.000000 0.109021
#
#
# Mechanical properties :
#
#
# Convention : Reuss Voigt Hill
#
# Bulk Modulus (GPa) = 47.00827 52.43090 49.71959
# Shear Modulus (GPa) = 21.03034 27.73837 24.38435
#
# Velocity S-wave (km/s) = 3.23920 3.72011 3.48795
# Velocity P-wave (km/s) = 6.11909 6.67915 6.40525
#
# Compressibility (1/GPa) = 0.02127285
#
# Stress axis : x y z
#
# Youngs Moduli (GPa) = 62.98137 71.84525 106.05449
#
# Poissons Ratio (x) = 0.14466 0.50817
# Poissons Ratio (y) = 0.12681 0.23028
# Poissons Ratio (z) = 0.30178 0.15600
#
# Static dielectric constant tensor:
#      x y z
#    x 3.451290 0.000000 0.000000 
#    y 0.000000 3.887100 0.000000 
#    z 0.000000 0.000000 3.713850 
# 
# 
# High freq. dielectric constant tensor:
#      x y z
#    x 1.766800 0.000000 0.000000 
#    y 0.000000 1.794670 0.000000 
#    z 0.000000 0.000000 1.793590 
# 
# From -- ./inp_files/25818.got.cif
#   From: 2010.03.12/outbox.cif.g09.slc.cpg/sg53_13_cif.got.tgz:25818.got - 2010.04.16 14:36:59.
