data_PCOD8221858
_publ_section_title
;
Structure prediction by ZEFSAII (Michael W. Deem and Ramdas Pophale) SiO2 
 PCOD8221858
Probable space group: P M N A
;
_chemical_formula_sum "Si O2"
_cell_formula_units_Z 16
_cell_length_a 16.949372
_cell_length_b 7.074585
_cell_length_c 7.031458
_cell_angle_alpha 90.000000
_cell_angle_beta 90.000000
_cell_angle_gamma 90.000000
_cell_volume 843.140532
_symmetry_space_group_name_H-M "P M N A"
_symmetry_group_IT_number 53
_symmetry_cell_setting 'orthorhombic'
loop_
_space_group_symop_operation_xyz
x,y,z
1/2-x,-y,1/2+z
x,-y,-z
1/2-x,y,1/2-z
-x,-y,-z
1/2+x,y,1/2-z
-x,y,z
1/2+x,-y,1/2+z
loop_
_atom_site_type_symbol
_atom_site_label
_atom_site_fract_x
_atom_site_fract_y
_atom_site_fract_z
Si Si1 0.591868 0.285253 0.487673
Si Si2 0.659083 0.986186 0.219384
O O1 0.621593 0.500000 0.500000
O O2 0.500000 0.274859 0.437010
O O3 0.607285 0.180474 0.687532
O O4 0.640674 0.185480 0.319765
O O5 0.750000 0.934582 0.250000
O O6 0.636047 0.000000 0.000000
#
# Coordination Sequence:
#
# PCOD8221858 Si02
#       2
#     8   8
#     4  10  23  41  60  87 121 154 192 240 292 348
#     4  11  21  39  60  89 118 153 195 240 293 341
#
# _framework density 18.976671
#
# number of rings (size 3 to 8) (size 9 to 14) (size 15 to 20)
#    0.000    1.500    5.000    3.000    0.000    8.000 
#    0.000    5.000    0.000    0.000    0.000    0.000 
#    0.000    0.000    0.000    0.000    0.000    0.000 
#
# Total GULP energy -198469.216023 kJ/mol
# GULP energy per Si atom -12404.326001 kJ/mol
# Density = 1.893348 g / cm^3
# Si number density = 18.976671 Si / 1000 Ang^3
#
#
#
# Elastic Constant Matrix: (Units=GPa)
#
#
# Indices 1 2 3 4 5 6 
#
# 1 48.7820 13.5654 0.1373 0.0000 0.0000 0.0000
# 2 13.5654 156.2767 50.2947 0.0000 0.0000 0.0000
# 3 0.1373 50.2947 167.4514 0.0000 0.0000 0.0000
# 4 0.0000 0.0000 0.0000 10.1075 0.0000 0.0000
# 5 0.0000 0.0000 0.0000 0.0000 25.6049 0.0000
# 6 0.0000 0.0000 0.0000 0.0000 0.0000 15.3948
#
#
#
# Elastic Compliance Matrix: (Units=1/GPa)
#
#
# Indices 1 2 3 4 5 6 
#
# 1 0.021059 -0.002017 0.000589 0.000000 0.000000 0.000000
# 2 -0.002017 0.007277 -0.002184 0.000000 0.000000 0.000000
# 3 0.000589 -0.002184 0.006627 0.000000 0.000000 0.000000
# 4 0.000000 0.000000 0.000000 0.098936 0.000000 0.000000
# 5 0.000000 0.000000 0.000000 0.000000 0.039055 0.000000
# 6 0.000000 0.000000 0.000000 0.000000 0.000000 0.064957
#
#
# Mechanical properties :
#
#
# Convention : Reuss Voigt Hill
#
# Bulk Modulus (GPa) = 36.05228 55.61166 45.83197
# Shear Modulus (GPa) = 19.65543 30.78896 25.22220
#
# Velocity S-wave (km/s) = 3.22183 4.03235 3.64966
# Velocity P-wave (km/s) = 5.73408 7.14484 6.47798
#
# Compressibility (1/GPa) = 0.02773749
#
# Stress axis : x y z
#
# Youngs Moduli (GPa) = 47.48629 137.42106 150.88943
#
# Poissons Ratio (x) = 0.27724 -0.08882
# Poissons Ratio (y) = 0.09580 0.32954
# Poissons Ratio (z) = -0.02795 0.30013
#
# Static dielectric constant tensor:
#      x y z
#    x 3.488200 0.000000 0.000000 
#    y 0.000000 3.574850 0.000000 
#    z 0.000000 0.000000 3.567050 
# 
# 
# High freq. dielectric constant tensor:
#      x y z
#    x 1.746370 0.000000 0.000000 
#    y 0.000000 1.739350 0.000000 
#    z 0.000000 0.000000 1.737940 
# 
# From -- ./inp_files/9037.got.cif
#   From: 2010.03.12/outbox.cif.g09.slc.cpg/sg53_5_cif.got.tgz:9037.got - 2010.04.16 14:36:59.
