data_PCOD8221336
_publ_section_title
;
Structure prediction by ZEFSAII (Michael W. Deem and Ramdas Pophale) SiO2 
 PCOD8221336
Probable space group: P M N A
;
_chemical_formula_sum "Si O2"
_cell_formula_units_Z 48
_cell_length_a 16.881573
_cell_length_b 15.430767
_cell_length_c 8.942538
_cell_angle_alpha 90.000000
_cell_angle_beta 90.000000
_cell_angle_gamma 90.000000
_cell_volume 2329.491977
_symmetry_space_group_name_H-M "P M N A"
_symmetry_group_IT_number 53
_symmetry_cell_setting 'orthorhombic'
loop_
_space_group_symop_operation_xyz
x,y,z
1/2-x,-y,1/2+z
x,-y,-z
1/2-x,y,1/2-z
-x,-y,-z
1/2+x,y,1/2-z
-x,y,z
1/2+x,-y,1/2+z
loop_
_atom_site_type_symbol
_atom_site_label
_atom_site_fract_x
_atom_site_fract_y
_atom_site_fract_z
Si Si1 0.332626 0.104194 0.825758
Si Si2 0.591107 0.244826 0.329118
Si Si3 0.091991 0.743695 0.159920
Si Si4 0.832964 0.092300 0.324057
Si Si5 0.662027 0.576414 0.190640
Si Si6 0.093887 0.402343 0.368878
O O1 0.250000 0.128208 0.750000
O O2 0.396204 0.171904 0.763702
O O3 0.358424 0.006077 0.786298
O O4 0.325137 0.112428 0.002248
O O5 0.500000 0.265277 0.348647
O O6 0.628438 0.239467 0.494885
O O7 0.600877 0.153580 0.246094
O O8 0.626477 0.323177 0.231126
O O9 0.134581 0.659478 0.219718
O O10 0.000000 0.723742 0.156173
O O11 0.750000 0.116017 0.250000
O O12 0.750000 0.555723 0.250000
O O13 0.608395 0.491292 0.223370
O O14 0.650730 0.597596 0.014497
O O15 0.000000 0.394052 0.411082
#
# Coordination Sequence:
#
# PCOD8221336 Si02
#       6
#     8   8   8   8   8   8
#     4  10  21  38  59  86 115 149 194 242 293 347
#     4  10  23  39  58  84 116 154 196 237 285 346
#     4  11  23  39  59  86 119 157 195 240 294 350
#     4  10  21  37  60  85 115 152 190 239 295 349
#     4  11  23  38  61  91 118 150 195 248 297 350
#     4  10  22  43  65  86 119 164 203 242 297 364
#
# _framework density 20.605352
#
# number of rings (size 3 to 8) (size 9 to 14) (size 15 to 20)
#    0.000    1.667    0.000    4.500    0.000   10.000 
#    0.000    5.833    0.000    0.000    0.000    0.000 
#    0.000    0.000    0.000    0.000    0.000    0.000 
#
# Total GULP energy -595115.623950 kJ/mol
# GULP energy per Si atom -12398.242166 kJ/mol
# Density = 2.055845 g / cm^3
# Si number density = 20.605352 Si / 1000 Ang^3
#
#
#
# Elastic Constant Matrix: (Units=GPa)
#
#
# Indices 1 2 3 4 5 6 
#
# 1 59.4149 26.3237 33.0524 0.0000 0.0000 0.0000
# 2 26.3237 130.6711 57.2641 0.0000 0.0000 0.0000
# 3 33.0524 57.2641 111.7702 0.0000 0.0000 0.0000
# 4 0.0000 0.0000 0.0000 27.1307 0.0000 0.0000
# 5 0.0000 0.0000 0.0000 0.0000 34.7842 0.0000
# 6 0.0000 0.0000 0.0000 0.0000 0.0000 23.9584
#
#
#
# Elastic Compliance Matrix: (Units=1/GPa)
#
#
# Indices 1 2 3 4 5 6 
#
# 1 0.020504 -0.001900 -0.005090 0.000000 0.000000 0.000000
# 2 -0.001900 0.010045 -0.004584 0.000000 0.000000 0.000000
# 3 -0.005090 -0.004584 0.012801 0.000000 0.000000 0.000000
# 4 0.000000 0.000000 0.000000 0.036859 0.000000 0.000000
# 5 0.000000 0.000000 0.000000 0.000000 0.028749 0.000000
# 6 0.000000 0.000000 0.000000 0.000000 0.000000 0.041739
#
#
# Mechanical properties :
#
#
# Convention : Reuss Voigt Hill
#
# Bulk Modulus (GPa) = 49.50270 59.45961 54.48116
# Shear Modulus (GPa) = 27.68885 29.52240 28.60563
#
# Velocity S-wave (km/s) = 3.66972 3.78928 3.72998
# Velocity P-wave (km/s) = 6.48322 6.93281 6.71178
#
# Compressibility (1/GPa) = 0.02020092
#
# Stress axis : x y z
#
# Youngs Moduli (GPa) = 48.77067 99.55651 78.11973
#
# Poissons Ratio (x) = 0.18915 0.39763
# Poissons Ratio (y) = 0.09266 0.35813
# Poissons Ratio (z) = 0.24824 0.45640
#
# Static dielectric constant tensor:
#      x y z
#    x 3.520760 0.000000 0.000000 
#    y 0.000000 3.932830 0.000000 
#    z 0.000000 0.000000 4.099910 
# 
# 
# High freq. dielectric constant tensor:
#      x y z
#    x 1.788390 0.000000 0.000000 
#    y 0.000000 1.824930 0.000000 
#    z 0.000000 0.000000 1.816180 
# 
# From -- ./inp_files/9940.got.cif
#   From: 2010.03.12/outbox.cif.g09.slc.cpg/sg53_5_cif.got.tgz:9940.got - 2010.04.16 14:36:59.
