data_PCOD8221861
_publ_section_title
;
Structure prediction by ZEFSAII (Michael W. Deem and Ramdas Pophale) SiO2 
 PCOD8221861
Probable space group: P M N A
;
_chemical_formula_sum "Si O2"
_cell_formula_units_Z 44
_cell_length_a 14.322247
_cell_length_b 17.786068
_cell_length_c 8.958945
_cell_angle_alpha 90.000000
_cell_angle_beta 90.000000
_cell_angle_gamma 90.000000
_cell_volume 2282.169926
_symmetry_space_group_name_H-M "P M N A"
_symmetry_group_IT_number 53
_symmetry_cell_setting 'orthorhombic'
loop_
_space_group_symop_operation_xyz
x,y,z
1/2-x,-y,1/2+z
x,-y,-z
1/2-x,y,1/2-z
-x,-y,-z
1/2+x,y,1/2-z
-x,y,z
1/2+x,-y,1/2+z
loop_
_atom_site_type_symbol
_atom_site_label
_atom_site_fract_x
_atom_site_fract_y
_atom_site_fract_z
Si Si1 0.500000 0.409044 0.830298
Si Si2 0.500000 0.586812 0.825383
Si Si3 0.860121 0.853796 0.264717
Si Si4 0.500000 0.909868 0.003121
Si Si5 0.351973 0.312517 0.320272
Si Si6 0.150777 0.688019 0.177334
Si Si7 0.000000 0.188301 0.220736
Si Si8 0.000000 0.083155 0.947012
O O1 0.500000 0.497937 0.817529
O O2 0.410713 0.378237 0.743940
O O3 0.500000 0.383869 0.003552
O O4 0.407024 0.615127 0.741376
O O5 0.750000 0.865310 0.250000
O O6 0.889793 0.768366 0.228643
O O7 0.904679 0.877384 0.423166
O O8 0.905960 0.909631 0.147271
O O9 0.500000 0.879191 0.836970
O O10 0.500000 0.000000 0.000000
O O11 0.250000 0.309753 0.250000
O O12 0.345330 0.316812 0.498732
O O13 0.407374 0.238825 0.265694
O O14 0.250000 0.675325 0.250000
O O15 0.000000 0.149304 0.063431
O O16 0.000000 0.000000 0.000000
#
# Coordination Sequence:
#
# PCOD8221861 Si02
#       8
#     4   4   8   4   8   8   4   4
#     4  11  22  43  64  94 129 168 203 248 314 370
#     4  10  25  40  65  95 130 164 203 257 309 364
#     4  10  23  41  63  90 122 164 211 254 303 378
#     4  11  25  41  61  92 126 163 208 257 318 378
#     4  11  24  41  63  95 125 161 213 261 308 363
#     4  11  23  39  67  93 120 168 212 253 310 372
#     4  11  23  37  63  91 121 163 202 259 312 363
#     4  11  21  41  63  88 124 161 203 259 311 367
#
# _framework density 19.279896999999998
#
# number of rings (size 3 to 8) (size 9 to 14) (size 15 to 20)
#    0.000    1.273    1.818    4.364   10.182    2.909 
#    0.000    1.818    0.000    0.000    0.000    0.000 
#    0.000    0.000    0.000    0.000    0.000    0.000 
#
# Total GULP energy -545569.764332 kJ/mol
# GULP energy per Si atom -12399.312826 kJ/mol
# Density = 1.923602 g / cm^3
# Si number density = 19.279897 Si / 1000 Ang^3
#
#
#
# Elastic Constant Matrix: (Units=GPa)
#
#
# Indices 1 2 3 4 5 6 
#
# 1 141.0291 47.2558 50.7804 0.0000 0.0000 0.0000
# 2 47.2558 108.3647 46.9959 0.0000 0.0000 0.0000
# 3 50.7804 46.9959 134.8026 0.0000 0.0000 0.0000
# 4 0.0000 0.0000 0.0000 38.0675 0.0000 0.0000
# 5 0.0000 0.0000 0.0000 0.0000 38.9578 0.0000
# 6 0.0000 0.0000 0.0000 0.0000 0.0000 24.3628
#
#
#
# Elastic Compliance Matrix: (Units=1/GPa)
#
#
# Indices 1 2 3 4 5 6 
#
# 1 0.008896 -0.002858 -0.002355 0.000000 0.000000 0.000000
# 2 -0.002858 0.011790 -0.003034 0.000000 0.000000 0.000000
# 3 -0.002355 -0.003034 0.009363 0.000000 0.000000 0.000000
# 4 0.000000 0.000000 0.000000 0.026269 0.000000 0.000000
# 5 0.000000 0.000000 0.000000 0.000000 0.025669 0.000000
# 6 0.000000 0.000000 0.000000 0.000000 0.000000 0.041046
#
#
# Mechanical properties :
#
#
# Convention : Reuss Voigt Hill
#
# Bulk Modulus (GPa) = 73.76820 74.91786 74.34303
# Shear Modulus (GPa) = 34.71120 36.22192 35.46656
#
# Velocity S-wave (km/s) = 4.24770 4.33915 4.29366
# Velocity P-wave (km/s) = 7.89949 8.00291 7.95137
#
# Compressibility (1/GPa) = 0.01355598
#
# Stress axis : x y z
#
# Youngs Moduli (GPa) = 112.40515 84.81619 106.80423
#
# Poissons Ratio (x) = 0.24243 0.25150
# Poissons Ratio (y) = 0.32129 0.32401
# Poissons Ratio (z) = 0.26469 0.25730
#
# Static dielectric constant tensor:
#      x y z
#    x 3.449180 0.000000 0.000000 
#    y 0.000000 3.718360 0.000000 
#    z 0.000000 0.000000 3.847100 
# 
# 
# High freq. dielectric constant tensor:
#      x y z
#    x 1.758330 0.000000 0.000000 
#    y 0.000000 1.754830 0.000000 
#    z 0.000000 0.000000 1.767530 
# 
# From -- ./inp_files/8604.got.cif
#   From: 2010.03.12/outbox.cif.g09.slc.cpg/sg53_5_cif.got.tgz:8604.got - 2010.04.16 14:36:59.
