data_PCOD8221794
_publ_section_title
;
Structure prediction by ZEFSAII (Michael W. Deem and Ramdas Pophale) SiO2 
 PCOD8221794
Probable space group: P M N A
;
_chemical_formula_sum "Si O2"
_cell_formula_units_Z 32
_cell_length_a 17.974267
_cell_length_b 10.956433
_cell_length_c 7.539991
_cell_angle_alpha 90.000000
_cell_angle_beta 90.000000
_cell_angle_gamma 90.000000
_cell_volume 1484.879473
_symmetry_space_group_name_H-M "P M N A"
_symmetry_group_IT_number 53
_symmetry_cell_setting 'orthorhombic'
loop_
_space_group_symop_operation_xyz
x,y,z
1/2-x,-y,1/2+z
x,-y,-z
1/2-x,y,1/2-z
-x,-y,-z
1/2+x,y,1/2-z
-x,y,z
1/2+x,-y,1/2+z
loop_
_atom_site_type_symbol
_atom_site_label
_atom_site_fract_x
_atom_site_fract_y
_atom_site_fract_z
Si Si1 0.341058 0.260717 0.384675
Si Si2 0.812479 0.363716 0.464080
Si Si3 0.081165 0.972374 0.796697
Si Si4 0.913675 0.241401 0.748624
O O1 0.352324 0.361787 0.229796
O O2 0.257053 0.269733 0.460022
O O3 0.356491 0.132433 0.280704
O O4 0.397343 0.278335 0.547220
O O5 0.783311 0.500000 0.500000
O O6 0.868306 0.327262 0.618432
O O7 0.000000 0.931560 0.717399
O O8 0.107788 0.099706 0.706751
O O9 0.067637 0.000000 0.000000
O O10 0.000000 0.264352 0.714431
#
# Coordination Sequence:
#
# PCOD8221794 Si02
#       4
#     8   8   8   8
#     4  10  22  41  65  92 124 172 208 263 326 372
#     4  11  26  42  62  91 132 173 223 264 303 378
#     4   8  16  37  65  95 128 157 199 258 322 388
#     4  10  22  42  69  98 130 166 206 264 327 384
#
# _framework density 21.55057
#
# number of rings (size 3 to 8) (size 9 to 14) (size 15 to 20)
#    0.000    2.250    0.000    3.000    7.000    3.500 
#   27.000    3.750    0.000    0.000    0.000    0.000 
#    0.000    0.000    0.000    0.000    0.000    0.000 
#
# Total GULP energy -396527.461288 kJ/mol
# GULP energy per Si atom -12391.483165 kJ/mol
# Density = 2.150152 g / cm^3
# Si number density = 21.550570 Si / 1000 Ang^3
#
#
#
# Elastic Constant Matrix: (Units=GPa)
#
#
# Indices 1 2 3 4 5 6 
#
# 1 95.9118 71.4208 21.9108 0.0000 0.0000 0.0000
# 2 71.4208 110.9852 29.1984 0.0000 0.0000 0.0000
# 3 21.9108 29.1984 76.6351 0.0000 0.0000 0.0000
# 4 0.0000 0.0000 0.0000 32.1156 0.0000 0.0000
# 5 0.0000 0.0000 0.0000 0.0000 231.0504 0.0000
# 6 0.0000 0.0000 0.0000 0.0000 0.0000 23.8140
#
#
#
# Elastic Compliance Matrix: (Units=1/GPa)
#
#
# Indices 1 2 3 4 5 6 
#
# 1 0.020076 -0.012680 -0.000909 0.000000 0.000000 0.000000
# 2 -0.012680 0.018023 -0.003241 0.000000 0.000000 0.000000
# 3 -0.000909 -0.003241 0.014544 0.000000 0.000000 0.000000
# 4 0.000000 0.000000 0.000000 0.031138 0.000000 0.000000
# 5 0.000000 0.000000 0.000000 0.000000 0.004328 0.000000
# 6 0.000000 0.000000 0.000000 0.000000 0.000000 0.041992
#
#
# Mechanical properties :
#
#
# Convention : Reuss Voigt Hill
#
# Bulk Modulus (GPa) = 52.68166 58.73246 55.70706
# Shear Modulus (GPa) = 29.39638 68.12947 48.76293
#
# Velocity S-wave (km/s) = 3.69733 5.62871 4.76197
# Velocity P-wave (km/s) = 6.53649 8.34001 7.49271
#
# Compressibility (1/GPa) = 0.01898194
#
# Stress axis : x y z
#
# Youngs Moduli (GPa) = 49.81007 55.48475 68.75846
#
# Poissons Ratio (x) = 0.70357 0.06248
# Poissons Ratio (y) = 0.63161 0.22287
# Poissons Ratio (z) = 0.04526 0.17985
#
# Static dielectric constant tensor:
#      x y z
#    x 3.812150 0.000000 0.000000 
#    y 0.000000 4.171720 0.000000 
#    z 0.000000 0.000000 3.939940 
# 
# 
# High freq. dielectric constant tensor:
#      x y z
#    x 1.834390 0.000000 0.000000 
#    y 0.000000 1.832040 0.000000 
#    z 0.000000 0.000000 1.851160 
# 
# From -- ./inp_files/8020.got.cif
#   From: 2010.03.12/outbox.cif.g09.slc.cpg/sg53_5_cif.got.tgz:8020.got - 2010.04.16 14:36:59.
