data_PCOD8221076
_publ_section_title
;
Structure prediction by ZEFSAII (Michael W. Deem and Ramdas Pophale) SiO2 
 PCOD8221076
Probable space group: P M N A
;
_chemical_formula_sum "Si O2"
_cell_formula_units_Z 48
_cell_length_a 9.629859
_cell_length_b 30.522771
_cell_length_c 8.951756
_cell_angle_alpha 90.000000
_cell_angle_beta 90.000000
_cell_angle_gamma 90.000000
_cell_volume 2631.189471
_symmetry_space_group_name_H-M "P M N A"
_symmetry_group_IT_number 53
_symmetry_cell_setting 'orthorhombic'
loop_
_space_group_symop_operation_xyz
x,y,z
1/2-x,-y,1/2+z
x,-y,-z
1/2-x,y,1/2-z
-x,-y,-z
1/2+x,y,1/2-z
-x,y,z
1/2+x,-y,1/2+z
loop_
_atom_site_type_symbol
_atom_site_label
_atom_site_fract_x
_atom_site_fract_y
_atom_site_fract_z
Si Si1 0.161244 0.376245 0.398802
Si Si2 0.660741 0.705226 0.103348
Si Si3 0.160035 0.959531 0.394899
Si Si4 0.160154 0.217365 0.392165
Si Si5 0.839914 0.117670 0.391262
Si Si6 0.338460 0.541415 0.100640
O O1 0.250000 0.380389 0.250000
O O2 0.198135 0.331012 0.480396
O O3 0.201779 0.415275 0.509812
O O4 0.000000 0.378588 0.353720
O O5 0.750000 0.697277 0.250000
O O6 0.500000 0.702176 0.149695
O O7 0.698095 0.752406 0.033083
O O8 0.250000 0.964946 0.250000
O O9 0.200174 0.913762 0.472712
O O10 0.000000 0.960095 0.347768
O O11 0.196598 0.000000 0.500000
O O12 0.250000 0.231684 0.250000
O O13 0.192907 0.167487 0.439794
O O14 0.000000 0.223648 0.346395
O O15 0.750000 0.103451 0.250000
O O16 0.000000 0.111606 0.345715
O O17 0.250000 0.539760 0.250000
O O18 0.500000 0.541107 0.145142
O O19 0.299171 0.500000 0.000000
#
# Coordination Sequence:
#
# PCOD8221076 Si02
#       6
#     8   8   8   8   8   8
#     4  10  21  36  54  77 103 132 169 210 251 298
#     4  10  21  35  51  74 103 133 167 207 249 295
#     4  10  21  35  51  73 100 129 163 203 245 291
#     4   9  18  33  52  74 100 130 165 204 245 292
#     4   9  18  33  52  74 100 129 163 203 245 291
#     4  10  21  36  54  78 106 135 170 209 249 297
#
# _framework density 18.242699000000002
#
# number of rings (size 3 to 8) (size 9 to 14) (size 15 to 20)
#    0.000    2.333    0.000    2.000    0.000    4.000 
#    0.000    0.000    0.000    0.000    0.000    0.000 
#    0.000    0.000    0.000    0.000    0.000    0.000 
#
# Total GULP energy -595379.077023 kJ/mol
# GULP energy per Si atom -12403.730771 kJ/mol
# Density = 1.820118 g / cm^3
# Si number density = 18.242699 Si / 1000 Ang^3
#
#
#
# Elastic Constant Matrix: (Units=GPa)
#
#
# Indices 1 2 3 4 5 6 
#
# 1 78.4395 51.7575 86.3988 0.0000 0.0000 0.0000
# 2 51.7575 114.8744 70.0235 0.0000 0.0000 0.0000
# 3 86.3988 70.0235 149.6108 0.0000 0.0000 0.0000
# 4 0.0000 0.0000 0.0000 34.6573 0.0000 0.0000
# 5 0.0000 0.0000 0.0000 0.0000 44.3349 0.0000
# 6 0.0000 0.0000 0.0000 0.0000 0.0000 9.3592
#
#
#
# Elastic Compliance Matrix: (Units=1/GPa)
#
#
# Indices 1 2 3 4 5 6 
#
# 1 0.037058 -0.005109 -0.019009 0.000000 0.000000 0.000000
# 2 -0.005109 0.012885 -0.003080 0.000000 0.000000 0.000000
# 3 -0.019009 -0.003080 0.019103 0.000000 0.000000 0.000000
# 4 0.000000 0.000000 0.000000 0.028854 0.000000 0.000000
# 5 0.000000 0.000000 0.000000 0.000000 0.022556 0.000000
# 6 0.000000 0.000000 0.000000 0.000000 0.000000 0.106846
#
#
# Mechanical properties :
#
#
# Convention : Reuss Voigt Hill
#
# Bulk Modulus (GPa) = 68.26475 84.36492 76.31483
# Shear Modulus (GPa) = 17.44697 26.65328 22.05012
#
# Velocity S-wave (km/s) = 3.09590 3.82650 3.48042
# Velocity P-wave (km/s) = 7.09091 8.11597 7.62070
#
# Compressibility (1/GPa) = 0.01464885
#
# Stress axis : x y z
#
# Youngs Moduli (GPa) = 26.98439 77.61190 52.34701
#
# Poissons Ratio (x) = 0.39655 0.99509
# Poissons Ratio (y) = 0.13787 0.16122
# Poissons Ratio (z) = 0.51296 0.23903
#
# Static dielectric constant tensor:
#      x y z
#    x 3.344740 0.000000 0.000000 
#    y 0.000000 3.666080 0.000000 
#    z 0.000000 0.000000 3.148200 
# 
# 
# High freq. dielectric constant tensor:
#      x y z
#    x 1.704950 0.000000 0.000000 
#    y 0.000000 1.728720 0.000000 
#    z 0.000000 0.000000 1.699750 
# 
# From -- ./inp_files/6633.got.cif
#   From: 2010.03.12/outbox.cif.g09.slc.cpg/sg53_4_cif.got.tgz:6633.got - 2010.04.16 14:36:59.
