data_PCOD8221082
_publ_section_title
;
Structure prediction by ZEFSAII (Michael W. Deem and Ramdas Pophale) SiO2 
 PCOD8221082
Probable space group: P M N A
;
_chemical_formula_sum "Si O2"
_cell_formula_units_Z 48
_cell_length_a 9.051925
_cell_length_b 30.445140
_cell_length_c 9.094783
_cell_angle_alpha 90.000000
_cell_angle_beta 90.000000
_cell_angle_gamma 90.000000
_cell_volume 2506.405089
_symmetry_space_group_name_H-M "P M N A"
_symmetry_group_IT_number 53
_symmetry_cell_setting 'orthorhombic'
loop_
_space_group_symop_operation_xyz
x,y,z
1/2-x,-y,1/2+z
x,-y,-z
1/2-x,y,1/2-z
-x,-y,-z
1/2+x,y,1/2-z
-x,y,z
1/2+x,-y,1/2+z
loop_
_atom_site_type_symbol
_atom_site_label
_atom_site_fract_x
_atom_site_fract_y
_atom_site_fract_z
Si Si1 0.673498 0.280329 0.901841
Si Si2 0.826317 0.458901 0.403645
Si Si3 0.672898 0.379312 0.900399
Si Si4 0.170738 0.956708 0.903550
Si Si5 0.173582 0.882779 0.407528
Si Si6 0.328998 0.201662 0.098144
O O1 0.750000 0.267109 0.750000
O O2 0.500000 0.274877 0.876078
O O3 0.716276 0.329901 0.949317
O O4 0.728383 0.247782 0.030445
O O5 0.774037 0.500000 0.500000
O O6 0.750000 0.463845 0.250000
O O7 0.773116 0.413209 0.476084
O O8 0.000000 0.459269 0.379967
O O9 0.750000 0.392685 0.750000
O O10 0.500000 0.383685 0.872490
O O11 0.250000 0.966182 0.750000
O O12 0.000000 0.943565 0.877087
O O13 0.254749 0.917854 0.984669
O O14 0.183211 0.000000 0.000000
O O15 0.250000 0.885113 0.250000
O O16 0.203567 0.835352 0.477453
O O17 0.000000 0.892647 0.389479
O O18 0.250000 0.190617 0.250000
O O19 0.500000 0.204354 0.136485
#
# Coordination Sequence:
#
# PCOD8221082 Si02
#       6
#     8   8   8   8   8   8
#     4   9  18  34  54  77 105 137 175 217 262 313
#     4  10  21  35  51  74 103 134 171 215 261 311
#     4   9  18  33  53  76 103 135 172 215 261 312
#     4  11  24  41  62  88 118 151 187 228 273 322
#     4  11  23  39  60  85 113 146 185 228 275 326
#     4  10  22  37  54  79 110 143 179 222 269 318
#
# _framework density 19.150933999999999
#
# number of rings (size 3 to 8) (size 9 to 14) (size 15 to 20)
#    0.000    2.000    0.000    3.000    0.000    7.667 
#    0.000    0.000    0.000    0.000    0.000    0.000 
#    0.000    0.000    0.000    0.000    0.000    0.000 
#
# Total GULP energy -595328.551626 kJ/mol
# GULP energy per Si atom -12402.678159 kJ/mol
# Density = 1.910735 g / cm^3
# Si number density = 19.150934 Si / 1000 Ang^3
#
#
#
# Elastic Constant Matrix: (Units=GPa)
#
#
# Indices 1 2 3 4 5 6 
#
# 1 75.3724 50.0799 62.4205 0.0000 0.0000 0.0000
# 2 50.0799 109.7697 58.7428 0.0000 0.0000 0.0000
# 3 62.4205 58.7428 140.2369 0.0000 0.0000 0.0000
# 4 0.0000 0.0000 0.0000 -646.7495 0.0000 0.0000
# 5 0.0000 0.0000 0.0000 0.0000 39.0106 0.0000
# 6 0.0000 0.0000 0.0000 0.0000 0.0000 203.6395
#
#
#
# Elastic Compliance Matrix: (Units=1/GPa)
#
#
# Indices 1 2 3 4 5 6 
#
# 1 0.024472 -0.006877 -0.008012 0.000000 0.000000 0.000000
# 2 -0.006877 0.013675 -0.002667 0.000000 0.000000 0.000000
# 3 -0.008012 -0.002667 0.011814 0.000000 0.000000 0.000000
# 4 0.000000 0.000000 0.000000 -0.001546 0.000000 0.000000
# 5 0.000000 0.000000 0.000000 0.000000 0.025634 0.000000
# 6 0.000000 0.000000 0.000000 0.000000 0.000000 0.004911
#
#
# Mechanical properties :
#
#
# Convention : Reuss Voigt Hill
#
# Bulk Modulus (GPa) = 67.34644 74.20725 70.77684
# Shear Modulus (GPa) = 42.00918 -70.54414 -14.26748
#
# Velocity S-wave (km/s) = 4.68865 -6.07584 -2.73243
# Velocity P-wave (km/s) = 8.03454 3.22310 5.20410
#
# Compressibility (1/GPa) = 0.01484859
#
# Stress axis : x y z
#
# Youngs Moduli (GPa) = 40.86280 73.12711 84.64432
#
# Poissons Ratio (x) = 0.50292 0.67817
# Poissons Ratio (y) = 0.28102 0.22575
# Poissons Ratio (z) = 0.32739 0.19503
#
# Static dielectric constant tensor:
#      x y z
#    x 3.542170 0.000000 0.000000 
#    y 0.000000 3.879130 0.000000 
#    z 0.000000 0.000000 4.900590 
# 
# 
# High freq. dielectric constant tensor:
#      x y z
#    x 1.743970 0.000000 0.000000 
#    y 0.000000 1.763110 0.000000 
#    z 0.000000 0.000000 1.748220 
# 
# From -- ./inp_files/6626.got.cif
#   From: 2010.03.12/outbox.cif.g09.slc.cpg/sg53_4_cif.got.tgz:6626.got - 2010.04.16 14:36:59.
