data_PCOD8221647
_publ_section_title
;
Structure prediction by ZEFSAII (Michael W. Deem and Ramdas Pophale) SiO2 
 PCOD8221647
Probable space group: P M N A
;
_chemical_formula_sum "Si O2"
_cell_formula_units_Z 48
_cell_length_a 9.035749
_cell_length_b 30.732723
_cell_length_c 9.038339
_cell_angle_alpha 90.000000
_cell_angle_beta 90.000000
_cell_angle_gamma 90.000000
_cell_volume 2509.885019
_symmetry_space_group_name_H-M "P M N A"
_symmetry_group_IT_number 53
_symmetry_cell_setting 'orthorhombic'
loop_
_space_group_symop_operation_xyz
x,y,z
1/2-x,-y,1/2+z
x,-y,-z
1/2-x,y,1/2-z
-x,-y,-z
1/2+x,y,1/2-z
-x,y,z
1/2+x,-y,1/2+z
loop_
_atom_site_type_symbol
_atom_site_label
_atom_site_fract_x
_atom_site_fract_y
_atom_site_fract_z
Si Si1 0.326080 0.126066 0.093937
Si Si2 0.671233 0.714860 0.596989
Si Si3 0.827993 0.461008 0.903369
Si Si4 0.171844 0.040409 0.593963
Si Si5 0.327414 0.364418 0.593663
Si Si6 0.326379 0.799386 0.408562
O O1 0.250000 0.117211 0.250000
O O2 0.500000 0.135273 0.115680
O O3 0.296419 0.084353 0.993645
O O4 0.249283 0.166931 0.018452
O O5 0.750000 0.725995 0.750000
O O6 0.500000 0.710689 0.635445
O O7 0.732987 0.669869 0.526982
O O8 0.700935 0.752013 0.476587
O O9 0.750000 0.464511 0.750000
O O10 0.797268 0.412962 0.971033
O O11 0.000000 0.468827 0.877896
O O12 0.759963 0.500000 0.000000
O O13 0.250000 0.043303 0.750000
O O14 0.000000 0.033096 0.624845
O O15 0.236173 0.000000 0.500000
O O16 0.250000 0.356936 0.750000
O O17 0.500000 0.356406 0.622319
O O18 0.250000 0.802003 0.250000
O O19 0.500000 0.810106 0.391997
#
# Coordination Sequence:
#
# PCOD8221647 Si02
#       6
#     8   8   8   8   8   8
#     4  11  23  39  60  86 116 149 186 228 275 325
#     4  10  22  37  54  78 107 139 175 218 266 316
#     4   9  18  32  50  73 102 134 169 212 259 309
#     4  10  22  39  59  85 115 148 187 229 274 325
#     4   9  18  34  53  74 101 134 173 214 259 311
#     4  11  23  39  59  83 111 144 183 225 271 323
#
# _framework density 19.124381
#
# number of rings (size 3 to 8) (size 9 to 14) (size 15 to 20)
#    0.000    2.000    0.000    3.000    0.000    7.333 
#    0.000    0.000    0.000    0.000    0.000    0.000 
#    0.000    0.000    0.000    0.000    0.000    0.000 
#
# Total GULP energy -595243.927655 kJ/mol
# GULP energy per Si atom -12400.915159 kJ/mol
# Density = 1.908085 g / cm^3
# Si number density = 19.124381 Si / 1000 Ang^3
#
#
#
# Elastic Constant Matrix: (Units=GPa)
#
#
# Indices 1 2 3 4 5 6 
#
# 1 74.4572 51.9454 57.2614 0.0000 0.0000 0.0000
# 2 51.9454 118.9984 45.8174 0.0000 0.0000 0.0000
# 3 57.2614 45.8174 116.6584 0.0000 0.0000 0.0000
# 4 0.0000 0.0000 0.0000 33.0079 0.0000 0.0000
# 5 0.0000 0.0000 0.0000 0.0000 34.0519 0.0000
# 6 0.0000 0.0000 0.0000 0.0000 0.0000 26.1766
#
#
#
# Elastic Compliance Matrix: (Units=1/GPa)
#
#
# Indices 1 2 3 4 5 6 
#
# 1 0.026483 -0.007723 -0.009966 0.000000 0.000000 0.000000
# 2 -0.007723 0.012153 -0.000982 0.000000 0.000000 0.000000
# 3 -0.009966 -0.000982 0.013849 0.000000 0.000000 0.000000
# 4 0.000000 0.000000 0.000000 0.030296 0.000000 0.000000
# 5 0.000000 0.000000 0.000000 0.000000 0.029367 0.000000
# 6 0.000000 0.000000 0.000000 0.000000 0.000000 0.038202
#
#
# Mechanical properties :
#
#
# Convention : Reuss Voigt Hill
#
# Bulk Modulus (GPa) = 66.03705 68.90692 67.47199
# Shear Modulus (GPa) = 25.94168 28.98661 27.46414
#
# Velocity S-wave (km/s) = 3.68703 3.89741 3.79368
# Velocity P-wave (km/s) = 7.26160 7.50748 7.38556
#
# Compressibility (1/GPa) = 0.01514301
#
# Stress axis : x y z
#
# Youngs Moduli (GPa) = 37.76022 82.28425 72.20522
#
# Poissons Ratio (x) = 0.63551 0.71958
# Poissons Ratio (y) = 0.29163 0.07091
# Poissons Ratio (z) = 0.37631 0.08081
#
# Static dielectric constant tensor:
#      x y z
#    x 3.534170 0.000000 0.000000 
#    y 0.000000 4.018170 0.000000 
#    z 0.000000 0.000000 3.311690 
# 
# 
# High freq. dielectric constant tensor:
#      x y z
#    x 1.742570 0.000000 0.000000 
#    y 0.000000 1.765350 0.000000 
#    z 0.000000 0.000000 1.746030 
# 
# From -- ./inp_files/6569.got.cif
#   From: 2010.03.12/outbox.cif.g09.slc.cpg/sg53_4_cif.got.tgz:6569.got - 2010.04.16 14:36:59.
