data_PCOD8221796
_publ_section_title
;
Structure prediction by ZEFSAII (Michael W. Deem and Ramdas Pophale) SiO2 
 PCOD8221796
Probable space group: P M N A
;
_chemical_formula_sum "Si O2"
_cell_formula_units_Z 40
_cell_length_a 17.086013
_cell_length_b 9.390818
_cell_length_c 12.294824
_cell_angle_alpha 90.000000
_cell_angle_beta 90.000000
_cell_angle_gamma 90.000000
_cell_volume 1972.724655
_symmetry_space_group_name_H-M "P M N A"
_symmetry_group_IT_number 53
_symmetry_cell_setting 'orthorhombic'
loop_
_space_group_symop_operation_xyz
x,y,z
1/2-x,-y,1/2+z
x,-y,-z
1/2-x,y,1/2-z
-x,-y,-z
1/2+x,y,1/2-z
-x,y,z
1/2+x,-y,1/2+z
loop_
_atom_site_type_symbol
_atom_site_label
_atom_site_fract_x
_atom_site_fract_y
_atom_site_fract_z
Si Si1 0.692129 0.159820 0.531673
Si Si2 0.090436 0.906310 0.229168
Si Si3 0.910568 0.402290 0.367334
Si Si4 0.646691 0.296571 0.913928
Si Si5 0.663712 0.206257 0.292894
O O1 0.623356 0.167911 0.620359
O O2 0.764034 0.246464 0.581480
O O3 0.659428 0.230675 0.422004
O O4 0.719073 0.000000 0.500000
O O5 0.098960 0.806344 0.333974
O O6 0.000000 0.942493 0.209978
O O7 0.138791 0.050339 0.247598
O O8 0.855982 0.541647 0.370708
O O9 0.891177 0.293385 0.465905
O O10 0.896035 0.321152 0.255316
O O11 0.000000 0.452959 0.375213
O O12 0.750000 0.237757 0.250000
#
# Coordination Sequence:
#
# PCOD8221796 Si02
#       5
#     8   8   8   8   8
#     4  10  22  41  66  92 125 165 211 258 306 373
#     4  11  23  39  64  94 125 162 206 259 315 363
#     4  11  24  41  64  92 128 164 202 259 313 361
#     4  11  22  42  63  90 128 162 208 254 309 374
#     4  11  22  41  63  91 125 163 210 254 307 375
#
# _framework density 20.276523000000001
#
# number of rings (size 3 to 8) (size 9 to 14) (size 15 to 20)
#    0.000    1.200    2.000    6.000    0.000    6.000 
#    0.000    2.000    0.000    2.400    0.000    0.000 
#    0.000    0.000    0.000    0.000    0.000    0.000 
#
# Total GULP energy -496167.487377 kJ/mol
# GULP energy per Si atom -12404.187184 kJ/mol
# Density = 2.023037 g / cm^3
# Si number density = 20.276523 Si / 1000 Ang^3
#
#
#
# Elastic Constant Matrix: (Units=GPa)
#
#
# Indices 1 2 3 4 5 6 
#
# 1 86.2145 21.9250 29.4851 0.0000 0.0000 0.0000
# 2 21.9250 60.5880 41.3438 0.0000 0.0000 0.0000
# 3 29.4851 41.3438 100.3499 0.0000 0.0000 0.0000
# 4 0.0000 0.0000 0.0000 27.1167 0.0000 0.0000
# 5 0.0000 0.0000 0.0000 0.0000 26.5630 0.0000
# 6 0.0000 0.0000 0.0000 0.0000 0.0000 23.2920
#
#
#
# Elastic Compliance Matrix: (Units=1/GPa)
#
#
# Indices 1 2 3 4 5 6 
#
# 1 0.013270 -0.002979 -0.002672 0.000000 0.000000 0.000000
# 2 -0.002979 0.023628 -0.008860 0.000000 0.000000 0.000000
# 3 -0.002672 -0.008860 0.014400 0.000000 0.000000 0.000000
# 4 0.000000 0.000000 0.000000 0.036878 0.000000 0.000000
# 5 0.000000 0.000000 0.000000 0.000000 0.037646 0.000000
# 6 0.000000 0.000000 0.000000 0.000000 0.000000 0.042933
#
#
# Mechanical properties :
#
#
# Convention : Reuss Voigt Hill
#
# Bulk Modulus (GPa) = 44.88650 48.07334 46.47992
# Shear Modulus (GPa) = 24.36610 25.68755 25.02683
#
# Velocity S-wave (km/s) = 3.47030 3.56316 3.51704
# Velocity P-wave (km/s) = 6.18406 6.37875 6.28216
#
# Compressibility (1/GPa) = 0.02227841
#
# Stress axis : x y z
#
# Youngs Moduli (GPa) = 75.35624 42.32186 69.44316
#
# Poissons Ratio (x) = 0.12608 0.18554
# Poissons Ratio (y) = 0.22448 0.61523
# Poissons Ratio (z) = 0.20134 0.37495
#
# Static dielectric constant tensor:
#      x y z
#    x 3.617290 0.000000 0.000000 
#    y 0.000000 3.564030 0.000000 
#    z 0.000000 0.000000 3.931960 
# 
# 
# High freq. dielectric constant tensor:
#      x y z
#    x 1.790830 0.000000 0.000000 
#    y 0.000000 1.784120 0.000000 
#    z 0.000000 0.000000 1.804880 
# 
# From -- ./inp_files/16648.got.cif
#   From: 2010.03.12/outbox.cif.g09.slc.cpg/sg53_9_cif.got.tgz:16648.got - 2010.04.16 14:36:59.
