data_PCOD8221184
_publ_section_title
;
Structure prediction by ZEFSAII (Michael W. Deem and Ramdas Pophale) SiO2 
 PCOD8221184
Probable space group: P M N A
;
_chemical_formula_sum "Si O2"
_cell_formula_units_Z 64
_cell_length_a 15.403125
_cell_length_b 17.672848
_cell_length_c 12.018855
_cell_angle_alpha 90.000000
_cell_angle_beta 90.000000
_cell_angle_gamma 90.000000
_cell_volume 3271.737695
_symmetry_space_group_name_H-M "P M N A"
_symmetry_group_IT_number 53
_symmetry_cell_setting 'orthorhombic'
loop_
_space_group_symop_operation_xyz
x,y,z
1/2-x,-y,1/2+z
x,-y,-z
1/2-x,y,1/2-z
-x,-y,-z
1/2+x,y,1/2-z
-x,y,z
1/2+x,-y,1/2+z
loop_
_atom_site_type_symbol
_atom_site_label
_atom_site_fract_x
_atom_site_fract_y
_atom_site_fract_z
Si Si1 0.747014 0.160946 0.375558
Si Si2 0.905779 0.161377 0.519572
Si Si3 0.652076 0.842315 0.262591
Si Si4 0.401054 0.086246 0.512417
Si Si5 0.747483 0.340473 0.374890
Si Si6 0.903347 0.659276 0.476856
Si Si7 0.600369 0.676003 0.269522
Si Si8 0.399386 0.587161 0.487282
O O1 0.750000 0.129197 0.250000
O O2 0.829329 0.126679 0.443298
O O3 0.657876 0.137530 0.433413
O O4 0.751956 0.250702 0.376270
O O5 0.896146 0.138278 0.648105
O O6 0.903714 0.251161 0.510777
O O7 0.000000 0.131307 0.478072
O O8 0.750000 0.870342 0.250000
O O9 0.606180 0.888794 0.359854
O O10 0.653464 0.752815 0.291862
O O11 0.500000 0.096637 0.472302
O O12 0.370679 0.000000 0.500000
O O13 0.750000 0.372287 0.250000
O O14 0.830307 0.375420 0.441444
O O15 0.656530 0.364667 0.427109
O O16 0.876975 0.638822 0.349870
O O17 0.000000 0.627171 0.505987
O O18 0.500000 0.700218 0.271538
O O19 0.622894 0.613907 0.362338
O O20 0.374245 0.500000 0.500000
O O21 0.500000 0.601537 0.516258
#
# Coordination Sequence:
#
# PCOD8221184 Si02
#       8
#     8   8   8   8   8   8   8   8
#     4  10  21  38  59  84 115 147 194 240 280 343
#     4   9  17  32  55  85 116 141 174 229 293 342
#     4  11  19  32  59  90 114 143 185 243 297 335
#     4  11  24  40  57  81 117 157 193 233 285 344
#     4  10  21  36  56  84 110 148 194 232 281 338
#     4   8  16  31  53  84 115 138 171 230 289 335
#     4   9  18  32  56  88 113 140 186 235 286 343
#     4  10  22  39  56  79 116 155 189 232 283 337
#
# _framework density 19.56147
#
# number of rings (size 3 to 8) (size 9 to 14) (size 15 to 20)
#    0.000    2.250    1.250    2.625    3.500    3.000 
#    2.250    2.500    0.000    0.750    0.000    0.000 
#    0.000    0.000    0.000    0.000    0.000    0.000 
#
# Total GULP energy -793579.566186 kJ/mol
# GULP energy per Si atom -12399.680722 kJ/mol
# Density = 1.951695 g / cm^3
# Si number density = 19.561470 Si / 1000 Ang^3
#
#
#
# Elastic Constant Matrix: (Units=GPa)
#
#
# Indices 1 2 3 4 5 6 
#
# 1 114.4976 17.9322 64.0666 0.0000 0.0000 0.0000
# 2 17.9322 31.0175 37.4120 0.0000 0.0000 0.0000
# 3 64.0666 37.4120 161.3906 0.0000 0.0000 0.0000
# 4 0.0000 0.0000 0.0000 1.8509 0.0000 0.0000
# 5 0.0000 0.0000 0.0000 0.0000 28.9671 0.0000
# 6 0.0000 0.0000 0.0000 0.0000 0.0000 17.3497
#
#
#
# Elastic Compliance Matrix: (Units=1/GPa)
#
#
# Indices 1 2 3 4 5 6 
#
# 1 0.011282 -0.001555 -0.004118 0.000000 0.000000 0.000000
# 2 -0.001555 0.044967 -0.009806 0.000000 0.000000 0.000000
# 3 -0.004118 -0.009806 0.010104 0.000000 0.000000 0.000000
# 4 0.000000 0.000000 0.000000 0.540269 0.000000 0.000000
# 5 0.000000 0.000000 0.000000 0.000000 0.034522 0.000000
# 6 0.000000 0.000000 0.000000 0.000000 0.000000 0.057638
#
#
# Mechanical properties :
#
#
# Convention : Reuss Voigt Hill
#
# Bulk Modulus (GPa) = 28.25389 60.63636 44.44512
# Shear Modulus (GPa) = 6.74273 22.13321 14.43797
#
# Velocity S-wave (km/s) = 1.85861 3.36738 2.71971
# Velocity P-wave (km/s) = 4.36817 6.79589 5.71249
#
# Compressibility (1/GPa) = 0.03539336
#
# Stress axis : x y z
#
# Youngs Moduli (GPa) = 88.64055 22.23844 98.97078
#
# Poissons Ratio (x) = 0.03459 0.40754
# Poissons Ratio (y) = 0.13788 0.97054
# Poissons Ratio (z) = 0.36500 0.21808
#
# Static dielectric constant tensor:
#      x y z
#    x 3.797920 0.000000 0.000000 
#    y 0.000000 3.136970 0.000000 
#    z 0.000000 0.000000 3.815330 
# 
# 
# High freq. dielectric constant tensor:
#      x y z
#    x 1.777470 0.000000 0.000000 
#    y 0.000000 1.715730 0.000000 
#    z 0.000000 0.000000 1.767150 
# 
# From -- ./inp_files/16250.got.cif
#   From: 2010.03.12/outbox.cif.g09.slc.cpg/sg53_9_cif.got.tgz:16250.got - 2010.04.16 14:36:59.
