data_PCOD8221846
_publ_section_title
;
Structure prediction by ZEFSAII (Michael W. Deem and Ramdas Pophale) SiO2 
 PCOD8221846
Probable space group: P M N A
;
_chemical_formula_sum "Si O2"
_cell_formula_units_Z 64
_cell_length_a 8.638723
_cell_length_b 16.557850
_cell_length_c 22.814461
_cell_angle_alpha 90.000000
_cell_angle_beta 90.000000
_cell_angle_gamma 90.000000
_cell_volume 3263.350378
_symmetry_space_group_name_H-M "P M N A"
_symmetry_group_IT_number 53
_symmetry_cell_setting 'orthorhombic'
loop_
_space_group_symop_operation_xyz
x,y,z
1/2-x,-y,1/2+z
x,-y,-z
1/2-x,y,1/2-z
-x,-y,-z
1/2+x,y,1/2-z
-x,y,z
1/2+x,-y,1/2+z
loop_
_atom_site_type_symbol
_atom_site_label
_atom_site_fract_x
_atom_site_fract_y
_atom_site_fract_z
Si Si1 0.320795 0.048619 0.413331
Si Si2 0.682964 0.387998 0.814384
Si Si3 0.818900 0.137065 0.312631
Si Si4 0.181356 0.587597 0.984057
Si Si5 0.181275 0.711635 0.424933
Si Si6 0.819957 0.439926 0.363199
Si Si7 0.181917 0.707407 0.810111
Si Si8 0.177831 0.124439 0.965497
O O1 0.500000 0.065437 0.398696
O O2 0.211856 0.064404 0.357758
O O3 0.268825 0.104575 0.468304
O O4 0.296417 0.954699 0.427027
O O5 0.750000 0.370447 0.750000
O O6 0.500000 0.390871 0.807472
O O7 0.739286 0.319697 0.860749
O O8 0.742335 0.473893 0.840442
O O9 0.750000 0.109765 0.250000
O O10 0.731912 0.213464 0.347024
O O11 0.000000 0.155336 0.305864
O O12 0.222179 0.598673 0.916299
O O13 0.000000 0.591429 0.993893
O O14 0.250585 0.500000 0.000000
O O15 0.254278 0.656549 0.023222
O O16 0.225121 0.803804 0.435932
O O17 0.000000 0.700873 0.426606
O O18 0.784294 0.373384 0.314565
O O19 0.000000 0.445043 0.379431
O O20 0.250000 0.744271 0.750000
O O21 0.000000 0.688365 0.812968
O O22 0.000000 0.151896 0.965305
#
# Coordination Sequence:
#
# PCOD8221846 Si02
#       8
#     8   8   8   8   8   8   8   8
#     4   9  19  39  63  88 119 152 190 236 293 354
#     4  10  23  40  60  83 112 153 196 243 295 342
#     4  11  22  37  58  85 118 157 197 240 293 351
#     4  11  23  38  58  85 115 153 195 238 287 344
#     4  11  23  40  60  87 121 155 193 243 296 346
#     4  11  22  38  58  82 114 153 195 241 294 344
#     4  11  22  37  55  80 115 153 195 240 285 342
#     4   9  20  39  64  90 117 152 191 238 293 354
#
# _framework density 19.611744999999999
#
# number of rings (size 3 to 8) (size 9 to 14) (size 15 to 20)
#    0.000    1.625    1.250    5.250    1.750    4.500 
#    0.000    1.875    0.000    1.500    0.000    0.000 
#    0.000    0.000    0.000    0.000    0.000    0.000 
#
# Total GULP energy -793268.381544 kJ/mol
# GULP energy per Si atom -12394.818462 kJ/mol
# Density = 1.956711 g / cm^3
# Si number density = 19.611745 Si / 1000 Ang^3
#
#
#
# Elastic Constant Matrix: (Units=GPa)
#
#
# Indices 1 2 3 4 5 6 
#
# 1 68.8616 36.4957 32.8649 0.0000 0.0000 0.0000
# 2 36.4957 103.8329 54.1361 0.0000 0.0000 0.0000
# 3 32.8649 54.1361 112.3269 0.0000 0.0000 0.0000
# 4 0.0000 0.0000 0.0000 21.5175 0.0000 0.0000
# 5 0.0000 0.0000 0.0000 0.0000 33.4837 0.0000
# 6 0.0000 0.0000 0.0000 0.0000 0.0000 30.0906
#
#
#
# Elastic Compliance Matrix: (Units=1/GPa)
#
#
# Indices 1 2 3 4 5 6 
#
# 1 0.018602 -0.004943 -0.003061 0.000000 0.000000 0.000000
# 2 -0.004943 0.014176 -0.005386 0.000000 0.000000 0.000000
# 3 -0.003061 -0.005386 0.012394 0.000000 0.000000 0.000000
# 4 0.000000 0.000000 0.000000 0.046474 0.000000 0.000000
# 5 0.000000 0.000000 0.000000 0.000000 0.029865 0.000000
# 6 0.000000 0.000000 0.000000 0.000000 0.000000 0.033233
#
#
# Mechanical properties :
#
#
# Convention : Reuss Voigt Hill
#
# Bulk Modulus (GPa) = 54.36664 59.11276 56.73970
# Shear Modulus (GPa) = 26.64473 27.78667 27.21570
#
# Velocity S-wave (km/s) = 3.68993 3.76817 3.72926
# Velocity P-wave (km/s) = 6.77759 7.00993 6.89474
#
# Compressibility (1/GPa) = 0.01839363
#
# Stress axis : x y z
#
# Youngs Moduli (GPa) = 53.75736 70.53996 80.68471
#
# Poissons Ratio (x) = 0.34866 0.24694
# Poissons Ratio (y) = 0.26570 0.43458
# Poissons Ratio (z) = 0.16453 0.37994
#
# Static dielectric constant tensor:
#      x y z
#    x 3.433270 0.000000 0.000000 
#    y 0.000000 3.607940 0.000000 
#    z 0.000000 0.000000 3.686290 
# 
# 
# High freq. dielectric constant tensor:
#      x y z
#    x 1.761750 0.000000 0.000000 
#    y 0.000000 1.766920 0.000000 
#    z 0.000000 0.000000 1.764340 
# 
# From -- ./inp_files/34310.got.cif
#   From: 2010.03.12/outbox.cif.g09.slc.cpg/sg53_18_cif.got.tgz:34310.got - 2010.04.16 14:36:59.
