data_PCOD8221501
_publ_section_title
;
Structure prediction by ZEFSAII (Michael W. Deem and Ramdas Pophale) SiO2 
 PCOD8221501
Probable space group: P M N A
;
_chemical_formula_sum "Si O2"
_cell_formula_units_Z 48
_cell_length_a 15.340378
_cell_length_b 9.560390
_cell_length_c 16.716753
_cell_angle_alpha 90.000000
_cell_angle_beta 90.000000
_cell_angle_gamma 90.000000
_cell_volume 2451.678935
_symmetry_space_group_name_H-M "P M N A"
_symmetry_group_IT_number 53
_symmetry_cell_setting 'orthorhombic'
loop_
_space_group_symop_operation_xyz
x,y,z
1/2-x,-y,1/2+z
x,-y,-z
1/2-x,y,1/2-z
-x,-y,-z
1/2+x,y,1/2-z
-x,y,z
1/2+x,-y,1/2+z
loop_
_atom_site_type_symbol
_atom_site_label
_atom_site_fract_x
_atom_site_fract_y
_atom_site_fract_z
Si Si1 0.900602 0.945298 0.840556
Si Si2 0.222988 0.625103 0.052442
Si Si3 0.099365 0.738902 0.184507
Si Si4 0.263994 0.876914 0.942757
Si Si5 0.329350 0.519143 0.195289
Si Si6 0.097984 0.221948 0.316655
O O1 0.832884 0.913589 0.911272
O O2 0.886204 0.829337 0.773291
O O3 0.000000 0.939020 0.874530
O O4 0.882229 0.097196 0.801274
O O5 0.147482 0.691814 0.104693
O O6 0.300229 0.567307 0.107846
O O7 0.182368 0.500000 0.000000
O O8 0.263985 0.735674 0.992489
O O9 0.128063 0.654015 0.262769
O O10 0.000000 0.706519 0.167460
O O11 0.332719 0.857705 0.871644
O O12 0.297446 0.000000 0.000000
O O13 0.250000 0.464417 0.250000
O O14 0.394309 0.389878 0.184073
O O15 0.000000 0.184039 0.345218
#
# Coordination Sequence:
#
# PCOD8221501 Si02
#       6
#     8   8   8   8   8   8
#     4  10  23  41  64  93 124 161 204 249 301 366
#     4  11  23  40  60  91 122 161 203 246 304 368
#     4  10  22  40  62  91 122 158 202 250 302 362
#     4  12  24  40  65  90 124 164 199 252 310 362
#     4  10  21  39  63  86 120 161 206 249 298 364
#     4  11  24  42  63  89 120 161 211 253 299 361
#
# _framework density 19.578420000000001
#
# number of rings (size 3 to 8) (size 9 to 14) (size 15 to 20)
#    0.000    1.333    3.333    2.000    4.667    3.000 
#    0.000    2.500    0.000    0.000    0.000    0.000 
#    0.000    0.000    0.000    0.000    0.000    0.000 
#
# Total GULP energy -595354.952728 kJ/mol
# GULP energy per Si atom -12403.228182 kJ/mol
# Density = 1.953386 g / cm^3
# Si number density = 19.578420 Si / 1000 Ang^3
#
#
#
# Elastic Constant Matrix: (Units=GPa)
#
#
# Indices 1 2 3 4 5 6 
#
# 1 84.1057 32.8604 35.3841 0.0000 0.0000 0.0000
# 2 32.8604 101.8214 29.3074 0.0000 0.0000 0.0000
# 3 35.3841 29.3074 75.9529 0.0000 0.0000 0.0000
# 4 0.0000 0.0000 0.0000 34.6754 0.0000 0.0000
# 5 0.0000 0.0000 0.0000 0.0000 21.8050 0.0000
# 6 0.0000 0.0000 0.0000 0.0000 0.0000 30.7244
#
#
#
# Elastic Compliance Matrix: (Units=1/GPa)
#
#
# Indices 1 2 3 4 5 6 
#
# 1 0.015737 -0.003339 -0.006043 0.000000 0.000000 0.000000
# 2 -0.003339 0.011757 -0.002981 0.000000 0.000000 0.000000
# 3 -0.006043 -0.002981 0.017131 0.000000 0.000000 0.000000
# 4 0.000000 0.000000 0.000000 0.028839 0.000000 0.000000
# 5 0.000000 0.000000 0.000000 0.000000 0.045861 0.000000
# 6 0.000000 0.000000 0.000000 0.000000 0.000000 0.032547
#
#
# Mechanical properties :
#
#
# Convention : Reuss Voigt Hill
#
# Bulk Modulus (GPa) = 50.25351 50.77596 50.51474
# Shear Modulus (GPa) = 27.28797 28.39618 27.84208
#
# Velocity S-wave (km/s) = 3.73738 3.81252 3.77514
# Velocity P-wave (km/s) = 6.65940 6.73583 6.69772
#
# Compressibility (1/GPa) = 0.01989911
#
# Stress axis : x y z
#
# Youngs Moduli (GPa) = 63.54561 85.05722 58.37250
#
# Poissons Ratio (x) = 0.28404 0.35273
# Poissons Ratio (y) = 0.21220 0.17400
# Poissons Ratio (z) = 0.38399 0.25354
#
# Static dielectric constant tensor:
#      x y z
#    x 3.602930 0.000000 0.000000 
#    y 0.000000 3.769040 0.000000 
#    z 0.000000 0.000000 3.482850 
# 
# 
# High freq. dielectric constant tensor:
#      x y z
#    x 1.758800 0.000000 0.000000 
#    y 0.000000 1.781180 0.000000 
#    z 0.000000 0.000000 1.762880 
# 
# From -- ./inp_files/23635.got.cif
#   From: 2010.03.12/outbox.cif.g09.slc.cpg/sg53_12_cif.got.tgz:23635.got - 2010.04.16 14:36:59.
