data_PCOD8221938
_publ_section_title
;
Structure prediction by ZEFSAII (Michael W. Deem and Ramdas Pophale) SiO2 
 PCOD8221938
Probable space group: P M N A
;
_chemical_formula_sum "Si O2"
_cell_formula_units_Z 20
_cell_length_a 27.356917
_cell_length_b 5.260094
_cell_length_c 5.282812
_cell_angle_alpha 90.000000
_cell_angle_beta 90.000000
_cell_angle_gamma 90.000000
_cell_volume 760.196409
_symmetry_space_group_name_H-M "P M N A"
_symmetry_group_IT_number 53
_symmetry_cell_setting 'orthorhombic'
loop_
_space_group_symop_operation_xyz
x,y,z
1/2-x,-y,1/2+z
x,-y,-z
1/2-x,y,1/2-z
-x,-y,-z
1/2+x,y,1/2-z
-x,y,z
1/2+x,-y,1/2+z
loop_
_atom_site_type_symbol
_atom_site_label
_atom_site_fract_x
_atom_site_fract_y
_atom_site_fract_z
Si Si1 0.055185 0.840613 0.743516
Si Si2 0.625707 0.500000 0.500000
Si Si3 0.803841 0.240188 0.656715
O O1 0.091607 0.602045 0.771227
O O2 0.000000 0.738053 0.704173
O O3 0.071931 0.000000 0.500000
O O4 0.058775 0.000000 0.000000
O O5 0.659905 0.725748 0.394090
O O6 0.802674 0.500000 0.500000
O O7 0.750000 0.170836 0.750000
O O8 0.823833 0.000000 0.500000
#
# Coordination Sequence:
#
# PCOD8221938 Si02
#       3
#     8   4   8
#     4  10  25  49  78 116 164 217 274 343 418 494
#     4  12  29  46  80 118 158 216 277 348 406 506
#     4  12  29  52  79 116 164 218 276 344 421 496
#
# _framework density 26.308990000000001
#
# number of rings (size 3 to 8) (size 9 to 14) (size 15 to 20)
#    0.000    0.800    2.000    1.800   11.200    0.000 
#    0.000    6.000    0.000    3.600    0.000    0.000 
#    0.000    0.000    0.000    0.000    0.000    0.000 
#
# Total GULP energy -248169.528272 kJ/mol
# GULP energy per Si atom -12408.476414 kJ/mol
# Density = 2.624911 g / cm^3
# Si number density = 26.308990 Si / 1000 Ang^3
#
#
#
# Elastic Constant Matrix: (Units=GPa)
#
#
# Indices 1 2 3 4 5 6 
#
# 1 182.4447 59.6337 61.3779 0.0000 0.0000 0.0000
# 2 59.6337 149.6295 65.7011 0.0000 0.0000 0.0000
# 3 61.3779 65.7011 164.3687 0.0000 0.0000 0.0000
# 4 0.0000 0.0000 0.0000 62.8097 0.0000 0.0000
# 5 0.0000 0.0000 0.0000 0.0000 1.0378 0.0000
# 6 0.0000 0.0000 0.0000 0.0000 0.0000 179.1729
#
#
#
# Elastic Compliance Matrix: (Units=1/GPa)
#
#
# Indices 1 2 3 4 5 6 
#
# 1 0.006687 -0.001903 -0.001737 0.000000 0.000000 0.000000
# 2 -0.001903 0.008647 -0.002746 0.000000 0.000000 0.000000
# 3 -0.001737 -0.002746 0.007830 0.000000 0.000000 0.000000
# 4 0.000000 0.000000 0.000000 0.015921 0.000000 0.000000
# 5 0.000000 0.000000 0.000000 0.000000 0.963578 0.000000
# 6 0.000000 0.000000 0.000000 0.000000 0.000000 0.005581
#
#
# Mechanical properties :
#
#
# Convention : Reuss Voigt Hill
#
# Bulk Modulus (GPa) = 96.20935 96.65206 96.43071
# Shear Modulus (GPa) = 4.88053 69.25276 37.06664
#
# Velocity S-wave (km/s) = 1.36349 5.13615 3.75760
# Velocity P-wave (km/s) = 6.25517 8.48471 7.45378
#
# Compressibility (1/GPa) = 0.01039400
#
# Stress axis : x y z
#
# Youngs Moduli (GPa) = 149.53879 115.64469 127.71435
#
# Poissons Ratio (x) = 0.22003 0.22179
# Poissons Ratio (y) = 0.28451 0.35070
# Poissons Ratio (z) = 0.25969 0.31756
#
# Static dielectric constant tensor:
#      x y z
#    x 5.196300 0.000000 0.000000 
#    y 0.000000 4.495230 0.000000 
#    z 0.000000 0.000000 4.833390 
# 
# 
# High freq. dielectric constant tensor:
#      x y z
#    x 2.081880 0.000000 0.000000 
#    y 0.000000 2.044860 0.000000 
#    z 0.000000 0.000000 2.061280 
# 
# From -- ./inp_files/3962.got.cif
#   From: 2010.03.12/outbox.cif.g09.slc.cpg/sg53_2_cif.got.tgz:3962.got - 2010.04.16 14:36:59.
