data_PCOD8221942
_publ_section_title
;
Structure prediction by ZEFSAII (Michael W. Deem and Ramdas Pophale) SiO2 
 PCOD8221942
Probable space group: P M N A
;
_chemical_formula_sum "Si O2"
_cell_formula_units_Z 24
_cell_length_a 7.701891
_cell_length_b 5.140210
_cell_length_c 25.015190
_cell_angle_alpha 90.000000
_cell_angle_beta 90.000000
_cell_angle_gamma 90.000000
_cell_volume 990.334790
_symmetry_space_group_name_H-M "P M N A"
_symmetry_group_IT_number 53
_symmetry_cell_setting 'orthorhombic'
loop_
_space_group_symop_operation_xyz
x,y,z
1/2-x,-y,1/2+z
x,-y,-z
1/2-x,y,1/2-z
-x,-y,-z
1/2+x,y,1/2-z
-x,y,z
1/2+x,-y,1/2+z
loop_
_atom_site_type_symbol
_atom_site_label
_atom_site_fract_x
_atom_site_fract_y
_atom_site_fract_z
Si Si1 0.205940 0.251406 0.970120
Si Si2 0.692436 0.878317 0.353324
Si Si3 0.500000 0.906834 0.799111
Si Si4 0.500000 0.595772 0.270875
O O1 0.263078 0.248698 0.908024
O O2 0.000000 0.260103 0.974581
O O3 0.287844 0.500000 0.000000
O O4 0.281675 0.000000 0.000000
O O5 0.500000 0.008858 0.362350
O O6 0.824470 0.106154 0.334573
O O7 0.671078 0.649817 0.308159
O O8 0.500000 0.198111 0.776601
O O9 0.500000 0.696926 0.751678
#
# Coordination Sequence:
#
# PCOD8221942 Si02
#       4
#     8   8   4   4
#     4   9  18  35  62  92 126 167 215 268 329 389
#     4   9  23  45  65 100 131 177 224 273 332 400
#     4  12  24  46  64  94 136 178 218 278 327 388
#     4  10  26  42  64  96 130 176 226 266 329 394
#
# _framework density 24.234227000000001
#
# number of rings (size 3 to 8) (size 9 to 14) (size 15 to 20)
#    1.000    1.333    0.000    1.000    0.000   10.667 
#    3.000    1.667    0.000    0.000    0.000    0.000 
#    0.000    0.000    0.000    0.000    0.000    0.000 
#
# Total GULP energy -297378.828421 kJ/mol
# GULP energy per Si atom -12390.784518 kJ/mol
# Density = 2.417907 g / cm^3
# Si number density = 24.234227 Si / 1000 Ang^3
#
#
#
# Elastic Constant Matrix: (Units=GPa)
#
#
# Indices 1 2 3 4 5 6 
#
# 1 87.3090 26.4610 15.3446 0.0000 0.0000 0.0000
# 2 26.4610 119.0085 36.7645 0.0000 0.0000 0.0000
# 3 15.3446 36.7645 96.0903 0.0000 0.0000 0.0000
# 4 0.0000 0.0000 0.0000 43.3469 0.0000 0.0000
# 5 0.0000 0.0000 0.0000 0.0000 8.1844 0.0000
# 6 0.0000 0.0000 0.0000 0.0000 0.0000 3.9221
#
#
#
# Elastic Compliance Matrix: (Units=1/GPa)
#
#
# Indices 1 2 3 4 5 6 
#
# 1 0.012373 -0.002428 -0.001047 0.000000 0.000000 0.000000
# 2 -0.002428 0.010005 -0.003440 0.000000 0.000000 0.000000
# 3 -0.001047 -0.003440 0.011890 0.000000 0.000000 0.000000
# 4 0.000000 0.000000 0.000000 0.023070 0.000000 0.000000
# 5 0.000000 0.000000 0.000000 0.000000 0.122184 0.000000
# 6 0.000000 0.000000 0.000000 0.000000 0.000000 0.254963
#
#
# Mechanical properties :
#
#
# Convention : Reuss Voigt Hill
#
# Bulk Modulus (GPa) = 48.92659 51.06093 49.99376
# Shear Modulus (GPa) = 10.98589 26.01319 18.49954
#
# Velocity S-wave (km/s) = 2.13144 3.27984 2.76590
# Velocity P-wave (km/s) = 5.12740 5.95472 5.55648
#
# Compressibility (1/GPa) = 0.02043879
#
# Stress axis : x y z
#
# Youngs Moduli (GPa) = 80.81878 99.94623 84.10151
#
# Poissons Ratio (x) = 0.24264 0.08806
# Poissons Ratio (y) = 0.19620 0.28934
# Poissons Ratio (z) = 0.08462 0.34386
#
# Static dielectric constant tensor:
#      x y z
#    x 4.187550 0.000000 0.000000 
#    y 0.000000 3.972600 0.000000 
#    z 0.000000 0.000000 4.500600 
# 
# 
# High freq. dielectric constant tensor:
#      x y z
#    x 1.939630 0.000000 0.000000 
#    y 0.000000 1.926880 0.000000 
#    z 0.000000 0.000000 1.973340 
# 
# From -- ./inp_files/33465.got.cif
#   From: 2010.03.12/outbox.cif.g09.slc.cpg/sg53_17_cif.got.tgz:33465.got - 2010.04.16 14:36:59.
