data_PCOD8221227
_publ_section_title
;
Structure prediction by ZEFSAII (Michael W. Deem and Ramdas Pophale) SiO2 
 PCOD8221227
Probable space group: P M N A
;
_chemical_formula_sum "Si O2"
_cell_formula_units_Z 64
_cell_length_a 24.484594
_cell_length_b 24.511050
_cell_length_c 5.245121
_cell_angle_alpha 90.000000
_cell_angle_beta 90.000000
_cell_angle_gamma 90.000000
_cell_volume 3147.823218
_symmetry_space_group_name_H-M "P M N A"
_symmetry_group_IT_number 53
_symmetry_cell_setting 'orthorhombic'
loop_
_space_group_symop_operation_xyz
x,y,z
1/2-x,-y,1/2+z
x,-y,-z
1/2-x,y,1/2-z
-x,-y,-z
1/2+x,y,1/2-z
-x,y,z
1/2+x,-y,1/2+z
loop_
_atom_site_type_symbol
_atom_site_label
_atom_site_fract_x
_atom_site_fract_y
_atom_site_fract_z
Si Si1 0.936712 0.821002 0.971019
Si Si2 0.283618 0.063842 0.998891
Si Si3 0.196830 0.241764 0.636001
Si Si4 0.120814 0.561105 0.511005
Si Si5 0.111813 0.291279 0.020892
Si Si6 0.437255 0.402867 0.527872
Si Si7 0.802730 0.348134 0.383022
Si Si8 0.375368 0.149019 0.992580
O O1 0.927872 0.757540 0.889587
O O2 0.917494 0.855777 0.726087
O O3 0.000000 0.831959 0.021091
O O4 0.904841 0.840657 0.222900
O O5 0.250000 0.081128 0.750000
O O6 0.342118 0.093001 0.985628
O O7 0.250000 0.081450 0.250000
O O8 0.296457 0.000000 0.000000
O O9 0.250000 0.210644 0.750000
O O10 0.223873 0.296517 0.522915
O O11 0.167405 0.198832 0.447552
O O12 0.150815 0.262717 0.822786
O O13 0.144635 0.500000 0.500000
O O14 0.097247 0.573907 0.790967
O O15 0.170396 0.603472 0.449154
O O16 0.075998 0.564892 0.287803
O O17 0.074142 0.339310 0.907446
O O18 0.147389 0.320232 0.235106
O O19 0.500000 0.411818 0.458782
O O20 0.750000 0.375537 0.250000
#
# Coordination Sequence:
#
# PCOD8221227 Si02
#       8
#     8   8   8   8   8   8   8   8
#     4  11  23  39  60  87 126 167 208 256 306 359
#     4  10  21  39  64  95 132 171 209 254 310 367
#     4  11  20  34  57  87 120 153 189 236 300 360
#     4  11  25  43  61  86 116 148 196 243 290 359
#     4  10  21  37  55  87 120 152 196 238 297 364
#     4  11  23  40  65  87 112 149 192 246 303 353
#     4  11  21  38  59  84 116 153 188 235 295 361
#     4  11  23  38  61  93 126 163 207 255 303 362
#
# _framework density 20.331510999999999
#
# number of rings (size 3 to 8) (size 9 to 14) (size 15 to 20)
#    0.000    1.250    3.750    2.625    0.000    3.000 
#    0.000    6.875    0.000    2.250    0.000    0.000 
#    0.000    0.000    0.000    0.000    0.000    0.000 
#
# Total GULP energy -793150.456474 kJ/mol
# GULP energy per Si atom -12392.975882 kJ/mol
# Density = 2.028524 g / cm^3
# Si number density = 20.331511 Si / 1000 Ang^3
#
#
#
# Elastic Constant Matrix: (Units=GPa)
#
#
# Indices 1 2 3 4 5 6 
#
# 1 101.5177 45.7897 27.7077 0.0000 0.0000 0.0000
# 2 45.7897 92.1147 29.8507 0.0000 0.0000 0.0000
# 3 27.7077 29.8507 111.6870 0.0000 0.0000 0.0000
# 4 0.0000 0.0000 0.0000 18.0781 0.0000 0.0000
# 5 0.0000 0.0000 0.0000 0.0000 17.8597 0.0000
# 6 0.0000 0.0000 0.0000 0.0000 0.0000 21.0841
#
#
#
# Elastic Compliance Matrix: (Units=1/GPa)
#
#
# Indices 1 2 3 4 5 6 
#
# 1 0.012965 -0.005915 -0.001636 0.000000 0.000000 0.000000
# 2 -0.005915 0.014584 -0.002430 0.000000 0.000000 0.000000
# 3 -0.001636 -0.002430 0.010009 0.000000 0.000000 0.000000
# 4 0.000000 0.000000 0.000000 0.055316 0.000000 0.000000
# 5 0.000000 0.000000 0.000000 0.000000 0.055992 0.000000
# 6 0.000000 0.000000 0.000000 0.000000 0.000000 0.047429
#
#
# Mechanical properties :
#
#
# Convention : Reuss Voigt Hill
#
# Bulk Modulus (GPa) = 56.83081 56.89062 56.86071
# Shear Modulus (GPa) = 22.51028 24.86914 23.68971
#
# Velocity S-wave (km/s) = 3.33101 3.50120 3.41717
# Velocity P-wave (km/s) = 6.54270 6.66234 6.60279
#
# Compressibility (1/GPa) = 0.01759609
#
# Stress axis : x y z
#
# Youngs Moduli (GPa) = 77.13253 68.56920 99.91071
#
# Poissons Ratio (x) = 0.40556 0.16340
# Poissons Ratio (y) = 0.45621 0.24283
# Poissons Ratio (z) = 0.12615 0.16666
#
# Static dielectric constant tensor:
#      x y z
#    x 3.616210 0.000000 0.000000 
#    y 0.000000 4.044240 0.000000 
#    z 0.000000 0.000000 3.587630 
# 
# 
# High freq. dielectric constant tensor:
#      x y z
#    x 1.792500 0.000000 0.000000 
#    y 0.000000 1.788260 0.000000 
#    z 0.000000 0.000000 1.793740 
# 
# From -- ./inp_files/3873.got.cif
#   From: 2010.03.12/outbox.cif.g09.slc.cpg/sg53_2_cif.got.tgz:3873.got - 2010.04.16 14:36:59.
