data_PCOD8221296
_publ_section_title
;
Structure prediction by ZEFSAII (Michael W. Deem and Ramdas Pophale) SiO2 
 PCOD8221296
Probable space group: P M N A
;
_chemical_formula_sum "Si O2"
_cell_formula_units_Z 32
_cell_length_a 8.556208
_cell_length_b 20.386469
_cell_length_c 9.154535
_cell_angle_alpha 90.000000
_cell_angle_beta 90.000000
_cell_angle_gamma 90.000000
_cell_volume 1596.833497
_symmetry_space_group_name_H-M "P M N A"
_symmetry_group_IT_number 53
_symmetry_cell_setting 'orthorhombic'
loop_
_space_group_symop_operation_xyz
x,y,z
1/2-x,-y,1/2+z
x,-y,-z
1/2-x,y,1/2-z
-x,-y,-z
1/2+x,y,1/2-z
-x,y,z
1/2+x,-y,1/2+z
loop_
_atom_site_type_symbol
_atom_site_label
_atom_site_fract_x
_atom_site_fract_y
_atom_site_fract_z
Si Si1 0.184364 0.562417 0.592524
Si Si2 0.683722 0.182381 0.909360
Si Si3 0.680777 0.934496 0.591539
Si Si4 0.315705 0.699704 0.589014
O O1 0.236272 0.500000 0.500000
O O2 0.250000 0.547385 0.750000
O O3 0.260878 0.628811 0.530176
O O4 0.000000 0.572537 0.596621
O O5 0.750000 0.166572 0.750000
O O6 0.500000 0.191491 0.898779
O O7 0.722855 0.123107 0.016674
O O8 0.757977 0.248478 0.971124
O O9 0.750000 0.947988 0.750000
O O10 0.500000 0.913667 0.602147
O O11 0.703198 0.000000 0.500000
O O12 0.250000 0.715262 0.750000
O O13 0.500000 0.701972 0.599980
#
# Coordination Sequence:
#
# PCOD8221296 Si02
#       4
#     8   8   8   8
#     4  10  21  37  58  85 117 153 196 244 295 353
#     4  12  25  42  63  89 122 157 199 247 298 354
#     4  11  24  42  65  93 125 161 201 245 295 350
#     4  11  22  39  62  87 118 156 199 245 297 354
#
# _framework density 20.039657999999999
#
# number of rings (size 3 to 8) (size 9 to 14) (size 15 to 20)
#    0.000    1.000    0.000    9.000    0.000    7.000 
#    0.000    2.500    0.000    0.000    0.000    0.000 
#    0.000    0.000    0.000    0.000    0.000    0.000 
#
# Total GULP energy -396974.561344 kJ/mol
# GULP energy per Si atom -12405.455042 kJ/mol
# Density = 1.999405 g / cm^3
# Si number density = 20.039658 Si / 1000 Ang^3
#
#
#
# Elastic Constant Matrix: (Units=GPa)
#
#
# Indices 1 2 3 4 5 6 
#
# 1 118.0768 51.8215 19.3390 0.0000 0.0000 0.0000
# 2 51.8215 119.1333 53.0255 0.0000 0.0000 0.0000
# 3 19.3390 53.0255 94.7691 0.0000 0.0000 0.0000
# 4 0.0000 0.0000 0.0000 -11.5491 0.0000 0.0000
# 5 0.0000 0.0000 0.0000 0.0000 31.5288 0.0000
# 6 0.0000 0.0000 0.0000 0.0000 0.0000 61.2360
#
#
#
# Elastic Compliance Matrix: (Units=1/GPa)
#
#
# Indices 1 2 3 4 5 6 
#
# 1 0.010489 -0.004807 0.000549 0.000000 0.000000 0.000000
# 2 -0.004807 0.013381 -0.006506 0.000000 0.000000 0.000000
# 3 0.000549 -0.006506 0.014080 0.000000 0.000000 0.000000
# 4 0.000000 0.000000 0.000000 -0.086587 0.000000 0.000000
# 5 0.000000 0.000000 0.000000 0.000000 0.031717 0.000000
# 6 0.000000 0.000000 0.000000 0.000000 0.000000 0.016330
#
#
# Mechanical properties :
#
#
# Convention : Reuss Voigt Hill
#
# Bulk Modulus (GPa) = 60.89274 64.48345 62.68810
# Shear Modulus (GPa) = 189.31252 30.09600 109.70426
#
# Velocity S-wave (km/s) = 9.73006 3.87954 7.40692
# Velocity P-wave (km/s) = 12.51735 7.23295 10.22252
#
# Compressibility (1/GPa) = 0.01642232
#
# Stress axis : x y z
#
# Youngs Moduli (GPa) = 95.34001 74.73492 71.02240
#
# Poissons Ratio (x) = 0.35925 -0.03901
# Poissons Ratio (y) = 0.45829 0.46206
# Poissons Ratio (z) = -0.05236 0.48621
#
# Static dielectric constant tensor:
#      x y z
#    x 3.881250 0.000000 0.000000 
#    y 0.000000 3.960580 0.000000 
#    z 0.000000 0.000000 3.659380 
# 
# 
# High freq. dielectric constant tensor:
#      x y z
#    x 1.804670 0.000000 0.000000 
#    y 0.000000 1.800510 0.000000 
#    z 0.000000 0.000000 1.785510 
# 
# From -- ./inp_files/6031.got.cif
#   From: 2010.03.12/outbox.cif.g09.slc.cpg/sg53_4_cif.got.tgz:6031.got - 2010.04.16 14:36:59.
