data_PCOD8221434
_publ_section_title
;
Structure prediction by ZEFSAII (Michael W. Deem and Ramdas Pophale) SiO2 
 PCOD8221434
Probable space group: P M N A
;
_chemical_formula_sum "Si O2"
_cell_formula_units_Z 64
_cell_length_a 23.794672
_cell_length_b 14.875834
_cell_length_c 9.365981
_cell_angle_alpha 90.000000
_cell_angle_beta 90.000000
_cell_angle_gamma 90.000000
_cell_volume 3315.234998
_symmetry_space_group_name_H-M "P M N A"
_symmetry_group_IT_number 53
_symmetry_cell_setting 'orthorhombic'
loop_
_space_group_symop_operation_xyz
x,y,z
1/2-x,-y,1/2+z
x,-y,-z
1/2-x,y,1/2-z
-x,-y,-z
1/2+x,y,1/2-z
-x,y,z
1/2+x,-y,1/2+z
loop_
_atom_site_type_symbol
_atom_site_label
_atom_site_fract_x
_atom_site_fract_y
_atom_site_fract_z
Si Si1 0.436798 0.291643 0.231970
Si Si2 0.640122 0.726469 0.506351
Si Si3 0.113152 0.520669 0.659978
Si Si4 0.561994 0.807521 0.047372
Si Si5 0.206315 0.564521 0.872392
Si Si6 0.938729 0.652267 0.235141
Si Si7 0.673549 0.917208 0.100950
Si Si8 0.798404 0.092249 0.921555
O O1 0.500000 0.313266 0.278117
O O2 0.404380 0.257557 0.369804
O O3 0.410853 0.379579 0.159865
O O4 0.433428 0.209793 0.120977
O O5 0.688471 0.658935 0.558046
O O6 0.610014 0.681174 0.371966
O O7 0.663966 0.823892 0.467854
O O8 0.136805 0.500000 0.500000
O O9 0.158412 0.511449 0.786643
O O10 0.066671 0.448783 0.706165
O O11 0.500000 0.853910 0.078781
O O12 0.563635 0.712797 0.125304
O O13 0.617160 0.859177 0.097588
O O14 0.250000 0.589916 0.750000
O O15 0.228980 0.500000 0.000000
O O16 0.000000 0.659840 0.160121
O O17 0.685928 0.940286 0.263663
O O18 0.733607 0.874921 0.050519
O O19 0.659440 0.000000 0.000000
O O20 0.812390 0.000000 0.000000
#
# Coordination Sequence:
#
# PCOD8221434 Si02
#       8
#     8   8   8   8   8   8   8   8
#     4  10  22  36  58  90 125 162 206 257 304 362
#     4  11  23  42  63  89 124 163 209 252 317 373
#     4  11  21  37  59  87 122 163 210 259 304 359
#     4  10  21  38  61  92 125 162 202 247 310 371
#     4  11  24  43  58  88 125 167 208 254 308 375
#     4  11  21  37  63  88 121 165 209 256 305 367
#     4  10  22  42  67  92 120 153 200 255 309 369
#     4  10  23  43  65  93 121 157 206 258 312 370
#
# _framework density 19.304815999999999
#
# number of rings (size 3 to 8) (size 9 to 14) (size 15 to 20)
#    0.000    1.500    3.750    1.125    1.750    2.750 
#    6.750    1.875    0.000    1.875    0.000    0.000 
#    0.000    0.000    0.000    0.000    0.000    0.000 
#
# Total GULP energy -792967.956165 kJ/mol
# GULP energy per Si atom -12390.124315 kJ/mol
# Density = 1.926088 g / cm^3
# Si number density = 19.304816 Si / 1000 Ang^3
#
#
#
# Elastic Constant Matrix: (Units=GPa)
#
#
# Indices 1 2 3 4 5 6 
#
# 1 90.2692 33.9344 25.4328 0.0000 0.0000 0.0000
# 2 33.9344 74.2012 33.9616 0.0000 0.0000 0.0000
# 3 25.4328 33.9616 94.8836 0.0000 0.0000 0.0000
# 4 0.0000 0.0000 0.0000 30.1156 0.0000 0.0000
# 5 0.0000 0.0000 0.0000 0.0000 1.3916 0.0000
# 6 0.0000 0.0000 0.0000 0.0000 0.0000 6.2787
#
#
#
# Elastic Compliance Matrix: (Units=1/GPa)
#
#
# Indices 1 2 3 4 5 6 
#
# 1 0.013603 -0.005444 -0.001698 0.000000 0.000000 0.000000
# 2 -0.005444 0.018296 -0.005089 0.000000 0.000000 0.000000
# 3 -0.001698 -0.005089 0.012816 0.000000 0.000000 0.000000
# 4 0.000000 0.000000 0.000000 0.033205 0.000000 0.000000
# 5 0.000000 0.000000 0.000000 0.000000 0.718597 0.000000
# 6 0.000000 0.000000 0.000000 0.000000 0.000000 0.159268
#
#
# Mechanical properties :
#
#
# Convention : Reuss Voigt Hill
#
# Bulk Modulus (GPa) = 49.37617 49.55685 49.46651
# Shear Modulus (GPa) = 5.06586 18.62551 11.84569
#
# Velocity S-wave (km/s) = 1.62168 3.10951 2.47981
# Velocity P-wave (km/s) = 5.39807 6.21438 5.82055
#
# Compressibility (1/GPa) = 0.02025269
#
# Stress axis : x y z
#
# Youngs Moduli (GPa) = 73.51430 54.65669 78.02795
#
# Poissons Ratio (x) = 0.29755 0.13246
# Poissons Ratio (y) = 0.40021 0.39712
# Poissons Ratio (z) = 0.12479 0.27817
#
# Static dielectric constant tensor:
#      x y z
#    x 3.850550 0.000000 0.000000 
#    y 0.000000 3.443670 0.000000 
#    z 0.000000 0.000000 3.573280 
# 
# 
# High freq. dielectric constant tensor:
#      x y z
#    x 1.760230 0.000000 0.000000 
#    y 0.000000 1.732090 0.000000 
#    z 0.000000 0.000000 1.768250 
# 
# From -- ./inp_files/11931.got.cif
#   From: 2010.03.12/outbox.cif.g09.slc.cpg/sg53_6_cif.got.tgz:11931.got - 2010.04.16 14:36:59.
