data_PCOD8221983
_publ_section_title
;
Structure prediction by ZEFSAII (Michael W. Deem and Ramdas Pophale) SiO2 
 PCOD8221983
Probable space group: P M N A
;
_chemical_formula_sum "Si O2"
_cell_formula_units_Z 40
_cell_length_a 14.873903
_cell_length_b 11.391715
_cell_length_c 11.513876
_cell_angle_alpha 90.000000
_cell_angle_beta 90.000000
_cell_angle_gamma 90.000000
_cell_volume 1950.902674
_symmetry_space_group_name_H-M "P M N A"
_symmetry_group_IT_number 53
_symmetry_cell_setting 'orthorhombic'
loop_
_space_group_symop_operation_xyz
x,y,z
1/2-x,-y,1/2+z
x,-y,-z
1/2-x,y,1/2-z
-x,-y,-z
1/2+x,y,1/2-z
-x,y,z
1/2+x,-y,1/2+z
loop_
_atom_site_type_symbol
_atom_site_label
_atom_site_fract_x
_atom_site_fract_y
_atom_site_fract_z
Si Si1 0.729857 0.223532 0.129062
Si Si2 0.598912 0.634392 0.030218
Si Si3 0.099837 0.011899 0.365113
Si Si4 0.899521 0.861118 0.006147
Si Si5 0.351609 0.771847 0.242891
O O1 0.750000 0.292201 0.250000
O O2 0.670523 0.111809 0.168241
O O3 0.675580 0.297165 0.036610
O O4 0.826368 0.196165 0.075832
O O5 0.500000 0.670222 0.983363
O O6 0.600675 0.667616 0.168066
O O7 0.616882 0.500000 0.000000
O O8 0.000000 0.031795 0.307911
O O9 0.086205 0.000000 0.500000
O O10 0.144564 0.891172 0.328467
O O11 0.895055 0.799418 0.132518
O O12 0.000000 0.837006 0.958377
O O13 0.879871 0.000000 0.000000
O O14 0.250000 0.729397 0.250000
#
# Coordination Sequence:
#
# PCOD8221983 Si02
#       5
#     8   8   8   8   8
#     4  12  24  40  62  91 130 171 212 268 331 394
#     4  11  25  45  68  93 123 169 229 281 327 386
#     4  11  20  33  60  96 130 161 205 259 324 402
#     4  11  23  39  61  98 139 172 209 258 331 414
#     4  12  21  39  68  95 131 171 211 270 336 402
#
# _framework density 20.503329000000001
#
# number of rings (size 3 to 8) (size 9 to 14) (size 15 to 20)
#    0.000    0.600    4.000    6.000    0.000    4.000 
#    0.000    0.000    0.000    0.600    0.000    0.000 
#    0.000    0.000    0.000    0.000    0.000    0.000 
#
# Total GULP energy -495711.064950 kJ/mol
# GULP energy per Si atom -12392.776624 kJ/mol
# Density = 2.045666 g / cm^3
# Si number density = 20.503329 Si / 1000 Ang^3
#
#
#
# Elastic Constant Matrix: (Units=GPa)
#
#
# Indices 1 2 3 4 5 6 
#
# 1 152.3418 43.9469 40.7958 0.0000 0.0000 0.0000
# 2 43.9469 75.0002 43.7987 0.0000 0.0000 0.0000
# 3 40.7958 43.7987 121.4133 0.0000 0.0000 0.0000
# 4 0.0000 0.0000 0.0000 24.8124 0.0000 0.0000
# 5 0.0000 0.0000 0.0000 0.0000 26.4917 0.0000
# 6 0.0000 0.0000 0.0000 0.0000 0.0000 32.8258
#
#
#
# Elastic Compliance Matrix: (Units=1/GPa)
#
#
# Indices 1 2 3 4 5 6 
#
# 1 0.008051 -0.003975 -0.001271 0.000000 0.000000 0.000000
# 2 -0.003975 0.018855 -0.005466 0.000000 0.000000 0.000000
# 3 -0.001271 -0.005466 0.010635 0.000000 0.000000 0.000000
# 4 0.000000 0.000000 0.000000 0.040302 0.000000 0.000000
# 5 0.000000 0.000000 0.000000 0.000000 0.037748 0.000000
# 6 0.000000 0.000000 0.000000 0.000000 0.000000 0.030464
#
#
# Mechanical properties :
#
#
# Convention : Reuss Voigt Hill
#
# Bulk Modulus (GPa) = 62.04907 67.31534 64.68221
# Shear Modulus (GPa) = 28.92641 31.50691 30.21666
#
# Velocity S-wave (km/s) = 3.76016 3.92429 3.84310
# Velocity P-wave (km/s) = 7.01287 7.31000 7.16298
#
# Compressibility (1/GPa) = 0.01611628
#
# Stress axis : x y z
#
# Youngs Moduli (GPa) = 124.20171 53.03727 94.02699
#
# Poissons Ratio (x) = 0.21084 0.11953
# Poissons Ratio (y) = 0.49375 0.51394
# Poissons Ratio (z) = 0.15789 0.28990
#
# Static dielectric constant tensor:
#      x y z
#    x 4.155350 0.000000 0.000000 
#    y 0.000000 3.532490 0.000000 
#    z 0.000000 0.000000 4.055640 
# 
# 
# High freq. dielectric constant tensor:
#      x y z
#    x 1.831780 0.000000 0.000000 
#    y 0.000000 1.759930 0.000000 
#    z 0.000000 0.000000 1.809950 
# 
# From -- ./inp_files/15732.got.cif
#   From: 2010.03.12/outbox.cif.g09.slc.cpg/sg53_8_cif.got.tgz:15732.got - 2010.04.16 14:36:59.
