data_PCOD8221073
_publ_section_title
;
Structure prediction by ZEFSAII (Michael W. Deem and Ramdas Pophale) SiO2 
 PCOD8221073
Probable space group: P M N A
;
_chemical_formula_sum "Si O2"
_cell_formula_units_Z 48
_cell_length_a 9.497387
_cell_length_b 31.530938
_cell_length_c 8.954600
_cell_angle_alpha 90.000000
_cell_angle_beta 90.000000
_cell_angle_gamma 90.000000
_cell_volume 2681.558133
_symmetry_space_group_name_H-M "P M N A"
_symmetry_group_IT_number 53
_symmetry_cell_setting 'orthorhombic'
loop_
_space_group_symop_operation_xyz
x,y,z
1/2-x,-y,1/2+z
x,-y,-z
1/2-x,y,1/2-z
-x,-y,-z
1/2+x,y,1/2-z
-x,y,z
1/2+x,-y,1/2+z
loop_
_atom_site_type_symbol
_atom_site_label
_atom_site_fract_x
_atom_site_fract_y
_atom_site_fract_z
Si Si1 0.335702 0.700949 0.399839
Si Si2 0.664241 0.459519 0.598491
Si Si3 0.663582 0.038099 0.400490
Si Si4 0.664046 0.778811 0.597256
Si Si5 0.159344 0.129192 0.104663
Si Si6 0.663736 0.379546 0.401171
O O1 0.250000 0.693244 0.250000
O O2 0.500000 0.701463 0.358651
O O3 0.285802 0.744937 0.475021
O O4 0.299670 0.663966 0.515769
O O5 0.704256 0.500000 0.500000
O O6 0.750000 0.461387 0.750000
O O7 0.500000 0.458803 0.639253
O O8 0.709454 0.417880 0.507973
O O9 0.750000 0.037449 0.250000
O O10 0.500000 0.030202 0.363891
O O11 0.685549 0.084458 0.483316
O O12 0.723793 0.000000 0.500000
O O13 0.750000 0.773055 0.750000
O O14 0.500000 0.771505 0.635829
O O15 0.690615 0.825831 0.522381
O O16 0.250000 0.127936 0.250000
O O17 0.000000 0.129834 0.161234
O O18 0.750000 0.382144 0.250000
O O19 0.500000 0.382598 0.359642
#
# Coordination Sequence:
#
# PCOD8221073 Si02
#       6
#     8   8   8   8   8   8
#     4  10  21  35  50  71  99 129 160 194 235 284
#     4  10  21  36  54  78 106 135 169 206 244 289
#     4   9  17  29  45  65  89 118 151 187 229 275
#     4   9  17  30  49  71  92 117 153 194 233 276
#     4   8  14  26  44  64  87 115 148 187 228 271
#     4  10  21  36  54  77 102 129 165 205 243 286
#
# _framework density 17.900041999999999
#
# number of rings (size 3 to 8) (size 9 to 14) (size 15 to 20)
#    0.000    2.667    0.000    1.500    0.000    2.667 
#    0.000    0.833    0.000    0.000    0.000    0.000 
#    0.000    0.000    0.000    0.000    0.000    0.000 
#
# Total GULP energy -594770.398516 kJ/mol
# GULP energy per Si atom -12391.049969 kJ/mol
# Density = 1.785930 g / cm^3
# Si number density = 17.900042 Si / 1000 Ang^3
#
#
#
# Elastic Constant Matrix: (Units=GPa)
#
#
# Indices 1 2 3 4 5 6 
#
# 1 50.6047 42.2728 52.6456 0.0000 0.0000 0.0000
# 2 42.2728 174.0834 67.5288 0.0000 0.0000 0.0000
# 3 52.6456 67.5288 110.6413 0.0000 0.0000 0.0000
# 4 0.0000 0.0000 0.0000 25.4385 0.0000 0.0000
# 5 0.0000 0.0000 0.0000 0.0000 32.4856 0.0000
# 6 0.0000 0.0000 0.0000 0.0000 0.0000 40.7835
#
#
#
# Elastic Compliance Matrix: (Units=1/GPa)
#
#
# Indices 1 2 3 4 5 6 
#
# 1 0.040354 -0.003080 -0.017321 0.000000 0.000000 0.000000
# 2 -0.003080 0.007761 -0.003272 0.000000 0.000000 0.000000
# 3 -0.017321 -0.003272 0.019277 0.000000 0.000000 0.000000
# 4 0.000000 0.000000 0.000000 0.039311 0.000000 0.000000
# 5 0.000000 0.000000 0.000000 0.000000 0.030783 0.000000
# 6 0.000000 0.000000 0.000000 0.000000 0.000000 0.024520
#
#
# Mechanical properties :
#
#
# Convention : Reuss Voigt Hill
#
# Bulk Modulus (GPa) = 49.88471 73.35818 61.62145
# Shear Modulus (GPa) = 23.14457 31.26698 27.20578
#
# Velocity S-wave (km/s) = 3.59972 4.18395 3.90278
# Velocity P-wave (km/s) = 6.72356 8.02569 7.40331
#
# Compressibility (1/GPa) = 0.02004622
#
# Stress axis : x y z
#
# Youngs Moduli (GPa) = 24.78073 128.84353 51.87557
#
# Poissons Ratio (x) = 0.39684 0.89856
# Poissons Ratio (y) = 0.07632 0.16971
# Poissons Ratio (z) = 0.42924 0.42152
#
# Static dielectric constant tensor:
#      x y z
#    x 2.722870 0.000000 0.000000 
#    y 0.000000 4.194270 0.000000 
#    z 0.000000 0.000000 3.446910 
# 
# 
# High freq. dielectric constant tensor:
#      x y z
#    x 1.691240 0.000000 0.000000 
#    y 0.000000 1.728360 0.000000 
#    z 0.000000 0.000000 1.656580 
# 
# From -- ./inp_files/6584.got.cif
#   From: 2010.03.12/outbox.cif.g09.slc.cpg/sg53_4_cif.got.tgz:6584.got - 2010.04.16 14:36:59.
