data_PCOD8221440
_publ_section_title
;
Structure prediction by ZEFSAII (Michael W. Deem and Ramdas Pophale) SiO2 
 PCOD8221440
Probable space group: P M N A
;
_chemical_formula_sum "Si O2"
_cell_formula_units_Z 56
_cell_length_a 8.576038
_cell_length_b 21.637413
_cell_length_c 14.953913
_cell_angle_alpha 90.000000
_cell_angle_beta 90.000000
_cell_angle_gamma 90.000000
_cell_volume 2774.897087
_symmetry_space_group_name_H-M "P M N A"
_symmetry_group_IT_number 53
_symmetry_cell_setting 'orthorhombic'
loop_
_space_group_symop_operation_xyz
x,y,z
1/2-x,-y,1/2+z
x,-y,-z
1/2-x,y,1/2-z
-x,-y,-z
1/2+x,y,1/2-z
-x,y,z
1/2+x,-y,1/2+z
loop_
_atom_site_type_symbol
_atom_site_label
_atom_site_fract_x
_atom_site_fract_y
_atom_site_fract_z
Si Si1 0.316624 0.503795 0.651937
Si Si2 0.182363 0.639782 0.847686
Si Si3 0.183001 0.850464 0.496116
Si Si4 0.184370 0.379764 0.649684
Si Si5 0.815279 0.717567 0.014449
Si Si6 0.182943 0.077493 0.154402
Si Si7 0.816148 0.053624 0.653828
O O1 0.250000 0.507668 0.750000
O O2 0.500000 0.489705 0.651296
O O3 0.278039 0.571474 0.611537
O O4 0.229914 0.446172 0.604028
O O5 0.250000 0.653684 0.750000
O O6 0.000000 0.645658 0.835393
O O7 0.243873 0.688958 0.920151
O O8 0.227732 0.781494 0.469562
O O9 0.273889 0.868791 0.585637
O O10 0.238457 0.894806 0.416061
O O11 0.000000 0.856547 0.513252
O O12 0.250000 0.377797 0.750000
O O13 0.268057 0.326021 0.595690
O O14 0.000000 0.370250 0.648722
O O15 0.000000 0.727413 0.014429
O O16 0.250000 0.097015 0.250000
O O17 0.000000 0.070108 0.163014
O O18 0.253081 0.012506 0.121099
O O19 0.750000 0.072407 0.750000
O O20 0.000000 0.049131 0.660809
#
# Coordination Sequence:
#
# PCOD8221440 Si02
#       7
#     8   8   8   8   8   8   8
#     4   9  16  31  55  83 111 142 182 231 288 345
#     4   9  20  37  59  84 113 148 187 235 289 342
#     4  11  24  41  59  84 119 157 196 239 286 338
#     4  11  22  38  59  84 113 148 189 238 292 345
#     4  11  24  41  58  82 115 155 199 238 283 342
#     4  11  22  38  63  92 120 152 191 236 286 339
#     4  10  21  38  62  90 120 151 187 234 286 339
#
# _framework density 20.180928000000002
#
# number of rings (size 3 to 8) (size 9 to 14) (size 15 to 20)
#    0.000    1.714    0.000    6.429    0.000    7.429 
#    0.000    5.714    0.000    0.000    0.000    0.000 
#    0.000    0.000    0.000    0.000    0.000    0.000 
#
# Total GULP energy -694359.229698 kJ/mol
# GULP energy per Si atom -12399.271959 kJ/mol
# Density = 2.013500 g / cm^3
# Si number density = 20.180928 Si / 1000 Ang^3
#
#
#
# Elastic Constant Matrix: (Units=GPa)
#
#
# Indices 1 2 3 4 5 6 
#
# 1 62.2132 10.3498 20.3571 0.0000 0.0000 0.0000
# 2 10.3498 74.0117 18.9698 0.0000 0.0000 0.0000
# 3 20.3571 18.9698 63.8235 0.0000 0.0000 0.0000
# 4 0.0000 0.0000 0.0000 58.9754 0.0000 0.0000
# 5 0.0000 0.0000 0.0000 0.0000 30.2882 0.0000
# 6 0.0000 0.0000 0.0000 0.0000 0.0000 33.8976
#
#
#
# Elastic Compliance Matrix: (Units=1/GPa)
#
#
# Indices 1 2 3 4 5 6 
#
# 1 0.018034 -0.001134 -0.005415 0.000000 0.000000 0.000000
# 2 -0.001134 0.014697 -0.004007 0.000000 0.000000 0.000000
# 3 -0.005415 -0.004007 0.018586 0.000000 0.000000 0.000000
# 4 0.000000 0.000000 0.000000 0.016956 0.000000 0.000000
# 5 0.000000 0.000000 0.000000 0.000000 0.033016 0.000000
# 6 0.000000 0.000000 0.000000 0.000000 0.000000 0.029501
#
#
# Mechanical properties :
#
#
# Convention : Reuss Voigt Hill
#
# Bulk Modulus (GPa) = 33.10592 33.26686 33.18639
# Shear Modulus (GPa) = 30.86978 34.65700 32.76339
#
# Velocity S-wave (km/s) = 3.91532 4.14854 4.03362
# Velocity P-wave (km/s) = 6.07287 6.28230 6.17848
#
# Compressibility (1/GPa) = 0.03020608
#
# Stress axis : x y z
#
# Youngs Moduli (GPa) = 55.44974 68.04170 53.80310
#
# Poissons Ratio (x) = 0.07716 0.29135
# Poissons Ratio (y) = 0.06288 0.21557
# Poissons Ratio (z) = 0.30027 0.27261
#
# Static dielectric constant tensor:
#      x y z
#    x 3.792320 0.000000 0.000000 
#    y 0.000000 4.078210 0.000000 
#    z 0.000000 0.000000 3.715360 
# 
# 
# High freq. dielectric constant tensor:
#      x y z
#    x 1.798020 0.000000 0.000000 
#    y 0.000000 1.794390 0.000000 
#    z 0.000000 0.000000 1.784220 
# 
# From -- ./inp_files/20481.got.cif
#   From: 2010.03.12/outbox.cif.g09.slc.cpg/sg53_11_cif.got.tgz:20481.got - 2010.04.16 14:36:59.
