data_PCOD8221286
_publ_section_title
;
Structure prediction by ZEFSAII (Michael W. Deem and Ramdas Pophale) SiO2 
 PCOD8221286
Probable space group: P M N A
;
_chemical_formula_sum "Si O2"
_cell_formula_units_Z 40
_cell_length_a 8.624144
_cell_length_b 25.078512
_cell_length_c 9.749046
_cell_angle_alpha 90.000000
_cell_angle_beta 90.000000
_cell_angle_gamma 90.000000
_cell_volume 2108.530481
_symmetry_space_group_name_H-M "P M N A"
_symmetry_group_IT_number 53
_symmetry_cell_setting 'orthorhombic'
loop_
_space_group_symop_operation_xyz
x,y,z
1/2-x,-y,1/2+z
x,-y,-z
1/2-x,y,1/2-z
-x,-y,-z
1/2+x,y,1/2-z
-x,y,z
1/2+x,-y,1/2+z
loop_
_atom_site_type_symbol
_atom_site_label
_atom_site_fract_x
_atom_site_fract_y
_atom_site_fract_z
Si Si1 0.318817 0.954291 0.891759
Si Si2 0.683381 0.159373 0.398367
Si Si3 0.182850 0.337551 0.395082
Si Si4 0.683799 0.246115 0.902137
Si Si5 0.683629 0.457159 0.106179
O O1 0.250000 0.976047 0.750000
O O2 0.500000 0.941126 0.876269
O O3 0.230253 0.900824 0.935789
O O4 0.285257 0.000000 0.000000
O O5 0.750000 0.176450 0.250000
O O6 0.500000 0.165397 0.393989
O O7 0.751786 0.195090 0.518984
O O8 0.250000 0.317678 0.250000
O O9 0.239658 0.298898 0.516434
O O10 0.241617 0.397364 0.430386
O O11 0.000000 0.335898 0.380593
O O12 0.750000 0.248622 0.750000
O O13 0.500000 0.242188 0.894889
O O14 0.750000 0.475800 0.250000
O O15 0.500000 0.458958 0.110428
O O16 0.751361 0.500000 0.000000
#
# Coordination Sequence:
#
# PCOD8221286 Si02
#       5
#     8   8   8   8   8
#     4  10  21  37  58  84 113 145 183 224 267 318
#     4  11  22  38  60  83 110 145 184 224 269 322
#     4   9  19  35  55  77 103 139 179 219 264 319
#     4  11  23  38  55  79 110 141 179 225 275 325
#     4   9  18  33  52  76 106 138 175 218 264 316
#
# _framework density 18.970558
#
# number of rings (size 3 to 8) (size 9 to 14) (size 15 to 20)
#    0.000    2.000    0.000    4.800    0.000    6.800 
#    0.000    2.000    0.000    0.000    0.000    0.000 
#    0.000    0.000    0.000    0.000    0.000    0.000 
#
# Total GULP energy -496053.644653 kJ/mol
# GULP energy per Si atom -12401.341116 kJ/mol
# Density = 1.892738 g / cm^3
# Si number density = 18.970558 Si / 1000 Ang^3
#
#
#
# Elastic Constant Matrix: (Units=GPa)
#
#
# Indices 1 2 3 4 5 6 
#
# 1 73.1195 40.9115 52.1160 0.0000 0.0000 0.0000
# 2 40.9115 116.3122 104.3789 0.0000 0.0000 0.0000
# 3 52.1160 104.3789 175.6631 0.0000 0.0000 0.0000
# 4 0.0000 0.0000 0.0000 211.0711 0.0000 0.0000
# 5 0.0000 0.0000 0.0000 0.0000 35.2440 0.0000
# 6 0.0000 0.0000 0.0000 0.0000 0.0000 4.9121
#
#
#
# Elastic Compliance Matrix: (Units=1/GPa)
#
#
# Indices 1 2 3 4 5 6 
#
# 1 0.017910 -0.003280 -0.003364 0.000000 0.000000 0.000000
# 2 -0.003280 0.019020 -0.010329 0.000000 0.000000 0.000000
# 3 -0.003364 -0.010329 0.012828 0.000000 0.000000 0.000000
# 4 0.000000 0.000000 0.000000 0.004738 0.000000 0.000000
# 5 0.000000 0.000000 0.000000 0.000000 0.028374 0.000000
# 6 0.000000 0.000000 0.000000 0.000000 0.000000 0.203580
#
#
# Mechanical properties :
#
#
# Convention : Reuss Voigt Hill
#
# Bulk Modulus (GPa) = 63.24538 84.43416 73.83977
# Shear Modulus (GPa) = 15.35313 61.42467 38.38890
#
# Velocity S-wave (km/s) = 2.84793 5.69642 4.50333
# Velocity P-wave (km/s) = 6.65021 9.37391 8.12698
#
# Compressibility (1/GPa) = 0.01581143
#
# Stress axis : x y z
#
# Youngs Moduli (GPa) = 55.83616 52.57533 77.95407
#
# Poissons Ratio (x) = 0.17247 0.26225
# Poissons Ratio (y) = 0.18317 0.80516
# Poissons Ratio (z) = 0.18784 0.54303
#
# Static dielectric constant tensor:
#      x y z
#    x 3.503990 0.000000 0.000000 
#    y 0.000000 3.748510 0.000000 
#    z 0.000000 0.000000 3.566770 
# 
# 
# High freq. dielectric constant tensor:
#      x y z
#    x 1.742670 0.000000 0.000000 
#    y 0.000000 1.748110 0.000000 
#    z 0.000000 0.000000 1.737270 
# 
# From -- ./inp_files/6309.got.cif
#   From: 2010.03.12/outbox.cif.g09.slc.cpg/sg53_4_cif.got.tgz:6309.got - 2010.04.16 14:36:59.
