data_PCOD8221705
_publ_section_title
;
Structure prediction by ZEFSAII (Michael W. Deem and Ramdas Pophale) SiO2 
 PCOD8221705
Probable space group: P M N A
;
_chemical_formula_sum "Si O2"
_cell_formula_units_Z 40
_cell_length_a 8.574343
_cell_length_b 25.233060
_cell_length_c 9.207246
_cell_angle_alpha 90.000000
_cell_angle_beta 90.000000
_cell_angle_gamma 90.000000
_cell_volume 1992.051307
_symmetry_space_group_name_H-M "P M N A"
_symmetry_group_IT_number 53
_symmetry_cell_setting 'orthorhombic'
loop_
_space_group_symop_operation_xyz
x,y,z
1/2-x,-y,1/2+z
x,-y,-z
1/2-x,y,1/2-z
-x,-y,-z
1/2+x,y,1/2-z
-x,y,z
1/2+x,-y,1/2+z
loop_
_atom_site_type_symbol
_atom_site_label
_atom_site_fract_x
_atom_site_fract_y
_atom_site_fract_z
Si Si1 0.681370 0.051858 0.906245
Si Si2 0.315638 0.550082 0.589709
Si Si3 0.183721 0.857971 0.902841
Si Si4 0.684709 0.651305 0.408435
Si Si5 0.184394 0.743212 0.594931
O O1 0.750000 0.039228 0.750000
O O2 0.500000 0.066655 0.897893
O O3 0.775329 0.100929 0.971919
O O4 0.711608 0.000000 0.000000
O O5 0.249942 0.500000 0.500000
O O6 0.250000 0.548563 0.750000
O O7 0.500000 0.547632 0.598286
O O8 0.259112 0.603526 0.511224
O O9 0.250000 0.879426 0.750000
O O10 0.259817 0.802057 0.943251
O O11 0.000000 0.850558 0.889078
O O12 0.750000 0.639718 0.250000
O O13 0.500000 0.656000 0.402256
O O14 0.755183 0.705663 0.467925
O O15 0.250000 0.723988 0.750000
O O16 0.000000 0.741648 0.602111
#
# Coordination Sequence:
#
# PCOD8221705 Si02
#       5
#     8   8   8   8   8
#     4  11  24  41  62  89 121 157 198 243 293 349
#     4  10  22  39  60  87 118 153 194 240 291 349
#     4  11  22  39  63  90 121 156 197 243 294 350
#     4  11  23  39  59  86 119 155 198 244 294 349
#     4  11  22  39  62  88 119 155 197 242 293 350
#
# _framework density 20.079802999999998
#
# number of rings (size 3 to 8) (size 9 to 14) (size 15 to 20)
#    0.000    1.200    0.000    7.800    0.000    7.600 
#    0.000    4.000    0.000    0.000    0.000    0.000 
#    0.000    0.000    0.000    0.000    0.000    0.000 
#
# Total GULP energy -496277.083585 kJ/mol
# GULP energy per Si atom -12406.927090 kJ/mol
# Density = 2.003410 g / cm^3
# Si number density = 20.079803 Si / 1000 Ang^3
#
#
#
# Elastic Constant Matrix: (Units=GPa)
#
#
# Indices 1 2 3 4 5 6 
#
# 1 112.6038 42.0067 49.3814 0.0000 0.0000 0.0000
# 2 42.0067 103.3730 68.5114 0.0000 0.0000 0.0000
# 3 49.3814 68.5114 156.8314 0.0000 0.0000 0.0000
# 4 0.0000 0.0000 0.0000 116.0075 0.0000 0.0000
# 5 0.0000 0.0000 0.0000 0.0000 39.4886 0.0000
# 6 0.0000 0.0000 0.0000 0.0000 0.0000 32.4104
#
#
#
# Elastic Compliance Matrix: (Units=1/GPa)
#
#
# Indices 1 2 3 4 5 6 
#
# 1 0.010945 -0.003045 -0.002116 0.000000 0.000000 0.000000
# 2 -0.003045 0.014463 -0.005359 0.000000 0.000000 0.000000
# 3 -0.002116 -0.005359 0.009384 0.000000 0.000000 0.000000
# 4 0.000000 0.000000 0.000000 0.008620 0.000000 0.000000
# 5 0.000000 0.000000 0.000000 0.000000 0.025324 0.000000
# 6 0.000000 0.000000 0.000000 0.000000 0.000000 0.030854
#
#
# Mechanical properties :
#
#
# Convention : Reuss Voigt Hill
#
# Bulk Modulus (GPa) = 72.72360 76.95636 74.83998
# Shear Modulus (GPa) = 39.93170 51.77521 45.85346
#
# Velocity S-wave (km/s) = 4.46427 5.08337 4.78385
# Velocity P-wave (km/s) = 7.92899 8.53597 8.23807
#
# Compressibility (1/GPa) = 0.01375069
#
# Stress axis : x y z
#
# Youngs Moduli (GPa) = 91.36949 69.14157 106.56770
#
# Poissons Ratio (x) = 0.21055 0.22548
# Poissons Ratio (y) = 0.27823 0.57113
# Poissons Ratio (z) = 0.19332 0.37055
#
# Static dielectric constant tensor:
#      x y z
#    x 3.741010 0.000000 0.000000 
#    y 0.000000 3.822060 0.000000 
#    z 0.000000 0.000000 3.674110 
# 
# 
# High freq. dielectric constant tensor:
#      x y z
#    x 1.796710 0.000000 0.000000 
#    y 0.000000 1.797790 0.000000 
#    z 0.000000 0.000000 1.791680 
# 
# From -- ./inp_files/6258.got.cif
#   From: 2010.03.12/outbox.cif.g09.slc.cpg/sg53_4_cif.got.tgz:6258.got - 2010.04.16 14:36:59.
