data_PCOD8221897
_publ_section_title
;
Structure prediction by ZEFSAII (Michael W. Deem and Ramdas Pophale) SiO2 
 PCOD8221897
Probable space group: P M N A
;
_chemical_formula_sum "Si O2"
_cell_formula_units_Z 64
_cell_length_a 8.448186
_cell_length_b 23.640045
_cell_length_c 15.388064
_cell_angle_alpha 90.000000
_cell_angle_beta 90.000000
_cell_angle_gamma 90.000000
_cell_volume 3073.234853
_symmetry_space_group_name_H-M "P M N A"
_symmetry_group_IT_number 53
_symmetry_cell_setting 'orthorhombic'
loop_
_space_group_symop_operation_xyz
x,y,z
1/2-x,-y,1/2+z
x,-y,-z
1/2-x,y,1/2-z
-x,-y,-z
1/2+x,y,1/2-z
-x,y,z
1/2+x,-y,1/2+z
loop_
_atom_site_type_symbol
_atom_site_label
_atom_site_fract_x
_atom_site_fract_y
_atom_site_fract_z
Si Si1 0.315932 0.434916 0.006651
Si Si2 0.682720 0.132236 0.840738
Si Si3 0.318317 0.246976 0.603500
Si Si4 0.685629 0.065874 0.006998
Si Si5 0.814107 0.371865 0.842389
Si Si6 0.183293 0.749664 0.584481
Si Si7 0.185023 0.362524 0.159299
Si Si8 0.814936 0.137411 0.159000
O O1 0.500000 0.427205 0.028705
O O2 0.278905 0.405588 0.915685
O O3 0.266819 0.500000 0.000000
O O4 0.214424 0.407577 0.083491
O O5 0.750000 0.109611 0.750000
O O6 0.500000 0.119777 0.837913
O O7 0.712942 0.198824 0.852512
O O8 0.754462 0.096936 0.921198
O O9 0.500000 0.230744 0.619156
O O10 0.273696 0.305760 0.648667
O O11 0.289386 0.251800 0.501251
O O12 0.500000 0.078687 0.019917
O O13 0.781815 0.089484 0.088233
O O14 0.721223 0.000000 0.000000
O O15 0.750000 0.393528 0.750000
O O16 0.000000 0.383628 0.851677
O O17 0.221603 0.695409 0.642352
O O18 0.220450 0.805401 0.638787
O O19 0.000000 0.749343 0.557270
O O20 0.250000 0.387804 0.250000
O O21 0.000000 0.349620 0.165261
O O22 0.750000 0.113656 0.250000
O O23 0.000000 0.150671 0.163692
#
# Coordination Sequence:
#
# PCOD8221897 Si02
#       8
#     8   8   8   8   8   8   8   8
#     4  11  25  45  68  94 126 167 216 267 318 375
#     4  11  23  39  63  92 127 168 209 260 317 375
#     4  11  22  38  63  96 130 165 207 255 314 382
#     4  10  23  44  66  91 126 168 215 267 319 375
#     4  11  24  41  65  95 130 169 211 260 315 377
#     4  12  23  39  65  96 132 169 207 256 319 383
#     4  12  25  43  67  97 131 169 213 261 318 379
#     4  12  25  42  66  95 130 168 213 263 317 382
#
# _framework density 20.824963
#
# number of rings (size 3 to 8) (size 9 to 14) (size 15 to 20)
#    0.000    0.750    2.500    5.625    0.000    5.250 
#    0.000    1.250    0.000    0.000    0.000    0.000 
#    0.000    0.000    0.000    0.000    0.000    0.000 
#
# Total GULP energy -794112.547940 kJ/mol
# GULP energy per Si atom -12408.008562 kJ/mol
# Density = 2.077756 g / cm^3
# Si number density = 20.824963 Si / 1000 Ang^3
#
#
#
# Elastic Constant Matrix: (Units=GPa)
#
#
# Indices 1 2 3 4 5 6 
#
# 1 64.7209 30.3028 19.6940 0.0000 0.0000 0.0000
# 2 30.3028 102.4638 37.3824 0.0000 0.0000 0.0000
# 3 19.6940 37.3824 152.6072 0.0000 0.0000 0.0000
# 4 0.0000 0.0000 0.0000 -4.8924 0.0000 0.0000
# 5 0.0000 0.0000 0.0000 0.0000 36.3621 0.0000
# 6 0.0000 0.0000 0.0000 0.0000 0.0000 22.3737
#
#
#
# Elastic Compliance Matrix: (Units=1/GPa)
#
#
# Indices 1 2 3 4 5 6 
#
# 1 0.018109 -0.004945 -0.001126 0.000000 0.000000 0.000000
# 2 -0.004945 0.012068 -0.002318 0.000000 0.000000 0.000000
# 3 -0.001126 -0.002318 0.007266 0.000000 0.000000 0.000000
# 4 0.000000 0.000000 0.000000 -0.204397 0.000000 0.000000
# 5 0.000000 0.000000 0.000000 0.000000 0.027501 0.000000
# 6 0.000000 0.000000 0.000000 0.000000 0.000000 0.044695
#
#
# Mechanical properties :
#
#
# Convention : Reuss Voigt Hill
#
# Bulk Modulus (GPa) = 48.39028 54.95005 51.67016
# Shear Modulus (GPa) = -70.33056 26.26285 -22.03386
#
# Velocity S-wave (km/s) = -5.81769 3.55508 -3.25630
# Velocity P-wave (km/s) = 4.67336 6.57992 3.27529
#
# Compressibility (1/GPa) = 0.02066531
#
# Stress axis : x y z
#
# Youngs Moduli (GPa) = 55.22215 82.86651 137.63051
#
# Poissons Ratio (x) = 0.40976 0.15492
# Poissons Ratio (y) = 0.27306 0.31902
# Poissons Ratio (z) = 0.06216 0.19208
#
# Static dielectric constant tensor:
#      x y z
#    x 3.760370 0.000000 0.000000 
#    y 0.000000 3.706400 0.000000 
#    z 0.000000 0.000000 4.008440 
# 
# 
# High freq. dielectric constant tensor:
#      x y z
#    x 1.822980 0.000000 0.000000 
#    y 0.000000 1.808780 0.000000 
#    z 0.000000 0.000000 1.832560 
# 
# From -- ./inp_files/20921.got.cif
#   From: 2010.03.12/outbox.cif.g09.slc.cpg/sg53_11_cif.got.tgz:20921.got - 2010.04.16 14:36:59.
