data_PCOD8221724
_publ_section_title
;
Structure prediction by ZEFSAII (Michael W. Deem and Ramdas Pophale) SiO2 
 PCOD8221724
Probable space group: P M N A
;
_chemical_formula_sum "Si O2"
_cell_formula_units_Z 48
_cell_length_a 28.553563
_cell_length_b 6.664248
_cell_length_c 13.264015
_cell_angle_alpha 90.000000
_cell_angle_beta 90.000000
_cell_angle_gamma 90.000000
_cell_volume 2523.983219
_symmetry_space_group_name_H-M "P M N A"
_symmetry_group_IT_number 53
_symmetry_cell_setting 'orthorhombic'
loop_
_space_group_symop_operation_xyz
x,y,z
1/2-x,-y,1/2+z
x,-y,-z
1/2-x,y,1/2-z
-x,-y,-z
1/2+x,y,1/2-z
-x,y,z
1/2+x,-y,1/2+z
loop_
_atom_site_type_symbol
_atom_site_label
_atom_site_fract_x
_atom_site_fract_y
_atom_site_fract_z
Si Si1 0.685410 0.637415 0.095979
Si Si2 0.368723 0.766869 0.279199
Si Si3 0.689299 0.126434 0.357210
Si Si4 0.250000 0.581056 0.750000
Si Si5 0.607962 0.610758 0.598081
Si Si6 0.946175 0.973694 0.880856
Si Si7 0.267324 0.000000 0.000000
O O1 0.639777 0.693591 0.164347
O O2 0.730593 0.553318 0.157615
O O3 0.699209 0.852443 0.057143
O O4 0.671165 0.500000 0.000000
O O5 0.367940 0.554328 0.333771
O O6 0.325625 0.909680 0.313262
O O7 0.417393 0.879502 0.305584
O O8 0.704085 0.282011 0.270547
O O9 0.647442 0.219759 0.424903
O O10 0.735179 0.120428 0.423638
O O11 0.588302 0.500000 0.500000
O O12 0.565414 0.740169 0.646945
O O13 0.000000 0.020727 0.858680
O O14 0.934108 0.000000 0.000000
#
# Coordination Sequence:
#
# PCOD8221724 Si02
#       7
#     8   8   8   4   8   8   4
#     4  12  26  41  60  86 118 168 215 266 307 358
#     4  11  23  41  60  87 128 161 207 253 312 371
#     4  11  23  35  57  84 121 164 206 253 300 355
#     4  12  22  42  56  86 124 160 220 262 296 352
#     4  11  21  35  58  89 123 165 196 243 305 378
#     4  10  22  39  63  96 126 157 196 247 319 392
#     4  12  24  38  60  82 120 168 214 260 298 350
#
# _framework density 19.017558999999999
#
# number of rings (size 3 to 8) (size 9 to 14) (size 15 to 20)
#    0.000    0.833    5.000    3.000    4.667    1.000 
#    0.000    0.000    0.000    0.500    0.000    1.750 
#    0.000    0.000    0.000    0.000    0.000    0.000 
#
# Total GULP energy -594725.002022 kJ/mol
# GULP energy per Si atom -12390.104209 kJ/mol
# Density = 1.897427 g / cm^3
# Si number density = 19.017559 Si / 1000 Ang^3
#
#
#
# Elastic Constant Matrix: (Units=GPa)
#
#
# Indices 1 2 3 4 5 6 
#
# 1 96.9090 42.2943 45.1136 0.0000 0.0000 0.0000
# 2 42.2943 122.2786 49.4374 0.0000 0.0000 0.0000
# 3 45.1136 49.4374 103.0649 0.0000 0.0000 0.0000
# 4 0.0000 0.0000 0.0000 35.8403 0.0000 0.0000
# 5 0.0000 0.0000 0.0000 0.0000 25.1483 0.0000
# 6 0.0000 0.0000 0.0000 0.0000 0.0000 30.3570
#
#
#
# Elastic Compliance Matrix: (Units=1/GPa)
#
#
# Indices 1 2 3 4 5 6 
#
# 1 0.013730 -0.002877 -0.004630 0.000000 0.000000 0.000000
# 2 -0.002877 0.010749 -0.003896 0.000000 0.000000 0.000000
# 3 -0.004630 -0.003896 0.013598 0.000000 0.000000 0.000000
# 4 0.000000 0.000000 0.000000 0.027902 0.000000 0.000000
# 5 0.000000 0.000000 0.000000 0.000000 0.039764 0.000000
# 6 0.000000 0.000000 0.000000 0.000000 0.000000 0.032941
#
#
# Mechanical properties :
#
#
# Convention : Reuss Voigt Hill
#
# Bulk Modulus (GPa) = 65.48794 66.21590 65.85192
# Shear Modulus (GPa) = 30.01559 30.62962 30.32260
#
# Velocity S-wave (km/s) = 3.97710 4.01758 3.99739
# Velocity P-wave (km/s) = 7.45655 7.51100 7.48382
#
# Compressibility (1/GPa) = 0.01526999
#
# Stress axis : x y z
#
# Youngs Moduli (GPa) = 72.83366 93.03607 73.53939
#
# Poissons Ratio (x) = 0.26768 0.34047
# Poissons Ratio (y) = 0.20955 0.28654
# Poissons Ratio (z) = 0.33720 0.36250
#
# Static dielectric constant tensor:
#      x y z
#    x 3.289370 0.000000 0.000000 
#    y 0.000000 3.792800 0.000000 
#    z 0.000000 0.000000 3.558220 
# 
# 
# High freq. dielectric constant tensor:
#      x y z
#    x 1.711680 0.000000 0.000000 
#    y 0.000000 1.771370 0.000000 
#    z 0.000000 0.000000 1.715470 
# 
# From -- ./inp_files/24960.got.cif
#   From: 2010.03.12/outbox.cif.g09.slc.cpg/sg53_13_cif.got.tgz:24960.got - 2010.04.16 14:36:59.
