data_PCOD8221284
_publ_section_title
;
Structure prediction by ZEFSAII (Michael W. Deem and Ramdas Pophale) SiO2 
 PCOD8221284
Probable space group: P M N A
;
_chemical_formula_sum "Si O2"
_cell_formula_units_Z 64
_cell_length_a 9.592619
_cell_length_b 16.260470
_cell_length_c 20.277521
_cell_angle_alpha 90.000000
_cell_angle_beta 90.000000
_cell_angle_gamma 90.000000
_cell_volume 3162.897732
_symmetry_space_group_name_H-M "P M N A"
_symmetry_group_IT_number 53
_symmetry_cell_setting 'orthorhombic'
loop_
_space_group_symop_operation_xyz
x,y,z
1/2-x,-y,1/2+z
x,-y,-z
1/2-x,y,1/2-z
-x,-y,-z
1/2+x,y,1/2-z
-x,y,z
1/2+x,-y,1/2+z
loop_
_atom_site_type_symbol
_atom_site_label
_atom_site_fract_x
_atom_site_fract_y
_atom_site_fract_z
Si Si1 0.649543 0.686913 0.694583
Si Si2 0.336988 0.183505 0.405652
Si Si3 0.659289 0.454632 0.812292
Si Si4 0.161812 0.023329 0.426010
Si Si5 0.156714 0.717640 0.365377
Si Si6 0.345578 0.545992 0.589098
Si Si7 0.162636 0.106573 0.686728
Si Si8 0.163485 0.319516 0.990789
O O1 0.750000 0.652613 0.750000
O O2 0.500000 0.694439 0.729225
O O3 0.693169 0.775437 0.665534
O O4 0.641478 0.625734 0.634104
O O5 0.500000 0.163872 0.414929
O O6 0.250477 0.101014 0.405221
O O7 0.284005 0.246140 0.462011
O O8 0.750000 0.486107 0.750000
O O9 0.500000 0.488408 0.806437
O O10 0.657447 0.355812 0.812096
O O11 0.729122 0.485652 0.880835
O O12 0.000000 0.046903 0.422306
O O13 0.205232 0.000000 0.500000
O O14 0.198246 0.949144 0.376574
O O15 0.209276 0.800663 0.330698
O O16 0.258224 0.690887 0.422945
O O17 0.000000 0.731010 0.393278
O O18 0.500000 0.503111 0.585658
O O19 0.303953 0.587005 0.518222
O O20 0.250000 0.076216 0.750000
O O21 0.000000 0.101729 0.705008
O O22 0.000000 0.310945 0.978557
#
# Coordination Sequence:
#
# PCOD8221284 Si02
#       8
#     8   8   8   8   8   8   8   8
#     4   9  18  32  50  73 103 138 174 211 253 308
#     4   9  19  35  53  77 108 138 172 215 262 316
#     4  11  23  37  55  80 108 141 183 229 277 329
#     4  10  21  37  58  83 110 142 182 227 276 332
#     4  10  22  39  58  80 108 143 184 231 280 331
#     4   9  19  36  55  78 110 144 179 221 269 323
#     4  10  22  40  60  83 113 150 191 236 287 340
#     4   9  19  36  58  83 111 145 183 223 271 328
#
# _framework density 20.234608999999999
#
# number of rings (size 3 to 8) (size 9 to 14) (size 15 to 20)
#    0.000    2.375    0.000    3.375    0.000    7.250 
#    0.000    7.500    0.000    0.000    0.000    0.000 
#    0.000    0.000    0.000    0.000    0.000    0.000 
#
# Total GULP energy -793442.369859 kJ/mol
# GULP energy per Si atom -12397.537029 kJ/mol
# Density = 2.018855 g / cm^3
# Si number density = 20.234609 Si / 1000 Ang^3
#
#
#
# Elastic Constant Matrix: (Units=GPa)
#
#
# Indices 1 2 3 4 5 6 
#
# 1 76.6994 24.4708 34.2924 0.0000 0.0000 0.0000
# 2 24.4708 83.8724 1.1515 0.0000 0.0000 0.0000
# 3 34.2924 1.1515 78.6087 0.0000 0.0000 0.0000
# 4 0.0000 0.0000 0.0000 22.4415 0.0000 0.0000
# 5 0.0000 0.0000 0.0000 0.0000 32.8202 0.0000
# 6 0.0000 0.0000 0.0000 0.0000 0.0000 34.7621
#
#
#
# Elastic Compliance Matrix: (Units=1/GPa)
#
#
# Indices 1 2 3 4 5 6 
#
# 1 0.018219 -0.005207 -0.007871 0.000000 0.000000 0.000000
# 2 -0.005207 0.013414 0.002075 0.000000 0.000000 0.000000
# 3 -0.007871 0.002075 0.016125 0.000000 0.000000 0.000000
# 4 0.000000 0.000000 0.000000 0.044560 0.000000 0.000000
# 5 0.000000 0.000000 0.000000 0.000000 0.030469 0.000000
# 6 0.000000 0.000000 0.000000 0.000000 0.000000 0.028767
#
#
# Mechanical properties :
#
#
# Convention : Reuss Voigt Hill
#
# Bulk Modulus (GPa) = 38.83539 39.88997 39.36268
# Shear Modulus (GPa) = 27.45082 29.95584 28.70333
#
# Velocity S-wave (km/s) = 3.68724 3.85180 3.77042
# Velocity P-wave (km/s) = 6.11243 6.28796 6.20082
#
# Compressibility (1/GPa) = 0.02574971
#
# Stress axis : x y z
#
# Youngs Moduli (GPa) = 54.88874 74.55054 62.01666
#
# Poissons Ratio (x) = 0.38822 0.48816
# Poissons Ratio (y) = 0.28583 -0.12870
# Poissons Ratio (z) = 0.43205 -0.15471
#
# Static dielectric constant tensor:
#      x y z
#    x 3.660110 0.000000 0.000000 
#    y 0.000000 3.748320 0.000000 
#    z 0.000000 0.000000 3.714960 
# 
# 
# High freq. dielectric constant tensor:
#      x y z
#    x 1.783270 0.000000 0.000000 
#    y 0.000000 1.796040 0.000000 
#    z 0.000000 0.000000 1.787920 
# 
# From -- ./inp_files/31270.got.cif
#   From: 2010.03.12/outbox.cif.g09.slc.cpg/sg53_16_cif.got.tgz:31270.got - 2010.04.16 14:36:59.
