data_PCOD8221330
_publ_section_title
;
Structure prediction by ZEFSAII (Michael W. Deem and Ramdas Pophale) SiO2 
 PCOD8221330
Probable space group: P M N A
;
_chemical_formula_sum "Si O2"
_cell_formula_units_Z 48
_cell_length_a 14.398079
_cell_length_b 10.956917
_cell_length_c 15.081044
_cell_angle_alpha 90.000000
_cell_angle_beta 90.000000
_cell_angle_gamma 90.000000
_cell_volume 2379.163733
_symmetry_space_group_name_H-M "P M N A"
_symmetry_group_IT_number 53
_symmetry_cell_setting 'orthorhombic'
loop_
_space_group_symop_operation_xyz
x,y,z
1/2-x,-y,1/2+z
x,-y,-z
1/2-x,y,1/2-z
-x,-y,-z
1/2+x,y,1/2-z
-x,y,z
1/2+x,-y,1/2+z
loop_
_atom_site_type_symbol
_atom_site_label
_atom_site_fract_x
_atom_site_fract_y
_atom_site_fract_z
Si Si1 0.609267 0.834025 0.216699
Si Si2 0.154993 0.735852 0.795231
Si Si3 0.715510 0.732734 0.370492
Si Si4 0.600638 0.901526 0.857065
Si Si5 0.104251 0.494752 0.896128
Si Si6 0.279158 0.872954 0.541900
O O1 0.500000 0.797870 0.207681
O O2 0.646633 0.823050 0.316928
O O3 0.676216 0.745352 0.158037
O O4 0.629148 0.972041 0.188747
O O5 0.250000 0.691582 0.750000
O O6 0.094708 0.794445 0.716632
O O7 0.107551 0.623217 0.844906
O O8 0.168222 0.844096 0.866983
O O9 0.680058 0.595347 0.352886
O O10 0.703365 0.763767 0.473544
O O11 0.500000 0.911233 0.901789
O O12 0.669457 0.875560 0.937748
O O13 0.000000 0.442632 0.883468
O O14 0.127489 0.500000 0.000000
O O15 0.313851 0.000000 0.500000
#
# Coordination Sequence:
#
# PCOD8221330 Si02
#       6
#     8   8   8   8   8   8
#     4  10  22  39  62  91 124 159 197 246 309 372
#     4  10  22  38  61  88 119 159 205 251 308 364
#     4  11  22  38  61  86 122 158 202 252 298 355
#     4  10  21  37  59  89 122 156 198 251 309 370
#     4  11  23  41  62  85 116 159 209 254 301 359
#     4  11  20  35  59  88 119 158 198 245 304 367
#
# _framework density 20.175156999999999
#
# number of rings (size 3 to 8) (size 9 to 14) (size 15 to 20)
#    0.000    1.500    3.333    2.000    7.000    1.000 
#    0.000    0.000    0.000    4.500    0.000    0.000 
#    0.000    0.000    0.000    0.000    0.000    0.000 
#
# Total GULP energy -594988.224021 kJ/mol
# GULP energy per Si atom -12395.588000 kJ/mol
# Density = 2.012924 g / cm^3
# Si number density = 20.175157 Si / 1000 Ang^3
#
#
#
# Elastic Constant Matrix: (Units=GPa)
#
#
# Indices 1 2 3 4 5 6 
#
# 1 99.8380 31.4631 8.6083 0.0000 0.0000 0.0000
# 2 31.4631 102.4029 18.2058 0.0000 0.0000 0.0000
# 3 8.6083 18.2058 66.0097 0.0000 0.0000 0.0000
# 4 0.0000 0.0000 0.0000 32.3585 0.0000 0.0000
# 5 0.0000 0.0000 0.0000 0.0000 21.1535 0.0000
# 6 0.0000 0.0000 0.0000 0.0000 0.0000 21.0470
#
#
#
# Elastic Compliance Matrix: (Units=1/GPa)
#
#
# Indices 1 2 3 4 5 6 
#
# 1 0.011108 -0.003318 -0.000533 0.000000 0.000000 0.000000
# 2 -0.003318 0.011260 -0.002673 0.000000 0.000000 0.000000
# 3 -0.000533 -0.002673 0.015956 0.000000 0.000000 0.000000
# 4 0.000000 0.000000 0.000000 0.030904 0.000000 0.000000
# 5 0.000000 0.000000 0.000000 0.000000 0.047274 0.000000
# 6 0.000000 0.000000 0.000000 0.000000 0.000000 0.047513
#
#
# Mechanical properties :
#
#
# Convention : Reuss Voigt Hill
#
# Bulk Modulus (GPa) = 39.56440 42.75611 41.16025
# Shear Modulus (GPa) = 26.95598 28.91004 27.93301
#
# Velocity S-wave (km/s) = 3.65923 3.78954 3.72496
# Velocity P-wave (km/s) = 6.12424 6.35500 6.24069
#
# Compressibility (1/GPa) = 0.02527525
#
# Stress axis : x y z
#
# Youngs Moduli (GPa) = 90.02628 88.80987 62.67213
#
# Poissons Ratio (x) = 0.29467 0.03343
# Poissons Ratio (y) = 0.29871 0.16751
# Poissons Ratio (z) = 0.04802 0.23738
#
# Static dielectric constant tensor:
#      x y z
#    x 3.630440 0.000000 0.000000 
#    y 0.000000 3.511790 0.000000 
#    z 0.000000 0.000000 3.675100 
# 
# 
# High freq. dielectric constant tensor:
#      x y z
#    x 1.785060 0.000000 0.000000 
#    y 0.000000 1.776300 0.000000 
#    z 0.000000 0.000000 1.794230 
# 
# From -- ./inp_files/22638.got.cif
#   From: 2010.03.12/outbox.cif.g09.slc.cpg/sg53_12_cif.got.tgz:22638.got - 2010.04.16 14:36:59.
