data_PCOD8221696
_publ_section_title
;
Structure prediction by ZEFSAII (Michael W. Deem and Ramdas Pophale) SiO2 
 PCOD8221696
Probable space group: P M N A
;
_chemical_formula_sum "Si O2"
_cell_formula_units_Z 48
_cell_length_a 8.907251
_cell_length_b 31.470427
_cell_length_c 9.079393
_cell_angle_alpha 90.000000
_cell_angle_beta 90.000000
_cell_angle_gamma 90.000000
_cell_volume 2545.089979
_symmetry_space_group_name_H-M "P M N A"
_symmetry_group_IT_number 53
_symmetry_cell_setting 'orthorhombic'
loop_
_space_group_symop_operation_xyz
x,y,z
1/2-x,-y,1/2+z
x,-y,-z
1/2-x,y,1/2-z
-x,-y,-z
1/2+x,y,1/2-z
-x,y,z
1/2+x,-y,1/2+z
loop_
_atom_site_type_symbol
_atom_site_label
_atom_site_fract_x
_atom_site_fract_y
_atom_site_fract_z
Si Si1 0.676260 0.778068 0.591262
Si Si2 0.678433 0.697529 0.409068
Si Si3 0.677043 0.376886 0.092737
Si Si4 0.823265 0.961013 0.907913
Si Si5 0.675125 0.460361 0.907496
Si Si6 0.174365 0.869971 0.905377
O O1 0.750000 0.770097 0.750000
O O2 0.500000 0.774215 0.618036
O O3 0.728375 0.743315 0.472734
O O4 0.721285 0.824695 0.521272
O O5 0.750000 0.691100 0.250000
O O6 0.500000 0.692534 0.396810
O O7 0.743317 0.663208 0.520404
O O8 0.750000 0.385468 0.250000
O O9 0.500000 0.368418 0.108946
O O10 0.712220 0.417466 0.993365
O O11 0.750000 0.962765 0.750000
O O12 0.786138 0.914882 0.987209
O O13 0.000000 0.967073 0.889053
O O14 0.754102 0.000000 0.000000
O O15 0.750000 0.458208 0.750000
O O16 0.500000 0.466679 0.881693
O O17 0.740705 0.500000 0.000000
O O18 0.250000 0.872054 0.750000
O O19 0.000000 0.868732 0.874090
#
# Coordination Sequence:
#
# PCOD8221696 Si02
#       6
#     8   8   8   8   8   8
#     4   9  18  32  52  75  97 126 165 209 253 300
#     4  11  23  38  55  77 107 141 176 215 262 313
#     4  11  23  39  60  85 112 143 181 222 265 313
#     4   9  17  29  46  68  94 125 160 200 246 296
#     4  10  22  39  59  85 115 147 183 222 265 313
#     4   8  14  27  46  67  92 122 159 201 245 294
#
# _framework density 18.859843000000001
#
# number of rings (size 3 to 8) (size 9 to 14) (size 15 to 20)
#    0.000    2.333    0.000    2.500    0.000    6.000 
#    0.000    0.833    0.000    0.000    0.000    0.000 
#    0.000    0.000    0.000    0.000    0.000    0.000 
#
# Total GULP energy -594728.795186 kJ/mol
# GULP energy per Si atom -12390.183233 kJ/mol
# Density = 1.881692 g / cm^3
# Si number density = 18.859843 Si / 1000 Ang^3
#
#
#
# Elastic Constant Matrix: (Units=GPa)
#
#
# Indices 1 2 3 4 5 6 
#
# 1 47.8395 50.3507 40.4271 0.0000 0.0000 0.0000
# 2 50.3507 165.3929 58.8689 0.0000 0.0000 0.0000
# 3 40.4271 58.8689 108.4116 0.0000 0.0000 0.0000
# 4 0.0000 0.0000 0.0000 5.7505 0.0000 0.0000
# 5 0.0000 0.0000 0.0000 0.0000 27.3673 0.0000
# 6 0.0000 0.0000 0.0000 0.0000 0.0000 28.8706
#
#
#
# Elastic Compliance Matrix: (Units=1/GPa)
#
#
# Indices 1 2 3 4 5 6 
#
# 1 0.037425 -0.007966 -0.009631 0.000000 0.000000 0.000000
# 2 -0.007966 0.009190 -0.002020 0.000000 0.000000 0.000000
# 3 -0.009631 -0.002020 0.013912 0.000000 0.000000 0.000000
# 4 0.000000 0.000000 0.000000 0.173898 0.000000 0.000000
# 5 0.000000 0.000000 0.000000 0.000000 0.036540 0.000000
# 6 0.000000 0.000000 0.000000 0.000000 0.000000 0.034637
#
#
# Mechanical properties :
#
#
# Convention : Reuss Voigt Hill
#
# Bulk Modulus (GPa) = 46.95851 68.99305 57.97578
# Shear Modulus (GPa) = 14.20720 23.86416 19.03568
#
# Velocity S-wave (km/s) = 2.74762 3.56102 3.18043
# Velocity P-wave (km/s) = 5.91765 7.31910 6.65537
#
# Compressibility (1/GPa) = 0.02129539
#
# Stress axis : x y z
#
# Youngs Moduli (GPa) = 26.71983 108.81208 71.87885
#
# Poissons Ratio (x) = 0.86675 0.69224
# Poissons Ratio (y) = 0.21284 0.14519
# Poissons Ratio (z) = 0.25733 0.21980
#
# Static dielectric constant tensor:
#      x y z
#    x 3.567220 0.000000 0.000000 
#    y 0.000000 4.395200 0.000000 
#    z 0.000000 0.000000 3.266780 
# 
# 
# High freq. dielectric constant tensor:
#      x y z
#    x 1.731570 0.000000 0.000000 
#    y 0.000000 1.767350 0.000000 
#    z 0.000000 0.000000 1.705950 
# 
# From -- ./inp_files/6577.got.cif
#   From: 2010.03.12/outbox.cif.g09.slc.cpg/sg53_4_cif.got.tgz:6577.got - 2010.04.16 14:36:59.
