data_PCOD8221626
_publ_section_title
;
Structure prediction by ZEFSAII (Michael W. Deem and Ramdas Pophale) SiO2 
 PCOD8221626
Probable space group: P M N A
;
_chemical_formula_sum "Si O2"
_cell_formula_units_Z 20
_cell_length_a 27.750875
_cell_length_b 5.543736
_cell_length_c 5.084247
_cell_angle_alpha 90.000000
_cell_angle_beta 90.000000
_cell_angle_gamma 90.000000
_cell_volume 782.178479
_symmetry_space_group_name_H-M "P M N A"
_symmetry_group_IT_number 53
_symmetry_cell_setting 'orthorhombic'
loop_
_space_group_symop_operation_xyz
x,y,z
1/2-x,-y,1/2+z
x,-y,-z
1/2-x,y,1/2-z
-x,-y,-z
1/2+x,y,1/2-z
-x,y,z
1/2+x,-y,1/2+z
loop_
_atom_site_type_symbol
_atom_site_label
_atom_site_fract_x
_atom_site_fract_y
_atom_site_fract_z
Si Si1 0.500000 0.751062 0.341416
Si Si2 0.250000 0.657033 0.750000
Si Si3 0.397247 0.657029 0.238755
Si Si4 0.172756 0.000000 0.000000
O O1 0.500000 0.500000 0.500000
O O2 0.451083 0.754293 0.167629
O O3 0.500000 0.000000 0.500000
O O4 0.233208 0.500000 0.500000
O O5 0.295191 0.814457 0.662909
O O6 0.398863 0.500000 0.500000
O O7 0.360624 0.876013 0.280999
O O8 0.377100 0.500000 0.000000
#
# Coordination Sequence:
#
# PCOD8221626 Si02
#       4
#     4   4   8   4
#     4  10  21  48  78 117 165 217 264 331 401 492
#     4  12  30  52  78 112 154 202 270 338 416 492
#     4  11  26  47  76 116 157 205 265 326 397 487
#     4  12  28  51  80 110 152 211 262 338 412 488
#
# _framework density 25.569611999999999
#
# number of rings (size 3 to 8) (size 9 to 14) (size 15 to 20)
#    0.000    0.800    2.000    3.000    0.000   17.600 
#    0.000    4.000    0.000    0.000    0.000    1.400 
#    0.000    0.000    0.000    0.000    0.000    0.000 
#
# Total GULP energy -248021.002309 kJ/mol
# GULP energy per Si atom -12401.050115 kJ/mol
# Density = 2.551141 g / cm^3
# Si number density = 25.569612 Si / 1000 Ang^3
#
#
#
# Elastic Constant Matrix: (Units=GPa)
#
#
# Indices 1 2 3 4 5 6 
#
# 1 220.2397 86.6776 61.1531 0.0000 0.0000 0.0000
# 2 86.6776 182.0342 76.3813 0.0000 0.0000 0.0000
# 3 61.1531 76.3813 166.2492 0.0000 0.0000 0.0000
# 4 0.0000 0.0000 0.0000 57.6530 0.0000 0.0000
# 5 0.0000 0.0000 0.0000 0.0000 -18.3001 0.0000
# 6 0.0000 0.0000 0.0000 0.0000 0.0000 23.1888
#
#
#
# Elastic Compliance Matrix: (Units=1/GPa)
#
#
# Indices 1 2 3 4 5 6 
#
# 1 0.005734 -0.002286 -0.001059 0.000000 0.000000 0.000000
# 2 -0.002286 0.007717 -0.002704 0.000000 0.000000 0.000000
# 3 -0.001059 -0.002704 0.007647 0.000000 0.000000 0.000000
# 4 0.000000 0.000000 0.000000 0.017345 0.000000 0.000000
# 5 0.000000 0.000000 0.000000 0.000000 -0.054644 0.000000
# 6 0.000000 0.000000 0.000000 0.000000 0.000000 0.043124
#
#
# Mechanical properties :
#
#
# Convention : Reuss Voigt Hill
#
# Bulk Modulus (GPa) = 111.12194 112.99414 112.05804
# Shear Modulus (GPa) = 118.98513 35.46241 77.22377
#
# Velocity S-wave (km/s) = 6.82897 3.72815 5.50154
# Velocity P-wave (km/s) = 10.28264 7.92583 9.18018
#
# Compressibility (1/GPa) = 0.00899912
#
# Stress axis : x y z
#
# Youngs Moduli (GPa) = 174.39036 129.58699 130.76770
#
# Poissons Ratio (x) = 0.29625 0.13848
# Poissons Ratio (y) = 0.39867 0.35366
# Poissons Ratio (z) = 0.18467 0.35047
#
# Static dielectric constant tensor:
#      x y z
#    x 5.422960 0.000000 0.000000 
#    y 0.000000 4.956160 0.000000 
#    z 0.000000 0.000000 4.323000 
# 
# 
# High freq. dielectric constant tensor:
#      x y z
#    x 2.052650 0.000000 0.000000 
#    y 0.000000 2.038660 0.000000 
#    z 0.000000 0.000000 2.006520 
# 
# From -- ./inp_files/4746.got.cif
#   From: 2010.03.12/outbox.cif.g09.slc.cpg/sg53_3_cif.got.tgz:4746.got - 2010.04.16 14:36:59.
