data_PCOD8221212
_publ_section_title
;
Structure prediction by ZEFSAII (Michael W. Deem and Ramdas Pophale) SiO2 
 PCOD8221212
Probable space group: P M N A
;
_chemical_formula_sum "Si O2"
_cell_formula_units_Z 64
_cell_length_a 17.276354
_cell_length_b 18.619913
_cell_length_c 9.463094
_cell_angle_alpha 90.000000
_cell_angle_beta 90.000000
_cell_angle_gamma 90.000000
_cell_volume 3044.127903
_symmetry_space_group_name_H-M "P M N A"
_symmetry_group_IT_number 53
_symmetry_cell_setting 'orthorhombic'
loop_
_space_group_symop_operation_xyz
x,y,z
1/2-x,-y,1/2+z
x,-y,-z
1/2-x,y,1/2-z
-x,-y,-z
1/2+x,y,1/2-z
-x,y,z
1/2+x,-y,1/2+z
loop_
_atom_site_type_symbol
_atom_site_label
_atom_site_fract_x
_atom_site_fract_y
_atom_site_fract_z
Si Si1 0.651010 0.816846 0.348672
Si Si2 0.586428 0.032270 0.654654
Si Si3 0.085891 0.563110 0.109900
Si Si4 0.092101 0.528839 0.645171
Si Si5 0.180584 0.198865 0.532814
Si Si6 0.087019 0.702246 0.970756
Si Si7 0.091845 0.306234 0.338031
Si Si8 0.315627 0.051732 0.130858
O O1 0.645262 0.902010 0.361386
O O2 0.729383 0.791849 0.427312
O O3 0.585668 0.772698 0.431215
O O4 0.638842 0.802067 0.183676
O O5 0.500000 0.058367 0.693451
O O6 0.587117 0.000000 0.500000
O O7 0.611054 0.979058 0.782117
O O8 0.130045 0.526372 0.241726
O O9 0.129624 0.634031 0.047149
O O10 0.000000 0.588478 0.157714
O O11 0.078669 0.500000 0.000000
O O12 0.125614 0.500000 0.500000
O O13 0.116729 0.610840 0.663682
O O14 0.000000 0.523814 0.656265
O O15 0.145266 0.266647 0.452097
O O16 0.164222 0.128655 0.437105
O O17 0.000000 0.675729 0.940917
O O18 0.119209 0.722600 0.815875
O O19 0.000000 0.294161 0.370639
O O20 0.250000 0.058257 0.250000
O O21 0.291286 0.000000 0.000000
#
# Coordination Sequence:
#
# PCOD8221212 Si02
#       8
#     8   8   8   8   8   8   8   8
#     4  11  24  46  61  89 122 167 216 253 308 378
#     4  11  25  44  68  97 130 164 206 265 323 374
#     4   9  15  29  52  82 117 158 202 248 304 364
#     4   9  17  30  52  84 123 159 201 254 309 367
#     4  11  26  42  64  88 123 168 210 259 308 374
#     4  10  21  36  61  91 126 164 204 260 317 374
#     4  10  22  38  57  93 130 160 205 263 318 373
#     4  12  24  44  70  94 122 164 214 258 311 380
#
# _framework density 21.024082
#
# number of rings (size 3 to 8) (size 9 to 14) (size 15 to 20)
#    0.000    1.625    2.500    2.250    5.250    1.750 
#    0.000    0.000    0.000    0.750    0.000    0.000 
#    0.000    0.000    0.000    0.000    0.000    0.000 
#
# Total GULP energy -792981.849941 kJ/mol
# GULP energy per Si atom -12390.341405 kJ/mol
# Density = 2.097623 g / cm^3
# Si number density = 21.024082 Si / 1000 Ang^3
#
#
#
# Elastic Constant Matrix: (Units=GPa)
#
#
# Indices 1 2 3 4 5 6 
#
# 1 48.4069 19.1863 40.6342 0.0000 0.0000 0.0000
# 2 19.1863 88.8623 64.5922 0.0000 0.0000 0.0000
# 3 40.6342 64.5922 174.8407 0.0000 0.0000 0.0000
# 4 0.0000 0.0000 0.0000 50.9570 0.0000 0.0000
# 5 0.0000 0.0000 0.0000 0.0000 13.6164 0.0000
# 6 0.0000 0.0000 0.0000 0.0000 0.0000 21.3415
#
#
#
# Elastic Compliance Matrix: (Units=1/GPa)
#
#
# Indices 1 2 3 4 5 6 
#
# 1 0.025843 -0.001660 -0.005393 0.000000 0.000000 0.000000
# 2 -0.001660 0.015491 -0.005337 0.000000 0.000000 0.000000
# 3 -0.005393 -0.005337 0.008945 0.000000 0.000000 0.000000
# 4 0.000000 0.000000 0.000000 0.019624 0.000000 0.000000
# 5 0.000000 0.000000 0.000000 0.000000 0.073441 0.000000
# 6 0.000000 0.000000 0.000000 0.000000 0.000000 0.046857
#
#
# Mechanical properties :
#
#
# Convention : Reuss Voigt Hill
#
# Bulk Modulus (GPa) = 39.21721 62.32614 50.77167
# Shear Modulus (GPa) = 22.37326 29.69612 26.03469
#
# Velocity S-wave (km/s) = 3.26571 3.76238 3.52280
# Velocity P-wave (km/s) = 5.73705 6.97018 6.38346
#
# Compressibility (1/GPa) = 0.02549901
#
# Stress axis : x y z
#
# Youngs Moduli (GPa) = 38.69514 64.55240 111.79908
#
# Poissons Ratio (x) = 0.10714 0.60292
# Poissons Ratio (y) = 0.06422 0.59670
# Poissons Ratio (z) = 0.20868 0.34453
#
# Static dielectric constant tensor:
#      x y z
#    x 3.512220 0.000000 0.000000 
#    y 0.000000 3.784690 0.000000 
#    z 0.000000 0.000000 4.133900 
# 
# 
# High freq. dielectric constant tensor:
#      x y z
#    x 1.777260 0.000000 0.000000 
#    y 0.000000 1.830030 0.000000 
#    z 0.000000 0.000000 1.849360 
# 
# From -- ./inp_files/11204.got.cif
#   From: 2010.03.12/outbox.cif.g09.slc.cpg/sg53_6_cif.got.tgz:11204.got - 2010.04.16 14:36:59.
