data_PCOD8221735
_publ_section_title
;
Structure prediction by ZEFSAII (Michael W. Deem and Ramdas Pophale) SiO2 
 PCOD8221735
Probable space group: P M N A
;
_chemical_formula_sum "Si O2"
_cell_formula_units_Z 48
_cell_length_a 9.225461
_cell_length_b 9.573463
_cell_length_c 27.683675
_cell_angle_alpha 90.000000
_cell_angle_beta 90.000000
_cell_angle_gamma 90.000000
_cell_volume 2445.011367
_symmetry_space_group_name_H-M "P M N A"
_symmetry_group_IT_number 53
_symmetry_cell_setting 'orthorhombic'
loop_
_space_group_symop_operation_xyz
x,y,z
1/2-x,-y,1/2+z
x,-y,-z
1/2-x,y,1/2-z
-x,-y,-z
1/2+x,y,1/2-z
-x,y,z
1/2+x,-y,1/2+z
loop_
_atom_site_type_symbol
_atom_site_label
_atom_site_fract_x
_atom_site_fract_y
_atom_site_fract_z
Si Si1 0.834317 0.006569 0.147265
Si Si2 0.829225 0.101545 0.957096
Si Si3 0.162622 0.485304 0.646047
Si Si4 0.662777 0.787525 0.204496
Si Si5 0.329529 0.603974 0.042184
Si Si6 0.832869 0.714420 0.798953
O O1 0.783925 0.974980 0.092698
O O2 0.735405 0.927675 0.185469
O O3 0.000000 0.958618 0.154536
O O4 0.814737 0.169405 0.159476
O O5 0.752575 0.250032 0.962578
O O6 0.000000 0.128219 0.959631
O O7 0.777300 0.000000 0.000000
O O8 0.165683 0.325685 0.662602
O O9 0.213884 0.479526 0.590691
O O10 0.271373 0.572675 0.678710
O O11 0.000000 0.547560 0.650909
O O12 0.750000 0.727890 0.250000
O O13 0.500000 0.823753 0.220722
O O14 0.500000 0.636824 0.041068
O O15 0.280739 0.500000 0.000000
O O16 0.750000 0.756273 0.750000
O O17 0.000000 0.690108 0.785348
#
# Coordination Sequence:
#
# PCOD8221735 Si02
#       6
#     8   8   8   8   8   8
#     4  10  22  40  60  87 121 157 198 246 295 351
#     4  10  22  40  63  91 124 158 198 246 297 355
#     4  10  22  40  60  87 121 156 198 246 295 352
#     4  11  22  37  60  87 116 152 196 244 297 356
#     4  10  22  41  63  91 124 157 198 246 297 355
#     4  11  24  40  60  87 120 158 202 246 297 355
#
# _framework density 19.631812
#
# number of rings (size 3 to 8) (size 9 to 14) (size 15 to 20)
#    0.000    1.667    1.667    2.000    2.333    6.667 
#    0.000    0.000    0.000    0.000    0.000    0.000 
#    0.000    0.000    0.000    0.000    0.000    0.000 
#
# Total GULP energy -595377.692756 kJ/mol
# GULP energy per Si atom -12403.701932 kJ/mol
# Density = 1.958713 g / cm^3
# Si number density = 19.631812 Si / 1000 Ang^3
#
#
#
# Elastic Constant Matrix: (Units=GPa)
#
#
# Indices 1 2 3 4 5 6 
#
# 1 92.3597 44.2138 45.4798 0.0000 0.0000 0.0000
# 2 44.2138 91.4356 37.6123 0.0000 0.0000 0.0000
# 3 45.4798 37.6123 128.6682 0.0000 0.0000 0.0000
# 4 0.0000 0.0000 0.0000 36.6486 0.0000 0.0000
# 5 0.0000 0.0000 0.0000 0.0000 24.2629 0.0000
# 6 0.0000 0.0000 0.0000 0.0000 0.0000 30.7000
#
#
#
# Elastic Compliance Matrix: (Units=1/GPa)
#
#
# Indices 1 2 3 4 5 6 
#
# 1 0.015528 -0.005969 -0.003744 0.000000 0.000000 0.000000
# 2 -0.005969 0.014726 -0.002195 0.000000 0.000000 0.000000
# 3 -0.003744 -0.002195 0.009737 0.000000 0.000000 0.000000
# 4 0.000000 0.000000 0.000000 0.027286 0.000000 0.000000
# 5 0.000000 0.000000 0.000000 0.000000 0.041215 0.000000
# 6 0.000000 0.000000 0.000000 0.000000 0.000000 0.032573
#
#
# Mechanical properties :
#
#
# Convention : Reuss Voigt Hill
#
# Bulk Modulus (GPa) = 61.82063 63.00837 62.41450
# Shear Modulus (GPa) = 29.36479 30.66612 30.01546
#
# Velocity S-wave (km/s) = 3.87172 3.95658 3.91438
# Velocity P-wave (km/s) = 7.17951 7.28268 7.23128
#
# Compressibility (1/GPa) = 0.01617583
#
# Stress axis : x y z
#
# Youngs Moduli (GPa) = 64.39967 67.90876 102.70215
#
# Poissons Ratio (x) = 0.40532 0.38451
# Poissons Ratio (y) = 0.38437 0.22542
# Poissons Ratio (z) = 0.24111 0.14905
#
# Static dielectric constant tensor:
#      x y z
#    x 3.645500 0.000000 0.000000 
#    y 0.000000 3.363140 0.000000 
#    z 0.000000 0.000000 3.791740 
# 
# 
# High freq. dielectric constant tensor:
#      x y z
#    x 1.764870 0.000000 0.000000 
#    y 0.000000 1.762920 0.000000 
#    z 0.000000 0.000000 1.779960 
# 
# From -- ./inp_files/37725.got.cif
#   From: 2010.03.12/outbox.cif.g09.slc.cpg/sg53_19_cif.got.tgz:37725.got - 2010.04.16 14:36:59.
