data_PCOD8221429
_publ_section_title
;
Structure prediction by ZEFSAII (Michael W. Deem and Ramdas Pophale) SiO2 
 PCOD8221429
Probable space group: P M N A
;
_chemical_formula_sum "Si O2"
_cell_formula_units_Z 48
_cell_length_a 17.492334
_cell_length_b 8.878251
_cell_length_c 13.828552
_cell_angle_alpha 90.000000
_cell_angle_beta 90.000000
_cell_angle_gamma 90.000000
_cell_volume 2147.592543
_symmetry_space_group_name_H-M "P M N A"
_symmetry_group_IT_number 53
_symmetry_cell_setting 'orthorhombic'
loop_
_space_group_symop_operation_xyz
x,y,z
1/2-x,-y,1/2+z
x,-y,-z
1/2-x,y,1/2-z
-x,-y,-z
1/2+x,y,1/2-z
-x,y,z
1/2+x,-y,1/2+z
loop_
_atom_site_type_symbol
_atom_site_label
_atom_site_fract_x
_atom_site_fract_y
_atom_site_fract_z
Si Si1 0.827212 0.653562 0.449152
Si Si2 0.414728 0.838433 0.548731
Si Si3 0.912136 0.786664 0.622294
Si Si4 0.837321 0.968033 0.774523
Si Si5 0.087112 0.524502 0.278056
Si Si6 0.665606 0.718202 0.371892
O O1 0.799661 0.500000 0.500000
O O2 0.859730 0.770757 0.527347
O O3 0.894391 0.621760 0.373206
O O4 0.755971 0.723752 0.391611
O O5 0.500000 0.784463 0.578385
O O6 0.361560 0.848703 0.642849
O O7 0.378877 0.719284 0.473768
O O8 0.418804 0.000000 0.500000
O O9 0.887217 0.937922 0.678162
O O10 0.898639 0.649349 0.696733
O O11 0.000000 0.796511 0.589609
O O12 0.750000 0.937731 0.750000
O O13 0.855441 0.137400 0.806991
O O14 0.140984 0.569899 0.187631
O O15 0.000000 0.556671 0.248501
#
# Coordination Sequence:
#
# PCOD8221429 Si02
#       6
#     8   8   8   8   8   8
#     4  10  21  39  63  89 121 160 204 249 300 362
#     4   9  19  35  54  77 110 152 191 230 286 353
#     4  10  22  40  63  90 120 159 205 251 302 360
#     4  11  22  37  58  85 120 157 198 247 301 359
#     4  10  21  38  61  89 121 157 200 251 302 354
#     4  11  22  38  61  90 121 156 198 247 304 359
#
# _framework density 22.350608000000001
#
# number of rings (size 3 to 8) (size 9 to 14) (size 15 to 20)
#    0.000    1.833    0.000    4.000    0.000    8.000 
#    0.000    2.500    0.000    9.000    0.000    0.000 
#    0.000    0.000    0.000    0.000    0.000    0.000 
#
# Total GULP energy -595381.245835 kJ/mol
# GULP energy per Si atom -12403.775955 kJ/mol
# Density = 2.229974 g / cm^3
# Si number density = 22.350608 Si / 1000 Ang^3
#
#
#
# Elastic Constant Matrix: (Units=GPa)
#
#
# Indices 1 2 3 4 5 6 
#
# 1 130.5941 17.4688 35.0048 0.0000 0.0000 0.0000
# 2 17.4688 33.4267 14.6545 0.0000 0.0000 0.0000
# 3 35.0048 14.6545 77.7433 0.0000 0.0000 0.0000
# 4 0.0000 0.0000 0.0000 40.1578 0.0000 0.0000
# 5 0.0000 0.0000 0.0000 0.0000 51.9182 0.0000
# 6 0.0000 0.0000 0.0000 0.0000 0.0000 18.0585
#
#
#
# Elastic Compliance Matrix: (Units=1/GPa)
#
#
# Indices 1 2 3 4 5 6 
#
# 1 0.009011 -0.003194 -0.003455 0.000000 0.000000 0.000000
# 2 -0.003194 0.033744 -0.004922 0.000000 0.000000 0.000000
# 3 -0.003455 -0.004922 0.015346 0.000000 0.000000 0.000000
# 4 0.000000 0.000000 0.000000 0.024902 0.000000 0.000000
# 5 0.000000 0.000000 0.000000 0.000000 0.019261 0.000000
# 6 0.000000 0.000000 0.000000 0.000000 0.000000 0.055376
#
#
# Mechanical properties :
#
#
# Convention : Reuss Voigt Hill
#
# Bulk Modulus (GPa) = 28.60634 41.78001 35.19317
# Shear Modulus (GPa) = 25.98282 33.66930 29.82606
#
# Velocity S-wave (km/s) = 3.41326 3.88547 3.65699
# Velocity P-wave (km/s) = 5.32546 6.23400 5.79755
#
# Compressibility (1/GPa) = 0.03495729
#
# Stress axis : x y z
#
# Youngs Moduli (GPa) = 110.97923 29.63529 65.16197
#
# Poissons Ratio (x) = 0.09466 0.22514
# Poissons Ratio (y) = 0.35450 0.32075
# Poissons Ratio (z) = 0.38344 0.14587
#
# Static dielectric constant tensor:
#      x y z
#    x 3.969260 0.000000 0.000000 
#    y 0.000000 3.774120 0.000000 
#    z 0.000000 0.000000 4.165750 
# 
# 
# High freq. dielectric constant tensor:
#      x y z
#    x 1.883370 0.000000 0.000000 
#    y 0.000000 1.857130 0.000000 
#    z 0.000000 0.000000 1.893460 
# 
# From -- ./inp_files/23634.got.cif
#   From: 2010.03.12/outbox.cif.g09.slc.cpg/sg53_12_cif.got.tgz:23634.got - 2010.04.16 14:36:59.
