data_PCOD8221575
_publ_section_title
;
Structure prediction by ZEFSAII (Michael W. Deem and Ramdas Pophale) SiO2 
 PCOD8221575
Probable space group: P M N A
;
_chemical_formula_sum "Si O2"
_cell_formula_units_Z 56
_cell_length_a 18.216750
_cell_length_b 15.802445
_cell_length_c 9.382686
_cell_angle_alpha 90.000000
_cell_angle_beta 90.000000
_cell_angle_gamma 90.000000
_cell_volume 2700.986218
_symmetry_space_group_name_H-M "P M N A"
_symmetry_group_IT_number 53
_symmetry_cell_setting 'orthorhombic'
loop_
_space_group_symop_operation_xyz
x,y,z
1/2-x,-y,1/2+z
x,-y,-z
1/2-x,y,1/2-z
-x,-y,-z
1/2+x,y,1/2-z
-x,y,z
1/2+x,-y,1/2+z
loop_
_atom_site_type_symbol
_atom_site_label
_atom_site_fract_x
_atom_site_fract_y
_atom_site_fract_z
Si Si1 0.149161 0.265466 0.972939
Si Si2 0.916129 0.206680 0.244944
Si Si3 0.315218 0.558673 0.135818
Si Si4 0.083929 0.565207 0.127364
Si Si5 0.334333 0.866272 0.231996
Si Si6 0.086781 0.980028 0.840549
Si Si7 0.682849 0.737609 0.994225
O O1 0.088495 0.255790 0.095431
O O2 0.230613 0.258269 0.039270
O O3 0.137721 0.355974 0.900669
O O4 0.136248 0.192545 0.858351
O O5 0.887394 0.111380 0.216269
O O6 0.863830 0.258440 0.350589
O O7 0.000000 0.208439 0.299764
O O8 0.250000 0.555095 0.250000
O O9 0.387476 0.526018 0.222406
O O10 0.298055 0.500000 0.000000
O O11 0.332344 0.652910 0.082359
O O12 0.000000 0.594093 0.143859
O O13 0.093465 0.500000 0.000000
O O14 0.250000 0.890838 0.250000
O O15 0.381246 0.951930 0.229827
O O16 0.345103 0.817918 0.083962
O O17 0.000000 0.986065 0.840384
O O18 0.117208 0.000000 0.000000
#
# Coordination Sequence:
#
# PCOD8221575 Si02
#       7
#     8   8   8   8   8   8   8
#     4  11  21  43  68  92 129 175 223 266 324 402
#     4  11  25  41  62  98 133 171 221 273 332 396
#     4  12  25  45  71  99 135 176 226 278 336 401
#     4  11  25  44  68 100 137 177 224 274 334 407
#     4  10  21  40  65  91 127 167 214 275 330 390
#     4  10  21  40  64  91 125 171 226 271 323 399
#     4  11  24  42  64  98 133 166 219 273 332 397
#
# _framework density 20.733166000000001
#
# number of rings (size 3 to 8) (size 9 to 14) (size 15 to 20)
#    0.000    1.143    4.286    1.714    2.000    3.714 
#    0.000    1.429    0.000    0.000    0.000    0.000 
#    0.000    0.000    0.000    0.000    0.000    0.000 
#
# Total GULP energy -694498.795710 kJ/mol
# GULP energy per Si atom -12401.764209 kJ/mol
# Density = 2.068598 g / cm^3
# Si number density = 20.733166 Si / 1000 Ang^3
#
#
#
# Elastic Constant Matrix: (Units=GPa)
#
#
# Indices 1 2 3 4 5 6 
#
# 1 74.7018 34.2741 48.0134 0.0000 0.0000 0.0000
# 2 34.2741 87.3407 41.5493 0.0000 0.0000 0.0000
# 3 48.0134 41.5493 104.7996 0.0000 0.0000 0.0000
# 4 0.0000 0.0000 0.0000 32.2324 0.0000 0.0000
# 5 0.0000 0.0000 0.0000 0.0000 30.7128 0.0000
# 6 0.0000 0.0000 0.0000 0.0000 0.0000 29.0869
#
#
#
# Elastic Compliance Matrix: (Units=1/GPa)
#
#
# Indices 1 2 3 4 5 6 
#
# 1 0.020231 -0.004350 -0.007544 0.000000 0.000000 0.000000
# 2 -0.004350 0.015046 -0.003972 0.000000 0.000000 0.000000
# 3 -0.007544 -0.003972 0.014573 0.000000 0.000000 0.000000
# 4 0.000000 0.000000 0.000000 0.031025 0.000000 0.000000
# 5 0.000000 0.000000 0.000000 0.000000 0.032560 0.000000
# 6 0.000000 0.000000 0.000000 0.000000 0.000000 0.034380
#
#
# Mechanical properties :
#
#
# Convention : Reuss Voigt Hill
#
# Bulk Modulus (GPa) = 55.19549 57.16841 56.18195
# Shear Modulus (GPa) = 26.94148 27.94011 27.44079
#
# Velocity S-wave (km/s) = 3.60868 3.67496 3.64197
# Velocity P-wave (km/s) = 6.63650 6.75576 6.69640
#
# Compressibility (1/GPa) = 0.01811742
#
# Stress axis : x y z
#
# Youngs Moduli (GPa) = 49.42808 66.46199 68.61916
#
# Poissons Ratio (x) = 0.28913 0.51768
# Poissons Ratio (y) = 0.21503 0.27257
# Poissons Ratio (z) = 0.37289 0.26400
#
# Static dielectric constant tensor:
#      x y z
#    x 3.695340 0.000000 0.000000 
#    y 0.000000 3.755350 0.000000 
#    z 0.000000 0.000000 3.891930 
# 
# 
# High freq. dielectric constant tensor:
#      x y z
#    x 1.808440 0.000000 0.000000 
#    y 0.000000 1.813690 0.000000 
#    z 0.000000 0.000000 1.814060 
# 
# From -- ./inp_files/11074.got.cif
#   From: 2010.03.12/outbox.cif.g09.slc.cpg/sg53_6_cif.got.tgz:11074.got - 2010.04.16 14:36:59.
