data_PCOD8221544
_publ_section_title
;
Structure prediction by ZEFSAII (Michael W. Deem and Ramdas Pophale) SiO2 
 PCOD8221544
Probable space group: P M N A
;
_chemical_formula_sum "Si O2"
_cell_formula_units_Z 56
_cell_length_a 16.112235
_cell_length_b 14.030396
_cell_length_c 11.362782
_cell_angle_alpha 90.000000
_cell_angle_beta 90.000000
_cell_angle_gamma 90.000000
_cell_volume 2568.682288
_symmetry_space_group_name_H-M "P M N A"
_symmetry_group_IT_number 53
_symmetry_cell_setting 'orthorhombic'
loop_
_space_group_symop_operation_xyz
x,y,z
1/2-x,-y,1/2+z
x,-y,-z
1/2-x,y,1/2-z
-x,-y,-z
1/2+x,y,1/2-z
-x,y,z
1/2+x,-y,1/2+z
loop_
_atom_site_type_symbol
_atom_site_label
_atom_site_fract_x
_atom_site_fract_y
_atom_site_fract_z
Si Si1 0.593148 0.870696 0.333876
Si Si2 0.097828 0.805641 0.552863
Si Si3 0.847097 0.341637 0.249562
Si Si4 0.905869 0.803505 0.922116
Si Si5 0.335501 0.273265 0.817912
Si Si6 0.844743 0.058828 0.267330
Si Si7 0.595657 0.526803 0.132070
O O1 0.500000 0.909949 0.349771
O O2 0.636102 0.847202 0.459933
O O3 0.591976 0.772699 0.260905
O O4 0.645819 0.946971 0.258086
O O5 0.117198 0.730795 0.655067
O O6 0.157297 0.777567 0.444985
O O7 0.124008 0.910671 0.601757
O O8 0.000000 0.802506 0.519285
O O9 0.750000 0.358244 0.250000
O O10 0.866579 0.296863 0.120963
O O11 0.891294 0.442199 0.274179
O O12 0.901466 0.884763 0.824400
O O13 0.000000 0.780059 0.954316
O O14 0.250000 0.250635 0.750000
O O15 0.347926 0.385777 0.827323
O O16 0.750000 0.091498 0.250000
O O17 0.500000 0.558291 0.130697
O O18 0.624090 0.500000 0.000000
#
# Coordination Sequence:
#
# PCOD8221544 Si02
#       7
#     8   8   8   8   8   8   8
#     4  11  24  43  64  92 134 178 218 264 332 410
#     4  11  22  42  70  97 130 175 229 276 333 403
#     4  11  22  38  67 103 134 166 220 283 333 393
#     4  10  21  39  66  93 129 175 218 262 327 405
#     4  12  27  42  65  96 133 173 217 285 346 398
#     4  11  23  40  65  98 132 170 227 280 327 387
#     4  11  22  42  70  96 128 173 229 280 335 404
#
# _framework density 21.80106
#
# number of rings (size 3 to 8) (size 9 to 14) (size 15 to 20)
#    0.000    1.000    1.429    7.714    4.000    1.714 
#    2.571    2.143    0.000    2.571    0.000    0.000 
#    0.000    0.000    0.000    0.000    0.000    0.000 
#
# Total GULP energy -694280.476577 kJ/mol
# GULP energy per Si atom -12397.865653 kJ/mol
# Density = 2.175144 g / cm^3
# Si number density = 21.801060 Si / 1000 Ang^3
#
#
#
# Elastic Constant Matrix: (Units=GPa)
#
#
# Indices 1 2 3 4 5 6 
#
# 1 92.0054 24.3255 34.9579 0.0000 0.0000 0.0000
# 2 24.3255 121.8030 75.5229 0.0000 0.0000 0.0000
# 3 34.9579 75.5229 109.7059 0.0000 0.0000 0.0000
# 4 0.0000 0.0000 0.0000 39.3129 0.0000 0.0000
# 5 0.0000 0.0000 0.0000 0.0000 32.5042 0.0000
# 6 0.0000 0.0000 0.0000 0.0000 0.0000 -38.2251
#
#
#
# Elastic Compliance Matrix: (Units=1/GPa)
#
#
# Indices 1 2 3 4 5 6 
#
# 1 0.012366 -0.000046 -0.003909 0.000000 0.000000 0.000000
# 2 -0.000046 0.014324 -0.009846 0.000000 0.000000 0.000000
# 3 -0.003909 -0.009846 0.017139 0.000000 0.000000 0.000000
# 4 0.000000 0.000000 0.000000 0.025437 0.000000 0.000000
# 5 0.000000 0.000000 0.000000 0.000000 0.030765 0.000000
# 6 0.000000 0.000000 0.000000 0.000000 0.000000 -0.026161
#
#
# Mechanical properties :
#
#
# Convention : Reuss Voigt Hill
#
# Bulk Modulus (GPa) = 61.62452 65.90297 63.76375
# Shear Modulus (GPa) = 46.78019 19.29892 33.03955
#
# Velocity S-wave (km/s) = 4.63728 2.97851 3.89717
# Velocity P-wave (km/s) = 7.54987 6.49027 7.04003
#
# Compressibility (1/GPa) = 0.01622731
#
# Stress axis : x y z
#
# Youngs Moduli (GPa) = 80.86500 69.81128 58.34582
#
# Poissons Ratio (x) = 0.00322 0.22806
# Poissons Ratio (y) = 0.00372 0.57449
# Poissons Ratio (z) = 0.31609 0.68739
#
# Static dielectric constant tensor:
#      x y z
#    x 3.877720 0.000000 0.000000 
#    y 0.000000 3.969990 0.000000 
#    z 0.000000 0.000000 4.257570 
# 
# 
# High freq. dielectric constant tensor:
#      x y z
#    x 1.856740 0.000000 0.000000 
#    y 0.000000 1.855830 0.000000 
#    z 0.000000 0.000000 1.857440 
# 
# From -- ./inp_files/16024.got.cif
#   From: 2010.03.12/outbox.cif.g09.slc.cpg/sg53_9_cif.got.tgz:16024.got - 2010.04.16 14:36:59.
