data_PCOD8221672
_publ_section_title
;
Structure prediction by ZEFSAII (Michael W. Deem and Ramdas Pophale) SiO2 
 PCOD8221672
Probable space group: P M N A
;
_chemical_formula_sum "Si O2"
_cell_formula_units_Z 48
_cell_length_a 14.574286
_cell_length_b 7.630007
_cell_length_c 21.040669
_cell_angle_alpha 90.000000
_cell_angle_beta 90.000000
_cell_angle_gamma 90.000000
_cell_volume 2339.762458
_symmetry_space_group_name_H-M "P M N A"
_symmetry_group_IT_number 53
_symmetry_cell_setting 'orthorhombic'
loop_
_space_group_symop_operation_xyz
x,y,z
1/2-x,-y,1/2+z
x,-y,-z
1/2-x,y,1/2-z
-x,-y,-z
1/2+x,y,1/2-z
-x,y,z
1/2+x,-y,1/2+z
loop_
_atom_site_type_symbol
_atom_site_label
_atom_site_fract_x
_atom_site_fract_y
_atom_site_fract_z
Si Si1 0.603514 0.637616 0.773955
Si Si2 0.354878 0.270175 0.741190
Si Si3 0.898287 0.925605 0.828875
Si Si4 0.600615 0.869631 0.130529
Si Si5 0.786874 0.194690 0.377440
Si Si6 0.895055 0.705190 0.501026
O O1 0.500000 0.621228 0.801345
O O2 0.626610 0.475882 0.725421
O O3 0.612830 0.818820 0.736122
O O4 0.677879 0.645575 0.832087
O O5 0.250000 0.226513 0.750000
O O6 0.405506 0.258801 0.809363
O O7 0.390994 0.133978 0.687829
O O8 0.822437 0.845298 0.877300
O O9 0.000000 0.895335 0.858572
O O10 0.500000 0.946686 0.116188
O O11 0.667782 0.022360 0.151811
O O12 0.636925 0.771965 0.067775
O O13 0.822958 0.216874 0.448963
O O14 0.885706 0.500000 0.500000
O O15 0.000000 0.761452 0.517282
#
# Coordination Sequence:
#
# PCOD8221672 Si02
#       6
#     8   8   8   8   8   8
#     4  11  22  35  57  88 123 160 196 246 306 367
#     4  12  21  37  59  88 124 161 200 243 297 359
#     4  11  23  40  58  84 120 160 208 254 296 348
#     4  11  21  35  58  87 117 154 193 241 300 363
#     4  12  21  38  58  86 120 160 202 247 303 364
#     4  10  22  38  59  90 124 157 196 244 308 378
#
# _framework density 20.514901999999999
#
# number of rings (size 3 to 8) (size 9 to 14) (size 15 to 20)
#    0.000    0.833    3.333    6.000    0.000    2.667 
#    0.000    0.000    0.000    2.500    0.000    0.000 
#    0.000    0.000    0.000    0.000    0.000    0.000 
#
# Total GULP energy -594918.209503 kJ/mol
# GULP energy per Si atom -12394.129365 kJ/mol
# Density = 2.046821 g / cm^3
# Si number density = 20.514902 Si / 1000 Ang^3
#
#
#
# Elastic Constant Matrix: (Units=GPa)
#
#
# Indices 1 2 3 4 5 6 
#
# 1 146.8948 23.5918 33.5695 0.0000 0.0000 0.0000
# 2 23.5918 86.8119 9.3754 0.0000 0.0000 0.0000
# 3 33.5695 9.3754 62.1269 0.0000 0.0000 0.0000
# 4 0.0000 0.0000 0.0000 23.6550 0.0000 0.0000
# 5 0.0000 0.0000 0.0000 0.0000 24.5288 0.0000
# 6 0.0000 0.0000 0.0000 0.0000 0.0000 26.8047
#
#
#
# Elastic Compliance Matrix: (Units=1/GPa)
#
#
# Indices 1 2 3 4 5 6 
#
# 1 0.008017 -0.001739 -0.004069 0.000000 0.000000 0.000000
# 2 -0.001739 0.012087 -0.000884 0.000000 0.000000 0.000000
# 3 -0.004069 -0.000884 0.018428 0.000000 0.000000 0.000000
# 4 0.000000 0.000000 0.000000 0.042274 0.000000 0.000000
# 5 0.000000 0.000000 0.000000 0.000000 0.040768 0.000000
# 6 0.000000 0.000000 0.000000 0.000000 0.000000 0.037307
#
#
# Mechanical properties :
#
#
# Convention : Reuss Voigt Hill
#
# Bulk Modulus (GPa) = 39.76648 47.65636 43.71142
# Shear Modulus (GPa) = 27.67780 30.28416 28.98098
#
# Velocity S-wave (km/s) = 3.67707 3.84631 3.76264
# Velocity P-wave (km/s) = 6.11997 6.55789 6.34271
#
# Compressibility (1/GPa) = 0.02514681
#
# Stress axis : x y z
#
# Youngs Moduli (GPa) = 124.73694 82.73150 54.26417
#
# Poissons Ratio (x) = 0.14388 0.22082
# Poissons Ratio (y) = 0.21694 0.04799
# Poissons Ratio (z) = 0.50760 0.07316
#
# Static dielectric constant tensor:
#      x y z
#    x 3.875050 0.000000 0.000000 
#    y 0.000000 3.908590 0.000000 
#    z 0.000000 0.000000 3.424360 
# 
# 
# High freq. dielectric constant tensor:
#      x y z
#    x 1.800080 0.000000 0.000000 
#    y 0.000000 1.818070 0.000000 
#    z 0.000000 0.000000 1.755640 
# 
# From -- ./inp_files/28298.got.cif
#   From: 2010.03.12/outbox.cif.g09.slc.cpg/sg53_15_cif.got.tgz:28298.got - 2010.04.16 14:36:59.
