data_PCOD8221778
_publ_section_title
;
Structure prediction by ZEFSAII (Michael W. Deem and Ramdas Pophale) SiO2 
 PCOD8221778
Probable space group: P M N A
;
_chemical_formula_sum "Si O2"
_cell_formula_units_Z 52
_cell_length_a 16.375443
_cell_length_b 7.259308
_cell_length_c 21.025066
_cell_angle_alpha 90.000000
_cell_angle_beta 90.000000
_cell_angle_gamma 90.000000
_cell_volume 2499.341777
_symmetry_space_group_name_H-M "P M N A"
_symmetry_group_IT_number 53
_symmetry_cell_setting 'orthorhombic'
loop_
_space_group_symop_operation_xyz
x,y,z
1/2-x,-y,1/2+z
x,-y,-z
1/2-x,y,1/2-z
-x,-y,-z
1/2+x,y,1/2-z
-x,y,z
1/2+x,-y,1/2+z
loop_
_atom_site_type_symbol
_atom_site_label
_atom_site_fract_x
_atom_site_fract_y
_atom_site_fract_z
Si Si1 0.406431 0.606205 0.838859
Si Si2 0.215703 0.000000 0.500000
Si Si3 0.591241 0.690022 0.326018
Si Si4 0.678201 0.734752 0.205323
Si Si5 0.593877 0.267921 0.298731
Si Si6 0.092061 0.705662 0.522492
Si Si7 0.707287 0.975244 0.368961
O O1 0.500000 0.537731 0.836466
O O2 0.350312 0.423644 0.843251
O O3 0.386809 0.728737 0.776799
O O4 0.390331 0.725823 0.901906
O O5 0.156798 0.828284 0.484557
O O6 0.272331 0.042466 0.439586
O O7 0.500000 0.735282 0.347612
O O8 0.604796 0.778264 0.255066
O O9 0.607459 0.472104 0.326553
O O10 0.652160 0.790586 0.374971
O O11 0.750000 0.652385 0.250000
O O12 0.709729 0.918282 0.168996
O O13 0.500000 0.204498 0.311030
O O14 0.657919 0.134140 0.332645
O O15 0.105224 0.500000 0.500000
O O16 0.000000 0.771341 0.506642
#
# Coordination Sequence:
#
# PCOD8221778 Si02
#       7
#     8   4   8   8   8   8   8
#     4   9  18  35  61  88 113 149 192 233 284 344
#     4  12  27  40  55  82 118 158 200 242 289 344
#     4   9  19  39  64  88 116 149 187 235 292 352
#     4   9  18  32  54  88 118 143 178 228 292 348
#     4   9  19  38  64  90 116 148 190 242 296 352
#     4  10  22  41  62  83 116 161 200 234 276 340
#     4  11  23  38  56  85 119 154 193 240 296 347
#
# _framework density 20.805477
#
# number of rings (size 3 to 8) (size 9 to 14) (size 15 to 20)
#    0.000    2.308    0.000    3.000    0.000    8.615 
#    0.000   12.308    0.000    1.846    0.000    0.000 
#    0.000    0.000    0.000    0.000    0.000    0.000 
#
# Total GULP energy -644585.520615 kJ/mol
# GULP energy per Si atom -12395.875396 kJ/mol
# Density = 2.075812 g / cm^3
# Si number density = 20.805477 Si / 1000 Ang^3
#
#
#
# Elastic Constant Matrix: (Units=GPa)
#
#
# Indices 1 2 3 4 5 6 
#
# 1 80.6583 50.0924 43.1854 0.0000 0.0000 0.0000
# 2 50.0924 86.7577 41.1164 0.0000 0.0000 0.0000
# 3 43.1854 41.1164 86.2492 0.0000 0.0000 0.0000
# 4 0.0000 0.0000 0.0000 24.9219 0.0000 0.0000
# 5 0.0000 0.0000 0.0000 0.0000 23.6540 0.0000
# 6 0.0000 0.0000 0.0000 0.0000 0.0000 43.1460
#
#
#
# Elastic Compliance Matrix: (Units=1/GPa)
#
#
# Indices 1 2 3 4 5 6 
#
# 1 0.021705 -0.009536 -0.006322 0.000000 0.000000 0.000000
# 2 -0.009536 0.019080 -0.004321 0.000000 0.000000 0.000000
# 3 -0.006322 -0.004321 0.016820 0.000000 0.000000 0.000000
# 4 0.000000 0.000000 0.000000 0.040125 0.000000 0.000000
# 5 0.000000 0.000000 0.000000 0.000000 0.042276 0.000000
# 6 0.000000 0.000000 0.000000 0.000000 0.000000 0.023177
#
#
# Mechanical properties :
#
#
# Convention : Reuss Voigt Hill
#
# Bulk Modulus (GPa) = 57.98142 58.05038 58.01590
# Shear Modulus (GPa) = 23.89024 26.29578 25.09301
#
# Velocity S-wave (km/s) = 3.39228 3.55898 3.47663
# Velocity P-wave (km/s) = 6.57817 6.69705 6.63788
#
# Compressibility (1/GPa) = 0.01724690
#
# Stress axis : x y z
#
# Youngs Moduli (GPa) = 46.07209 52.41042 59.45447
#
# Poissons Ratio (x) = 0.49979 0.37586
# Poissons Ratio (y) = 0.43935 0.25691
# Poissons Ratio (z) = 0.29126 0.22647
#
# Static dielectric constant tensor:
#      x y z
#    x 4.004420 0.000000 0.000000 
#    y 0.000000 3.620930 0.000000 
#    z 0.000000 0.000000 3.729890 
# 
# 
# High freq. dielectric constant tensor:
#      x y z
#    x 1.822430 0.000000 0.000000 
#    y 0.000000 1.807180 0.000000 
#    z 0.000000 0.000000 1.788000 
# 
# From -- ./inp_files/32349.got.cif
#   From: 2010.03.12/outbox.cif.g09.slc.cpg/sg53_17_cif.got.tgz:32349.got - 2010.04.16 14:36:59.
