data_PCOD8221020
_publ_section_title
;
Structure prediction by ZEFSAII (Michael W. Deem and Ramdas Pophale) SiO2 
 PCOD8221020
Probable space group: P M N A
;
_chemical_formula_sum "Si O2"
_cell_formula_units_Z 48
_cell_length_a 15.163453
_cell_length_b 16.775889
_cell_length_c 9.519228
_cell_angle_alpha 90.000000
_cell_angle_beta 90.000000
_cell_angle_gamma 90.000000
_cell_volume 2421.505068
_symmetry_space_group_name_H-M "P M N A"
_symmetry_group_IT_number 53
_symmetry_cell_setting 'orthorhombic'
loop_
_space_group_symop_operation_xyz
x,y,z
1/2-x,-y,1/2+z
x,-y,-z
1/2-x,y,1/2-z
-x,-y,-z
1/2+x,y,1/2-z
-x,y,z
1/2+x,-y,1/2+z
loop_
_atom_site_type_symbol
_atom_site_label
_atom_site_fract_x
_atom_site_fract_y
_atom_site_fract_z
Si Si1 0.350989 0.280529 0.767898
Si Si2 0.099359 0.703575 0.702661
Si Si3 0.894768 0.588737 0.473542
Si Si4 0.596700 0.157408 0.999378
Si Si5 0.733685 0.922962 0.581782
Si Si6 0.898338 0.221967 0.027269
O O1 0.250000 0.258508 0.750000
O O2 0.362694 0.370907 0.827257
O O3 0.396878 0.268748 0.618626
O O4 0.396576 0.217926 0.870363
O O5 0.147867 0.640128 0.601947
O O6 0.105782 0.792543 0.641746
O O7 0.000000 0.672487 0.711539
O O8 0.137794 0.712520 0.859592
O O9 0.858192 0.500000 0.500000
O O10 0.000000 0.590119 0.471480
O O11 0.500000 0.116082 0.991070
O O12 0.673096 0.092158 0.003493
O O13 0.750000 0.934294 0.750000
O O14 0.664456 0.854329 0.541213
O O15 0.695824 0.000000 0.500000
O O16 0.000000 0.197015 0.060570
#
# Coordination Sequence:
#
# PCOD8221020 Si02
#       6
#     8   8   8   8   8   8
#     4  11  21  36  62  92 121 159 207 257 300 358
#     4   8  16  33  60  85 108 154 204 239 291 355
#     4   9  18  36  60  88 123 162 204 247 298 365
#     4  10  20  40  64  85 116 161 208 244 293 372
#     4  12  27  42  62  91 125 160 197 253 317 371
#     4  11  22  40  63  88 120 159 206 256 306 361
#
# _framework density 19.822382000000001
#
# number of rings (size 3 to 8) (size 9 to 14) (size 15 to 20)
#    0.000    1.833    3.333    2.500    2.333    0.667 
#    0.000    2.500    0.000    4.000    0.000    0.000 
#    0.000    0.000    0.000    0.000    0.000    0.000 
#
# Total GULP energy -594733.468721 kJ/mol
# GULP energy per Si atom -12390.280598 kJ/mol
# Density = 1.977727 g / cm^3
# Si number density = 19.822382 Si / 1000 Ang^3
#
#
#
# Elastic Constant Matrix: (Units=GPa)
#
#
# Indices 1 2 3 4 5 6 
#
# 1 86.0521 26.4408 18.0651 0.0000 0.0000 0.0000
# 2 26.4408 105.8211 58.5278 0.0000 0.0000 0.0000
# 3 18.0651 58.5278 153.7168 0.0000 0.0000 0.0000
# 4 0.0000 0.0000 0.0000 20.9491 0.0000 0.0000
# 5 0.0000 0.0000 0.0000 0.0000 25.1997 0.0000
# 6 0.0000 0.0000 0.0000 0.0000 0.0000 28.1485
#
#
#
# Elastic Compliance Matrix: (Units=1/GPa)
#
#
# Indices 1 2 3 4 5 6 
#
# 1 0.012603 -0.002951 -0.000357 0.000000 0.000000 0.000000
# 2 -0.002951 0.012662 -0.004474 0.000000 0.000000 0.000000
# 3 -0.000357 -0.004474 0.008251 0.000000 0.000000 0.000000
# 4 0.000000 0.000000 0.000000 0.047735 0.000000 0.000000
# 5 0.000000 0.000000 0.000000 0.000000 0.039683 0.000000
# 6 0.000000 0.000000 0.000000 0.000000 0.000000 0.035526
#
#
# Mechanical properties :
#
#
# Convention : Reuss Voigt Hill
#
# Bulk Modulus (GPa) = 55.71057 61.29529 58.50293
# Shear Modulus (GPa) = 28.08855 31.02987 29.55921
#
# Velocity S-wave (km/s) = 3.76841 3.96080 3.86580
# Velocity P-wave (km/s) = 6.86297 7.20463 7.03587
#
# Compressibility (1/GPa) = 0.01794991
#
# Stress axis : x y z
#
# Youngs Moduli (GPa) = 79.34793 78.97686 121.19704
#
# Poissons Ratio (x) = 0.23308 0.04331
# Poissons Ratio (y) = 0.23418 0.54226
# Poissons Ratio (z) = 0.02836 0.35336
#
# Static dielectric constant tensor:
#      x y z
#    x 3.603420 0.000000 0.000000 
#    y 0.000000 3.501370 0.000000 
#    z 0.000000 0.000000 3.946580 
# 
# 
# High freq. dielectric constant tensor:
#      x y z
#    x 1.767670 0.000000 0.000000 
#    y 0.000000 1.743880 0.000000 
#    z 0.000000 0.000000 1.787220 
# 
# From -- ./inp_files/8624.got.cif
#   From: 2010.03.12/outbox.cif.g09.slc.cpg/sg53_5_cif.got.tgz:8624.got - 2010.04.16 14:36:59.
