data_PCOD8221597
_publ_section_title
;
Structure prediction by ZEFSAII (Michael W. Deem and Ramdas Pophale) SiO2 
 PCOD8221597
Probable space group: P M N A
;
_chemical_formula_sum "Si O2"
_cell_formula_units_Z 56
_cell_length_a 13.849642
_cell_length_b 13.077013
_cell_length_c 14.493119
_cell_angle_alpha 90.000000
_cell_angle_beta 90.000000
_cell_angle_gamma 90.000000
_cell_volume 2624.877022
_symmetry_space_group_name_H-M "P M N A"
_symmetry_group_IT_number 53
_symmetry_cell_setting 'orthorhombic'
loop_
_space_group_symop_operation_xyz
x,y,z
1/2-x,-y,1/2+z
x,-y,-z
1/2-x,y,1/2-z
-x,-y,-z
1/2+x,y,1/2-z
-x,y,z
1/2+x,-y,1/2+z
loop_
_atom_site_type_symbol
_atom_site_label
_atom_site_fract_x
_atom_site_fract_y
_atom_site_fract_z
Si Si1 0.885773 0.459349 0.727233
Si Si2 0.108969 0.766243 0.333578
Si Si3 0.391002 0.148339 0.210591
Si Si4 0.271886 0.539945 0.604266
Si Si5 0.255321 0.097839 0.951496
Si Si6 0.107008 0.056264 0.800643
Si Si7 0.206638 0.224418 0.112242
O O1 0.855137 0.346378 0.693325
O O2 0.848174 0.477787 0.831724
O O3 0.832901 0.534985 0.654620
O O4 0.000000 0.478126 0.723820
O O5 0.170142 0.818690 0.413963
O O6 0.117724 0.830940 0.240322
O O7 0.000000 0.762191 0.370575
O O8 0.500000 0.175709 0.180136
O O9 0.317249 0.196620 0.138501
O O10 0.371405 0.193383 0.311928
O O11 0.375757 0.025527 0.217974
O O12 0.267850 0.500000 0.500000
O O13 0.305145 0.656014 0.596853
O O14 0.188152 0.042891 0.876649
O O15 0.184846 0.161531 0.019431
O O16 0.307992 0.000000 0.000000
O O17 0.000000 0.039679 0.842683
#
# Coordination Sequence:
#
# PCOD8221597 Si02
#       7
#     8   8   8   8   8   8   8
#     4  10  23  45  68  93 128 173 221 270 331 390
#     4  10  23  40  63  91 121 167 213 252 312 378
#     4  10  21  41  62  84 123 163 200 250 301 366
#     4  11  25  42  65  97 131 166 215 278 329 383
#     4  12  23  37  63  92 130 165 200 260 311 371
#     4  10  22  38  60  91 124 163 205 244 303 375
#     4  11  24  38  59  96 119 157 213 244 314 375
#
# _framework density 21.334333000000001
#
# number of rings (size 3 to 8) (size 9 to 14) (size 15 to 20)
#    0.000    1.429    1.429    3.857    8.000    4.571 
#    0.000    0.000    0.000    0.000    0.000    0.000 
#    0.000    0.000    0.000    0.000    0.000    0.000 
#
# Total GULP energy -694355.088781 kJ/mol
# GULP energy per Si atom -12399.198014 kJ/mol
# Density = 2.128578 g / cm^3
# Si number density = 21.334333 Si / 1000 Ang^3
#
#
#
# Elastic Constant Matrix: (Units=GPa)
#
#
# Indices 1 2 3 4 5 6 
#
# 1 75.9141 -0.4112 7.1621 0.0000 0.0000 0.0000
# 2 -0.4112 93.3587 3.5478 0.0000 0.0000 0.0000
# 3 7.1621 3.5478 75.2235 0.0000 0.0000 0.0000
# 4 0.0000 0.0000 0.0000 32.5410 0.0000 0.0000
# 5 0.0000 0.0000 0.0000 0.0000 12.2379 0.0000
# 6 0.0000 0.0000 0.0000 0.0000 0.0000 29.3747
#
#
#
# Elastic Compliance Matrix: (Units=1/GPa)
#
#
# Indices 1 2 3 4 5 6 
#
# 1 0.013293 0.000107 -0.001271 0.000000 0.000000 0.000000
# 2 0.000107 0.010731 -0.000516 0.000000 0.000000 0.000000
# 3 -0.001271 -0.000516 0.013439 0.000000 0.000000 0.000000
# 4 0.000000 0.000000 0.000000 0.030730 0.000000 0.000000
# 5 0.000000 0.000000 0.000000 0.000000 0.081713 0.000000
# 6 0.000000 0.000000 0.000000 0.000000 0.000000 0.034043
#
#
# Mechanical properties :
#
#
# Convention : Reuss Voigt Hill
#
# Bulk Modulus (GPa) = 29.32256 29.45485 29.38871
# Shear Modulus (GPa) = 25.16626 30.44388 27.80507
#
# Velocity S-wave (km/s) = 3.43828 3.78165 3.61404
# Velocity P-wave (km/s) = 5.43475 5.73621 5.58751
#
# Compressibility (1/GPa) = 0.03410343
#
# Stress axis : x y z
#
# Youngs Moduli (GPa) = 75.22614 93.18387 74.40997
#
# Poissons Ratio (x) = -0.00996 0.09455
# Poissons Ratio (y) = -0.00804 0.03842
# Poissons Ratio (z) = 0.09559 0.04811
#
# Static dielectric constant tensor:
#      x y z
#    x 3.835110 0.000000 0.000000 
#    y 0.000000 4.091180 0.000000 
#    z 0.000000 0.000000 3.801270 
# 
# 
# High freq. dielectric constant tensor:
#      x y z
#    x 1.829570 0.000000 0.000000 
#    y 0.000000 1.853110 0.000000 
#    z 0.000000 0.000000 1.829060 
# 
# From -- ./inp_files/22775.got.cif
#   From: 2010.03.12/outbox.cif.g09.slc.cpg/sg53_12_cif.got.tgz:22775.got - 2010.04.16 14:36:59.
