data_PCOD8221613
_publ_section_title
;
Structure prediction by ZEFSAII (Michael W. Deem and Ramdas Pophale) SiO2 
 PCOD8221613
Probable space group: P M N A
;
_chemical_formula_sum "Si O2"
_cell_formula_units_Z 64
_cell_length_a 29.913960
_cell_length_b 17.500678
_cell_length_c 5.539577
_cell_angle_alpha 90.000000
_cell_angle_beta 90.000000
_cell_angle_gamma 90.000000
_cell_volume 2900.049336
_symmetry_space_group_name_H-M "P M N A"
_symmetry_group_IT_number 53
_symmetry_cell_setting 'orthorhombic'
loop_
_space_group_symop_operation_xyz
x,y,z
1/2-x,-y,1/2+z
x,-y,-z
1/2-x,y,1/2-z
-x,-y,-z
1/2+x,y,1/2-z
-x,y,z
1/2+x,-y,1/2+z
loop_
_atom_site_type_symbol
_atom_site_label
_atom_site_fract_x
_atom_site_fract_y
_atom_site_fract_z
Si Si1 0.671037 0.190387 0.731075
Si Si2 0.202322 0.922191 0.866414
Si Si3 0.550589 0.699955 0.400461
Si Si4 0.142644 0.652831 0.003682
Si Si5 0.202623 0.441674 0.686048
Si Si6 0.450343 0.209388 0.097705
Si Si7 0.881002 0.085798 0.476482
Si Si8 0.205472 0.705461 0.602238
O O1 0.704473 0.153455 0.536151
O O2 0.650240 0.270662 0.656127
O O3 0.632352 0.126514 0.770142
O O4 0.696468 0.212179 0.979977
O O5 0.250000 0.934261 0.750000
O O6 0.164346 0.911007 0.671195
O O7 0.189710 0.000000 0.000000
O O8 0.500000 0.664971 0.380412
O O9 0.589299 0.636660 0.460734
O O10 0.562416 0.741060 0.142974
O O11 0.552968 0.750080 0.643398
O O12 0.169154 0.576688 0.092030
O O13 0.160867 0.674489 0.739140
O O14 0.178182 0.500000 0.500000
O O15 0.250000 0.482713 0.750000
O O16 0.217317 0.359881 0.586034
O O17 0.500000 0.178964 0.052770
O O18 0.419720 0.135862 0.139751
O O19 0.899226 0.000000 0.500000
O O20 0.250000 0.719113 0.750000
#
# Coordination Sequence:
#
# PCOD8221613 Si02
#       8
#     8   8   8   8   8   8   8   8
#     4  11  24  41  58  84 119 162 218 282 334 397
#     4  12  27  45  57  80 117 172 231 281 343 414
#     4  10  21  41  68  98 135 176 223 286 349 408
#     4  11  23  40  66  98 130 171 228 271 329 397
#     4  11  24  42  66  97 145 183 219 263 321 401
#     4  10  22  41  67  98 129 169 220 285 361 425
#     4  12  24  41  63  83 121 168 218 281 352 417
#     4  11  23  41  62  94 127 169 217 276 336 394
#
# _framework density 22.068588999999999
#
# number of rings (size 3 to 8) (size 9 to 14) (size 15 to 20)
#    0.000    1.000    3.750    3.000    1.750    3.250 
#    0.000    0.000    0.000    3.000    0.000    0.875 
#    0.000    0.000    0.000    0.000    0.000    0.000 
#
# Total GULP energy -792845.628539 kJ/mol
# GULP energy per Si atom -12388.212946 kJ/mol
# Density = 2.201836 g / cm^3
# Si number density = 22.068589 Si / 1000 Ang^3
#
#
#
# Elastic Constant Matrix: (Units=GPa)
#
#
# Indices 1 2 3 4 5 6 
#
# 1 111.9719 10.3444 6.2625 0.0000 0.0000 0.0000
# 2 10.3444 51.2470 -0.1069 0.0000 0.0000 0.0000
# 3 6.2625 -0.1069 81.5163 0.0000 0.0000 0.0000
# 4 0.0000 0.0000 0.0000 36.0959 0.0000 0.0000
# 5 0.0000 0.0000 0.0000 0.0000 27.5030 0.0000
# 6 0.0000 0.0000 0.0000 0.0000 0.0000 19.9814
#
#
#
# Elastic Compliance Matrix: (Units=1/GPa)
#
#
# Indices 1 2 3 4 5 6 
#
# 1 0.009141 -0.001847 -0.000705 0.000000 0.000000 0.000000
# 2 -0.001847 0.019886 0.000168 0.000000 0.000000 0.000000
# 3 -0.000705 0.000168 0.012322 0.000000 0.000000 0.000000
# 4 0.000000 0.000000 0.000000 0.027704 0.000000 0.000000
# 5 0.000000 0.000000 0.000000 0.000000 0.036360 0.000000
# 6 0.000000 0.000000 0.000000 0.000000 0.000000 0.050046
#
#
# Mechanical properties :
#
#
# Convention : Reuss Voigt Hill
#
# Bulk Modulus (GPa) = 27.33550 30.85947 29.09749
# Shear Modulus (GPa) = 28.99897 31.93176 30.46537
#
# Velocity S-wave (km/s) = 3.62890 3.80798 3.71952
# Velocity P-wave (km/s) = 5.47467 5.77478 5.62673
#
# Compressibility (1/GPa) = 0.03658246
#
# Stress axis : x y z
#
# Youngs Moduli (GPa) = 109.39948 50.28561 81.15675
#
# Poissons Ratio (x) = 0.09286 0.05719
# Poissons Ratio (y) = 0.20201 -0.01363
# Poissons Ratio (z) = 0.07709 -0.00844
#
# Static dielectric constant tensor:
#      x y z
#    x 4.272080 0.000000 0.000000 
#    y 0.000000 3.899490 0.000000 
#    z 0.000000 0.000000 4.298340 
# 
# 
# High freq. dielectric constant tensor:
#      x y z
#    x 1.863990 0.000000 0.000000 
#    y 0.000000 1.847960 0.000000 
#    z 0.000000 0.000000 1.883890 
# 
# From -- ./inp_files/5454.got.cif
#   From: 2010.03.12/outbox.cif.g09.slc.cpg/sg53_3_cif.got.tgz:5454.got - 2010.04.16 14:36:59.
