data_PCOD8221189
_publ_section_title
;
Structure prediction by ZEFSAII (Michael W. Deem and Ramdas Pophale) SiO2 
 PCOD8221189
Probable space group: P M N A
;
_chemical_formula_sum "Si O2"
_cell_formula_units_Z 56
_cell_length_a 15.766689
_cell_length_b 22.362903
_cell_length_c 7.847272
_cell_angle_alpha 90.000000
_cell_angle_beta 90.000000
_cell_angle_gamma 90.000000
_cell_volume 2766.861291
_symmetry_space_group_name_H-M "P M N A"
_symmetry_group_IT_number 53
_symmetry_cell_setting 'orthorhombic'
loop_
_space_group_symop_operation_xyz
x,y,z
1/2-x,-y,1/2+z
x,-y,-z
1/2-x,y,1/2-z
-x,-y,-z
1/2+x,y,1/2-z
-x,y,z
1/2+x,-y,1/2+z
loop_
_atom_site_type_symbol
_atom_site_label
_atom_site_fract_x
_atom_site_fract_y
_atom_site_fract_z
Si Si1 0.598665 0.362575 0.990210
Si Si2 0.903156 0.434007 0.833149
Si Si3 0.157354 0.562538 0.801804
Si Si4 0.743801 0.853067 0.933735
Si Si5 0.831273 0.752170 0.334949
Si Si6 0.406140 0.070450 0.981954
Si Si7 0.405153 0.856812 0.357829
O O1 0.500000 0.373667 0.000647
O O2 0.635635 0.399757 0.829784
O O3 0.618280 0.293109 0.956771
O O4 0.634772 0.384259 0.171587
O O5 0.902770 0.504616 0.789785
O O6 0.000000 0.414431 0.867568
O O7 0.848600 0.415388 0.001125
O O8 0.250000 0.539931 0.750000
O O9 0.750000 0.822791 0.750000
O O10 0.709489 0.804363 0.058662
O O11 0.673849 0.905461 0.911206
O O12 0.835778 0.875053 0.000152
O O13 0.750000 0.718581 0.250000
O O14 0.892950 0.787291 0.204010
O O15 0.500000 0.092417 0.046746
O O16 0.394519 0.093803 0.789367
O O17 0.401946 0.000000 0.000000
O O18 0.500000 0.860499 0.436040
#
# Coordination Sequence:
#
# PCOD8221189 Si02
#       7
#     8   8   8   8   8   8   8
#     4  11  23  39  62  85 111 151 194 233 290 354
#     4  10  23  42  60  82 118 151 184 233 290 350
#     4  11  24  36  61  87 117 146 187 235 287 346
#     4  10  21  36  56  84 118 154 195 239 291 343
#     4   9  20  37  59  80 113 148 190 241 289 337
#     4   9  18  34  58  86 116 153 197 241 286 337
#     4   9  18  37  60  82 113 156 197 236 291 344
#
# _framework density 20.239540999999999
#
# number of rings (size 3 to 8) (size 9 to 14) (size 15 to 20)
#    0.000    2.143    0.000    3.857    6.000    4.000 
#    2.571    0.000    0.000    3.000    0.000    0.000 
#    0.000    0.000    0.000    0.000    0.000    0.000 
#
# Total GULP energy -693956.336691 kJ/mol
# GULP energy per Si atom -12392.077441 kJ/mol
# Density = 2.019347 g / cm^3
# Si number density = 20.239541 Si / 1000 Ang^3
#
#
#
# Elastic Constant Matrix: (Units=GPa)
#
#
# Indices 1 2 3 4 5 6 
#
# 1 112.5093 22.9840 39.8285 0.0000 0.0000 0.0000
# 2 22.9840 73.9031 21.8229 0.0000 0.0000 0.0000
# 3 39.8285 21.8229 86.9371 0.0000 0.0000 0.0000
# 4 0.0000 0.0000 0.0000 -11.8938 0.0000 0.0000
# 5 0.0000 0.0000 0.0000 0.0000 17.7897 0.0000
# 6 0.0000 0.0000 0.0000 0.0000 0.0000 -22.9819
#
#
#
# Elastic Compliance Matrix: (Units=1/GPa)
#
#
# Indices 1 2 3 4 5 6 
#
# 1 0.010893 -0.002067 -0.004472 0.000000 0.000000 0.000000
# 2 -0.002067 0.015007 -0.002820 0.000000 0.000000 0.000000
# 3 -0.004472 -0.002820 0.014259 0.000000 0.000000 0.000000
# 4 0.000000 0.000000 0.000000 -0.084077 0.000000 0.000000
# 5 0.000000 0.000000 0.000000 0.000000 0.056212 0.000000
# 6 0.000000 0.000000 0.000000 0.000000 0.000000 -0.043512
#
#
# Mechanical properties :
#
#
# Convention : Reuss Voigt Hill
#
# Bulk Modulus (GPa) = 46.63865 49.18001 47.90933
# Shear Modulus (GPa) = -934.09280 9.16373 -462.46453
#
# Velocity S-wave (km/s) = -21.50629 2.13013 -15.13247
# Velocity P-wave (km/s) = 24.36393 5.51377 16.78093
#
# Compressibility (1/GPa) = 0.02144145
#
# Stress axis : x y z
#
# Youngs Moduli (GPa) = 91.79810 66.63611 70.13113
#
# Poissons Ratio (x) = 0.13777 0.31360
# Poissons Ratio (y) = 0.18979 0.19776
# Poissons Ratio (z) = 0.41049 0.18790
#
# Static dielectric constant tensor:
#      x y z
#    x 4.284860 0.000000 0.000000 
#    y 0.000000 3.445050 0.000000 
#    z 0.000000 0.000000 3.494080 
# 
# 
# High freq. dielectric constant tensor:
#      x y z
#    x 1.807960 0.000000 0.000000 
#    y 0.000000 1.768470 0.000000 
#    z 0.000000 0.000000 1.779810 
# 
# From -- ./inp_files/8826.got.cif
#   From: 2010.03.12/outbox.cif.g09.slc.cpg/sg53_5_cif.got.tgz:8826.got - 2010.04.16 14:36:59.
