data_PCOD8221308
_publ_section_title
;
Structure prediction by ZEFSAII (Michael W. Deem and Ramdas Pophale) SiO2 
 PCOD8221308
Probable space group: P M N A
;
_chemical_formula_sum "Si O2"
_cell_formula_units_Z 52
_cell_length_a 31.563067
_cell_length_b 6.608246
_cell_length_c 13.813532
_cell_angle_alpha 90.000000
_cell_angle_beta 90.000000
_cell_angle_gamma 90.000000
_cell_volume 2881.178313
_symmetry_space_group_name_H-M "P M N A"
_symmetry_group_IT_number 53
_symmetry_cell_setting 'orthorhombic'
loop_
_space_group_symop_operation_xyz
x,y,z
1/2-x,-y,1/2+z
x,-y,-z
1/2-x,y,1/2-z
-x,-y,-z
1/2+x,y,1/2-z
-x,y,z
1/2+x,-y,1/2+z
loop_
_atom_site_type_symbol
_atom_site_label
_atom_site_fract_x
_atom_site_fract_y
_atom_site_fract_z
Si Si1 0.840274 0.119029 0.092125
Si Si2 0.887295 0.415902 0.607117
Si Si3 0.327286 0.061224 0.897129
Si Si4 0.202501 0.500000 0.000000
Si Si5 0.451693 0.923422 0.108929
Si Si6 0.236935 0.825337 0.141238
Si Si7 0.113928 0.812055 0.720912
O O1 0.879689 0.155086 0.164447
O O2 0.802492 0.980436 0.137608
O O3 0.824916 0.340912 0.061051
O O4 0.858922 0.000000 0.000000
O O5 0.879972 0.500000 0.500000
O O6 0.847247 0.275677 0.634534
O O7 0.931698 0.298532 0.611740
O O8 0.890700 0.579670 0.691761
O O9 0.276887 0.060207 0.904652
O O10 0.341910 0.889346 0.823561
O O11 0.347388 0.000000 0.000000
O O12 0.230151 0.622122 0.078834
O O13 0.500000 0.912135 0.143957
O O14 0.426919 0.068452 0.182777
O O15 0.447908 0.000000 0.000000
O O16 0.250000 0.762936 0.250000
#
# Coordination Sequence:
#
# PCOD8221308 Si02
#       7
#     8   8   8   4   8   8   8
#     4  10  23  42  59  78 109 151 204 251 292 336
#     4  11  20  32  53  86 118 151 187 223 274 341
#     4  11  21  34  52  78 115 150 188 232 277 336
#     4  10  24  38  54  82 107 144 197 246 292 332
#     4  10  21  37  58  88 125 154 179 216 277 362
#     4  11  23  39  56  79 114 155 196 242 289 339
#     4  11  21  37  58  82 112 151 188 228 286 337
#
# _framework density 18.048172000000001
#
# number of rings (size 3 to 8) (size 9 to 14) (size 15 to 20)
#    0.000    1.385    4.615    2.308    3.231    4.000 
#    0.000    0.000    0.000    0.462    0.000    1.615 
#    0.000    0.000    0.000    0.000    0.000    0.000 
#
# Total GULP energy -644680.645973 kJ/mol
# GULP energy per Si atom -12397.704730 kJ/mol
# Density = 1.800709 g / cm^3
# Si number density = 18.048172 Si / 1000 Ang^3
#
#
#
# Elastic Constant Matrix: (Units=GPa)
#
#
# Indices 1 2 3 4 5 6 
#
# 1 96.4523 36.8784 38.3179 0.0000 0.0000 0.0000
# 2 36.8784 112.2469 42.0786 0.0000 0.0000 0.0000
# 3 38.3179 42.0786 118.1553 0.0000 0.0000 0.0000
# 4 0.0000 0.0000 0.0000 29.6502 0.0000 0.0000
# 5 0.0000 0.0000 0.0000 0.0000 27.2174 0.0000
# 6 0.0000 0.0000 0.0000 0.0000 0.0000 -8.0167
#
#
#
# Elastic Compliance Matrix: (Units=1/GPa)
#
#
# Indices 1 2 3 4 5 6 
#
# 1 0.012743 -0.003044 -0.003048 0.000000 0.000000 0.000000
# 2 -0.003044 0.011009 -0.002933 0.000000 0.000000 0.000000
# 3 -0.003048 -0.002933 0.010497 0.000000 0.000000 0.000000
# 4 0.000000 0.000000 0.000000 0.033727 0.000000 0.000000
# 5 0.000000 0.000000 0.000000 0.000000 0.036741 0.000000
# 6 0.000000 0.000000 0.000000 0.000000 0.000000 -0.124739
#
#
# Mechanical properties :
#
#
# Convention : Reuss Voigt Hill
#
# Bulk Modulus (GPa) = 61.74090 62.37827 62.05958
# Shear Modulus (GPa) = 1458.96245 23.74212 741.35229
#
# Velocity S-wave (km/s) = 28.46272 3.63090 20.28928
# Velocity P-wave (km/s) = 33.38340 7.22600 24.15229
#
# Compressibility (1/GPa) = 0.01619672
#
# Stress axis : x y z
#
# Youngs Moduli (GPa) = 78.47634 90.83794 95.26767
#
# Poissons Ratio (x) = 0.27649 0.29042
# Poissons Ratio (y) = 0.23886 0.27946
# Poissons Ratio (z) = 0.23923 0.26646
#
# Static dielectric constant tensor:
#      x y z
#    x 3.177380 0.000000 0.000000 
#    y 0.000000 3.458980 0.000000 
#    z 0.000000 0.000000 3.498370 
# 
# 
# High freq. dielectric constant tensor:
#      x y z
#    x 1.675040 0.000000 0.000000 
#    y 0.000000 1.709880 0.000000 
#    z 0.000000 0.000000 1.696710 
# 
# From -- ./inp_files/25160.got.cif
#   From: 2010.03.12/outbox.cif.g09.slc.cpg/sg53_13_cif.got.tgz:25160.got - 2010.04.16 14:36:59.
