data_PCOD8222862
_publ_section_title
;
Structure prediction by ZEFSAII (Michael W. Deem and Ramdas Pophale) SiO2 
 PCOD8222862
Probable space group: P C C A
;
_chemical_formula_sum "Si O2"
_cell_formula_units_Z 64
_cell_length_a 20.791689
_cell_length_b 8.939683
_cell_length_c 15.713164
_cell_angle_alpha 90.000000
_cell_angle_beta 90.000000
_cell_angle_gamma 90.000000
_cell_volume 2920.623214
_symmetry_space_group_name_H-M "P C C A"
_symmetry_group_IT_number 54
_symmetry_cell_setting 'orthorhombic'
loop_
_space_group_symop_operation_xyz
x,y,z
1/2-x,-y,z
1/2+x,-y,1/2-z
-x,y,1/2-z
-x,-y,-z
1/2+x,y,-z
1/2-x,y,1/2+z
x,-y,1/2+z
loop_
_atom_site_type_symbol
_atom_site_label
_atom_site_fract_x
_atom_site_fract_y
_atom_site_fract_z
Si Si1 0.566241 0.386904 0.279161
Si Si2 0.690293 0.912443 0.477631
Si Si3 0.313883 0.421140 0.720470
Si Si4 0.431192 0.054386 0.279608
Si Si5 0.934101 0.066624 0.033983
Si Si6 0.685582 0.580088 0.482225
Si Si7 0.938244 0.399479 0.980240
Si Si8 0.808202 0.092629 0.283591
O O1 0.500000 0.467017 0.250000
O O2 0.624036 0.490022 0.246579
O O3 0.566918 0.359528 0.380400
O O4 0.570452 0.232804 0.226913
O O5 0.681155 0.748731 0.520194
O O6 0.711018 0.881491 0.381010
O O7 0.750000 0.000000 0.522358
O O8 0.625822 0.011824 0.477460
O O9 0.250000 0.500000 0.755316
O O10 0.315344 0.417736 0.619187
O O11 0.315163 0.254845 0.760189
O O12 0.500000 0.990278 0.250000
O O13 0.417910 0.996943 0.373712
O O14 0.375405 0.993243 0.219404
O O15 0.940964 0.245418 0.032780
O O16 0.000000 0.000000 0.000000
O O17 0.750000 0.500000 0.516535
O O18 0.623750 0.488652 0.514158
O O19 0.000000 0.500000 0.000000
O O20 0.750000 0.000000 0.239012
#
# Coordination Sequence:
#
# PCOD8222862 Si02
#       8
#     8   8   8   8   8   8   8   8
#     4  10  21  39  61  86 121 161 204 252 313 378
#     4  10  20  37  63  90 120 162 207 252 305 369
#     4   9  18  33  57  85 113 151 196 241 290 354
#     4  11  24  40  60  85 118 158 202 256 312 371
#     4  12  24  40  62  87 120 159 208 260 313 375
#     4   9  18  34  57  87 118 152 199 247 296 357
#     4  11  23  39  62  92 125 162 206 261 319 379
#     4  10  20  36  60  88 120 157 200 249 303 367
#
# _framework density 21.913129999999999
#
# number of rings (size 3 to 8) (size 9 to 14) (size 15 to 20)
#    0.000    1.750    0.000    5.250    0.000    8.000 
#    0.000    0.000    0.000    5.250    0.000    0.000 
#    0.000    0.000    0.000    0.000    0.000    0.000 
#
# Total GULP energy -793640.745946 kJ/mol
# GULP energy per Si atom -12400.636655 kJ/mol
# Density = 2.186326 g / cm^3
# Si number density = 21.913130 Si / 1000 Ang^3
#
#
#
# Elastic Constant Matrix: (Units=GPa)
#
#
# Indices 1 2 3 4 5 6 
#
# 1 215.6753 102.3223 2.9098 0.0000 0.0000 0.0000
# 2 102.3223 192.1992 23.3664 0.0000 0.0000 0.0000
# 3 2.9098 23.3664 46.7099 0.0000 0.0000 0.0000
# 4 0.0000 0.0000 0.0000 22.7977 0.0000 0.0000
# 5 0.0000 0.0000 0.0000 0.0000 23.7768 0.0000
# 6 0.0000 0.0000 0.0000 0.0000 0.0000 47.3007
#
#
#
# Elastic Compliance Matrix: (Units=1/GPa)
#
#
# Indices 1 2 3 4 5 6 
#
# 1 0.006284 -0.003511 0.001365 0.000000 0.000000 0.000000
# 2 -0.003511 0.007502 -0.003534 0.000000 0.000000 0.000000
# 3 0.001365 -0.003534 0.023092 0.000000 0.000000 0.000000
# 4 0.000000 0.000000 0.000000 0.043864 0.000000 0.000000
# 5 0.000000 0.000000 0.000000 0.000000 0.042058 0.000000
# 6 0.000000 0.000000 0.000000 0.000000 0.000000 0.021141
#
#
# Mechanical properties :
#
#
# Convention : Reuss Voigt Hill
#
# Bulk Modulus (GPa) = 39.18979 79.08686 59.13832
# Shear Modulus (GPa) = 30.52361 40.50741 35.51551
#
# Velocity S-wave (km/s) = 3.73626 4.30414 4.03021
# Velocity P-wave (km/s) = 6.04448 7.80194 6.97875
#
# Compressibility (1/GPa) = 0.02551685
#
# Stress axis : x y z
#
# Youngs Moduli (GPa) = 159.13111 133.29739 43.30574
#
# Poissons Ratio (x) = 0.46807 -0.05912
# Poissons Ratio (y) = 0.55879 0.15305
# Poissons Ratio (z) = -0.21723 0.47109
#
# Static dielectric constant tensor:
#      x y z
#    x 4.241220 0.000000 0.000000 
#    y 0.000000 4.179680 0.000000 
#    z 0.000000 0.000000 3.587710 
# 
# 
# High freq. dielectric constant tensor:
#      x y z
#    x 1.881750 0.000000 0.000000 
#    y 0.000000 1.873180 0.000000 
#    z 0.000000 0.000000 1.824910 
# 
# From -- ./inp_files/18955.got.cif
#   From: 2010.03.12/outbox.cif.g09.slc.cpg/sg54_10_cif.got.tgz:18955.got - 2010.04.16 15:00:50.
