data_PCOD8222101
_publ_section_title
;
Structure prediction by ZEFSAII (Michael W. Deem and Ramdas Pophale) SiO2 
 PCOD8222101
Probable space group: P M N A
;
_chemical_formula_sum "Si O2"
_cell_formula_units_Z 32
_cell_length_a 8.570811
_cell_length_b 13.754863
_cell_length_c 13.802168
_cell_angle_alpha 90.000000
_cell_angle_beta 90.000000
_cell_angle_gamma 90.000000
_cell_volume 1627.142155
_symmetry_space_group_name_H-M "P M N A"
_symmetry_group_IT_number 53
_symmetry_cell_setting 'orthorhombic'
loop_
_space_group_symop_operation_xyz
x,y,z
1/2-x,-y,1/2+z
x,-y,-z
1/2-x,y,1/2-z
-x,-y,-z
1/2+x,y,1/2-z
-x,y,z
1/2+x,-y,1/2+z
loop_
_atom_site_type_symbol
_atom_site_label
_atom_site_fract_x
_atom_site_fract_y
_atom_site_fract_z
Si Si1 0.684521 0.346754 0.537136
Si Si2 0.184439 0.031863 0.146337
Si Si3 0.682832 0.859446 0.029826
Si Si4 0.183334 0.464820 0.147047
O O1 0.500000 0.327598 0.541948
O O2 0.777640 0.249467 0.561986
O O3 0.736113 0.384554 0.431056
O O4 0.738578 0.427548 0.615156
O O5 0.250000 0.064191 0.250000
O O6 0.227440 0.115510 0.069502
O O7 0.000000 0.018993 0.150518
O O8 0.262159 0.930179 0.115602
O O9 0.500000 0.872855 0.012961
O O10 0.250000 0.434351 0.250000
O O11 0.000000 0.465611 0.152508
#
# Coordination Sequence:
#
# PCOD8222101 Si02
#       4
#     8   8   8   8
#     4   9  19  37  55  76 108 147 181 219 272 326
#     4  11  22  39  60  82 110 145 182 227 274 324
#     4  11  22  37  57  84 113 145 183 225 272 328
#     4   9  19  35  56  78 106 141 181 225 271 320
#
# _framework density 19.666381999999999
#
# number of rings (size 3 to 8) (size 9 to 14) (size 15 to 20)
#    0.000    2.000    0.000    7.500    0.000    4.000 
#    0.000    7.500    0.000    0.000    0.000    0.000 
#    0.000    0.000    0.000    0.000    0.000    0.000 
#
# Total GULP energy -396870.784783 kJ/mol
# GULP energy per Si atom -12402.212024 kJ/mol
# Density = 1.962162 g / cm^3
# Si number density = 19.666382 Si / 1000 Ang^3
#
#
#
# Elastic Constant Matrix: (Units=GPa)
#
#
# Indices 1 2 3 4 5 6 
#
# 1 74.8576 14.8789 5.6534 0.0000 0.0000 0.0000
# 2 14.8789 62.3487 -28.8643 0.0000 0.0000 0.0000
# 3 5.6534 -28.8643 58.8151 0.0000 0.0000 0.0000
# 4 0.0000 0.0000 0.0000 12.9555 0.0000 0.0000
# 5 0.0000 0.0000 0.0000 0.0000 34.4320 0.0000
# 6 0.0000 0.0000 0.0000 0.0000 0.0000 9.3229
#
#
#
# Elastic Compliance Matrix: (Units=1/GPa)
#
#
# Indices 1 2 3 4 5 6 
#
# 1 0.014739 -0.005400 -0.004067 0.000000 0.000000 0.000000
# 2 -0.005400 0.022733 0.011675 0.000000 0.000000 0.000000
# 3 -0.004067 0.011675 0.023123 0.000000 0.000000 0.000000
# 4 0.000000 0.000000 0.000000 0.077187 0.000000 0.000000
# 5 0.000000 0.000000 0.000000 0.000000 0.029043 0.000000
# 6 0.000000 0.000000 0.000000 0.000000 0.000000 0.107262
#
#
# Mechanical properties :
#
#
# Convention : Reuss Voigt Hill
#
# Bulk Modulus (GPa) = 15.38185 19.92862 17.65524
# Shear Modulus (GPa) = 17.16201 24.96566 21.06384
#
# Velocity S-wave (km/s) = 2.95728 3.56681 3.27625
# Velocity P-wave (km/s) = 4.41577 5.20751 4.82790
#
# Compressibility (1/GPa) = 0.06501167
#
# Stress axis : x y z
#
# Youngs Moduli (GPa) = 67.84629 43.98959 43.24656
#
# Poissons Ratio (x) = 0.23755 0.17588
# Poissons Ratio (y) = 0.36638 -0.50492
# Poissons Ratio (z) = 0.27593 -0.51360
#
# Static dielectric constant tensor:
#      x y z
#    x 3.475470 0.000000 0.000000 
#    y 0.000000 3.550190 0.000000 
#    z 0.000000 0.000000 3.469410 
# 
# 
# High freq. dielectric constant tensor:
#      x y z
#    x 1.767400 0.000000 0.000000 
#    y 0.000000 1.766160 0.000000 
#    z 0.000000 0.000000 1.764750 
# 
# From -- ./inp_files/19626.got.cif
#   From: 2010.03.12/outbox.cif.g09.slc.cpg/sg53_10_cif.got.tgz:19626.got - 2010.04.16 14:36:59.
