data_PCOD8222243
_publ_section_title
;
Structure prediction by ZEFSAII (Michael W. Deem and Ramdas Pophale) SiO2 
 PCOD8222243
Probable space group: P M N A
;
_chemical_formula_sum "Si O2"
_cell_formula_units_Z 48
_cell_length_a 18.753192
_cell_length_b 8.810788
_cell_length_c 15.464223
_cell_angle_alpha 90.000000
_cell_angle_beta 90.000000
_cell_angle_gamma 90.000000
_cell_volume 2555.159737
_symmetry_space_group_name_H-M "P M N A"
_symmetry_group_IT_number 53
_symmetry_cell_setting 'orthorhombic'
loop_
_space_group_symop_operation_xyz
x,y,z
1/2-x,-y,1/2+z
x,-y,-z
1/2-x,y,1/2-z
-x,-y,-z
1/2+x,y,1/2-z
-x,y,z
1/2+x,-y,1/2+z
loop_
_atom_site_type_symbol
_atom_site_label
_atom_site_fract_x
_atom_site_fract_y
_atom_site_fract_z
Si Si1 0.650297 0.563222 0.410384
Si Si2 0.077823 0.921168 0.260802
Si Si3 0.579752 0.558854 0.235993
Si Si4 0.214383 0.878551 0.340753
Si Si5 0.645067 0.076143 0.587620
Si Si6 0.811160 0.556947 0.407252
O O1 0.618625 0.500000 0.500000
O O2 0.602054 0.503494 0.331598
O O3 0.649176 0.743649 0.418665
O O4 0.730168 0.498509 0.393880
O O5 0.081807 0.740099 0.266060
O O6 0.143488 0.980395 0.320612
O O7 0.089842 0.974286 0.161995
O O8 0.000000 0.980754 0.291769
O O9 0.500000 0.498898 0.216030
O O10 0.634887 0.491266 0.165472
O O11 0.250000 0.817265 0.250000
O O12 0.274104 0.980074 0.389201
O O13 0.190348 0.739467 0.401347
O O14 0.618014 0.000000 0.500000
O O15 0.840086 0.500000 0.500000
#
# Coordination Sequence:
#
# PCOD8222243 Si02
#       6
#     8   8   8   8   8   8
#     4   9  17  29  45  64  86 115 146 173 212 263
#     4   8  14  25  42  62  81 106 141 177 211 248
#     4   9  16  26  41  62  87 112 143 182 215 251
#     4   8  14  26  42  59  82 112 144 178 215 258
#     4   9  16  26  43  66  86 104 135 180 217 246
#     4   9  15  24  41  62  84 110 143 180 215 249
#
# _framework density 18.785518
#
# number of rings (size 3 to 8) (size 9 to 14) (size 15 to 20)
#    0.000    3.333    0.000    3.500    0.000    1.000 
#    0.000    0.000    0.000   18.500    0.000    0.000 
#    0.000    0.000    0.000    0.000    0.000    0.333 
#
# Total GULP energy -594651.024091 kJ/mol
# GULP energy per Si atom -12388.563002 kJ/mol
# Density = 1.874276 g / cm^3
# Si number density = 18.785518 Si / 1000 Ang^3
#
#
#
# Elastic Constant Matrix: (Units=GPa)
#
#
# Indices 1 2 3 4 5 6 
#
# 1 99.6097 8.3934 21.5764 0.0000 0.0000 0.0000
# 2 8.3934 9.6063 14.8451 0.0000 0.0000 0.0000
# 3 21.5764 14.8451 88.9197 0.0000 0.0000 0.0000
# 4 0.0000 0.0000 0.0000 26.6262 0.0000 0.0000
# 5 0.0000 0.0000 0.0000 0.0000 22.7556 0.0000
# 6 0.0000 0.0000 0.0000 0.0000 0.0000 8.1968
#
#
#
# Elastic Compliance Matrix: (Units=1/GPa)
#
#
# Indices 1 2 3 4 5 6 
#
# 1 0.010970 -0.007374 -0.001431 0.000000 0.000000 0.000000
# 2 -0.007374 0.145250 -0.022460 0.000000 0.000000 0.000000
# 3 -0.001431 -0.022460 0.015343 0.000000 0.000000 0.000000
# 4 0.000000 0.000000 0.000000 0.037557 0.000000 0.000000
# 5 0.000000 0.000000 0.000000 0.000000 0.043945 0.000000
# 6 0.000000 0.000000 0.000000 0.000000 0.000000 0.121999
#
#
# Mechanical properties :
#
#
# Convention : Reuss Voigt Hill
#
# Bulk Modulus (GPa) = 9.17153 31.97396 20.57274
# Shear Modulus (GPa) = 10.54988 21.73712 16.14350
#
# Velocity S-wave (km/s) = 2.37237 3.40534 2.93466
# Velocity P-wave (km/s) = 3.52094 5.70257 4.73900
#
# Compressibility (1/GPa) = 0.10903307
#
# Stress axis : x y z
#
# Youngs Moduli (GPa) = 91.15362 6.88470 65.17626
#
# Poissons Ratio (x) = 0.05077 0.09326
# Poissons Ratio (y) = 0.67217 1.46386
# Poissons Ratio (z) = 0.13043 0.15463
#
# Static dielectric constant tensor:
#      x y z
#    x 3.901380 0.000000 0.000000 
#    y 0.000000 2.710290 0.000000 
#    z 0.000000 0.000000 3.569420 
# 
# 
# High freq. dielectric constant tensor:
#      x y z
#    x 1.740090 0.000000 0.000000 
#    y 0.000000 1.649440 0.000000 
#    z 0.000000 0.000000 1.727140 
# 
# From -- ./inp_files/28891.got.cif
#   From: 2010.03.12/outbox.cif.g09.slc.cpg/sg53_15_cif.got.tgz:28891.got - 2010.04.16 14:36:59.
