data_PCOD8222415
_publ_section_title
;
Structure prediction by ZEFSAII (Michael W. Deem and Ramdas Pophale) SiO2 
 PCOD8222415
Probable space group: P C C A
;
_chemical_formula_sum "Si O2"
_cell_formula_units_Z 56
_cell_length_a 15.982186
_cell_length_b 8.679975
_cell_length_c 20.862546
_cell_angle_alpha 90.000000
_cell_angle_beta 90.000000
_cell_angle_gamma 90.000000
_cell_volume 2894.156171
_symmetry_space_group_name_H-M "P C C A"
_symmetry_group_IT_number 54
_symmetry_cell_setting 'orthorhombic'
loop_
_space_group_symop_operation_xyz
x,y,z
1/2-x,-y,z
1/2+x,-y,1/2-z
-x,y,1/2-z
-x,-y,-z
1/2+x,y,-z
1/2-x,y,1/2+z
x,-y,1/2+z
loop_
_atom_site_type_symbol
_atom_site_label
_atom_site_fract_x
_atom_site_fract_y
_atom_site_fract_z
Si Si1 0.066937 0.222073 0.432154
Si Si2 0.331298 0.581278 0.520097
Si Si3 0.431237 0.303122 0.474616
Si Si4 0.411536 0.244346 0.272598
Si Si5 0.157635 0.930405 0.390598
Si Si6 0.832109 0.412293 0.835392
Si Si7 0.988546 0.490559 0.641408
O O1 0.145404 0.275563 0.475362
O O2 0.052473 0.346854 0.376110
O O3 0.986212 0.199622 0.477493
O O4 0.087900 0.060956 0.400074
O O5 0.250000 0.500000 0.490653
O O6 0.401915 0.448387 0.517067
O O7 0.314167 0.643171 0.591906
O O8 0.355935 0.200353 0.445217
O O9 0.489830 0.368729 0.417791
O O10 0.500000 0.167971 0.250000
O O11 0.359779 0.136600 0.320336
O O12 0.350846 0.268238 0.211263
O O13 0.432251 0.411718 0.303486
O O14 0.250000 0.000000 0.395178
O O15 0.750000 0.500000 0.809135
O O16 0.915968 0.518020 0.835629
#
# Coordination Sequence:
#
# PCOD8222415 Si02
#       7
#     8   8   8   8   8   8   8
#     4  11  19  34  57  83 113 142 181 220 272 332
#     4  10  18  31  58  89 113 134 176 231 280 322
#     4  10  18  35  56  82 117 141 176 219 275 331
#     4   9  21  40  59  73 104 150 191 221 272 319
#     4  11  24  38  55  79 114 152 183 220 270 327
#     4  10  18  32  57  85 108 135 177 232 277 313
#     4   9  17  35  59  84 104 141 182 229 266 320
#
# _framework density 19.349336000000001
#
# number of rings (size 3 to 8) (size 9 to 14) (size 15 to 20)
#    0.000    2.000    2.857    2.143    0.000    1.143 
#    0.000    5.000    0.000    0.857    0.000    0.000 
#    0.000    0.000    0.000    0.000    0.000    0.000 
#
# Total GULP energy -694214.638380 kJ/mol
# GULP energy per Si atom -12396.689971 kJ/mol
# Density = 1.930530 g / cm^3
# Si number density = 19.349336 Si / 1000 Ang^3
#
#
#
# Elastic Constant Matrix: (Units=GPa)
#
#
# Indices 1 2 3 4 5 6 
#
# 1 103.5705 20.5404 32.6829 0.0000 0.0000 0.0000
# 2 20.5404 67.8657 36.3696 0.0000 0.0000 0.0000
# 3 32.6829 36.3696 91.3095 0.0000 0.0000 0.0000
# 4 0.0000 0.0000 0.0000 29.3039 0.0000 0.0000
# 5 0.0000 0.0000 0.0000 0.0000 20.4454 0.0000
# 6 0.0000 0.0000 0.0000 0.0000 0.0000 30.0003
#
#
#
# Elastic Compliance Matrix: (Units=1/GPa)
#
#
# Indices 1 2 3 4 5 6 
#
# 1 0.011012 -0.001552 -0.003323 0.000000 0.000000 0.000000
# 2 -0.001552 0.018953 -0.006994 0.000000 0.000000 0.000000
# 3 -0.003323 -0.006994 0.014927 0.000000 0.000000 0.000000
# 4 0.000000 0.000000 0.000000 0.034125 0.000000 0.000000
# 5 0.000000 0.000000 0.000000 0.000000 0.048911 0.000000
# 6 0.000000 0.000000 0.000000 0.000000 0.000000 0.033333
#
#
# Mechanical properties :
#
#
# Convention : Reuss Voigt Hill
#
# Bulk Modulus (GPa) = 47.27307 49.10350 48.18829
# Shear Modulus (GPa) = 26.03502 27.49343 26.76423
#
# Velocity S-wave (km/s) = 3.67212 3.77357 3.72319
# Velocity P-wave (km/s) = 6.51642 6.66475 6.59100
#
# Compressibility (1/GPa) = 0.02115369
#
# Stress axis : x y z
#
# Youngs Moduli (GPa) = 90.81200 52.76338 66.99295
#
# Poissons Ratio (x) = 0.08188 0.22264
# Poissons Ratio (y) = 0.14092 0.46852
# Poissons Ratio (z) = 0.30180 0.36900
#
# Static dielectric constant tensor:
#      x y z
#    x 3.549990 0.000000 0.000000 
#    y 0.000000 3.224210 0.000000 
#    z 0.000000 0.000000 3.656100 
# 
# 
# High freq. dielectric constant tensor:
#      x y z
#    x 1.759140 0.000000 0.000000 
#    y 0.000000 1.714700 0.000000 
#    z 0.000000 0.000000 1.758670 
# 
# From -- ./inp_files/21896.got.cif
#   From: 2010.03.12/outbox.cif.g09.slc.cpg/sg54_11_cif.got.tgz:21896.got - 2010.04.16 15:00:50.
