data_PCOD8222165
_publ_section_title
;
Structure prediction by ZEFSAII (Michael W. Deem and Ramdas Pophale) SiO2 
 PCOD8222165
Probable space group: P M N A
;
_chemical_formula_sum "Si O2"
_cell_formula_units_Z 40
_cell_length_a 8.403048
_cell_length_b 12.293521
_cell_length_c 18.300932
_cell_angle_alpha 90.000000
_cell_angle_beta 90.000000
_cell_angle_gamma 90.000000
_cell_volume 1890.542039
_symmetry_space_group_name_H-M "P M N A"
_symmetry_group_IT_number 53
_symmetry_cell_setting 'orthorhombic'
loop_
_space_group_symop_operation_xyz
x,y,z
1/2-x,-y,1/2+z
x,-y,-z
1/2-x,y,1/2-z
-x,-y,-z
1/2+x,y,1/2-z
-x,y,z
1/2+x,-y,1/2+z
loop_
_atom_site_type_symbol
_atom_site_label
_atom_site_fract_x
_atom_site_fract_y
_atom_site_fract_z
Si Si1 0.814739 0.667057 0.428409
Si Si2 0.314719 0.855727 0.330786
Si Si3 0.812173 0.465223 0.329306
Si Si4 0.684635 0.959762 0.920903
Si Si5 0.183366 0.724456 0.920419
O O1 0.779870 0.776407 0.384380
O O2 0.760897 0.562871 0.382353
O O3 0.717795 0.664083 0.503495
O O4 0.000000 0.662789 0.448107
O O5 0.250000 0.839980 0.250000
O O6 0.500000 0.827391 0.332548
O O7 0.284100 0.978295 0.358369
O O8 0.750000 0.497913 0.250000
O O9 0.727234 0.354843 0.354138
O O10 0.000000 0.448044 0.328879
O O11 0.500000 0.986983 0.909867
O O12 0.711107 0.831908 0.912880
O O13 0.744678 0.000000 0.000000
O O14 0.000000 0.757726 0.915659
#
# Coordination Sequence:
#
# PCOD8222165 Si02
#       5
#     8   8   8   8   8
#     4  11  23  42  67  96 130 170 216 267 322 380
#     4  12  25  41  65  97 133 170 215 266 323 384
#     4  11  25  44  66  93 130 171 216 267 323 384
#     4  11  23  42  68  94 128 169 213 264 319 379
#     4  12  25  41  67  98 130 169 217 266 319 386
#
# _framework density 21.157954
#
# number of rings (size 3 to 8) (size 9 to 14) (size 15 to 20)
#    0.000    0.600    2.000    6.600    0.000    8.800 
#    0.000    4.000    0.000    0.000    0.000    0.000 
#    0.000    0.000    0.000    0.000    0.000    0.000 
#
# Total GULP energy -496406.234880 kJ/mol
# GULP energy per Si atom -12410.155872 kJ/mol
# Density = 2.110980 g / cm^3
# Si number density = 21.157954 Si / 1000 Ang^3
#
#
#
# Elastic Constant Matrix: (Units=GPa)
#
#
# Indices 1 2 3 4 5 6 
#
# 1 71.1818 8.1272 12.8253 0.0000 0.0000 0.0000
# 2 8.1272 100.0085 7.9983 0.0000 0.0000 0.0000
# 3 12.8253 7.9983 63.1471 0.0000 0.0000 0.0000
# 4 0.0000 0.0000 0.0000 15.4317 0.0000 0.0000
# 5 0.0000 0.0000 0.0000 0.0000 37.0938 0.0000
# 6 0.0000 0.0000 0.0000 0.0000 0.0000 7.0353
#
#
#
# Elastic Compliance Matrix: (Units=1/GPa)
#
#
# Indices 1 2 3 4 5 6 
#
# 1 0.014674 -0.000964 -0.002858 0.000000 0.000000 0.000000
# 2 -0.000964 0.010165 -0.001092 0.000000 0.000000 0.000000
# 3 -0.002858 -0.001092 0.016555 0.000000 0.000000 0.000000
# 4 0.000000 0.000000 0.000000 0.064801 0.000000 0.000000
# 5 0.000000 0.000000 0.000000 0.000000 0.026959 0.000000
# 6 0.000000 0.000000 0.000000 0.000000 0.000000 0.142140
#
#
# Mechanical properties :
#
#
# Convention : Reuss Voigt Hill
#
# Bulk Modulus (GPa) = 31.67998 32.47102 32.07550
# Shear Modulus (GPa) = 16.91229 25.60462 21.25846
#
# Velocity S-wave (km/s) = 2.83032 3.48252 3.17322
# Velocity P-wave (km/s) = 5.06819 5.61701 5.34964
#
# Compressibility (1/GPa) = 0.03156568
#
# Stress axis : x y z
#
# Youngs Moduli (GPa) = 68.14985 98.37882 60.40542
#
# Poissons Ratio (x) = 0.09482 0.17265
# Poissons Ratio (y) = 0.06569 0.06595
# Poissons Ratio (z) = 0.19478 0.10740
#
# Static dielectric constant tensor:
#      x y z
#    x 3.819540 0.000000 0.000000 
#    y 0.000000 3.858150 0.000000 
#    z 0.000000 0.000000 3.888220 
# 
# 
# High freq. dielectric constant tensor:
#      x y z
#    x 1.838570 0.000000 0.000000 
#    y 0.000000 1.840200 0.000000 
#    z 0.000000 0.000000 1.834360 
# 
# From -- ./inp_files/25816.got.cif
#   From: 2010.03.12/outbox.cif.g09.slc.cpg/sg53_13_cif.got.tgz:25816.got - 2010.04.16 14:36:59.
