data_PCOD8222085
_publ_section_title
;
Structure prediction by ZEFSAII (Michael W. Deem and Ramdas Pophale) SiO2 
 PCOD8222085
Probable space group: P M N A
;
_chemical_formula_sum "Si O2"
_cell_formula_units_Z 40
_cell_length_a 12.523492
_cell_length_b 8.874885
_cell_length_c 18.594521
_cell_angle_alpha 90.000000
_cell_angle_beta 90.000000
_cell_angle_gamma 90.000000
_cell_volume 2066.679693
_symmetry_space_group_name_H-M "P M N A"
_symmetry_group_IT_number 53
_symmetry_cell_setting 'orthorhombic'
loop_
_space_group_symop_operation_xyz
x,y,z
1/2-x,-y,1/2+z
x,-y,-z
1/2-x,y,1/2-z
-x,-y,-z
1/2+x,y,1/2-z
-x,y,z
1/2+x,-y,1/2+z
loop_
_atom_site_type_symbol
_atom_site_label
_atom_site_fract_x
_atom_site_fract_y
_atom_site_fract_z
Si Si1 0.378066 0.902973 0.429093
Si Si2 0.120052 0.565479 0.793010
Si Si3 0.226400 0.143013 0.169578
Si Si4 0.626257 0.608379 0.865666
Si Si5 0.701634 0.580092 0.430134
O O1 0.500000 0.860006 0.406496
O O2 0.303906 0.757769 0.444207
O O3 0.381538 0.000000 0.500000
O O4 0.318125 0.995975 0.368191
O O5 0.135894 0.728222 0.829429
O O6 0.175316 0.553934 0.712953
O O7 0.142278 0.441940 0.853966
O O8 0.000000 0.547652 0.767812
O O9 0.250000 0.088119 0.250000
O O10 0.329387 0.218816 0.128340
O O11 0.500000 0.606808 0.876393
O O12 0.678965 0.492669 0.922863
O O13 0.647421 0.500000 0.500000
#
# Coordination Sequence:
#
# PCOD8222085 Si02
#       5
#     8   8   8   8   8
#     4  11  23  37  54  79 111 143 175 218 273 324
#     4   9  17  33  57  81 105 137 177 220 267 317
#     4   9  18  33  55  81 110 140 174 216 264 319
#     4   9  19  37  59  80 105 141 181 218 259 311
#     4  11  22  35  54  79 109 142 180 223 265 313
#
# _framework density 19.354717999999998
#
# number of rings (size 3 to 8) (size 9 to 14) (size 15 to 20)
#    0.000    2.200    0.000    5.400    0.000    6.000 
#    0.000    1.000    0.000    2.400    0.000    0.000 
#    0.000    0.000    0.000    0.000    0.000    0.000 
#
# Total GULP energy -495522.963734 kJ/mol
# GULP energy per Si atom -12388.074093 kJ/mol
# Density = 1.931067 g / cm^3
# Si number density = 19.354718 Si / 1000 Ang^3
#
#
#
# Elastic Constant Matrix: (Units=GPa)
#
#
# Indices 1 2 3 4 5 6 
#
# 1 79.4300 43.3027 22.0084 0.0000 0.0000 0.0000
# 2 43.3027 127.2402 45.5844 0.0000 0.0000 0.0000
# 3 22.0084 45.5844 75.2655 0.0000 0.0000 0.0000
# 4 0.0000 0.0000 0.0000 34.0004 0.0000 0.0000
# 5 0.0000 0.0000 0.0000 0.0000 24.3713 0.0000
# 6 0.0000 0.0000 0.0000 0.0000 0.0000 19.7540
#
#
#
# Elastic Compliance Matrix: (Units=1/GPa)
#
#
# Indices 1 2 3 4 5 6 
#
# 1 0.015631 -0.004702 -0.001723 0.000000 0.000000 0.000000
# 2 -0.004702 0.011452 -0.005561 0.000000 0.000000 0.000000
# 3 -0.001723 -0.005561 0.017158 0.000000 0.000000 0.000000
# 4 0.000000 0.000000 0.000000 0.029411 0.000000 0.000000
# 5 0.000000 0.000000 0.000000 0.000000 0.041032 0.000000
# 6 0.000000 0.000000 0.000000 0.000000 0.000000 0.050623
#
#
# Mechanical properties :
#
#
# Convention : Reuss Voigt Hill
#
# Bulk Modulus (GPa) = 49.33677 55.96963 52.65320
# Shear Modulus (GPa) = 25.50588 27.02781 26.26684
#
# Velocity S-wave (km/s) = 3.63411 3.74096 3.68792
# Velocity P-wave (km/s) = 6.56926 6.90219 6.73778
#
# Compressibility (1/GPa) = 0.02026886
#
# Stress axis : x y z
#
# Youngs Moduli (GPa) = 63.97736 87.32436 58.28263
#
# Poissons Ratio (x) = 0.41062 0.10040
# Poissons Ratio (y) = 0.30084 0.32409
# Poissons Ratio (z) = 0.11021 0.48558
#
# Static dielectric constant tensor:
#      x y z
#    x 3.644220 0.000000 0.000000 
#    y 0.000000 3.260550 0.000000 
#    z 0.000000 0.000000 3.800320 
# 
# 
# High freq. dielectric constant tensor:
#      x y z
#    x 1.752740 0.000000 0.000000 
#    y 0.000000 1.727790 0.000000 
#    z 0.000000 0.000000 1.766120 
# 
# From -- ./inp_files/22441.got.cif
#   From: 2010.03.12/outbox.cif.g09.slc.cpg/sg53_12_cif.got.tgz:22441.got - 2010.04.16 14:36:59.
