data_PCOD8222812
_publ_section_title
;
Structure prediction by ZEFSAII (Michael W. Deem and Ramdas Pophale) SiO2 
 PCOD8222812
Probable space group: P C C A
;
_chemical_formula_sum "Si O2"
_cell_formula_units_Z 60
_cell_length_a 25.916382
_cell_length_b 10.840693
_cell_length_c 11.263422
_cell_angle_alpha 90.000000
_cell_angle_beta 90.000000
_cell_angle_gamma 90.000000
_cell_volume 3164.475767
_symmetry_space_group_name_H-M "P C C A"
_symmetry_group_IT_number 54
_symmetry_cell_setting 'orthorhombic'
loop_
_space_group_symop_operation_xyz
x,y,z
1/2-x,-y,z
1/2+x,-y,1/2-z
-x,y,1/2-z
-x,-y,-z
1/2+x,y,-z
1/2-x,y,1/2+z
x,-y,1/2+z
loop_
_atom_site_type_symbol
_atom_site_label
_atom_site_fract_x
_atom_site_fract_y
_atom_site_fract_z
Si Si1 0.365114 0.339375 0.129921
Si Si2 0.000000 0.730129 0.750000
Si Si3 0.183394 0.615953 0.880966
Si Si4 0.701727 0.331369 0.145315
Si Si5 0.114147 0.785459 0.480404
Si Si6 0.038085 0.055517 0.098036
Si Si7 0.100665 0.606466 0.690067
Si Si8 0.555960 0.818963 0.762135
O O1 0.317860 0.313310 0.220095
O O2 0.395583 0.461846 0.167584
O O3 0.409159 0.234760 0.132269
O O4 0.342508 0.334460 0.999445
O O5 0.009737 0.818700 0.637278
O O6 0.049483 0.640995 0.765457
O O7 0.237121 0.687394 0.860370
O O8 0.189037 0.469606 0.897614
O O9 0.149339 0.651950 0.767276
O O10 0.674396 0.230947 0.057122
O O11 0.095624 0.910662 0.546858
O O12 0.099993 0.669402 0.561788
O O13 0.082613 0.783807 0.359682
O O14 0.048187 0.964478 0.208866
O O15 0.000000 0.000000 0.000000
O O16 0.500000 0.756276 0.750000
#
# Coordination Sequence:
#
# PCOD8222812 Si02
#       8
#     8   4   8   8   8   8   8   8
#     4  10  22  36  55  89 121 156 195 239 299 368
#     4  10  22  36  54  84 116 150 194 244 298 354
#     4  10  20  35  59  86 124 155 200 232 293 376
#     4   9  20  35  58  85 117 158 191 247 296 345
#     4  10  20  38  59  86 120 146 203 258 290 357
#     4  11  20  37  61  84 109 156 207 248 294 355
#     4  10  22  36  55  90 121 158 191 240 307 358
#     4  11  22  38  58  87 118 160 201 241 304 351
#
# _framework density 18.960487000000001
#
# number of rings (size 3 to 8) (size 9 to 14) (size 15 to 20)
#    0.000    1.867    3.333    0.000    4.667    1.067 
#    0.000    1.333    0.000    0.800    0.000    0.000 
#    0.000    0.000    0.000    0.000    0.000    0.000 
#
# Total GULP energy -743496.974933 kJ/mol
# GULP energy per Si atom -12391.616249 kJ/mol
# Density = 1.891733 g / cm^3
# Si number density = 18.960487 Si / 1000 Ang^3
#
#
#
# Elastic Constant Matrix: (Units=GPa)
#
#
# Indices 1 2 3 4 5 6 
#
# 1 147.9447 48.4639 38.9777 0.0000 0.0000 0.0000
# 2 48.4639 57.6499 26.4638 0.0000 0.0000 0.0000
# 3 38.9777 26.4638 81.8729 0.0000 0.0000 0.0000
# 4 0.0000 0.0000 0.0000 28.1401 0.0000 0.0000
# 5 0.0000 0.0000 0.0000 0.0000 27.4936 0.0000
# 6 0.0000 0.0000 0.0000 0.0000 0.0000 28.2121
#
#
#
# Elastic Compliance Matrix: (Units=1/GPa)
#
#
# Indices 1 2 3 4 5 6 
#
# 1 0.009691 -0.007079 -0.002325 0.000000 0.000000 0.000000
# 2 -0.007079 0.025540 -0.004885 0.000000 0.000000 0.000000
# 3 -0.002325 -0.004885 0.014900 0.000000 0.000000 0.000000
# 4 0.000000 0.000000 0.000000 0.035536 0.000000 0.000000
# 5 0.000000 0.000000 0.000000 0.000000 0.036372 0.000000
# 6 0.000000 0.000000 0.000000 0.000000 0.000000 0.035446
#
#
# Mechanical properties :
#
#
# Convention : Reuss Voigt Hill
#
# Bulk Modulus (GPa) = 46.40042 57.25315 51.82679
# Shear Modulus (GPa) = 25.87343 28.33997 27.10670
#
# Velocity S-wave (km/s) = 3.69805 3.87031 3.78516
# Velocity P-wave (km/s) = 6.53907 7.08759 6.81885
#
# Compressibility (1/GPa) = 0.02155153
#
# Stress axis : x y z
#
# Youngs Moduli (GPa) = 103.18852 39.15455 67.11373
#
# Poissons Ratio (x) = 0.27719 0.15607
# Poissons Ratio (y) = 0.73051 0.32785
# Poissons Ratio (z) = 0.23995 0.19127
#
# Static dielectric constant tensor:
#      x y z
#    x 3.782230 0.000000 0.000000 
#    y 0.000000 3.533820 0.000000 
#    z 0.000000 0.000000 3.532000 
# 
# 
# High freq. dielectric constant tensor:
#      x y z
#    x 1.740040 0.000000 0.000000 
#    y 0.000000 1.709620 0.000000 
#    z 0.000000 0.000000 1.746730 
# 
# From -- ./inp_files/9602.got.cif
#   From: 2010.03.12/outbox.cif.g09.slc.cpg/sg54_5_cif.got.tgz:9602.got - 2010.04.16 15:00:50.
