data_PCOD8222975
_publ_section_title
;
Structure prediction by ZEFSAII (Michael W. Deem and Ramdas Pophale) SiO2 
 PCOD8222975
Probable space group: P C C A
;
_chemical_formula_sum "Si O2"
_cell_formula_units_Z 52
_cell_length_a 8.337510
_cell_length_b 20.757389
_cell_length_c 13.968482
_cell_angle_alpha 90.000000
_cell_angle_beta 90.000000
_cell_angle_gamma 90.000000
_cell_volume 2417.454476
_symmetry_space_group_name_H-M "P C C A"
_symmetry_group_IT_number 54
_symmetry_cell_setting 'orthorhombic'
loop_
_space_group_symop_operation_xyz
x,y,z
1/2-x,-y,z
1/2+x,-y,1/2-z
-x,y,1/2-z
-x,-y,-z
1/2+x,y,-z
1/2-x,y,1/2+z
x,-y,1/2+z
loop_
_atom_site_type_symbol
_atom_site_label
_atom_site_fract_x
_atom_site_fract_y
_atom_site_fract_z
Si Si1 0.297062 0.641192 0.533763
Si Si2 0.475633 0.394444 0.862977
Si Si3 0.222709 0.074735 0.894421
Si Si4 0.686837 0.783086 0.898824
Si Si5 0.975910 0.859353 0.954114
Si Si6 0.000000 0.850733 0.250000
Si Si7 0.578077 0.469062 0.343361
O O1 0.117919 0.631323 0.570020
O O2 0.317932 0.635835 0.416670
O O3 0.350485 0.710019 0.573097
O O4 0.412023 0.585213 0.575973
O O5 0.500000 0.374056 0.750000
O O6 0.462695 0.471690 0.873130
O O7 0.399182 0.106971 0.881711
O O8 0.099369 0.102166 0.817756
O O9 0.250000 0.000000 0.878104
O O10 0.145915 0.088062 0.999510
O O11 0.874329 0.802352 0.904024
O O12 0.627427 0.800665 0.793704
O O13 0.581491 0.827399 0.965504
O O14 0.750000 0.500000 0.317346
O O15 0.500000 0.435768 0.250000
#
# Coordination Sequence:
#
# PCOD8222975 Si02
#       7
#     8   8   8   8   8   4   8
#     4  11  22  39  65  87 124 173 214 260 335 394
#     4  10  23  43  60  95 128 159 223 280 325 391
#     4  10  20  38  64  91 121 165 211 260 317 384
#     4  10  21  40  57  86 122 167 208 258 320 391
#     4   9  20  39  61  84 123 162 209 262 313 371
#     4  10  24  38  54  94 134 152 212 268 310 380
#     4   9  20  37  60  91 126 164 217 278 334 390
#
# _framework density 21.51023
#
# number of rings (size 3 to 8) (size 9 to 14) (size 15 to 20)
#    0.000    2.154    0.000    1.846    1.077    5.538 
#   11.077    5.385    0.000    0.000    0.000    0.000 
#    0.000    0.000    0.000    0.000    0.000    0.000 
#
# Total GULP energy -644289.315199 kJ/mol
# GULP energy per Si atom -12390.179138 kJ/mol
# Density = 2.146127 g / cm^3
# Si number density = 21.510230 Si / 1000 Ang^3
#
#
#
# Elastic Constant Matrix: (Units=GPa)
#
#
# Indices 1 2 3 4 5 6 
#
# 1 100.6651 30.4764 48.8098 0.0000 0.0000 0.0000
# 2 30.4764 122.3743 38.2119 0.0000 0.0000 0.0000
# 3 48.8098 38.2119 104.4782 0.0000 0.0000 0.0000
# 4 0.0000 0.0000 0.0000 11.1172 0.0000 0.0000
# 5 0.0000 0.0000 0.0000 0.0000 28.6570 0.0000
# 6 0.0000 0.0000 0.0000 0.0000 0.0000 22.3324
#
#
#
# Elastic Compliance Matrix: (Units=1/GPa)
#
#
# Indices 1 2 3 4 5 6 
#
# 1 0.013090 -0.001525 -0.005558 0.000000 0.000000 0.000000
# 2 -0.001525 0.009403 -0.002727 0.000000 0.000000 0.000000
# 3 -0.005558 -0.002727 0.013165 0.000000 0.000000 0.000000
# 4 0.000000 0.000000 0.000000 0.089951 0.000000 0.000000
# 5 0.000000 0.000000 0.000000 0.000000 0.034895 0.000000
# 6 0.000000 0.000000 0.000000 0.000000 0.000000 0.044778
#
#
# Mechanical properties :
#
#
# Convention : Reuss Voigt Hill
#
# Bulk Modulus (GPa) = 62.34460 62.50152 62.42306
# Shear Modulus (GPa) = 21.71576 26.42262 24.06919
#
# Velocity S-wave (km/s) = 3.18080 3.50862 3.34872
# Velocity P-wave (km/s) = 6.52201 6.74786 6.63589
#
# Compressibility (1/GPa) = 0.01603988
#
# Stress axis : x y z
#
# Youngs Moduli (GPa) = 76.39192 106.35164 75.95792
#
# Poissons Ratio (x) = 0.16214 0.42217
# Poissons Ratio (y) = 0.11647 0.20712
# Poissons Ratio (z) = 0.42458 0.28999
#
# Static dielectric constant tensor:
#      x y z
#    x 4.323370 0.000000 0.000000 
#    y 0.000000 3.793420 0.000000 
#    z 0.000000 0.000000 3.994440 
# 
# 
# High freq. dielectric constant tensor:
#      x y z
#    x 1.852960 0.000000 0.000000 
#    y 0.000000 1.836910 0.000000 
#    z 0.000000 0.000000 1.831890 
# 
# From -- ./inp_files/11842.got.cif
#   From: 2010.03.12/outbox.cif.g09.slc.cpg/sg54_6_cif.got.tgz:11842.got - 2010.04.16 15:00:50.
