data_PCOD8222327
_publ_section_title
;
Structure prediction by ZEFSAII (Michael W. Deem and Ramdas Pophale) SiO2 
 PCOD8222327
Probable space group: P C C A
;
_chemical_formula_sum "Si O2"
_cell_formula_units_Z 56
_cell_length_a 17.353164
_cell_length_b 30.931478
_cell_length_c 5.251443
_cell_angle_alpha 90.000000
_cell_angle_beta 90.000000
_cell_angle_gamma 90.000000
_cell_volume 2818.759348
_symmetry_space_group_name_H-M "P C C A"
_symmetry_group_IT_number 54
_symmetry_cell_setting 'orthorhombic'
loop_
_space_group_symop_operation_xyz
x,y,z
1/2-x,-y,z
1/2+x,-y,1/2-z
-x,y,1/2-z
-x,-y,-z
1/2+x,y,-z
1/2-x,y,1/2+z
x,-y,1/2+z
loop_
_atom_site_type_symbol
_atom_site_label
_atom_site_fract_x
_atom_site_fract_y
_atom_site_fract_z
Si Si1 0.952954 0.573246 0.501032
Si Si2 0.949283 0.117504 0.997742
Si Si3 0.203793 0.274328 0.482842
Si Si4 0.217012 0.451829 0.501202
Si Si5 0.702830 0.172830 0.509376
Si Si6 0.413950 0.981311 0.506508
Si Si7 0.452591 0.674115 0.499113
O O1 0.874773 0.546082 0.498388
O O2 0.931908 0.623644 0.507387
O O3 0.000000 0.560653 0.250000
O O4 0.000000 0.559214 0.750000
O O5 0.000000 0.127918 0.750000
O O6 0.880125 0.151010 0.011362
O O7 0.913176 0.070032 0.978249
O O8 0.000000 0.122238 0.250000
O O9 0.257027 0.288214 0.718857
O O10 0.186854 0.223622 0.490532
O O11 0.124658 0.299134 0.507234
O O12 0.250000 0.500000 0.501092
O O13 0.249973 0.427234 0.251161
O O14 0.749657 0.158429 0.258669
O O15 0.500000 0.000000 0.500000
O O16 0.370739 0.001563 0.752652
O O17 0.500000 0.687817 0.250000
O O18 0.500000 0.686218 0.750000
#
# Coordination Sequence:
#
# PCOD8222327 Si02
#       7
#     8   8   8   8   8   8   8
#     4  10  21  38  58  83 115 151 184 228 292 345
#     4  12  21  33  59  88 101 139 193 229 268 322
#     4  10  21  38  59  81 110 153 190 216 270 340
#     4  10  21  38  56  81 112 145 191 241 278 320
#     4  10  23  41  55  77 119 154 176 221 281 336
#     4  10  16  30  49  78 105 131 165 234 275 309
#     4  10  21  36  58  87 117 144 180 237 287 323
#
# _framework density 19.866897999999999
#
# number of rings (size 3 to 8) (size 9 to 14) (size 15 to 20)
#    0.000    1.714    2.857    2.571    0.000    2.286 
#    0.000    8.571    0.000    2.571    0.000    0.000 
#    0.000    0.000    0.000    0.000    0.000    0.000 
#
# Total GULP energy -694434.932536 kJ/mol
# GULP energy per Si atom -12400.623795 kJ/mol
# Density = 1.982168 g / cm^3
# Si number density = 19.866898 Si / 1000 Ang^3
#
#
#
# Elastic Constant Matrix: (Units=GPa)
#
#
# Indices 1 2 3 4 5 6 
#
# 1 120.4083 47.9952 47.1035 0.0000 0.0000 0.0000
# 2 47.9952 47.8987 21.8822 0.0000 0.0000 0.0000
# 3 47.1035 21.8822 177.9147 0.0000 0.0000 0.0000
# 4 0.0000 0.0000 0.0000 52.5911 0.0000 0.0000
# 5 0.0000 0.0000 0.0000 0.0000 25.7200 0.0000
# 6 0.0000 0.0000 0.0000 0.0000 0.0000 -10.0880
#
#
#
# Elastic Compliance Matrix: (Units=1/GPa)
#
#
# Indices 1 2 3 4 5 6 
#
# 1 0.014590 -0.013620 -0.002188 0.000000 0.000000 0.000000
# 2 -0.013620 0.034835 -0.000679 0.000000 0.000000 0.000000
# 3 -0.002188 -0.000679 0.006283 0.000000 0.000000 0.000000
# 4 0.000000 0.000000 0.000000 0.019015 0.000000 0.000000
# 5 0.000000 0.000000 0.000000 0.000000 0.038880 0.000000
# 6 0.000000 0.000000 0.000000 0.000000 0.000000 -0.099128
#
#
# Mechanical properties :
#
#
# Convention : Reuss Voigt Hill
#
# Bulk Modulus (GPa) = 43.98327 64.46484 54.22406
# Shear Modulus (GPa) = 90.86803 28.92734 59.89768
#
# Velocity S-wave (km/s) = 6.77035 3.81997 5.49681
# Velocity P-wave (km/s) = 9.12710 7.20937 8.22432
#
# Compressibility (1/GPa) = 0.02273592
#
# Stress axis : x y z
#
# Youngs Moduli (GPa) = 68.54138 28.70713 159.15243
#
# Poissons Ratio (x) = 0.39098 0.34815
# Poissons Ratio (y) = 0.93352 0.10799
# Poissons Ratio (z) = 0.14994 0.01948
#
# Static dielectric constant tensor:
#      x y z
#    x 3.327960 0.000000 0.000000 
#    y 0.000000 3.458090 0.000000 
#    z 0.000000 0.000000 1.878050 
# 
# 
# High freq. dielectric constant tensor:
#      x y z
#    x 1.759720 0.000000 0.000000 
#    y 0.000000 1.761490 0.000000 
#    z 0.000000 0.000000 1.811920 
# 
# From -- ./inp_files/734.got.cif
#   From: 2010.03.12/outbox.cif.g09.slc.cpg/sg54_1_cif.got.tgz:734.got - 2010.04.16 15:00:50.
