data_PCOD8222504
_publ_section_title
;
Structure prediction by ZEFSAII (Michael W. Deem and Ramdas Pophale) SiO2 
 PCOD8222504
Probable space group: P C C A
;
_chemical_formula_sum "Si O2"
_cell_formula_units_Z 60
_cell_length_a 12.593766
_cell_length_b 14.532009
_cell_length_c 16.374092
_cell_angle_alpha 90.000000
_cell_angle_beta 90.000000
_cell_angle_gamma 90.000000
_cell_volume 2996.667128
_symmetry_space_group_name_H-M "P C C A"
_symmetry_group_IT_number 54
_symmetry_cell_setting 'orthorhombic'
loop_
_space_group_symop_operation_xyz
x,y,z
1/2-x,-y,z
1/2+x,-y,1/2-z
-x,y,1/2-z
-x,-y,-z
1/2+x,y,-z
1/2-x,y,1/2+z
x,-y,1/2+z
loop_
_atom_site_type_symbol
_atom_site_label
_atom_site_fract_x
_atom_site_fract_y
_atom_site_fract_z
Si Si1 0.968059 0.620571 0.921940
Si Si2 0.786173 0.098426 0.640857
Si Si3 0.372758 0.232133 0.936614
Si Si4 0.238699 0.696854 0.085690
Si Si5 0.155427 0.149801 0.686294
Si Si6 0.970190 0.412817 0.895144
Si Si7 0.500000 0.298388 0.250000
Si Si8 0.004325 0.906245 0.051323
O O1 0.851840 0.653410 0.899227
O O2 0.982354 0.521476 0.880704
O O3 0.056675 0.692160 0.887979
O O4 0.980373 0.615704 0.019096
O O5 0.689805 0.169093 0.627099
O O6 0.801024 0.089727 0.738741
O O7 0.891137 0.124208 0.589121
O O8 0.750000 0.000000 0.607213
O O9 0.284479 0.283433 0.990751
O O10 0.454629 0.175332 0.993755
O O11 0.241516 0.796818 0.130939
O O12 0.151057 0.622502 0.115264
O O13 0.083852 0.083469 0.628849
O O14 0.096557 0.234374 0.727596
O O15 0.038085 0.362155 0.825248
O O16 0.000000 0.000000 0.000000
#
# Coordination Sequence:
#
# PCOD8222504 Si02
#       8
#     8   8   8   8   8   8   4   8
#     4  10  19  38  58  88 126 155 205 258 308 366
#     4  12  23  41  60  90 126 156 205 260 312 383
#     4  10  22  36  61  91 114 163 205 250 316 363
#     4   9  19  37  61  88 117 160 208 247 305 376
#     4  10  22  40  64  89 117 163 202 251 316 371
#     4   9  20  34  62  90 117 164 200 255 312 366
#     4  10  18  38  64  84 116 158 206 236 306 370
#     4  11  21  42  66  90 117 158 212 259 305 371
#
# _framework density 20.022245000000002
#
# number of rings (size 3 to 8) (size 9 to 14) (size 15 to 20)
#    0.000    1.867    2.667    2.000    1.867    0.000 
#    9.600    0.000    0.000    0.000    0.000    0.000 
#    0.000    0.000    0.000    0.000    0.000    0.000 
#
# Total GULP energy -743709.885503 kJ/mol
# GULP energy per Si atom -12395.164758 kJ/mol
# Density = 1.997667 g / cm^3
# Si number density = 20.022245 Si / 1000 Ang^3
#
#
#
# Elastic Constant Matrix: (Units=GPa)
#
#
# Indices 1 2 3 4 5 6 
#
# 1 78.3208 36.5743 31.1926 0.0000 0.0000 0.0000
# 2 36.5743 111.9898 32.4340 0.0000 0.0000 0.0000
# 3 31.1926 32.4340 74.9875 0.0000 0.0000 0.0000
# 4 0.0000 0.0000 0.0000 33.0265 0.0000 0.0000
# 5 0.0000 0.0000 0.0000 0.0000 21.8855 0.0000
# 6 0.0000 0.0000 0.0000 0.0000 0.0000 27.5718
#
#
#
# Elastic Compliance Matrix: (Units=1/GPa)
#
#
# Indices 1 2 3 4 5 6 
#
# 1 0.016693 -0.003933 -0.005242 0.000000 0.000000 0.000000
# 2 -0.003933 0.011135 -0.003180 0.000000 0.000000 0.000000
# 3 -0.005242 -0.003180 0.016892 0.000000 0.000000 0.000000
# 4 0.000000 0.000000 0.000000 0.030279 0.000000 0.000000
# 5 0.000000 0.000000 0.000000 0.000000 0.045692 0.000000
# 6 0.000000 0.000000 0.000000 0.000000 0.000000 0.036269
#
#
# Mechanical properties :
#
#
# Convention : Reuss Voigt Hill
#
# Bulk Modulus (GPa) = 49.98039 51.74442 50.86241
# Shear Modulus (GPa) = 26.54775 27.50325 27.02550
#
# Velocity S-wave (km/s) = 3.64526 3.71028 3.67791
# Velocity P-wave (km/s) = 6.53711 6.65240 6.59501
#
# Compressibility (1/GPa) = 0.02000785
#
# Stress axis : x y z
#
# Youngs Moduli (GPa) = 59.90661 89.80758 59.20078
#
# Poissons Ratio (x) = 0.35324 0.31035
# Poissons Ratio (y) = 0.23563 0.18826
# Poissons Ratio (z) = 0.31405 0.28559
#
# Static dielectric constant tensor:
#      x y z
#    x 3.491990 0.000000 0.000000 
#    y 0.000000 3.878040 0.000000 
#    z 0.000000 0.000000 3.961590 
# 
# 
# High freq. dielectric constant tensor:
#      x y z
#    x 1.768400 0.000000 0.000000 
#    y 0.000000 1.789240 0.000000 
#    z 0.000000 0.000000 1.768830 
# 
# From -- ./inp_files/17434.got.cif
#   From: 2010.03.12/outbox.cif.g09.slc.cpg/sg54_9_cif.got.tgz:17434.got - 2010.04.16 15:00:50.
