data_PCOD8222956
_publ_section_title
;
Structure prediction by ZEFSAII (Michael W. Deem and Ramdas Pophale) SiO2 
 PCOD8222956
Probable space group: P C C A
;
_chemical_formula_sum "Si O2"
_cell_formula_units_Z 48
_cell_length_a 13.347002
_cell_length_b 7.685101
_cell_length_c 23.138443
_cell_angle_alpha 90.000000
_cell_angle_beta 90.000000
_cell_angle_gamma 90.000000
_cell_volume 2373.380866
_symmetry_space_group_name_H-M "P C C A"
_symmetry_group_IT_number 54
_symmetry_cell_setting 'orthorhombic'
loop_
_space_group_symop_operation_xyz
x,y,z
1/2-x,-y,z
1/2+x,-y,1/2-z
-x,y,1/2-z
-x,-y,-z
1/2+x,y,-z
1/2-x,y,1/2+z
x,-y,1/2+z
loop_
_atom_site_type_symbol
_atom_site_label
_atom_site_fract_x
_atom_site_fract_y
_atom_site_fract_z
Si Si1 0.032628 0.123929 0.184997
Si Si2 0.879212 0.822994 0.593019
Si Si3 0.453470 0.675663 0.019676
Si Si4 0.839001 0.781286 0.093823
Si Si5 0.495506 0.270302 0.181127
Si Si6 0.141729 0.422233 0.136556
O O1 0.129628 0.248284 0.176638
O O2 0.000000 0.121083 0.250000
O O3 0.945327 0.222908 0.149225
O O4 0.049268 0.922524 0.165069
O O5 0.776202 0.708026 0.591226
O O6 0.951867 0.797008 0.537737
O O7 0.838843 0.014202 0.599921
O O8 0.375944 0.642556 0.071445
O O9 0.500000 0.500000 0.000000
O O10 0.393747 0.751489 0.966420
O O11 0.896058 0.705029 0.150206
O O12 0.500000 0.295289 0.250000
O O13 0.430282 0.420805 0.153611
O O14 0.250000 0.500000 0.144948
#
# Coordination Sequence:
#
# PCOD8222956 Si02
#       6
#     8   8   8   8   8   8
#     4   9  20  41  64  88 123 160 201 250 302 358
#     4   9  21  37  59  89 113 155 201 248 300 360
#     4  11  22  37  57  81 119 154 196 247 297 356
#     4  10  20  38  61  85 118 152 203 248 300 363
#     4  10  21  40  64  89 121 160 201 252 305 355
#     4  11  24  39  57  90 124 158 203 247 300 362
#
# _framework density 20.224314
#
# number of rings (size 3 to 8) (size 9 to 14) (size 15 to 20)
#    0.000    2.000    1.667    1.000    2.333    2.000 
#    0.000    3.333    0.000    0.000    0.000    0.000 
#    0.000    0.000    0.000    0.000    0.000    0.000 
#
# Total GULP energy -594704.696097 kJ/mol
# GULP energy per Si atom -12389.681169 kJ/mol
# Density = 2.017828 g / cm^3
# Si number density = 20.224314 Si / 1000 Ang^3
#
#
#
# Elastic Constant Matrix: (Units=GPa)
#
#
# Indices 1 2 3 4 5 6 
#
# 1 119.5823 19.5001 42.3646 0.0000 0.0000 0.0000
# 2 19.5001 51.6135 14.7035 0.0000 0.0000 0.0000
# 3 42.3646 14.7035 117.1628 0.0000 0.0000 0.0000
# 4 0.0000 0.0000 0.0000 82.8145 0.0000 0.0000
# 5 0.0000 0.0000 0.0000 0.0000 14.9445 0.0000
# 6 0.0000 0.0000 0.0000 0.0000 0.0000 25.1400
#
#
#
# Elastic Compliance Matrix: (Units=1/GPa)
#
#
# Indices 1 2 3 4 5 6 
#
# 1 0.009978 -0.002844 -0.003251 0.000000 0.000000 0.000000
# 2 -0.002844 0.020904 -0.001595 0.000000 0.000000 0.000000
# 3 -0.003251 -0.001595 0.009911 0.000000 0.000000 0.000000
# 4 0.000000 0.000000 0.000000 0.012075 0.000000 0.000000
# 5 0.000000 0.000000 0.000000 0.000000 0.066914 0.000000
# 6 0.000000 0.000000 0.000000 0.000000 0.000000 0.039777
#
#
# Mechanical properties :
#
#
# Convention : Reuss Voigt Hill
#
# Bulk Modulus (GPa) = 39.35026 49.05501 44.20263
# Shear Modulus (GPa) = 27.26142 38.69915 32.98028
#
# Velocity S-wave (km/s) = 3.67543 4.37910 4.04260
# Velocity P-wave (km/s) = 6.12461 7.06235 6.61013
#
# Compressibility (1/GPa) = 0.02541280
#
# Stress axis : x y z
#
# Youngs Moduli (GPa) = 100.22160 47.83881 100.89962
#
# Poissons Ratio (x) = 0.13604 0.32803
# Poissons Ratio (y) = 0.28499 0.16094
# Poissons Ratio (z) = 0.32582 0.07631
#
# Static dielectric constant tensor:
#      x y z
#    x 4.834970 0.000000 0.000000 
#    y 0.000000 3.954390 0.000000 
#    z 0.000000 0.000000 3.650950 
# 
# 
# High freq. dielectric constant tensor:
#      x y z
#    x 1.783800 0.000000 0.000000 
#    y 0.000000 1.798950 0.000000 
#    z 0.000000 0.000000 1.793310 
# 
# From -- ./inp_files/24063.got.cif
#   From: 2010.03.12/outbox.cif.g09.slc.cpg/sg54_13_cif.got.tgz:24063.got - 2010.04.16 15:00:50.
