data_PCOD8222659
_publ_section_title
;
Structure prediction by ZEFSAII (Michael W. Deem and Ramdas Pophale) SiO2 
 PCOD8222659
Probable space group: P C C A
;
_chemical_formula_sum "Si O2"
_cell_formula_units_Z 60
_cell_length_a 9.656184
_cell_length_b 15.253068
_cell_length_c 21.115991
_cell_angle_alpha 90.000000
_cell_angle_beta 90.000000
_cell_angle_gamma 90.000000
_cell_volume 3110.098955
_symmetry_space_group_name_H-M "P C C A"
_symmetry_group_IT_number 54
_symmetry_cell_setting 'orthorhombic'
loop_
_space_group_symop_operation_xyz
x,y,z
1/2-x,-y,z
1/2+x,-y,1/2-z
-x,y,1/2-z
-x,-y,-z
1/2+x,y,-z
1/2-x,y,1/2+z
x,-y,1/2+z
loop_
_atom_site_type_symbol
_atom_site_label
_atom_site_fract_x
_atom_site_fract_y
_atom_site_fract_z
Si Si1 0.000000 0.460629 0.250000
Si Si2 0.986667 0.317223 0.098091
Si Si3 0.258951 0.762060 0.832001
Si Si4 0.033972 0.194511 0.514665
Si Si5 0.587041 0.493008 0.117126
Si Si6 0.766885 0.102618 0.565121
Si Si7 0.964021 0.317392 0.873742
Si Si8 0.695145 0.686218 0.295999
O O1 0.946683 0.518913 0.191924
O O2 0.867139 0.401318 0.266066
O O3 0.092421 0.278306 0.150016
O O4 0.831633 0.301459 0.123313
O O5 0.995893 0.422720 0.089389
O O6 0.023577 0.267556 0.033797
O O7 0.249075 0.858323 0.863798
O O8 0.413921 0.725961 0.833137
O O9 0.208666 0.760722 0.758907
O O10 0.914310 0.128316 0.536051
O O11 0.152861 0.137432 0.483392
O O12 0.091965 0.247926 0.574705
O O13 0.750000 0.500000 0.102501
O O14 0.519972 0.404116 0.088871
O O15 0.750000 0.000000 0.572056
O O16 0.841382 0.340082 0.825834
#
# Coordination Sequence:
#
# PCOD8222659 Si02
#       8
#     4   8   8   8   8   8   8   8
#     4  10  22  30  52  78 118 146 206 246 278 332
#     4  10  20  36  58  78 117 161 192 245 285 339
#     4  10  19  36  55  83 113 145 192 239 302 354
#     4  10  22  40  60  89 118 149 200 236 293 363
#     4  11  21  33  51  80 115 158 202 239 287 330
#     4  10  21  39  66  88 112 148 188 244 300 361
#     4  11  23  33  57  84 114 161 199 246 285 329
#     4  11  19  37  54  83 112 153 198 241 292 338
#
# _framework density 19.291990999999999
#
# number of rings (size 3 to 8) (size 9 to 14) (size 15 to 20)
#    0.000    1.600    4.000    1.600    3.733    2.133 
#    0.000    0.000    0.000   16.000    0.000    0.000 
#    0.000    0.000    0.000    0.000    0.000    0.000 
#
# Total GULP energy -743840.983697 kJ/mol
# GULP energy per Si atom -12397.349728 kJ/mol
# Density = 1.924808 g / cm^3
# Si number density = 19.291991 Si / 1000 Ang^3
#
#
#
# Elastic Constant Matrix: (Units=GPa)
#
#
# Indices 1 2 3 4 5 6 
#
# 1 101.5781 42.0069 29.5833 0.0000 0.0000 0.0000
# 2 42.0069 125.6465 32.4330 0.0000 0.0000 0.0000
# 3 29.5833 32.4330 62.6472 0.0000 0.0000 0.0000
# 4 0.0000 0.0000 0.0000 21.9524 0.0000 0.0000
# 5 0.0000 0.0000 0.0000 0.0000 26.8005 0.0000
# 6 0.0000 0.0000 0.0000 0.0000 0.0000 21.6522
#
#
#
# Elastic Compliance Matrix: (Units=1/GPa)
#
#
# Indices 1 2 3 4 5 6 
#
# 1 0.012336 -0.003025 -0.004259 0.000000 0.000000 0.000000
# 2 -0.003025 0.009928 -0.003712 0.000000 0.000000 0.000000
# 3 -0.004259 -0.003712 0.019895 0.000000 0.000000 0.000000
# 4 0.000000 0.000000 0.000000 0.045553 0.000000 0.000000
# 5 0.000000 0.000000 0.000000 0.000000 0.037313 0.000000
# 6 0.000000 0.000000 0.000000 0.000000 0.000000 0.046185
#
#
# Mechanical properties :
#
#
# Convention : Reuss Voigt Hill
#
# Bulk Modulus (GPa) = 49.58329 55.32421 52.45375
# Shear Modulus (GPa) = 25.00954 26.47096 25.74025
#
# Velocity S-wave (km/s) = 3.60442 3.70823 3.65669
# Velocity P-wave (km/s) = 6.56352 6.86107 6.71394
#
# Compressibility (1/GPa) = 0.02016808
#
# Stress axis : x y z
#
# Youngs Moduli (GPa) = 81.06357 100.72371 50.26327
#
# Poissons Ratio (x) = 0.30467 0.21409
# Poissons Ratio (y) = 0.24520 0.18655
# Poissons Ratio (z) = 0.34528 0.37384
#
# Static dielectric constant tensor:
#      x y z
#    x 3.559620 0.000000 0.000000 
#    y 0.000000 3.318940 0.000000 
#    z 0.000000 0.000000 3.539600 
# 
# 
# High freq. dielectric constant tensor:
#      x y z
#    x 1.762390 0.000000 0.000000 
#    y 0.000000 1.724090 0.000000 
#    z 0.000000 0.000000 1.745160 
# 
# From -- ./inp_files/23650.got.cif
#   From: 2010.03.12/outbox.cif.g09.slc.cpg/sg54_12_cif.got.tgz:23650.got - 2010.04.16 15:00:50.
