data_PCOD8222567
_publ_section_title
;
Structure prediction by ZEFSAII (Michael W. Deem and Ramdas Pophale) SiO2 
 PCOD8222567
Probable space group: P C C A
;
_chemical_formula_sum "Si O2"
_cell_formula_units_Z 52
_cell_length_a 25.824953
_cell_length_b 10.909452
_cell_length_c 9.147202
_cell_angle_alpha 90.000000
_cell_angle_beta 90.000000
_cell_angle_gamma 90.000000
_cell_volume 2577.096882
_symmetry_space_group_name_H-M "P C C A"
_symmetry_group_IT_number 54
_symmetry_cell_setting 'orthorhombic'
loop_
_space_group_symop_operation_xyz
x,y,z
1/2-x,-y,z
1/2+x,-y,1/2-z
-x,y,1/2-z
-x,-y,-z
1/2+x,y,-z
1/2-x,y,1/2+z
x,-y,1/2+z
loop_
_atom_site_type_symbol
_atom_site_label
_atom_site_fract_x
_atom_site_fract_y
_atom_site_fract_z
Si Si1 0.250000 0.000000 0.077566
Si Si2 0.204786 0.842917 0.823063
Si Si3 0.397037 0.709815 0.389950
Si Si4 0.780866 0.612686 0.208128
Si Si5 0.980487 0.325117 0.897673
Si Si6 0.160723 0.493228 0.540676
Si Si7 0.941323 0.401281 0.372798
O O1 0.209147 0.068310 0.183428
O O2 0.281117 0.093875 0.976115
O O3 0.143872 0.810768 0.835466
O O4 0.245196 0.732293 0.797174
O O5 0.430377 0.745799 0.535061
O O6 0.364434 0.586032 0.411655
O O7 0.443670 0.676203 0.277321
O O8 0.750000 0.500000 0.276891
O O9 0.825017 0.610532 0.334744
O O10 0.796584 0.577812 0.041481
O O11 0.964495 0.463645 0.855916
O O12 0.000000 0.258038 0.750000
O O13 0.029775 0.324361 0.003701
O O14 0.120105 0.592852 0.597496
#
# Coordination Sequence:
#
# PCOD8222567 Si02
#       7
#     4   8   8   8   8   8   8
#     4  10  26  48  64  82 118 168 220 266 312 352
#     4  11  24  44  65  87 122 163 216 265 307 374
#     4  11  21  35  57  84 119 161 207 245 304 367
#     4  12  23  34  57  92 132 161 195 252 316 371
#     4  10  20  33  52  82 130 170 199 239 296 384
#     4  11  21  32  49  90 128 164 196 233 304 376
#     4  10  19  33  51  81 127 173 202 229 290 382
#
# _framework density 20.177744000000001
#
# number of rings (size 3 to 8) (size 9 to 14) (size 15 to 20)
#    0.000    1.231    3.077    4.615    6.462    0.000 
#    0.000    0.000    0.000    0.000    0.000    7.538 
#    0.000    0.000    0.000    0.000    0.000    0.000 
#
# Total GULP energy -644199.502860 kJ/mol
# GULP energy per Si atom -12388.451978 kJ/mol
# Density = 2.013182 g / cm^3
# Si number density = 20.177744 Si / 1000 Ang^3
#
#
#
# Elastic Constant Matrix: (Units=GPa)
#
#
# Indices 1 2 3 4 5 6 
#
# 1 102.8241 32.8854 58.9069 0.0000 0.0000 0.0000
# 2 32.8854 64.4864 41.6022 0.0000 0.0000 0.0000
# 3 58.9069 41.6022 138.8658 0.0000 0.0000 0.0000
# 4 0.0000 0.0000 0.0000 25.3110 0.0000 0.0000
# 5 0.0000 0.0000 0.0000 0.0000 35.6657 0.0000
# 6 0.0000 0.0000 0.0000 0.0000 0.0000 17.8791
#
#
#
# Elastic Compliance Matrix: (Units=1/GPa)
#
#
# Indices 1 2 3 4 5 6 
#
# 1 0.013629 -0.003992 -0.004586 0.000000 0.000000 0.000000
# 2 -0.003992 0.020392 -0.004416 0.000000 0.000000 0.000000
# 3 -0.004586 -0.004416 0.010469 0.000000 0.000000 0.000000
# 4 0.000000 0.000000 0.000000 0.039509 0.000000 0.000000
# 5 0.000000 0.000000 0.000000 0.000000 0.028038 0.000000
# 6 0.000000 0.000000 0.000000 0.000000 0.000000 0.055931
#
#
# Mechanical properties :
#
#
# Convention : Reuss Voigt Hill
#
# Bulk Modulus (GPa) = 54.04353 63.66281 58.85317
# Shear Modulus (GPa) = 24.98478 27.28995 26.13737
#
# Velocity S-wave (km/s) = 3.52267 3.68159 3.60301
# Velocity P-wave (km/s) = 6.58692 7.04923 6.82199
#
# Compressibility (1/GPa) = 0.01850360
#
# Stress axis : x y z
#
# Youngs Moduli (GPa) = 73.37261 49.03993 95.51814
#
# Poissons Ratio (x) = 0.19577 0.43800
# Poissons Ratio (y) = 0.29290 0.42177
# Poissons Ratio (z) = 0.33645 0.21654
#
# Static dielectric constant tensor:
#      x y z
#    x 4.155870 0.000000 0.000000 
#    y 0.000000 2.622380 0.000000 
#    z 0.000000 0.000000 3.968820 
# 
# 
# High freq. dielectric constant tensor:
#      x y z
#    x 1.799480 0.000000 0.000000 
#    y 0.000000 1.713140 0.000000 
#    z 0.000000 0.000000 1.818930 
# 
# From -- ./inp_files/5546.got.cif
#   From: 2010.03.12/outbox.cif.g09.slc.cpg/sg54_3_cif.got.tgz:5546.got - 2010.04.16 15:00:50.
