data_PCOD8222055
_publ_section_title
;
Structure prediction by ZEFSAII (Michael W. Deem and Ramdas Pophale) SiO2 
 PCOD8222055
Probable space group: P M N A
;
_chemical_formula_sum "Si O2"
_cell_formula_units_Z 56
_cell_length_a 14.279056
_cell_length_b 13.282225
_cell_length_c 14.585580
_cell_angle_alpha 90.000000
_cell_angle_beta 90.000000
_cell_angle_gamma 90.000000
_cell_volume 2766.266602
_symmetry_space_group_name_H-M "P M N A"
_symmetry_group_IT_number 53
_symmetry_cell_setting 'orthorhombic'
loop_
_space_group_symop_operation_xyz
x,y,z
1/2-x,-y,1/2+z
x,-y,-z
1/2-x,y,1/2-z
-x,-y,-z
1/2+x,y,1/2-z
-x,y,z
1/2+x,-y,1/2+z
loop_
_atom_site_type_symbol
_atom_site_label
_atom_site_fract_x
_atom_site_fract_y
_atom_site_fract_z
Si Si1 0.638543 0.752804 0.750000
Si Si2 0.250000 0.515107 0.354484
Si Si3 0.605808 0.016102 0.250000
Si Si4 0.104099 0.368440 0.072651
Si Si5 0.750000 0.717419 0.439976
Si Si6 0.895901 0.368440 0.427349
Si Si7 0.750000 0.050528 0.898928
O O1 0.750000 0.750665 0.750000
O O2 0.600503 0.864725 0.750000
O O3 0.596971 0.697593 0.662980
O O4 0.596971 0.697593 0.837020
O O5 0.250000 0.476795 0.250000
O O6 0.341183 0.472649 0.407076
O O7 0.250000 0.636054 0.357295
O O8 0.158818 0.472649 0.407076
O O9 0.500000 0.972140 0.250000
O O10 0.657882 0.981323 0.342753
O O11 0.657882 0.981323 0.157247
O O12 0.000000 0.395150 0.037831
O O13 0.156752 0.300050 0.998707
O O14 0.843248 0.699950 0.498707
O O15 0.750000 0.829289 0.402422
O O16 0.000000 0.395150 0.462169
O O17 0.750000 0.000000 0.000000
#
# Coordination Sequence:
#
# PCOD8222055 Si02
#       7
#     8   8   8   8   8   8   8
#     4  12  18  37  65  93 121 157 203 261 318 362
#     4  11  23  39  59  86 126 164 202 244 308 377
#     4  11  25  42  65  96 128 167 218 272 324 383
#     4  11  21  38  63  93 123 156 205 257 307 367
#     4  11  25  39  62  89 123 170 206 254 308 370
#     4  11  21  38  63  93 123 156 205 257 307 367
#     4  11  24  44  69  92 131 173 218 270 326 379
#
# _framework density 20.243891000000001
#
# number of rings (size 3 to 8) (size 9 to 14) (size 15 to 20)
#    0.000    0.857    5.714    4.714    2.000    4.000 
#    0.000    0.000    0.000    0.000    0.000    0.000 
#    0.000    0.000    0.000    0.000    0.000    0.000 
#
# Total GULP energy -694491.921879 kJ/mol
# GULP energy per Si atom -12401.641462 kJ/mol
# Density = 2.019782 g / cm^3
# Si number density = 20.243891 Si / 1000 Ang^3
#
#
#
# Elastic Constant Matrix: (Units=GPa)
#
#
# Indices 1 2 3 4 5 6 
#
# 1 188.0690 27.8641 40.0358 0.0000 0.0000 0.0000
# 2 27.8641 149.2886 29.1836 0.0000 0.0000 0.0000
# 3 40.0358 29.1836 97.6822 0.0000 0.0000 0.0000
# 4 0.0000 0.0000 0.0000 -62.4267 0.0000 0.0000
# 5 0.0000 0.0000 0.0000 0.0000 2.5889 0.0000
# 6 0.0000 0.0000 0.0000 0.0000 0.0000 11.5072
#
#
#
# Elastic Compliance Matrix: (Units=1/GPa)
#
#
# Indices 1 2 3 4 5 6 
#
# 1 0.005887 -0.000666 -0.002214 0.000000 0.000000 0.000000
# 2 -0.000666 0.007189 -0.001875 0.000000 0.000000 0.000000
# 3 -0.002214 -0.001875 0.011705 0.000000 0.000000 0.000000
# 4 0.000000 0.000000 0.000000 -0.016019 0.000000 0.000000
# 5 0.000000 0.000000 0.000000 0.000000 0.386258 0.000000
# 6 0.000000 0.000000 0.000000 0.000000 0.000000 0.086902
#
#
# Mechanical properties :
#
#
# Convention : Reuss Voigt Hill
#
# Bulk Modulus (GPa) = 65.48118 69.91189 67.69653
# Shear Modulus (GPa) = 10.07004 12.86431 11.46717
#
# Velocity S-wave (km/s) = 2.23275 2.52358 2.38261
# Velocity P-wave (km/s) = 6.25006 6.56514 6.40954
#
# Compressibility (1/GPa) = 0.01527156
#
# Stress axis : x y z
#
# Youngs Moduli (GPa) = 169.86089 139.09644 85.43498
#
# Poissons Ratio (x) = 0.09264 0.18915
# Poissons Ratio (y) = 0.11313 0.16018
# Poissons Ratio (z) = 0.37606 0.26079
#
# Static dielectric constant tensor:
#      x y z
#    x 3.849670 0.000000 0.000000 
#    y 0.000000 3.644920 0.000000 
#    z 0.000000 0.000000 3.735520 
# 
# 
# High freq. dielectric constant tensor:
#      x y z
#    x 1.796110 0.000000 0.000000 
#    y 0.000000 1.793960 0.000000 
#    z 0.000000 0.000000 1.794130 
# 
# From -- ./inp_files/22944.got.cif
#   From: 2010.03.12/outbox.cif.g09.slc.cpg/sg53_12_cif.got.tgz:22944.got - 2010.04.16 14:36:59.
