data_PCOD8222785
_publ_section_title
;
Structure prediction by ZEFSAII (Michael W. Deem and Ramdas Pophale) SiO2 
 PCOD8222785
Probable space group: P C C A
;
_chemical_formula_sum "Si O2"
_cell_formula_units_Z 48
_cell_length_a 17.567502
_cell_length_b 5.465876
_cell_length_c 24.629875
_cell_angle_alpha 90.000000
_cell_angle_beta 90.000000
_cell_angle_gamma 90.000000
_cell_volume 2365.004625
_symmetry_space_group_name_H-M "P C C A"
_symmetry_group_IT_number 54
_symmetry_cell_setting 'orthorhombic'
loop_
_space_group_symop_operation_xyz
x,y,z
1/2-x,-y,z
1/2+x,-y,1/2-z
-x,y,1/2-z
-x,-y,-z
1/2+x,y,-z
1/2-x,y,1/2+z
x,-y,1/2+z
loop_
_atom_site_type_symbol
_atom_site_label
_atom_site_fract_x
_atom_site_fract_y
_atom_site_fract_z
Si Si1 0.345930 0.364685 0.110373
Si Si2 0.924885 0.020792 0.537605
Si Si3 0.890445 0.737675 0.803810
Si Si4 0.250000 0.000000 0.675270
Si Si5 0.335039 0.476936 0.987480
Si Si6 0.007027 0.894487 0.145066
Si Si7 0.000000 0.417714 0.750000
O O1 0.355520 0.606026 0.144853
O O2 0.323845 0.444219 0.050977
O O3 0.423432 0.210957 0.109974
O O4 0.276668 0.215724 0.136024
O O5 0.880196 0.268934 0.521919
O O6 0.941793 0.047990 0.601813
O O7 0.877032 0.768182 0.534233
O O8 0.000000 0.000000 0.500000
O O9 0.920051 0.564203 0.755888
O O10 0.821540 0.920000 0.785811
O O11 0.967544 0.863005 0.824108
O O12 0.250000 0.500000 0.961565
O O13 0.980936 0.722566 0.194500
#
# Coordination Sequence:
#
# PCOD8222785 Si02
#       7
#     8   8   8   4   8   8   4
#     4  10  21  35  61  91 135 162 209 265 342 392
#     4  12  25  42  68 100 137 177 228 277 338 412
#     4  10  20  37  60  93 127 161 211 271 342 391
#     4  10  20  34  58  96 128 166 196 274 340 412
#     4  12  26  41  64  99 141 185 224 271 339 410
#     4  10  22  39  63  96 122 166 222 279 327 391
#     4  10  22  38  64  92 120 166 218 280 326 392
#
# _framework density 20.295943999999999
#
# number of rings (size 3 to 8) (size 9 to 14) (size 15 to 20)
#    0.000    1.333    1.667    4.000    9.333    0.000 
#    0.000    0.000    0.000    8.000    4.333    0.000 
#    0.000    0.000    0.000    0.000    0.000    0.000 
#
# Total GULP energy -594664.903222 kJ/mol
# GULP energy per Si atom -12388.852150 kJ/mol
# Density = 2.024975 g / cm^3
# Si number density = 20.295944 Si / 1000 Ang^3
#
#
#
# Elastic Constant Matrix: (Units=GPa)
#
#
# Indices 1 2 3 4 5 6 
#
# 1 128.7783 66.9158 57.9367 0.0000 0.0000 0.0000
# 2 66.9158 135.9807 41.1777 0.0000 0.0000 0.0000
# 3 57.9367 41.1777 102.8622 0.0000 0.0000 0.0000
# 4 0.0000 0.0000 0.0000 15.9225 0.0000 0.0000
# 5 0.0000 0.0000 0.0000 0.0000 17.7963 0.0000
# 6 0.0000 0.0000 0.0000 0.0000 0.0000 25.6877
#
#
#
# Elastic Compliance Matrix: (Units=1/GPa)
#
#
# Indices 1 2 3 4 5 6 
#
# 1 0.012477 -0.004565 -0.005200 0.000000 0.000000 0.000000
# 2 -0.004565 0.010039 -0.001447 0.000000 0.000000 0.000000
# 3 -0.005200 -0.001447 0.013230 0.000000 0.000000 0.000000
# 4 0.000000 0.000000 0.000000 0.062804 0.000000 0.000000
# 5 0.000000 0.000000 0.000000 0.000000 0.056191 0.000000
# 6 0.000000 0.000000 0.000000 0.000000 0.000000 0.038929
#
#
# Mechanical properties :
#
#
# Convention : Reuss Voigt Hill
#
# Bulk Modulus (GPa) = 75.07206 77.74239 76.40722
# Shear Modulus (GPa) = 22.67205 25.32071 23.99638
#
# Velocity S-wave (km/s) = 3.34589 3.53593 3.44222
# Velocity P-wave (km/s) = 7.21080 7.42011 7.31620
#
# Compressibility (1/GPa) = 0.01332054
#
# Stress axis : x y z
#
# Youngs Moduli (GPa) = 80.14802 99.61342 75.58542
#
# Poissons Ratio (x) = 0.45475 0.39305
# Poissons Ratio (y) = 0.36589 0.10940
# Poissons Ratio (z) = 0.41677 0.14418
#
# Static dielectric constant tensor:
#      x y z
#    x 3.828580 0.000000 0.000000 
#    y 0.000000 4.032720 0.000000 
#    z 0.000000 0.000000 3.444040 
# 
# 
# High freq. dielectric constant tensor:
#      x y z
#    x 1.799530 0.000000 0.000000 
#    y 0.000000 1.818520 0.000000 
#    z 0.000000 0.000000 1.764790 
# 
# From -- ./inp_files/24629.got.cif
#   From: 2010.03.12/outbox.cif.g09.slc.cpg/sg54_13_cif.got.tgz:24629.got - 2010.04.16 15:00:50.
