data_PCOD8222930
_publ_section_title
;
Structure prediction by ZEFSAII (Michael W. Deem and Ramdas Pophale) SiO2 
 PCOD8222930
Probable space group: P C C A
;
_chemical_formula_sum "Si O2"
_cell_formula_units_Z 44
_cell_length_a 8.706008
_cell_length_b 9.093057
_cell_length_c 29.858418
_cell_angle_alpha 90.000000
_cell_angle_beta 90.000000
_cell_angle_gamma 90.000000
_cell_volume 2363.718580
_symmetry_space_group_name_H-M "P C C A"
_symmetry_group_IT_number 54
_symmetry_cell_setting 'orthorhombic'
loop_
_space_group_symop_operation_xyz
x,y,z
1/2-x,-y,z
1/2+x,-y,1/2-z
-x,y,1/2-z
-x,-y,-z
1/2+x,y,-z
1/2-x,y,1/2+z
x,-y,1/2+z
loop_
_atom_site_type_symbol
_atom_site_label
_atom_site_fract_x
_atom_site_fract_y
_atom_site_fract_z
Si Si1 0.305369 0.151897 0.351022
Si Si2 0.591709 0.580318 0.704757
Si Si3 0.400641 0.597654 0.375794
Si Si4 0.750000 0.000000 0.990860
Si Si5 0.969389 0.150965 0.557878
Si Si6 0.428398 0.476176 0.047319
O O1 0.389896 0.254248 0.314517
O O2 0.152276 0.235574 0.368220
O O3 0.414511 0.104307 0.392614
O O4 0.250000 0.000000 0.327851
O O5 0.750000 0.500000 0.716567
O O6 0.500000 0.591812 0.750000
O O7 0.511585 0.475611 0.667107
O O8 0.250000 0.500000 0.385658
O O9 0.511524 0.599416 0.418303
O O10 0.620810 0.933816 0.958442
O O11 0.829785 0.875817 0.022470
O O12 0.015725 0.319225 0.564171
O O13 0.250000 0.500000 0.043608
O O14 0.500000 0.500000 0.000000
#
# Coordination Sequence:
#
# PCOD8222930 Si02
#       6
#     8   8   8   4   8   8
#     4  10  20  37  64  84 118 155 189 242 298 354
#     4   9  19  39  65  87 113 147 189 239 297 360
#     4   9  19  38  58  85 111 152 201 233 299 349
#     4  10  24  34  60  80 118 168 202 232 300 352
#     4  11  21  40  53  84 116 161 202 242 290 352
#     4  12  24  34  55  82 120 156 203 252 285 339
#
# _framework density 18.614737000000002
#
# number of rings (size 3 to 8) (size 9 to 14) (size 15 to 20)
#    0.000    2.182    4.545    1.636    2.545    2.182 
#    0.000    3.636    2.000    0.000    0.000    0.000 
#    0.000    0.000    0.000    0.000    0.000    0.000 
#
# Total GULP energy -545289.060664 kJ/mol
# GULP energy per Si atom -12392.933197 kJ/mol
# Density = 1.857237 g / cm^3
# Si number density = 18.614737 Si / 1000 Ang^3
#
#
#
# Elastic Constant Matrix: (Units=GPa)
#
#
# Indices 1 2 3 4 5 6 
#
# 1 86.7379 31.0558 61.1253 0.0000 0.0000 0.0000
# 2 31.0558 98.8939 29.7529 0.0000 0.0000 0.0000
# 3 61.1253 29.7529 144.9855 0.0000 0.0000 0.0000
# 4 0.0000 0.0000 0.0000 31.1324 0.0000 0.0000
# 5 0.0000 0.0000 0.0000 0.0000 94.9619 0.0000
# 6 0.0000 0.0000 0.0000 0.0000 0.0000 20.9328
#
#
#
# Elastic Compliance Matrix: (Units=1/GPa)
#
#
# Indices 1 2 3 4 5 6 
#
# 1 0.017460 -0.003483 -0.006646 0.000000 0.000000 0.000000
# 2 -0.003483 0.011472 -0.000886 0.000000 0.000000 0.000000
# 3 -0.006646 -0.000886 0.009881 0.000000 0.000000 0.000000
# 4 0.000000 0.000000 0.000000 0.032121 0.000000 0.000000
# 5 0.000000 0.000000 0.000000 0.000000 0.010531 0.000000
# 6 0.000000 0.000000 0.000000 0.000000 0.000000 0.047772
#
#
# Mechanical properties :
#
#
# Convention : Reuss Voigt Hill
#
# Bulk Modulus (GPa) = 59.58557 63.83170 61.70864
# Shear Modulus (GPa) = 31.87537 43.31764 37.59651
#
# Velocity S-wave (km/s) = 4.14257 4.82920 4.49900
# Velocity P-wave (km/s) = 7.41354 8.09075 7.75954
#
# Compressibility (1/GPa) = 0.01678259
#
# Stress axis : x y z
#
# Youngs Moduli (GPa) = 57.27441 87.16726 101.20458
#
# Poissons Ratio (x) = 0.30364 0.67262
# Poissons Ratio (y) = 0.19951 0.08963
# Poissons Ratio (z) = 0.38065 0.07720
#
# Static dielectric constant tensor:
#      x y z
#    x 3.378010 0.000000 0.000000 
#    y 0.000000 3.567300 0.000000 
#    z 0.000000 0.000000 3.444630 
# 
# 
# High freq. dielectric constant tensor:
#      x y z
#    x 1.708150 0.000000 0.000000 
#    y 0.000000 1.724960 0.000000 
#    z 0.000000 0.000000 1.717400 
# 
# From -- ./inp_files/27618.got.cif
#   From: 2010.03.12/outbox.cif.g09.slc.cpg/sg54_14_cif.got.tgz:27618.got - 2010.04.16 15:00:50.
