data_PCOD8222433
_publ_section_title
;
Structure prediction by ZEFSAII (Michael W. Deem and Ramdas Pophale) SiO2 
 PCOD8222433
Probable space group: P C C A
;
_chemical_formula_sum "Si O2"
_cell_formula_units_Z 44
_cell_length_a 15.607996
_cell_length_b 5.537666
_cell_length_c 22.613610
_cell_angle_alpha 90.000000
_cell_angle_beta 90.000000
_cell_angle_gamma 90.000000
_cell_volume 1954.536572
_symmetry_space_group_name_H-M "P C C A"
_symmetry_group_IT_number 54
_symmetry_cell_setting 'orthorhombic'
loop_
_space_group_symop_operation_xyz
x,y,z
1/2-x,-y,z
1/2+x,-y,1/2-z
-x,y,1/2-z
-x,-y,-z
1/2+x,y,-z
1/2-x,y,1/2+z
x,-y,1/2+z
loop_
_atom_site_type_symbol
_atom_site_label
_atom_site_fract_x
_atom_site_fract_y
_atom_site_fract_z
Si Si1 0.591244 0.549704 0.282444
Si Si2 0.475427 0.583651 0.093083
Si Si3 0.090816 0.259138 0.976654
Si Si4 0.750000 0.500000 0.571896
Si Si5 0.365072 0.119369 0.886305
Si Si6 0.898682 0.945750 0.237141
O O1 0.500000 0.550612 0.250000
O O2 0.588111 0.525061 0.353507
O O3 0.638762 0.803444 0.265350
O O4 0.641431 0.304218 0.262882
O O5 0.504466 0.344177 0.057507
O O6 0.558477 0.693828 0.124648
O O7 0.429888 0.766085 0.046322
O O8 0.167294 0.452725 0.968686
O O9 0.121028 0.006074 0.949889
O O10 0.773817 0.736458 0.611818
O O11 0.371753 0.934426 0.831842
O O12 0.000000 0.940566 0.250000
#
# Coordination Sequence:
#
# PCOD8222433 Si02
#       6
#     8   8   8   4   8   8
#     4  10  18  33  52  92 122 155 183 245 307 369
#     4  10  20  34  59  91 123 152 205 261 319 380
#     4  10  21  37  57  87 119 158 207 258 322 376
#     4  10  24  38  56  86 118 166 214 260 322 378
#     4  11  20  37  59  88 122 166 206 268 316 380
#     4  10  19  31  58  86 125 151 194 242 306 366
#
# _framework density 22.511728000000002
#
# number of rings (size 3 to 8) (size 9 to 14) (size 15 to 20)
#    0.000    1.818    3.636    3.273    2.545    0.000 
#    0.000    0.000    0.000    1.091    0.000    0.000 
#    0.000    0.000    0.000    0.000    0.000    0.000 
#
# Total GULP energy -545302.151468 kJ/mol
# GULP energy per Si atom -12393.230715 kJ/mol
# Density = 2.246049 g / cm^3
# Si number density = 22.511728 Si / 1000 Ang^3
#
#
#
# Elastic Constant Matrix: (Units=GPa)
#
#
# Indices 1 2 3 4 5 6 
#
# 1 42.5614 7.5694 21.3590 0.0000 0.0000 0.0000
# 2 7.5694 161.2472 49.3382 0.0000 0.0000 0.0000
# 3 21.3590 49.3382 159.1155 0.0000 0.0000 0.0000
# 4 0.0000 0.0000 0.0000 31.5797 0.0000 0.0000
# 5 0.0000 0.0000 0.0000 0.0000 13.4819 0.0000
# 6 0.0000 0.0000 0.0000 0.0000 0.0000 18.0307
#
#
#
# Elastic Compliance Matrix: (Units=1/GPa)
#
#
# Indices 1 2 3 4 5 6 
#
# 1 0.025196 -0.000163 -0.003332 0.000000 0.000000 0.000000
# 2 -0.000163 0.006853 -0.002103 0.000000 0.000000 0.000000
# 3 -0.003332 -0.002103 0.007384 0.000000 0.000000 0.000000
# 4 0.000000 0.000000 0.000000 0.031666 0.000000 0.000000
# 5 0.000000 0.000000 0.000000 0.000000 0.074174 0.000000
# 6 0.000000 0.000000 0.000000 0.000000 0.000000 0.055461
#
#
# Mechanical properties :
#
#
# Convention : Reuss Voigt Hill
#
# Bulk Modulus (GPa) = 35.41405 57.71746 46.56575
# Shear Modulus (GPa) = 22.58947 31.59562 27.09255
#
# Velocity S-wave (km/s) = 3.17117 3.75042 3.47289
# Velocity P-wave (km/s) = 5.40129 6.66699 6.06723
#
# Compressibility (1/GPa) = 0.02823738
#
# Stress axis : x y z
#
# Youngs Moduli (GPa) = 39.68811 145.92594 135.42708
#
# Poissons Ratio (x) = 0.02384 0.45119
# Poissons Ratio (y) = 0.00648 0.28480
# Poissons Ratio (z) = 0.13222 0.30688
#
# Static dielectric constant tensor:
#      x y z
#    x 3.607160 0.000000 0.000000 
#    y 0.000000 4.848810 0.000000 
#    z 0.000000 0.000000 3.966940 
# 
# 
# High freq. dielectric constant tensor:
#      x y z
#    x 1.834580 0.000000 0.000000 
#    y 0.000000 1.902730 0.000000 
#    z 0.000000 0.000000 1.878740 
# 
# From -- ./inp_files/24571.got.cif
#   From: 2010.03.12/outbox.cif.g09.slc.cpg/sg54_13_cif.got.tgz:24571.got - 2010.04.16 15:00:50.
