data_PCOD8222057
_publ_section_title
;
Structure prediction by ZEFSAII (Michael W. Deem and Ramdas Pophale) SiO2 
 PCOD8222057
Probable space group: P M N A
;
_chemical_formula_sum "Si O2"
_cell_formula_units_Z 40
_cell_length_a 20.629896
_cell_length_b 8.433261
_cell_length_c 11.060957
_cell_angle_alpha 90.000000
_cell_angle_beta 90.000000
_cell_angle_gamma 90.000000
_cell_volume 1924.355405
_symmetry_space_group_name_H-M "P M N A"
_symmetry_group_IT_number 53
_symmetry_cell_setting 'orthorhombic'
loop_
_space_group_symop_operation_xyz
x,y,z
1/2-x,-y,1/2+z
x,-y,-z
1/2-x,y,1/2-z
-x,-y,-z
1/2+x,y,1/2-z
-x,y,z
1/2+x,-y,1/2+z
loop_
_atom_site_type_symbol
_atom_site_label
_atom_site_fract_x
_atom_site_fract_y
_atom_site_fract_z
Si Si1 0.311499 0.500000 0.500000
Si Si2 0.500000 0.379273 0.164136
Si Si3 0.750000 0.964501 0.250000
Si Si4 0.360471 0.774625 0.137641
Si Si5 0.000000 0.256274 0.591276
Si Si6 0.779512 0.765712 0.588110
Si Si7 0.865217 0.441033 0.252834
O O1 0.268405 0.342108 0.490992
O O2 0.355901 0.509068 0.381553
O O3 0.500000 0.560311 0.124005
O O4 0.565241 0.353302 0.242415
O O5 0.500000 0.252878 0.054751
O O6 0.815176 0.858890 0.261959
O O7 0.756428 0.073666 0.130361
O O8 0.435912 0.830047 0.145898
O O9 0.358651 0.585182 0.153501
O O10 0.337664 0.812278 0.001586
O O11 0.808729 0.681957 0.708997
#
# Coordination Sequence:
#
# PCOD8222057 Si02
#       7
#     4   4   4   8   4   8   8
#     4  12  22  35  62  87 126 164 210 260 326 376
#     4   9  18  35  63  97 120 154 219 275 306 371
#     4  12  26  38  56  94 138 162 206 256 332 394
#     4  11  22  40  64  94 127 169 204 269 325 378
#     4   9  18  36  66  94 123 163 215 265 320 370
#     4  12  22  39  62  91 121 164 218 268 313 378
#     4  11  21  38  64  91 124 164 216 264 318 377
#
# _framework density 20.786180999999999
#
# number of rings (size 3 to 8) (size 9 to 14) (size 15 to 20)
#    0.000    1.000    6.000    1.800    0.000    0.400 
#    0.000    3.000    0.000    0.000    0.000    7.000 
#    0.000    0.000    0.000    0.000    0.000    0.000 
#
# Total GULP energy -495911.693831 kJ/mol
# GULP energy per Si atom -12397.792346 kJ/mol
# Density = 2.073887 g / cm^3
# Si number density = 20.786181 Si / 1000 Ang^3
#
#
#
# Elastic Constant Matrix: (Units=GPa)
#
#
# Indices 1 2 3 4 5 6 
#
# 1 183.6780 44.5486 52.1641 0.0000 0.0000 0.0000
# 2 44.5486 54.0442 4.5715 0.0000 0.0000 0.0000
# 3 52.1641 4.5715 96.0085 0.0000 0.0000 0.0000
# 4 0.0000 0.0000 0.0000 36.6614 0.0000 0.0000
# 5 0.0000 0.0000 0.0000 0.0000 29.1333 0.0000
# 6 0.0000 0.0000 0.0000 0.0000 0.0000 16.5987
#
#
#
# Elastic Compliance Matrix: (Units=1/GPa)
#
#
# Indices 1 2 3 4 5 6 
#
# 1 0.008166 -0.006381 -0.004133 0.000000 0.000000 0.000000
# 2 -0.006381 0.023565 0.002345 0.000000 0.000000 0.000000
# 3 -0.004133 0.002345 0.012550 0.000000 0.000000 0.000000
# 4 0.000000 0.000000 0.000000 0.027277 0.000000 0.000000
# 5 0.000000 0.000000 0.000000 0.000000 0.034325 0.000000
# 6 0.000000 0.000000 0.000000 0.000000 0.000000 0.060246
#
#
# Mechanical properties :
#
#
# Convention : Reuss Voigt Hill
#
# Bulk Modulus (GPa) = 35.78804 59.58879 47.68842
# Shear Modulus (GPa) = 26.07153 31.97513 29.02333
#
# Velocity S-wave (km/s) = 3.54541 3.92636 3.74074
# Velocity P-wave (km/s) = 5.83220 7.02031 6.45365
#
# Compressibility (1/GPa) = 0.02794229
#
# Stress axis : x y z
#
# Youngs Moduli (GPa) = 122.46269 42.43540 79.68409
#
# Poissons Ratio (x) = 0.27080 0.32932
# Poissons Ratio (y) = 0.78149 -0.18687
# Poissons Ratio (z) = 0.50612 -0.09952
#
# Static dielectric constant tensor:
#      x y z
#    x 4.060090 0.000000 0.000000 
#    y 0.000000 3.606190 0.000000 
#    z 0.000000 0.000000 3.625020 
# 
# 
# High freq. dielectric constant tensor:
#      x y z
#    x 1.816650 0.000000 0.000000 
#    y 0.000000 1.795420 0.000000 
#    z 0.000000 0.000000 1.799760 
# 
# From -- ./inp_files/17703.got.cif
#   From: 2010.03.12/outbox.cif.g09.slc.cpg/sg53_9_cif.got.tgz:17703.got - 2010.04.16 14:36:59.
