data_PCOD8222467
_publ_section_title
;
Structure prediction by ZEFSAII (Michael W. Deem and Ramdas Pophale) SiO2 
 PCOD8222467
Probable space group: P C C A
;
_chemical_formula_sum "Si O2"
_cell_formula_units_Z 64
_cell_length_a 18.803441
_cell_length_b 11.132577
_cell_length_c 16.463380
_cell_angle_alpha 90.000000
_cell_angle_beta 90.000000
_cell_angle_gamma 90.000000
_cell_volume 3446.291762
_symmetry_space_group_name_H-M "P C C A"
_symmetry_group_IT_number 54
_symmetry_cell_setting 'orthorhombic'
loop_
_space_group_symop_operation_xyz
x,y,z
1/2-x,-y,z
1/2+x,-y,1/2-z
-x,y,1/2-z
-x,-y,-z
1/2+x,y,-z
1/2-x,y,1/2+z
x,-y,1/2+z
loop_
_atom_site_type_symbol
_atom_site_label
_atom_site_fract_x
_atom_site_fract_y
_atom_site_fract_z
Si Si1 0.175574 0.601126 0.688036
Si Si2 0.007209 0.526938 0.407227
Si Si3 0.493408 0.858878 0.999552
Si Si4 0.886402 0.710598 0.418256
Si Si5 0.755843 0.374494 0.486300
Si Si6 0.319515 0.668969 0.739004
Si Si7 0.123697 0.280956 0.907191
Si Si8 0.971523 0.718062 0.834844
O O1 0.210623 0.587166 0.599747
O O2 0.233732 0.667781 0.744751
O O3 0.155714 0.470504 0.725286
O O4 0.110568 0.691060 0.679202
O O5 0.080954 0.595328 0.397705
O O6 0.000000 0.500000 0.500000
O O7 0.936327 0.601395 0.386752
O O8 0.012266 0.406499 0.354136
O O9 0.482109 0.810045 0.090872
O O10 0.566649 0.811267 0.961418
O O11 0.428043 0.822459 0.941025
O O12 0.500000 0.000000 0.000000
O O13 0.823745 0.678229 0.481317
O O14 0.847640 0.752170 0.335431
O O15 0.750000 0.500000 0.536273
O O16 0.808889 0.285853 0.532991
O O17 0.348691 0.740869 0.816589
O O18 0.000000 0.773275 0.750000
#
# Coordination Sequence:
#
# PCOD8222467 Si02
#       8
#     8   8   8   8   8   8   8   8
#     4  10  18  35  52  88 139 150 184 230 310 392
#     4  11  18  33  55  88 124 153 195 232 304 376
#     4  11  26  46  61  83 116 165 225 265 295 351
#     4  10  20  36  61  86 123 157 195 246 310 371
#     4  11  18  32  59  87 128 167 183 236 319 390
#     4  10  20  33  54  97 124 159 182 245 302 383
#     4  11  23  35  60  90 126 160 203 248 308 368
#     4  12  22  36  62  87 121 159 198 253 308 367
#
# _framework density 18.570685999999998
#
# number of rings (size 3 to 8) (size 9 to 14) (size 15 to 20)
#    0.000    1.250    7.500    1.500    1.750    2.500 
#    2.250    0.625    0.000    0.000    0.000    0.000 
#    0.000    0.000    0.000    0.000    0.000    0.000 
#
# Total GULP energy -793030.296289 kJ/mol
# GULP energy per Si atom -12391.098380 kJ/mol
# Density = 1.852842 g / cm^3
# Si number density = 18.570686 Si / 1000 Ang^3
#
#
#
# Elastic Constant Matrix: (Units=GPa)
#
#
# Indices 1 2 3 4 5 6 
#
# 1 106.8959 44.0363 42.1696 0.0000 0.0000 0.0000
# 2 44.0363 99.6747 45.7906 0.0000 0.0000 0.0000
# 3 42.1696 45.7906 112.5395 0.0000 0.0000 0.0000
# 4 0.0000 0.0000 0.0000 11.0131 0.0000 0.0000
# 5 0.0000 0.0000 0.0000 0.0000 30.7737 0.0000
# 6 0.0000 0.0000 0.0000 0.0000 0.0000 12.3503
#
#
#
# Elastic Compliance Matrix: (Units=1/GPa)
#
#
# Indices 1 2 3 4 5 6 
#
# 1 0.012168 -0.004036 -0.002918 0.000000 0.000000 0.000000
# 2 -0.004036 0.013678 -0.004053 0.000000 0.000000 0.000000
# 3 -0.002918 -0.004053 0.011628 0.000000 0.000000 0.000000
# 4 0.000000 0.000000 0.000000 0.090801 0.000000 0.000000
# 5 0.000000 0.000000 0.000000 0.000000 0.032495 0.000000
# 6 0.000000 0.000000 0.000000 0.000000 0.000000 0.080969
#
#
# Mechanical properties :
#
#
# Convention : Reuss Voigt Hill
#
# Bulk Modulus (GPa) = 64.67631 64.78923 64.73277
# Shear Modulus (GPa) = 18.59388 23.30167 20.94777
#
# Velocity S-wave (km/s) = 3.16768 3.54610 3.36222
# Velocity P-wave (km/s) = 6.94850 7.19236 7.07148
#
# Compressibility (1/GPa) = 0.01546161
#
# Stress axis : x y z
#
# Youngs Moduli (GPa) = 82.18033 73.11267 85.99856
#
# Poissons Ratio (x) = 0.29506 0.25091
# Poissons Ratio (y) = 0.33165 0.34855
# Poissons Ratio (z) = 0.23977 0.29632
#
# Static dielectric constant tensor:
#      x y z
#    x 3.938960 0.000000 0.000000 
#    y 0.000000 2.853490 0.000000 
#    z 0.000000 0.000000 3.472500 
# 
# 
# High freq. dielectric constant tensor:
#      x y z
#    x 1.743630 0.000000 0.000000 
#    y 0.000000 1.654930 0.000000 
#    z 0.000000 0.000000 1.725290 
# 
# From -- ./inp_files/18738.got.cif
#   From: 2010.03.12/outbox.cif.g09.slc.cpg/sg54_10_cif.got.tgz:18738.got - 2010.04.16 15:00:50.
