data_PCOD8222630
_publ_section_title
;
Structure prediction by ZEFSAII (Michael W. Deem and Ramdas Pophale) SiO2 
 PCOD8222630
Probable space group: P C C A
;
_chemical_formula_sum "Si O2"
_cell_formula_units_Z 44
_cell_length_a 8.693150
_cell_length_b 11.789050
_cell_length_c 21.958941
_cell_angle_alpha 90.000000
_cell_angle_beta 90.000000
_cell_angle_gamma 90.000000
_cell_volume 2250.439670
_symmetry_space_group_name_H-M "P C C A"
_symmetry_group_IT_number 54
_symmetry_cell_setting 'orthorhombic'
loop_
_space_group_symop_operation_xyz
x,y,z
1/2-x,-y,z
1/2+x,-y,1/2-z
-x,y,1/2-z
-x,-y,-z
1/2+x,y,-z
1/2-x,y,1/2+z
x,-y,1/2+z
loop_
_atom_site_type_symbol
_atom_site_label
_atom_site_fract_x
_atom_site_fract_y
_atom_site_fract_z
Si Si1 0.000000 0.366038 0.750000
Si Si2 0.250000 0.000000 0.846918
Si Si3 0.554048 0.906390 0.548723
Si Si4 0.750000 0.500000 0.326814
Si Si5 0.781658 0.764476 0.713258
Si Si6 0.263658 0.133278 0.558745
Si Si7 0.413732 0.285209 0.655525
O O1 0.114709 0.446688 0.713604
O O2 0.108957 0.287209 0.793753
O O3 0.392042 0.965126 0.889465
O O4 0.209060 0.896275 0.803336
O O5 0.412314 0.821536 0.564778
O O6 0.688184 0.841399 0.511864
O O7 0.500000 0.000000 0.500000
O O8 0.664281 0.596383 0.366626
O O9 0.830250 0.754582 0.783123
O O10 0.903497 0.700519 0.668519
O O11 0.383542 0.193027 0.603512
O O12 0.250000 0.000000 0.575368
#
# Coordination Sequence:
#
# PCOD8222630 Si02
#       7
#     4   4   8   4   8   8   8
#     4  10  20  38  58  82 114 158 198 242 286 348
#     4  12  22  34  56  88 130 150 194 228 292 368
#     4  10  19  35  54  81 111 159 197 235 278 348
#     4  10  20  38  60  80 110 150 210 240 286 338
#     4  10  23  35  55  89 122 155 186 232 299 351
#     4  10  20  35  59  82 116 152 197 235 296 347
#     4  10  22  39  57  85 116 157 190 245 289 344
#
# _framework density 19.551735000000001
#
# number of rings (size 3 to 8) (size 9 to 14) (size 15 to 20)
#    0.000    1.818    2.727    4.364    6.364    1.455 
#    0.000    0.000    0.000    1.091    0.000    0.000 
#    0.000    0.000    0.000    0.000    0.000    0.000 
#
# Total GULP energy -545078.150587 kJ/mol
# GULP energy per Si atom -12388.139786 kJ/mol
# Density = 1.950723 g / cm^3
# Si number density = 19.551735 Si / 1000 Ang^3
#
#
#
# Elastic Constant Matrix: (Units=GPa)
#
#
# Indices 1 2 3 4 5 6 
#
# 1 153.3751 41.4853 26.6414 0.0000 0.0000 0.0000
# 2 41.4853 88.7540 27.8803 0.0000 0.0000 0.0000
# 3 26.6414 27.8803 51.1159 0.0000 0.0000 0.0000
# 4 0.0000 0.0000 0.0000 6.7755 0.0000 0.0000
# 5 0.0000 0.0000 0.0000 0.0000 21.9250 0.0000
# 6 0.0000 0.0000 0.0000 0.0000 0.0000 29.8536
#
#
#
# Elastic Compliance Matrix: (Units=1/GPa)
#
#
# Indices 1 2 3 4 5 6 
#
# 1 0.007715 -0.002828 -0.002479 0.000000 0.000000 0.000000
# 2 -0.002828 0.014633 -0.006508 0.000000 0.000000 0.000000
# 3 -0.002479 -0.006508 0.024405 0.000000 0.000000 0.000000
# 4 0.000000 0.000000 0.000000 0.147591 0.000000 0.000000
# 5 0.000000 0.000000 0.000000 0.000000 0.045610 0.000000
# 6 0.000000 0.000000 0.000000 0.000000 0.000000 0.033497
#
#
# Mechanical properties :
#
#
# Convention : Reuss Voigt Hill
#
# Bulk Modulus (GPa) = 43.24336 53.91768 48.58052
# Shear Modulus (GPa) = 16.40484 24.86002 20.63243
#
# Velocity S-wave (km/s) = 2.89977 3.56968 3.25202
# Velocity P-wave (km/s) = 5.77728 6.68034 6.24516
#
# Compressibility (1/GPa) = 0.02312494
#
# Stress axis : x y z
#
# Youngs Moduli (GPa) = 129.61127 68.33868 40.97546
#
# Poissons Ratio (x) = 0.19323 0.10158
# Poissons Ratio (y) = 0.36649 0.26665
# Poissons Ratio (z) = 0.32130 0.44472
#
# Static dielectric constant tensor:
#      x y z
#    x 5.712730 0.000000 0.000000 
#    y 0.000000 3.584470 0.000000 
#    z 0.000000 0.000000 3.412630 
# 
# 
# High freq. dielectric constant tensor:
#      x y z
#    x 1.794250 0.000000 0.000000 
#    y 0.000000 1.729920 0.000000 
#    z 0.000000 0.000000 1.731750 
# 
# From -- ./inp_files/23439.got.cif
#   From: 2010.03.12/outbox.cif.g09.slc.cpg/sg54_12_cif.got.tgz:23439.got - 2010.04.16 15:00:50.
