data_PCOD8222032
_publ_section_title
;
Structure prediction by ZEFSAII (Michael W. Deem and Ramdas Pophale) SiO2 
 PCOD8222032
Probable space group: P M N A
;
_chemical_formula_sum "Si O2"
_cell_formula_units_Z 48
_cell_length_a 10.173464
_cell_length_b 17.008011
_cell_length_c 14.355649
_cell_angle_alpha 90.000000
_cell_angle_beta 90.000000
_cell_angle_gamma 90.000000
_cell_volume 2483.963511
_symmetry_space_group_name_H-M "P M N A"
_symmetry_group_IT_number 53
_symmetry_cell_setting 'orthorhombic'
loop_
_space_group_symop_operation_xyz
x,y,z
1/2-x,-y,1/2+z
x,-y,-z
1/2-x,y,1/2-z
-x,-y,-z
1/2+x,y,1/2-z
-x,y,z
1/2+x,-y,1/2+z
loop_
_atom_site_type_symbol
_atom_site_label
_atom_site_fract_x
_atom_site_fract_y
_atom_site_fract_z
Si Si1 0.223199 0.073096 0.568347
Si Si2 0.000000 0.995298 0.324817
Si Si3 0.500000 0.972415 0.384050
Si Si4 0.651916 0.377182 0.497291
Si Si5 0.152915 0.496664 0.839609
Si Si6 0.267676 0.217743 0.049358
Si Si7 0.000000 0.168084 0.335186
Si Si8 0.500000 0.853830 0.616497
O O1 0.373142 0.081000 0.601387
O O2 0.178326 0.156424 0.526745
O O3 0.129047 0.055651 0.654480
O O4 0.206060 0.000000 0.500000
O O5 0.000000 0.011522 0.216702
O O6 0.000000 0.079473 0.379200
O O7 0.500000 0.058722 0.436280
O O8 0.500000 0.350291 0.498540
O O9 0.683708 0.422977 0.592963
O O10 0.677941 0.426975 0.403433
O O11 0.751791 0.303918 0.494581
O O12 0.250000 0.496398 0.750000
O O13 0.000000 0.494462 0.806244
O O14 0.371892 0.217462 0.133857
O O15 0.127893 0.190153 0.084287
O O16 0.000000 0.153586 0.226546
#
# Coordination Sequence:
#
# PCOD8222032 Si02
#       8
#     8   4   4   8   8   8   4   4
#     4  12  21  35  58  79 106 156 199 236 288 348
#     4  11  22  40  54  74 116 152 197 253 304 337
#     4  11  22  36  54  82 102 144 211 247 280 347
#     4   9  20  40  64  89 122 160 193 234 294 358
#     4   9  19  41  69  93 120 156 193 233 290 357
#     4  12  22  37  57  83 118 152 195 241 289 350
#     4  11  23  35  53  84 116 155 193 251 308 339
#     4  11  21  35  55  78 114 153 193 247 296 347
#
# _framework density 19.323954000000001
#
# number of rings (size 3 to 8) (size 9 to 14) (size 15 to 20)
#    0.000    1.333    4.167    3.500    0.000    4.000 
#    3.000    2.500    0.000    0.000    0.000    0.000 
#    0.000    0.000    0.000    0.000    0.000    0.000 
#
# Total GULP energy -594955.663185 kJ/mol
# GULP energy per Si atom -12394.909650 kJ/mol
# Density = 1.927997 g / cm^3
# Si number density = 19.323954 Si / 1000 Ang^3
#
#
#
# Elastic Constant Matrix: (Units=GPa)
#
#
# Indices 1 2 3 4 5 6 
#
# 1 70.8294 1.7398 9.4582 0.0000 0.0000 0.0000
# 2 1.7398 101.5742 13.9189 0.0000 0.0000 0.0000
# 3 9.4582 13.9189 53.9090 0.0000 0.0000 0.0000
# 4 0.0000 0.0000 0.0000 19.3106 0.0000 0.0000
# 5 0.0000 0.0000 0.0000 0.0000 41.9396 0.0000
# 6 0.0000 0.0000 0.0000 0.0000 0.0000 22.7016
#
#
#
# Elastic Compliance Matrix: (Units=1/GPa)
#
#
# Indices 1 2 3 4 5 6 
#
# 1 0.014458 0.000104 -0.002563 0.000000 0.000000 0.000000
# 2 0.000104 0.010207 -0.002654 0.000000 0.000000 0.000000
# 3 -0.002563 -0.002654 0.019685 0.000000 0.000000 0.000000
# 4 0.000000 0.000000 0.000000 0.051785 0.000000 0.000000
# 5 0.000000 0.000000 0.000000 0.000000 0.023844 0.000000
# 6 0.000000 0.000000 0.000000 0.000000 0.000000 0.044050
#
#
# Mechanical properties :
#
#
# Convention : Reuss Voigt Hill
#
# Bulk Modulus (GPa) = 29.30568 30.72739 30.01654
# Shear Modulus (GPa) = 26.93543 30.20343 28.56943
#
# Velocity S-wave (km/s) = 3.73753 3.95777 3.84923
# Velocity P-wave (km/s) = 5.81583 6.06803 5.94327
#
# Compressibility (1/GPa) = 0.03412307
#
# Stress axis : x y z
#
# Youngs Moduli (GPa) = 69.16499 97.97333 50.80102
#
# Poissons Ratio (x) = -0.01015 0.13022
# Poissons Ratio (y) = -0.00717 0.13480
# Poissons Ratio (z) = 0.17730 0.25997
#
# Static dielectric constant tensor:
#      x y z
#    x 3.574620 0.000000 0.000000 
#    y 0.000000 3.484110 0.000000 
#    z 0.000000 0.000000 3.517840 
# 
# 
# High freq. dielectric constant tensor:
#      x y z
#    x 1.757910 0.000000 0.000000 
#    y 0.000000 1.735970 0.000000 
#    z 0.000000 0.000000 1.749730 
# 
# From -- ./inp_files/20303.got.cif
#   From: 2010.03.12/outbox.cif.g09.slc.cpg/sg53_11_cif.got.tgz:20303.got - 2010.04.16 14:36:59.
