data_PCOD8222291
_publ_section_title
;
Structure prediction by ZEFSAII (Michael W. Deem and Ramdas Pophale) SiO2 
 PCOD8222291
Probable space group: P C C A
;
_chemical_formula_sum "Si O2"
_cell_formula_units_Z 52
_cell_length_a 27.860959
_cell_length_b 9.889097
_cell_length_c 8.775254
_cell_angle_alpha 90.000000
_cell_angle_beta 90.000000
_cell_angle_gamma 90.000000
_cell_volume 2417.755578
_symmetry_space_group_name_H-M "P C C A"
_symmetry_group_IT_number 54
_symmetry_cell_setting 'orthorhombic'
loop_
_space_group_symop_operation_xyz
x,y,z
1/2-x,-y,z
1/2+x,-y,1/2-z
-x,y,1/2-z
-x,-y,-z
1/2+x,y,-z
1/2-x,y,1/2+z
x,-y,1/2+z
loop_
_atom_site_type_symbol
_atom_site_label
_atom_site_fract_x
_atom_site_fract_y
_atom_site_fract_z
Si Si1 0.250000 0.500000 0.246236
Si Si2 0.728967 0.688784 0.500094
Si Si3 0.339020 0.907399 0.889246
Si Si4 0.433872 0.750525 0.509368
Si Si5 0.000000 0.797794 0.250000
Si Si6 0.831579 0.813279 0.459125
Si Si7 0.059723 0.929344 0.504146
Si Si8 0.500000 0.786750 0.250000
O O1 0.214792 0.406228 0.143054
O O2 0.281712 0.399178 0.349053
O O3 0.699265 0.825717 0.509008
O O4 0.785388 0.720657 0.481490
O O5 0.334567 0.877660 0.709892
O O6 0.390541 0.859900 0.953220
O O7 0.329239 0.065917 0.917066
O O8 0.459673 0.703500 0.667918
O O9 0.377446 0.712894 0.506739
O O10 0.467415 0.698191 0.368624
O O11 0.432078 0.912767 0.514335
O O12 0.019872 0.897622 0.378921
O O13 0.040994 0.873822 0.665230
#
# Coordination Sequence:
#
# PCOD8222291 Si02
#       8
#     4   8   8   8   4   8   8   4
#     4  10  24  42  66  86 104 152 192 260 288 346
#     4  11  23  44  64  84 119 145 198 240 302 339
#     4  11  24  37  57  87 122 161 193 232 289 357
#     4  10  18  28  46  72 110 153 199 225 273 335
#     4  10  15  28  44  64 108 157 190 231 260 326
#     4  11  24  37  57  87 122 161 193 232 289 357
#     4  10  18  28  46  72 110 153 199 225 273 335
#     4  10  19  28  44  72 108 161 196 233 272 316
#
# _framework density 21.507550999999999
#
# number of rings (size 3 to 8) (size 9 to 14) (size 15 to 20)
#    0.000    1.538    3.077    4.154    8.615    1.231 
#    0.000    0.000    0.000    0.000    0.000    0.000 
#    0.000   86.154    0.000    0.000    0.000    0.000 
#
# Total GULP energy -644348.480513 kJ/mol
# GULP energy per Si atom -12391.316933 kJ/mol
# Density = 2.145860 g / cm^3
# Si number density = 21.507551 Si / 1000 Ang^3
#
#
#
# Elastic Constant Matrix: (Units=GPa)
#
#
# Indices 1 2 3 4 5 6 
#
# 1 138.0855 20.0982 26.9867 0.0000 0.0000 0.0000
# 2 20.0982 33.8090 13.2960 0.0000 0.0000 0.0000
# 3 26.9867 13.2960 116.6288 0.0000 0.0000 0.0000
# 4 0.0000 0.0000 0.0000 17.4338 0.0000 0.0000
# 5 0.0000 0.0000 0.0000 0.0000 28.0222 0.0000
# 6 0.0000 0.0000 0.0000 0.0000 0.0000 4.2537
#
#
#
# Elastic Compliance Matrix: (Units=1/GPa)
#
#
# Indices 1 2 3 4 5 6 
#
# 1 0.008139 -0.004290 -0.001394 0.000000 0.000000 0.000000
# 2 -0.004290 0.033227 -0.002795 0.000000 0.000000 0.000000
# 3 -0.001394 -0.002795 0.009215 0.000000 0.000000 0.000000
# 4 0.000000 0.000000 0.000000 0.057360 0.000000 0.000000
# 5 0.000000 0.000000 0.000000 0.000000 0.035686 0.000000
# 6 0.000000 0.000000 0.000000 0.000000 0.000000 0.235089
#
#
# Mechanical properties :
#
#
# Convention : Reuss Voigt Hill
#
# Bulk Modulus (GPa) = 29.74172 45.47613 37.60893
# Shear Modulus (GPa) = 12.28854 25.15143 18.71998
#
# Velocity S-wave (km/s) = 2.39291 3.42339 2.95344
# Velocity P-wave (km/s) = 4.63607 6.06765 5.39951
#
# Compressibility (1/GPa) = 0.03362280
#
# Stress axis : x y z
#
# Youngs Moduli (GPa) = 122.86895 30.09557 108.51298
#
# Poissons Ratio (x) = 0.12911 0.15128
# Poissons Ratio (y) = 0.52710 0.30334
# Poissons Ratio (z) = 0.17130 0.08413
#
# Static dielectric constant tensor:
#      x y z
#    x 4.497640 0.000000 0.000000 
#    y 0.000000 3.327780 0.000000 
#    z 0.000000 0.000000 4.293450 
# 
# 
# High freq. dielectric constant tensor:
#      x y z
#    x 1.851180 0.000000 0.000000 
#    y 0.000000 1.774350 0.000000 
#    z 0.000000 0.000000 1.868950 
# 
# From -- ./inp_files/5564.got.cif
#   From: 2010.03.12/outbox.cif.g09.slc.cpg/sg54_3_cif.got.tgz:5564.got - 2010.04.16 15:00:50.
