data_PCOD8222869
_publ_section_title
;
Structure prediction by ZEFSAII (Michael W. Deem and Ramdas Pophale) SiO2 
 PCOD8222869
Probable space group: P C C A
;
_chemical_formula_sum "Si O2"
_cell_formula_units_Z 56
_cell_length_a 20.561685
_cell_length_b 8.849087
_cell_length_c 14.748558
_cell_angle_alpha 90.000000
_cell_angle_beta 90.000000
_cell_angle_gamma 90.000000
_cell_volume 2683.531682
_symmetry_space_group_name_H-M "P C C A"
_symmetry_group_IT_number 54
_symmetry_cell_setting 'orthorhombic'
loop_
_space_group_symop_operation_xyz
x,y,z
1/2-x,-y,z
1/2+x,-y,1/2-z
-x,y,1/2-z
-x,-y,-z
1/2+x,y,-z
1/2-x,y,1/2+z
x,-y,1/2+z
loop_
_atom_site_type_symbol
_atom_site_label
_atom_site_fract_x
_atom_site_fract_y
_atom_site_fract_z
Si Si1 0.262365 0.330472 0.702648
Si Si2 0.869677 0.745607 0.938486
Si Si3 0.677651 0.990949 0.039115
Si Si4 0.364157 0.267303 0.843226
Si Si5 0.434839 0.090792 0.702553
Si Si6 0.573804 0.436396 0.491661
Si Si7 0.137487 0.812329 0.132216
O O1 0.250000 0.500000 0.670980
O O2 0.309571 0.244546 0.632036
O O3 0.293901 0.324477 0.804645
O O4 0.190352 0.259867 0.699713
O O5 0.934131 0.832205 0.897848
O O6 0.881208 0.574433 0.963400
O O7 0.851150 0.840669 0.028150
O O8 0.637445 0.898458 0.112499
O O9 0.750000 0.000000 0.076531
O O10 0.676918 0.898974 0.945314
O O11 0.408279 0.236016 0.756988
O O12 0.398851 0.385109 0.910518
O O13 0.500000 0.041291 0.750000
O O14 0.397753 0.931842 0.697123
O O15 0.500000 0.500000 0.500000
O O16 0.585927 0.306659 0.414753
#
# Coordination Sequence:
#
# PCOD8222869 Si02
#       7
#     8   8   8   8   8   8   8
#     4  11  21  41  63  93 128 158 212 258 334 376
#     4  10  21  38  69  86 123 177 196 262 319 374
#     4  10  20  36  60  93 120 155 206 251 313 371
#     4  10  25  38  62  96 123 161 210 276 302 373
#     4  10  22  42  61  90 128 169 213 252 313 378
#     4  11  23  44  64  93 127 168 221 255 313 378
#     4  10  22  40  65  88 124 171 204 256 321 387
#
# _framework density 20.868023999999998
#
# number of rings (size 3 to 8) (size 9 to 14) (size 15 to 20)
#    0.000    1.714    2.857    0.857    2.000    2.286 
#    2.571    5.000    0.000    0.000    0.000    0.000 
#    0.000    0.000    0.000    0.000    0.000    0.000 
#
# Total GULP energy -693731.504386 kJ/mol
# GULP energy per Si atom -12388.062578 kJ/mol
# Density = 2.082053 g / cm^3
# Si number density = 20.868024 Si / 1000 Ang^3
#
#
#
# Elastic Constant Matrix: (Units=GPa)
#
#
# Indices 1 2 3 4 5 6 
#
# 1 96.4108 32.1872 34.8422 0.0000 0.0000 0.0000
# 2 32.1872 117.6895 23.5095 0.0000 0.0000 0.0000
# 3 34.8422 23.5095 59.1002 0.0000 0.0000 0.0000
# 4 0.0000 0.0000 0.0000 38.0583 0.0000 0.0000
# 5 0.0000 0.0000 0.0000 0.0000 22.1516 0.0000
# 6 0.0000 0.0000 0.0000 0.0000 0.0000 34.3388
#
#
#
# Elastic Compliance Matrix: (Units=1/GPa)
#
#
# Indices 1 2 3 4 5 6 
#
# 1 0.013742 -0.002325 -0.007177 0.000000 0.000000 0.000000
# 2 -0.002325 0.009624 -0.002458 0.000000 0.000000 0.000000
# 3 -0.007177 -0.002458 0.022129 0.000000 0.000000 0.000000
# 4 0.000000 0.000000 0.000000 0.026275 0.000000 0.000000
# 5 0.000000 0.000000 0.000000 0.000000 0.045143 0.000000
# 6 0.000000 0.000000 0.000000 0.000000 0.000000 0.029122
#
#
# Mechanical properties :
#
#
# Convention : Reuss Voigt Hill
#
# Bulk Modulus (GPa) = 46.34689 50.47538 48.41114
# Shear Modulus (GPa) = 28.22535 31.08720 29.65628
#
# Velocity S-wave (km/s) = 3.68171 3.86386 3.77388
# Velocity P-wave (km/s) = 6.35068 6.64427 6.49913
#
# Compressibility (1/GPa) = 0.02157642
#
# Stress axis : x y z
#
# Youngs Moduli (GPa) = 72.76942 103.91047 45.18941
#
# Poissons Ratio (x) = 0.24156 0.32431
# Poissons Ratio (y) = 0.16917 0.11106
# Poissons Ratio (z) = 0.52225 0.25538
#
# Static dielectric constant tensor:
#      x y z
#    x 3.835250 0.000000 0.000000 
#    y 0.000000 3.893550 0.000000 
#    z 0.000000 0.000000 3.778950 
# 
# 
# High freq. dielectric constant tensor:
#      x y z
#    x 1.805180 0.000000 0.000000 
#    y 0.000000 1.830270 0.000000 
#    z 0.000000 0.000000 1.807560 
# 
# From -- ./inp_files/14666.got.cif
#   From: 2010.03.12/outbox.cif.g09.slc.cpg/sg54_8_cif.got.tgz:14666.got - 2010.04.16 15:00:50.
