data_PCOD8222688
_publ_section_title
;
Structure prediction by ZEFSAII (Michael W. Deem and Ramdas Pophale) SiO2 
 PCOD8222688
Probable space group: P C C A
;
_chemical_formula_sum "Si O2"
_cell_formula_units_Z 36
_cell_length_a 13.288163
_cell_length_b 8.795102
_cell_length_c 17.078546
_cell_angle_alpha 90.000000
_cell_angle_beta 90.000000
_cell_angle_gamma 90.000000
_cell_volume 1995.982462
_symmetry_space_group_name_H-M "P C C A"
_symmetry_group_IT_number 54
_symmetry_cell_setting 'orthorhombic'
loop_
_space_group_symop_operation_xyz
x,y,z
1/2-x,-y,z
1/2+x,-y,1/2-z
-x,y,1/2-z
-x,-y,-z
1/2+x,y,-z
1/2-x,y,1/2+z
x,-y,1/2+z
loop_
_atom_site_type_symbol
_atom_site_label
_atom_site_fract_x
_atom_site_fract_y
_atom_site_fract_z
Si Si1 0.250000 0.000000 0.826088
Si Si2 0.872162 0.143994 0.041311
Si Si3 0.100955 0.850765 0.208906
Si Si4 0.725169 0.675338 0.911756
Si Si5 0.907363 0.894611 0.917165
O O1 0.183234 0.885627 0.877385
O O2 0.318231 0.891024 0.774238
O O3 0.988574 0.184553 0.057674
O O4 0.821048 0.285474 0.996828
O O5 0.862730 0.992100 0.988832
O O6 0.143742 0.716478 0.154639
O O7 0.000000 0.789844 0.250000
O O8 0.074378 0.998788 0.157613
O O9 0.750000 0.500000 0.908022
O O10 0.827323 0.766903 0.895011
#
# Coordination Sequence:
#
# PCOD8222688 Si02
#       5
#     4   8   8   8   8
#     4  12  18  34  62  90 112 136 200 262 282 326
#     4  10  20  34  62  87 107 147 206 248 273 334
#     4  11  21  36  62  89 112 153 200 249 294 337
#     4  11  23  40  56  84 131 163 181 232 307 369
#     4  10  19  37  59  86 112 148 201 244 286 333
#
# _framework density 18.03623
#
# number of rings (size 3 to 8) (size 9 to 14) (size 15 to 20)
#    0.000    1.333    6.667    1.333    0.000    0.889 
#    0.000    4.444    0.000    0.000    0.000    0.000 
#    0.000    0.000    0.000    0.000    0.000    0.000 
#
# Total GULP energy -446576.648050 kJ/mol
# GULP energy per Si atom -12404.906890 kJ/mol
# Density = 1.799518 g / cm^3
# Si number density = 18.036230 Si / 1000 Ang^3
#
#
#
# Elastic Constant Matrix: (Units=GPa)
#
#
# Indices 1 2 3 4 5 6 
#
# 1 105.1582 48.2921 28.2250 0.0000 0.0000 0.0000
# 2 48.2921 107.0515 30.2637 0.0000 0.0000 0.0000
# 3 28.2250 30.2637 91.4214 0.0000 0.0000 0.0000
# 4 0.0000 0.0000 0.0000 15.3302 0.0000 0.0000
# 5 0.0000 0.0000 0.0000 0.0000 46.0347 0.0000
# 6 0.0000 0.0000 0.0000 0.0000 0.0000 15.7282
#
#
#
# Elastic Compliance Matrix: (Units=1/GPa)
#
#
# Indices 1 2 3 4 5 6 
#
# 1 0.012375 -0.004967 -0.002176 0.000000 0.000000 0.000000
# 2 -0.004967 0.012300 -0.002538 0.000000 0.000000 0.000000
# 3 -0.002176 -0.002538 0.012450 0.000000 0.000000 0.000000
# 4 0.000000 0.000000 0.000000 0.065231 0.000000 0.000000
# 5 0.000000 0.000000 0.000000 0.000000 0.021723 0.000000
# 6 0.000000 0.000000 0.000000 0.000000 0.000000 0.063580
#
#
# Mechanical properties :
#
#
# Convention : Reuss Voigt Hill
#
# Bulk Modulus (GPa) = 56.30044 57.46586 56.88315
# Shear Modulus (GPa) = 23.48066 28.54200 26.01133
#
# Velocity S-wave (km/s) = 3.61204 3.98236 3.80171
# Velocity P-wave (km/s) = 6.97702 7.28533 7.13284
#
# Compressibility (1/GPa) = 0.01776185
#
# Stress axis : x y z
#
# Youngs Moduli (GPa) = 80.81039 81.30394 80.31870
#
# Poissons Ratio (x) = 0.40385 0.17479
# Poissons Ratio (y) = 0.40140 0.20385
# Poissons Ratio (z) = 0.17586 0.20635
#
# Static dielectric constant tensor:
#      x y z
#    x 3.366930 0.000000 0.000000 
#    y 0.000000 2.864470 0.000000 
#    z 0.000000 0.000000 3.529600 
# 
# 
# High freq. dielectric constant tensor:
#      x y z
#    x 1.723400 0.000000 0.000000 
#    y 0.000000 1.648380 0.000000 
#    z 0.000000 0.000000 1.711230 
# 
# From -- ./inp_files/13089.got.cif
#   From: 2010.03.12/outbox.cif.g09.slc.cpg/sg54_7_cif.got.tgz:13089.got - 2010.04.16 15:00:50.
