data_PCOD8222621
_publ_section_title
;
Structure prediction by ZEFSAII (Michael W. Deem and Ramdas Pophale) SiO2 
 PCOD8222621
Probable space group: P C C A
;
_chemical_formula_sum "Si O2"
_cell_formula_units_Z 44
_cell_length_a 16.140661
_cell_length_b 7.746485
_cell_length_c 17.432549
_cell_angle_alpha 90.000000
_cell_angle_beta 90.000000
_cell_angle_gamma 90.000000
_cell_volume 2179.650669
_symmetry_space_group_name_H-M "P C C A"
_symmetry_group_IT_number 54
_symmetry_cell_setting 'orthorhombic'
loop_
_space_group_symop_operation_xyz
x,y,z
1/2-x,-y,z
1/2+x,-y,1/2-z
-x,y,1/2-z
-x,-y,-z
1/2+x,y,-z
1/2-x,y,1/2+z
x,-y,1/2+z
loop_
_atom_site_type_symbol
_atom_site_label
_atom_site_fract_x
_atom_site_fract_y
_atom_site_fract_z
Si Si1 0.750000 0.000000 0.769105
Si Si2 0.516622 0.333975 0.105997
Si Si3 0.508862 0.300678 0.931493
Si Si4 0.183390 0.809634 0.364696
Si Si5 0.661182 0.150609 0.550102
Si Si6 0.107068 0.969015 0.113114
O O1 0.767483 0.168236 0.715883
O O2 0.669217 0.024758 0.820591
O O3 0.474574 0.523240 0.116586
O O4 0.606040 0.319476 0.148374
O O5 0.451050 0.192996 0.136347
O O6 0.542969 0.309040 0.017586
O O7 0.409687 0.289446 0.936473
O O8 0.548357 0.134378 0.893457
O O9 0.250443 0.756827 0.431014
O O10 0.146092 0.994267 0.390574
O O11 0.658356 0.077741 0.463348
#
# Coordination Sequence:
#
# PCOD8222621 Si02
#       6
#     4   8   8   8   8   8
#     4  10  24  34  62  80 118 168 198 226 304 344
#     4  10  20  35  62  88 120 139 197 246 296 349
#     4  10  19  34  61  95 107 150 190 247 302 344
#     4  10  19  37  57  86 114 159 192 232 289 361
#     4   9  17  33  61  86 111 146 192 240 298 337
#     4  11  19  38  60  86 114 153 194 249 285 351
#
# _framework density 20.186722
#
# number of rings (size 3 to 8) (size 9 to 14) (size 15 to 20)
#    0.000    2.182    3.636    2.182    0.000    1.455 
#    0.000    0.909   24.000    0.000    0.000    0.000 
#    0.000    0.000    0.000    0.000    0.000    0.000 
#
# Total GULP energy -545189.313364 kJ/mol
# GULP energy per Si atom -12390.666213 kJ/mol
# Density = 2.014078 g / cm^3
# Si number density = 20.186722 Si / 1000 Ang^3
#
#
#
# Elastic Constant Matrix: (Units=GPa)
#
#
# Indices 1 2 3 4 5 6 
#
# 1 123.4940 44.4156 48.0640 0.0000 0.0000 0.0000
# 2 44.4156 100.6096 24.8706 0.0000 0.0000 0.0000
# 3 48.0640 24.8706 79.2213 0.0000 0.0000 0.0000
# 4 0.0000 0.0000 0.0000 11.0961 0.0000 0.0000
# 5 0.0000 0.0000 0.0000 0.0000 30.1712 0.0000
# 6 0.0000 0.0000 0.0000 0.0000 0.0000 16.2629
#
#
#
# Elastic Compliance Matrix: (Units=1/GPa)
#
#
# Indices 1 2 3 4 5 6 
#
# 1 0.011756 -0.003715 -0.005966 0.000000 0.000000 0.000000
# 2 -0.003715 0.011950 -0.001498 0.000000 0.000000 0.000000
# 3 -0.005966 -0.001498 0.016713 0.000000 0.000000 0.000000
# 4 0.000000 0.000000 0.000000 0.090122 0.000000 0.000000
# 5 0.000000 0.000000 0.000000 0.000000 0.033144 0.000000
# 6 0.000000 0.000000 0.000000 0.000000 0.000000 0.061489
#
#
# Mechanical properties :
#
#
# Convention : Reuss Voigt Hill
#
# Bulk Modulus (GPa) = 55.36809 59.78058 57.57434
# Shear Modulus (GPa) = 19.71992 23.90436 21.81214
#
# Velocity S-wave (km/s) = 3.12889 3.44490 3.29069
# Velocity P-wave (km/s) = 6.36717 6.74546 6.55904
#
# Compressibility (1/GPa) = 0.01806094
#
# Stress axis : x y z
#
# Youngs Moduli (GPa) = 85.06581 83.68475 59.83514
#
# Poissons Ratio (x) = 0.31088 0.35697
# Poissons Ratio (y) = 0.31601 0.08961
# Poissons Ratio (z) = 0.50750 0.12532
#
# Static dielectric constant tensor:
#      x y z
#    x 3.795440 0.000000 0.000000 
#    y 0.000000 3.510670 0.000000 
#    z 0.000000 0.000000 3.578270 
# 
# 
# High freq. dielectric constant tensor:
#      x y z
#    x 1.799630 0.000000 0.000000 
#    y 0.000000 1.763920 0.000000 
#    z 0.000000 0.000000 1.760960 
# 
# From -- ./inp_files/14036.got.cif
#   From: 2010.03.12/outbox.cif.g09.slc.cpg/sg54_8_cif.got.tgz:14036.got - 2010.04.16 15:00:50.
