data_PCOD8222095
_publ_section_title
;
Structure prediction by ZEFSAII (Michael W. Deem and Ramdas Pophale) SiO2 
 PCOD8222095
Probable space group: P M N A
;
_chemical_formula_sum "Si O2"
_cell_formula_units_Z 40
_cell_length_a 8.744652
_cell_length_b 8.010068
_cell_length_c 25.653741
_cell_angle_alpha 90.000000
_cell_angle_beta 90.000000
_cell_angle_gamma 90.000000
_cell_volume 1796.922885
_symmetry_space_group_name_H-M "P M N A"
_symmetry_group_IT_number 53
_symmetry_cell_setting 'orthorhombic'
loop_
_space_group_symop_operation_xyz
x,y,z
1/2-x,-y,1/2+z
x,-y,-z
1/2-x,y,1/2-z
-x,-y,-z
1/2+x,y,1/2-z
-x,y,z
1/2+x,-y,1/2+z
loop_
_atom_site_type_symbol
_atom_site_label
_atom_site_fract_x
_atom_site_fract_y
_atom_site_fract_z
Si Si1 0.181162 0.858918 0.866757
Si Si2 0.165447 0.607950 0.050021
Si Si3 0.820780 0.477988 0.352035
Si Si4 0.163849 0.828596 0.523092
Si Si5 0.818171 0.832746 0.305810
O O1 0.239060 0.695190 0.833809
O O2 0.227034 0.833423 0.926760
O O3 0.000000 0.870350 0.861538
O O4 0.254741 0.030885 0.846299
O O5 0.275050 0.505005 0.088065
O O6 0.000000 0.651430 0.076281
O O7 0.133461 0.500000 0.000000
O O8 0.251446 0.767516 0.029047
O O9 0.765651 0.644165 0.320995
O O10 0.000000 0.452485 0.345393
O O11 0.000000 0.736857 0.536780
O O12 0.112450 0.000000 0.500000
O O13 0.750000 0.877572 0.250000
O O14 0.000000 0.846175 0.305154
#
# Coordination Sequence:
#
# PCOD8222095 Si02
#       5
#     8   8   8   8   8
#     4  12  25  42  67  98 133 173 217 270 327 389
#     4  11  22  36  58  92 129 167 212 260 316 381
#     4  11  24  43  69  98 133 176 223 273 328 395
#     4  11  23  38  59  89 127 172 219 265 318 382
#     4  11  26  48  72  99 129 167 217 274 335 394
#
# _framework density 22.260276999999999
#
# number of rings (size 3 to 8) (size 9 to 14) (size 15 to 20)
#    0.000    0.800    2.000    5.400    0.000   11.200 
#    0.000    2.000    0.000    0.000    0.000    0.000 
#    0.000    0.000    0.000    0.000    0.000    0.000 
#
# Total GULP energy -495591.084802 kJ/mol
# GULP energy per Si atom -12389.777120 kJ/mol
# Density = 2.220961 g / cm^3
# Si number density = 22.260277 Si / 1000 Ang^3
#
#
#
# Elastic Constant Matrix: (Units=GPa)
#
#
# Indices 1 2 3 4 5 6 
#
# 1 134.8617 49.0783 16.2338 0.0000 0.0000 0.0000
# 2 49.0783 126.3348 13.4269 0.0000 0.0000 0.0000
# 3 16.2338 13.4269 55.7523 0.0000 0.0000 0.0000
# 4 0.0000 0.0000 0.0000 27.3630 0.0000 0.0000
# 5 0.0000 0.0000 0.0000 0.0000 18.8536 0.0000
# 6 0.0000 0.0000 0.0000 0.0000 0.0000 19.2843
#
#
#
# Elastic Compliance Matrix: (Units=1/GPa)
#
#
# Indices 1 2 3 4 5 6 
#
# 1 0.008806 -0.003231 -0.001786 0.000000 0.000000 0.000000
# 2 -0.003231 0.009309 -0.001301 0.000000 0.000000 0.000000
# 3 -0.001786 -0.001301 0.018770 0.000000 0.000000 0.000000
# 4 0.000000 0.000000 0.000000 0.036546 0.000000 0.000000
# 5 0.000000 0.000000 0.000000 0.000000 0.053040 0.000000
# 6 0.000000 0.000000 0.000000 0.000000 0.000000 0.051856
#
#
# Mechanical properties :
#
#
# Convention : Reuss Voigt Hill
#
# Bulk Modulus (GPa) = 41.23967 52.71410 46.97688
# Shear Modulus (GPa) = 25.11996 28.98085 27.05041
#
# Velocity S-wave (km/s) = 3.36291 3.61211 3.48974
# Velocity P-wave (km/s) = 5.80045 6.41316 6.11449
#
# Compressibility (1/GPa) = 0.02424850
#
# Stress axis : x y z
#
# Youngs Moduli (GPa) = 113.56131 107.42349 53.27698
#
# Poissons Ratio (x) = 0.34709 0.09515
# Poissons Ratio (y) = 0.36692 0.06932
# Poissons Ratio (z) = 0.20281 0.13977
#
# Static dielectric constant tensor:
#      x y z
#    x 4.345100 0.000000 0.000000 
#    y 0.000000 4.481740 0.000000 
#    z 0.000000 0.000000 3.685880 
# 
# 
# High freq. dielectric constant tensor:
#      x y z
#    x 1.897740 0.000000 0.000000 
#    y 0.000000 1.896040 0.000000 
#    z 0.000000 0.000000 1.850360 
# 
# From -- ./inp_files/33634.got.cif
#   From: 2010.03.12/outbox.cif.g09.slc.cpg/sg53_17_cif.got.tgz:33634.got - 2010.04.16 14:36:59.
