data_PCOD8222277
_publ_section_title
;
Structure prediction by ZEFSAII (Michael W. Deem and Ramdas Pophale) SiO2 
 PCOD8222277
Probable space group: P C C A
;
_chemical_formula_sum "Si O2"
_cell_formula_units_Z 48
_cell_length_a 15.667998
_cell_length_b 28.242182
_cell_length_c 5.260369
_cell_angle_alpha 90.000000
_cell_angle_beta 90.000000
_cell_angle_gamma 90.000000
_cell_volume 2327.705135
_symmetry_space_group_name_H-M "P C C A"
_symmetry_group_IT_number 54
_symmetry_cell_setting 'orthorhombic'
loop_
_space_group_symop_operation_xyz
x,y,z
1/2-x,-y,z
1/2+x,-y,1/2-z
-x,y,1/2-z
-x,-y,-z
1/2+x,y,-z
1/2-x,y,1/2+z
x,-y,1/2+z
loop_
_atom_site_type_symbol
_atom_site_label
_atom_site_fract_x
_atom_site_fract_y
_atom_site_fract_z
Si Si1 0.197758 0.622737 0.285542
Si Si2 0.654222 0.020273 0.756675
Si Si3 0.652715 0.480055 0.277419
Si Si4 0.195686 0.724901 0.203748
Si Si5 0.398105 0.125788 0.750029
Si Si6 0.100211 0.180291 0.749936
O O1 0.225445 0.620534 0.580246
O O2 0.141157 0.576632 0.232584
O O3 0.150486 0.673158 0.236928
O O4 0.652251 0.076661 0.755046
O O5 0.750000 0.000000 0.758876
O O6 0.606391 0.999710 0.507364
O O7 0.750000 0.500000 0.283579
O O8 0.605819 0.497846 0.532128
O O9 0.268856 0.729730 0.417726
O O10 0.126546 0.765205 0.248090
O O11 0.500000 0.117435 0.750000
O O12 0.366007 0.155075 0.505163
O O13 0.365761 0.153332 0.000197
O O14 0.000000 0.178790 0.750000
#
# Coordination Sequence:
#
# PCOD8222277 Si02
#       6
#     8   8   8   8   8   8
#     4  10  16  25  39  59  95 129 158 207 252 311
#     4  10  21  38  53  80 111 139 167 205 256 304
#     4  10  14  20  34  55  81 126 165 194 247 302
#     4  10  21  35  50  79 109 137 170 216 274 313
#     4  10  21  38  61  81 103 137 179 216 249 297
#     4  10  21  40  59  80 107 140 179 218 257 309
#
# _framework density 20.621171
#
# number of rings (size 3 to 8) (size 9 to 14) (size 15 to 20)
#    0.000    2.000    3.333    2.000    0.000    0.667 
#   18.000    0.000    0.000    0.000    0.000    0.000 
#    0.000    1.333    0.000    0.000    0.000    6.667 
#
# Total GULP energy -594787.161495 kJ/mol
# GULP energy per Si atom -12391.399198 kJ/mol
# Density = 2.057424 g / cm^3
# Si number density = 20.621171 Si / 1000 Ang^3
#
#
#
# Elastic Constant Matrix: (Units=GPa)
#
#
# Indices 1 2 3 4 5 6 
#
# 1 8.0763 13.8478 4.7617 0.0000 0.0000 0.0000
# 2 13.8478 202.2172 63.3483 0.0000 0.0000 0.0000
# 3 4.7617 63.3483 189.0877 0.0000 0.0000 0.0000
# 4 0.0000 0.0000 0.0000 38.9988 0.0000 0.0000
# 5 0.0000 0.0000 0.0000 0.0000 0.3000 0.0000
# 6 0.0000 0.0000 0.0000 0.0000 0.0000 4.3428
#
#
#
# Elastic Compliance Matrix: (Units=1/GPa)
#
#
# Indices 1 2 3 4 5 6 
#
# 1 0.140312 -0.009499 -0.000351 0.000000 0.000000 0.000000
# 2 -0.009499 0.006168 -0.001827 0.000000 0.000000 0.000000
# 3 -0.000351 -0.001827 0.005910 0.000000 0.000000 0.000000
# 4 0.000000 0.000000 0.000000 0.025642 0.000000 0.000000
# 5 0.000000 0.000000 0.000000 0.000000 3.332935 0.000000
# 6 0.000000 0.000000 0.000000 0.000000 0.000000 0.230264
#
#
# Mechanical properties :
#
#
# Convention : Reuss Voigt Hill
#
# Bulk Modulus (GPa) = 7.74977 62.58855 35.16916
# Shear Modulus (GPa) = 1.31316 29.88988 15.60152
#
# Velocity S-wave (km/s) = 0.79887 3.81133 2.75358
# Velocity P-wave (km/s) = 2.14878 7.05590 5.21551
#
# Compressibility (1/GPa) = 0.12903605
#
# Stress axis : x y z
#
# Youngs Moduli (GPa) = 7.12695 162.12575 169.21741
#
# Poissons Ratio (x) = 1.53996 0.05943
# Poissons Ratio (y) = 0.06770 0.30920
# Poissons Ratio (z) = 0.00250 0.29624
#
# Static dielectric constant tensor:
#      x y z
#    x 2.909090 0.000000 0.000000 
#    y 0.000000 4.069360 0.000000 
#    z 0.000000 0.000000 6.552850 
# 
# 
# High freq. dielectric constant tensor:
#      x y z
#    x 1.722040 0.000000 0.000000 
#    y 0.000000 1.829610 0.000000 
#    z 0.000000 0.000000 1.847220 
# 
# From -- ./inp_files/1015.got.cif
#   From: 2010.03.12/outbox.cif.g09.slc.cpg/sg54_1_cif.got.tgz:1015.got - 2010.04.16 15:00:50.
