data_PCOD8222603
_publ_section_title
;
Structure prediction by ZEFSAII (Michael W. Deem and Ramdas Pophale) SiO2 
 PCOD8222603
Probable space group: P C C A
;
_chemical_formula_sum "Si O2"
_cell_formula_units_Z 60
_cell_length_a 26.628549
_cell_length_b 19.887869
_cell_length_c 5.331888
_cell_angle_alpha 90.000000
_cell_angle_beta 90.000000
_cell_angle_gamma 90.000000
_cell_volume 2823.688409
_symmetry_space_group_name_H-M "P C C A"
_symmetry_group_IT_number 54
_symmetry_cell_setting 'orthorhombic'
loop_
_space_group_symop_operation_xyz
x,y,z
1/2-x,-y,z
1/2+x,-y,1/2-z
-x,y,1/2-z
-x,-y,-z
1/2+x,y,-z
1/2-x,y,1/2+z
x,-y,1/2+z
loop_
_atom_site_type_symbol
_atom_site_label
_atom_site_fract_x
_atom_site_fract_y
_atom_site_fract_z
Si Si1 0.694554 0.955091 0.775236
Si Si2 0.768462 0.167845 0.271159
Si Si3 0.149432 0.481532 0.249115
Si Si4 0.556432 0.586010 0.750849
Si Si5 0.117714 0.200619 0.227567
Si Si6 0.406711 0.646725 0.248968
Si Si7 0.500000 0.957958 0.750000
Si Si8 0.595289 0.133185 0.274017
O O1 0.744099 0.907344 0.777275
O O2 0.646771 0.907403 0.773409
O O3 0.694497 0.000025 0.525269
O O4 0.751543 0.206932 0.523910
O O5 0.828075 0.165105 0.260487
O O6 0.180599 0.499961 0.499154
O O7 0.096363 0.524317 0.249252
O O8 0.140813 0.402631 0.248902
O O9 0.500000 0.555416 0.750000
O O10 0.561750 0.633123 0.504402
O O11 0.561780 0.633053 0.997498
O O12 0.118410 0.280448 0.250741
O O13 0.087054 0.172618 0.465315
O O14 0.092561 0.183309 0.962473
O O15 0.450148 0.915900 0.758254
O O16 0.500000 0.000000 0.500000
#
# Coordination Sequence:
#
# PCOD8222603 Si02
#       8
#     8   8   8   8   8   8   4   8
#     4  12  24  40  64  98 121 145 186 244 321 384
#     4  12  23  43  62  93 127 157 183 246 317 386
#     4   8  16  29  50  77 112 148 192 249 299 340
#     4  10  19  34  54  85 119 151 204 267 308 339
#     4  12  24  45  60  87 129 166 203 242 304 376
#     4  10  21  35  54  79 116 163 200 231 291 366
#     4  12  26  50  70  90 114 160 224 256 298 356
#     4  12  25  46  66  89 124 164 198 262 301 346
#
# _framework density 21.248805000000001
#
# number of rings (size 3 to 8) (size 9 to 14) (size 15 to 20)
#    0.000    1.067    2.667    4.400    0.000    6.400 
#    7.200    0.000    0.000    0.000    0.000    0.000 
#    0.000   28.800    0.000    0.000    0.000    0.000 
#
# Total GULP energy -743404.831291 kJ/mol
# GULP energy per Si atom -12390.080522 kJ/mol
# Density = 2.120044 g / cm^3
# Si number density = 21.248805 Si / 1000 Ang^3
#
#
#
# Elastic Constant Matrix: (Units=GPa)
#
#
# Indices 1 2 3 4 5 6 
#
# 1 -53.0958 55.9442 105.3491 0.0000 0.0000 0.0000
# 2 55.9442 105.2129 1.0043 0.0000 0.0000 0.0000
# 3 105.3491 1.0043 91.9431 0.0000 0.0000 0.0000
# 4 0.0000 0.0000 0.0000 -284.9370 0.0000 0.0000
# 5 0.0000 0.0000 0.0000 0.0000 13.1012 0.0000
# 6 0.0000 0.0000 0.0000 0.0000 0.0000 15.1874
#
#
#
# Elastic Compliance Matrix: (Units=1/GPa)
#
#
# Indices 1 2 3 4 5 6 
#
# 1 -0.004942 0.002574 0.005635 0.000000 0.000000 0.000000
# 2 0.002574 0.008165 -0.003039 0.000000 0.000000 0.000000
# 3 0.005635 -0.003039 0.004453 0.000000 0.000000 0.000000
# 4 0.000000 0.000000 0.000000 -0.003510 0.000000 0.000000
# 5 0.000000 0.000000 0.000000 0.000000 0.076329 0.000000
# 6 0.000000 0.000000 0.000000 0.000000 0.000000 0.065844
#
#
# Mechanical properties :
#
#
# Convention : Reuss Voigt Hill
#
# Bulk Modulus (GPa) = 55.50540 52.07282 53.78911
# Shear Modulus (GPa) = 35.21004 -52.54550 -8.66773
#
# Velocity S-wave (km/s) = 4.07509 -4.97819 -2.02188
# Velocity P-wave (km/s) = 6.95127 2.91268 4.46298
#
# Compressibility (1/GPa) = 0.01801627
#
# Stress axis : x y z
#
# Youngs Moduli (GPa) = -202.34422 122.47600 224.54879
#
# Poissons Ratio (x) = -0.31526 -1.26523
# Poissons Ratio (y) = 0.52084 0.68230
# Poissons Ratio (z) = 1.14012 0.37215
#
# Static dielectric constant tensor:
#      x y z
#    x 3.570700 0.000000 0.000000 
#    y 0.000000 3.584400 0.000000 
#    z 0.000000 0.000000 5.502340 
# 
# 
# High freq. dielectric constant tensor:
#      x y z
#    x 1.796040 0.000000 0.000000 
#    y 0.000000 1.814260 0.000000 
#    z 0.000000 0.000000 1.887590 
# 
# From -- ./inp_files/1989.got.cif
#   From: 2010.03.12/outbox.cif.g09.slc.cpg/sg54_1_cif.got.tgz:1989.got - 2010.04.16 15:00:50.
