data_PCOD8222437
_publ_section_title
;
Structure prediction by ZEFSAII (Michael W. Deem and Ramdas Pophale) SiO2 
 PCOD8222437
Probable space group: P C C A
;
_chemical_formula_sum "Si O2"
_cell_formula_units_Z 48
_cell_length_a 15.820812
_cell_length_b 8.668012
_cell_length_c 17.859036
_cell_angle_alpha 90.000000
_cell_angle_beta 90.000000
_cell_angle_gamma 90.000000
_cell_volume 2449.098692
_symmetry_space_group_name_H-M "P C C A"
_symmetry_group_IT_number 54
_symmetry_cell_setting 'orthorhombic'
loop_
_space_group_symop_operation_xyz
x,y,z
1/2-x,-y,z
1/2+x,-y,1/2-z
-x,y,1/2-z
-x,-y,-z
1/2+x,y,-z
1/2-x,y,1/2+z
x,-y,1/2+z
loop_
_atom_site_type_symbol
_atom_site_label
_atom_site_fract_x
_atom_site_fract_y
_atom_site_fract_z
Si Si1 0.918273 0.189441 0.972304
Si Si2 0.916760 0.795959 0.294679
Si Si3 0.738834 0.678305 0.712103
Si Si4 0.250392 0.183412 0.449310
Si Si5 0.166541 0.900730 0.687404
Si Si6 0.591090 0.169764 0.964396
O O1 0.923116 0.230780 0.884155
O O2 0.915849 0.008144 0.986617
O O3 0.833823 0.257250 0.012127
O O4 0.002488 0.254098 0.014311
O O5 0.844961 0.686852 0.261711
O O6 0.000000 0.749173 0.250000
O O7 0.895090 0.973923 0.274624
O O8 0.750000 0.500000 0.695096
O O9 0.736459 0.770659 0.635650
O O10 0.814249 0.761450 0.756839
O O11 0.332642 0.250934 0.491014
O O12 0.250000 0.000000 0.456220
O O13 0.115308 0.816330 0.622097
O O14 0.250000 0.000000 0.659846
#
# Coordination Sequence:
#
# PCOD8222437 Si02
#       6
#     8   8   8   8   8   8
#     4   9  18  30  53  86 109 132 176 230 280 328
#     4  10  19  36  61  86 110 140 184 233 279 328
#     4  11  23  37  53  77 113 155 189 223 274 332
#     4  10  18  33  55  78 106 140 183 230 273 321
#     4   9  18  34  56  81 106 140 185 227 274 331
#     4   9  16  30  54  82 108 133 170 231 287 324
#
# _framework density 19.599046999999999
#
# number of rings (size 3 to 8) (size 9 to 14) (size 15 to 20)
#    0.000    2.333    0.000    6.000    0.000    5.333 
#    0.000    5.833    0.000    3.000    0.000    0.000 
#    0.000    0.000    0.000    0.000    0.000    0.000 
#
# Total GULP energy -594829.020870 kJ/mol
# GULP energy per Si atom -12392.271268 kJ/mol
# Density = 1.955444 g / cm^3
# Si number density = 19.599047 Si / 1000 Ang^3
#
#
#
# Elastic Constant Matrix: (Units=GPa)
#
#
# Indices 1 2 3 4 5 6 
#
# 1 70.2526 4.1063 45.1365 0.0000 0.0000 0.0000
# 2 4.1063 15.2312 5.4342 0.0000 0.0000 0.0000
# 3 45.1365 5.4342 78.7743 0.0000 0.0000 0.0000
# 4 0.0000 0.0000 0.0000 0.7694 0.0000 0.0000
# 5 0.0000 0.0000 0.0000 0.0000 40.1959 0.0000
# 6 0.0000 0.0000 0.0000 0.0000 0.0000 9.3835
#
#
#
# Elastic Compliance Matrix: (Units=1/GPa)
#
#
# Indices 1 2 3 4 5 6 
#
# 1 0.022561 -0.001507 -0.012823 0.000000 0.000000 0.000000
# 2 -0.001507 0.067412 -0.003787 0.000000 0.000000 0.000000
# 3 -0.012823 -0.003787 0.020303 0.000000 0.000000 0.000000
# 4 0.000000 0.000000 0.000000 1.299792 0.000000 0.000000
# 5 0.000000 0.000000 0.000000 0.000000 0.024878 0.000000
# 6 0.000000 0.000000 0.000000 0.000000 0.000000 0.106570
#
#
# Mechanical properties :
#
#
# Convention : Reuss Voigt Hill
#
# Bulk Modulus (GPa) = 13.50583 30.40134 21.95358
# Shear Modulus (GPa) = 3.12026 17.37516 10.24771
#
# Velocity S-wave (km/s) = 1.26313 2.98070 2.28911
# Velocity P-wave (km/s) = 3.00555 5.23368 4.26760
#
# Compressibility (1/GPa) = 0.07404212
#
# Stress axis : x y z
#
# Youngs Moduli (GPa) = 44.32366 14.83408 49.25309
#
# Poissons Ratio (x) = 0.02236 0.63159
# Poissons Ratio (y) = 0.06682 0.18650
# Poissons Ratio (z) = 0.56838 0.05617
#
# Static dielectric constant tensor:
#      x y z
#    x 4.064870 0.000000 0.000000 
#    y 0.000000 2.972460 0.000000 
#    z 0.000000 0.000000 3.520340 
# 
# 
# High freq. dielectric constant tensor:
#      x y z
#    x 1.778240 0.000000 0.000000 
#    y 0.000000 1.701790 0.000000 
#    z 0.000000 0.000000 1.772410 
# 
# From -- ./inp_files/18032.got.cif
#   From: 2010.03.12/outbox.cif.g09.slc.cpg/sg54_10_cif.got.tgz:18032.got - 2010.04.16 15:00:50.
