data_PCOD8222999
_publ_section_title
;
Structure prediction by ZEFSAII (Michael W. Deem and Ramdas Pophale) SiO2 
 PCOD8222999
Probable space group: P C C A
;
_chemical_formula_sum "Si O2"
_cell_formula_units_Z 64
_cell_length_a 17.926395
_cell_length_b 19.397935
_cell_length_c 9.870163
_cell_angle_alpha 90.000000
_cell_angle_beta 90.000000
_cell_angle_gamma 90.000000
_cell_volume 3432.201575
_symmetry_space_group_name_H-M "P C C A"
_symmetry_group_IT_number 54
_symmetry_cell_setting 'orthorhombic'
loop_
_space_group_symop_operation_xyz
x,y,z
1/2-x,-y,z
1/2+x,-y,1/2-z
-x,y,1/2-z
-x,-y,-z
1/2+x,y,-z
1/2-x,y,1/2+z
x,-y,1/2+z
loop_
_atom_site_type_symbol
_atom_site_label
_atom_site_fract_x
_atom_site_fract_y
_atom_site_fract_z
Si Si1 0.964910 0.093475 0.112450
Si Si2 0.331894 0.686827 0.803139
Si Si3 0.060294 0.062347 0.861619
Si Si4 0.414541 0.446738 0.282047
Si Si5 0.824085 0.177740 0.031975
Si Si6 0.188119 0.839972 0.275265
Si Si7 0.791189 0.328436 0.989667
Si Si8 0.664922 0.475449 0.485447
O O1 0.904499 0.146468 0.058620
O O2 0.000000 0.122938 0.250000
O O3 0.926149 0.019581 0.137476
O O4 0.032599 0.087653 0.007182
O O5 0.403078 0.636400 0.790629
O O6 0.354554 0.767570 0.807096
O O7 0.278094 0.674225 0.672805
O O8 0.289379 0.666998 0.940538
O O9 0.138171 0.097243 0.825978
O O10 0.000000 0.083790 0.750000
O O11 0.500000 0.461964 0.250000
O O12 0.391142 0.480762 0.423302
O O13 0.362714 0.482048 0.168739
O O14 0.766066 0.154074 0.146143
O O15 0.834628 0.260281 0.038611
O O16 0.794920 0.153425 0.884641
O O17 0.839602 0.395243 0.030520
O O18 0.750000 0.500000 0.495874
#
# Coordination Sequence:
#
# PCOD8222999 Si02
#       8
#     8   8   8   8   8   8   8   8
#     4  10  22  38  60  84 117 152 192 235 280 348
#     4   9  19  36  56  82 109 146 185 232 280 341
#     4  10  20  39  60  83 111 153 195 229 281 345
#     4  11  23  37  55  86 119 145 186 244 291 332
#     4  10  21  39  57  85 118 146 189 244 286 338
#     4  10  21  37  60  84 114 149 190 239 289 340
#     4   9  19  35  58  82 108 143 196 233 269 337
#     4  11  21  37  62  82 109 156 197 229 281 351
#
# _framework density 18.646923999999999
#
# number of rings (size 3 to 8) (size 9 to 14) (size 15 to 20)
#    0.000    2.000    2.500    0.750    3.500    1.000 
#    2.250    1.875    0.000    0.000    0.000    0.000 
#    0.000    0.000    0.000    0.000    0.000    0.000 
#
# Total GULP energy -793602.447868 kJ/mol
# GULP energy per Si atom -12400.038248 kJ/mol
# Density = 1.860448 g / cm^3
# Si number density = 18.646924 Si / 1000 Ang^3
#
#
#
# Elastic Constant Matrix: (Units=GPa)
#
#
# Indices 1 2 3 4 5 6 
#
# 1 66.1906 31.3898 18.5443 0.0000 0.0000 0.0000
# 2 31.3898 73.4173 24.1421 0.0000 0.0000 0.0000
# 3 18.5443 24.1421 92.6071 0.0000 0.0000 0.0000
# 4 0.0000 0.0000 0.0000 23.1890 0.0000 0.0000
# 5 0.0000 0.0000 0.0000 0.0000 29.0844 0.0000
# 6 0.0000 0.0000 0.0000 0.0000 0.0000 25.2418
#
#
#
# Elastic Compliance Matrix: (Units=1/GPa)
#
#
# Indices 1 2 3 4 5 6 
#
# 1 0.019241 -0.007612 -0.001869 0.000000 0.000000 0.000000
# 2 -0.007612 0.017909 -0.003145 0.000000 0.000000 0.000000
# 3 -0.001869 -0.003145 0.011992 0.000000 0.000000 0.000000
# 4 0.000000 0.000000 0.000000 0.043124 0.000000 0.000000
# 5 0.000000 0.000000 0.000000 0.000000 0.034383 0.000000
# 6 0.000000 0.000000 0.000000 0.000000 0.000000 0.039617
#
#
# Mechanical properties :
#
#
# Convention : Reuss Voigt Hill
#
# Bulk Modulus (GPa) = 41.85444 42.26305 42.05874
# Shear Modulus (GPa) = 25.06502 26.04564 25.55533
#
# Velocity S-wave (km/s) = 3.67030 3.74141 3.70602
# Velocity P-wave (km/s) = 6.36050 6.43259 6.39665
#
# Compressibility (1/GPa) = 0.02389233
#
# Stress axis : x y z
#
# Youngs Moduli (GPa) = 51.97134 55.83651 83.38720
#
# Poissons Ratio (x) = 0.42504 0.15581
# Poissons Ratio (y) = 0.39562 0.26222
# Poissons Ratio (z) = 0.09711 0.17558
#
# Static dielectric constant tensor:
#      x y z
#    x 3.056280 0.000000 0.000000 
#    y 0.000000 3.596640 0.000000 
#    z 0.000000 0.000000 3.653850 
# 
# 
# High freq. dielectric constant tensor:
#      x y z
#    x 1.691940 0.000000 0.000000 
#    y 0.000000 1.731520 0.000000 
#    z 0.000000 0.000000 1.739990 
# 
# From -- ./inp_files/4393.got.cif
#   From: 2010.03.12/outbox.cif.g09.slc.cpg/sg54_3_cif.got.tgz:4393.got - 2010.04.16 15:00:50.
