data_PCOD8222781
_publ_section_title
;
Structure prediction by ZEFSAII (Michael W. Deem and Ramdas Pophale) SiO2 
 PCOD8222781
Probable space group: P C C A
;
_chemical_formula_sum "Si O2"
_cell_formula_units_Z 40
_cell_length_a 4.942685
_cell_length_b 12.471421
_cell_length_c 32.863472
_cell_angle_alpha 90.000000
_cell_angle_beta 90.000000
_cell_angle_gamma 90.000000
_cell_volume 2025.780181
_symmetry_space_group_name_H-M "P C C A"
_symmetry_group_IT_number 54
_symmetry_cell_setting 'orthorhombic'
loop_
_space_group_symop_operation_xyz
x,y,z
1/2-x,-y,z
1/2+x,-y,1/2-z
-x,y,1/2-z
-x,-y,-z
1/2+x,y,-z
1/2-x,y,1/2+z
x,-y,1/2+z
loop_
_atom_site_type_symbol
_atom_site_label
_atom_site_fract_x
_atom_site_fract_y
_atom_site_fract_z
Si Si1 0.306201 0.214858 0.363432
Si Si2 0.872411 0.712715 0.472375
Si Si3 0.493226 0.568814 0.599405
Si Si4 0.218498 0.875989 0.593440
Si Si5 0.748735 0.876424 0.222066
O O1 0.383774 0.338578 0.371699
O O2 0.578911 0.147215 0.369472
O O3 0.223283 0.200952 0.316742
O O4 0.076916 0.168705 0.394028
O O5 0.675075 0.706333 0.510572
O O6 0.844792 0.615489 0.440583
O O7 0.819831 0.821997 0.448121
O O8 0.250000 0.500000 0.621085
O O9 0.750000 0.500000 0.586064
O O10 0.250000 0.000000 0.584111
O O11 0.500000 0.849320 0.250000
O O12 0.000000 0.847559 0.250000
O O13 0.750000 0.000000 0.207211
#
# Coordination Sequence:
#
# PCOD8222781 Si02
#       5
#     8   8   8   8   8
#     4  11  22  39  60  86 119 151 196 242 278 343
#     4  11  23  38  56  84 115 144 190 244 293 347
#     4  11  23  40  61  83 108 149 197 243 295 339
#     4  11  22  37  59  84 116 159 194 228 284 350
#     4  10  20  34  57  90 123 152 180 219 278 339
#
# _framework density 19.745477999999999
#
# number of rings (size 3 to 8) (size 9 to 14) (size 15 to 20)
#    0.000    1.200    0.000    9.000    0.000    4.800 
#    0.000    0.000    0.000    2.400    0.000    0.000 
#    0.000    0.000    0.000    0.000    0.000    0.000 
#
# Total GULP energy -495916.621045 kJ/mol
# GULP energy per Si atom -12397.915526 kJ/mol
# Density = 1.970054 g / cm^3
# Si number density = 19.745478 Si / 1000 Ang^3
#
#
#
# Elastic Constant Matrix: (Units=GPa)
#
#
# Indices 1 2 3 4 5 6 
#
# 1 122.4563 53.0202 30.9998 0.0000 0.0000 0.0000
# 2 53.0202 142.5392 50.6286 0.0000 0.0000 0.0000
# 3 30.9998 50.6286 111.1316 0.0000 0.0000 0.0000
# 4 0.0000 0.0000 0.0000 11.0713 0.0000 0.0000
# 5 0.0000 0.0000 0.0000 0.0000 71.2759 0.0000
# 6 0.0000 0.0000 0.0000 0.0000 0.0000 37.5652
#
#
#
# Elastic Compliance Matrix: (Units=1/GPa)
#
#
# Indices 1 2 3 4 5 6 
#
# 1 0.009887 -0.003219 -0.001291 0.000000 0.000000 0.000000
# 2 -0.003219 0.009418 -0.003393 0.000000 0.000000 0.000000
# 3 -0.001291 -0.003393 0.010904 0.000000 0.000000 0.000000
# 4 0.000000 0.000000 0.000000 0.090324 0.000000 0.000000
# 5 0.000000 0.000000 0.000000 0.000000 0.014030 0.000000
# 6 0.000000 0.000000 0.000000 0.000000 0.000000 0.026620
#
#
# Mechanical properties :
#
#
# Convention : Reuss Voigt Hill
#
# Bulk Modulus (GPa) = 69.43021 71.71381 70.57201
# Shear Modulus (GPa) = 27.50426 40.08105 33.79265
#
# Velocity S-wave (km/s) = 3.73626 4.51031 4.14141
# Velocity P-wave (km/s) = 7.33838 7.97006 7.66073
#
# Compressibility (1/GPa) = 0.01440295
#
# Stress axis : x y z
#
# Youngs Moduli (GPa) = 101.14506 106.17980 91.70769
#
# Poissons Ratio (x) = 0.34178 0.11844
# Poissons Ratio (y) = 0.32557 0.31114
# Poissons Ratio (z) = 0.13062 0.36024
#
# Static dielectric constant tensor:
#      x y z
#    x 3.886610 0.000000 0.000000 
#    y 0.000000 3.656780 0.000000 
#    z 0.000000 0.000000 3.380390 
# 
# 
# High freq. dielectric constant tensor:
#      x y z
#    x 1.796960 0.000000 0.000000 
#    y 0.000000 1.765200 0.000000 
#    z 0.000000 0.000000 1.753190 
# 
# From -- ./inp_files/25148.got.cif
#   From: 2010.03.12/outbox.cif.g09.slc.cpg/sg54_13_cif.got.tgz:25148.got - 2010.04.16 15:00:50.
