data_PCOD8222255
_publ_section_title
;
Structure prediction by ZEFSAII (Michael W. Deem and Ramdas Pophale) SiO2 
 PCOD8222255
Probable space group: P M N A
;
_chemical_formula_sum "Si O2"
_cell_formula_units_Z 56
_cell_length_a 14.854415
_cell_length_b 10.517680
_cell_length_c 22.076397
_cell_angle_alpha 90.000000
_cell_angle_beta 90.000000
_cell_angle_gamma 90.000000
_cell_volume 3449.083446
_symmetry_space_group_name_H-M "P M N A"
_symmetry_group_IT_number 53
_symmetry_cell_setting 'orthorhombic'
loop_
_space_group_symop_operation_xyz
x,y,z
1/2-x,-y,1/2+z
x,-y,-z
1/2-x,y,1/2-z
-x,-y,-z
1/2+x,y,1/2-z
-x,y,z
1/2+x,-y,1/2+z
loop_
_atom_site_type_symbol
_atom_site_label
_atom_site_fract_x
_atom_site_fract_y
_atom_site_fract_z
Si Si1 0.603619 0.857969 0.791538
Si Si2 0.768539 0.362750 0.679812
Si Si3 0.602964 0.144624 0.793659
Si Si4 0.395331 0.002563 0.566635
Si Si5 0.603480 0.219464 0.655298
Si Si6 0.730219 0.361508 0.179987
Si Si7 0.102134 0.223205 0.155231
O O1 0.500000 0.834825 0.807911
O O2 0.659459 0.753466 0.830146
O O3 0.619044 0.845631 0.719523
O O4 0.633583 0.000721 0.810551
O O5 0.750000 0.373883 0.750000
O O6 0.838911 0.247687 0.668563
O O7 0.672097 0.337003 0.647767
O O8 0.805749 0.500418 0.656380
O O9 0.500000 0.166824 0.812680
O O10 0.614334 0.159071 0.721731
O O11 0.500000 0.027294 0.558610
O O12 0.377529 0.871618 0.600688
O O13 0.348953 0.000000 0.500000
O O14 0.359465 0.118179 0.606965
O O15 0.500000 0.262756 0.644241
O O16 0.750000 0.373863 0.250000
O O17 0.825334 0.335036 0.146632
O O18 0.000000 0.276802 0.151995
#
# Coordination Sequence:
#
# PCOD8222255 Si02
#       7
#     8   8   8   8   8   8   8
#     4   9  16  26  41  60  84 114 143 170 202 243
#     4   9  18  27  38  59  85 114 143 169 201 244
#     4   9  16  26  41  60  84 114 143 170 202 243
#     4   9  16  26  41  62  83 105 142 187 220 242
#     4   9  16  26  41  59  83 113 144 173 206 246
#     4   9  18  27  38  59  85 114 143 169 201 244
#     4   9  16  26  41  59  83 113 144 173 206 246
#
# _framework density 16.236197000000001
#
# number of rings (size 3 to 8) (size 9 to 14) (size 15 to 20)
#    0.000    3.000    1.429    0.000    2.000    2.857 
#    0.000    5.714    0.000    0.857    0.000    4.000 
#    0.000    2.286    0.000    2.571    0.000    2.857 
#
# Total GULP energy -693761.783826 kJ/mol
# GULP energy per Si atom -12388.603283 kJ/mol
# Density = 1.619924 g / cm^3
# Si number density = 16.236197 Si / 1000 Ang^3
#
#
#
# Elastic Constant Matrix: (Units=GPa)
#
#
# Indices 1 2 3 4 5 6 
#
# 1 85.2475 70.0995 21.8141 0.0000 0.0000 0.0000
# 2 70.0995 139.2197 16.2310 0.0000 0.0000 0.0000
# 3 21.8141 16.2310 34.7685 0.0000 0.0000 0.0000
# 4 0.0000 0.0000 0.0000 -4.1763 0.0000 0.0000
# 5 0.0000 0.0000 0.0000 0.0000 8.2231 0.0000
# 6 0.0000 0.0000 0.0000 0.0000 0.0000 23.3646
#
#
#
# Elastic Compliance Matrix: (Units=1/GPa)
#
#
# Indices 1 2 3 4 5 6 
#
# 1 0.022578 -0.010276 -0.009368 0.000000 0.000000 0.000000
# 2 -0.010276 0.012273 0.000718 0.000000 0.000000 0.000000
# 3 -0.009368 0.000718 0.034304 0.000000 0.000000 0.000000
# 4 0.000000 0.000000 0.000000 -0.239446 0.000000 0.000000
# 5 0.000000 0.000000 0.000000 0.000000 0.121608 0.000000
# 6 0.000000 0.000000 0.000000 0.000000 0.000000 0.042800
#
#
# Mechanical properties :
#
#
# Convention : Reuss Voigt Hill
#
# Bulk Modulus (GPa) = 31.94666 52.83610 42.39138
# Shear Modulus (GPa) = 117.90871 15.55503 66.73187
#
# Velocity S-wave (km/s) = 8.53103 3.09859 6.41794
# Velocity P-wave (km/s) = 10.80541 6.73903 9.00476
#
# Compressibility (1/GPa) = 0.03130218
#
# Stress axis : x y z
#
# Youngs Moduli (GPa) = 44.29084 81.47664 29.15075
#
# Poissons Ratio (x) = 0.83727 0.27310
# Poissons Ratio (y) = 0.45514 -0.02092
# Poissons Ratio (z) = 0.41494 -0.05848
#
# Static dielectric constant tensor:
#      x y z
#    x 3.152110 0.000000 0.000000 
#    y 0.000000 3.457910 0.000000 
#    z 0.000000 0.000000 2.812690 
# 
# 
# High freq. dielectric constant tensor:
#      x y z
#    x 1.619940 0.000000 0.000000 
#    y 0.000000 1.627690 0.000000 
#    z 0.000000 0.000000 1.553290 
# 
# From -- ./inp_files/35517.got.cif
#   From: 2010.03.12/outbox.cif.g09.slc.cpg/sg53_18_cif.got.tgz:35517.got - 2010.04.16 14:36:59.
