data_PCOD8222597
_publ_section_title
;
Structure prediction by ZEFSAII (Michael W. Deem and Ramdas Pophale) SiO2 
 PCOD8222597
Probable space group: P C C A
;
_chemical_formula_sum "Si O2"
_cell_formula_units_Z 64
_cell_length_a 18.734378
_cell_length_b 12.184213
_cell_length_c 13.948335
_cell_angle_alpha 90.000000
_cell_angle_beta 90.000000
_cell_angle_gamma 90.000000
_cell_volume 3183.897886
_symmetry_space_group_name_H-M "P C C A"
_symmetry_group_IT_number 54
_symmetry_cell_setting 'orthorhombic'
loop_
_space_group_symop_operation_xyz
x,y,z
1/2-x,-y,z
1/2+x,-y,1/2-z
-x,y,1/2-z
-x,-y,-z
1/2+x,y,-z
1/2-x,y,1/2+z
x,-y,1/2+z
loop_
_atom_site_type_symbol
_atom_site_label
_atom_site_fract_x
_atom_site_fract_y
_atom_site_fract_z
Si Si1 0.667528 0.789292 0.266971
Si Si2 0.681554 0.194282 0.363667
Si Si3 0.553824 0.054384 0.102859
Si Si4 0.909473 0.001599 0.817224
Si Si5 0.131415 0.154433 0.436161
Si Si6 0.010000 0.737589 0.508829
Si Si7 0.559066 0.641098 0.828957
Si Si8 0.932535 0.389493 0.317235
O O1 0.740334 0.785271 0.324950
O O2 0.679833 0.824939 0.157341
O O3 0.635399 0.667721 0.268640
O O4 0.609746 0.873223 0.312713
O O5 0.660601 0.068315 0.346209
O O6 0.678282 0.206115 0.478670
O O7 0.625934 0.277591 0.313819
O O8 0.470526 0.013176 0.099765
O O9 0.567993 0.056001 0.216525
O O10 0.556952 0.171505 0.049070
O O11 0.612665 0.975218 0.053627
O O12 0.053712 0.211019 0.427802
O O13 0.058727 0.664076 0.577710
O O14 0.976011 0.655415 0.432262
O O15 0.500000 0.669591 0.750000
O O16 0.586778 0.517068 0.823185
O O17 0.000000 0.369376 0.250000
#
# Coordination Sequence:
#
# PCOD8222597 Si02
#       8
#     8   8   8   8   8   8   8   8
#     4  11  24  41  59  88 127 164 200 252 305 371
#     4  11  23  41  62  84 127 164 204 246 310 366
#     4  10  19  33  64  94 122 157 198 246 310 361
#     4  10  20  36  60  93 126 157 197 249 301 368
#     4  10  21  37  61  89 123 160 199 246 300 370
#     4  11  19  35  64  94 120 152 199 255 303 363
#     4  10  22  41  64  91 120 156 206 264 306 358
#     4  11  23  39  64  92 120 158 208 257 309 357
#
# _framework density 20.101147999999998
#
# number of rings (size 3 to 8) (size 9 to 14) (size 15 to 20)
#    0.000    1.500    3.750    2.625    3.500    0.500 
#    4.500    1.250    0.000    1.500    0.000    0.000 
#    0.000    0.000    0.000    0.000    0.000    0.000 
#
# Total GULP energy -793444.427594 kJ/mol
# GULP energy per Si atom -12397.569181 kJ/mol
# Density = 2.005540 g / cm^3
# Si number density = 20.101148 Si / 1000 Ang^3
#
#
#
# Elastic Constant Matrix: (Units=GPa)
#
#
# Indices 1 2 3 4 5 6 
#
# 1 83.6025 37.3051 33.5682 0.0000 0.0000 0.0000
# 2 37.3051 111.0823 35.2405 0.0000 0.0000 0.0000
# 3 33.5682 35.2405 63.0896 0.0000 0.0000 0.0000
# 4 0.0000 0.0000 0.0000 27.9242 0.0000 0.0000
# 5 0.0000 0.0000 0.0000 0.0000 33.6458 0.0000
# 6 0.0000 0.0000 0.0000 0.0000 0.0000 16.5654
#
#
#
# Elastic Compliance Matrix: (Units=1/GPa)
#
#
# Indices 1 2 3 4 5 6 
#
# 1 0.016136 -0.003276 -0.006756 0.000000 0.000000 0.000000
# 2 -0.003276 0.011606 -0.004740 0.000000 0.000000 0.000000
# 3 -0.006756 -0.004740 0.022093 0.000000 0.000000 0.000000
# 4 0.000000 0.000000 0.000000 0.035811 0.000000 0.000000
# 5 0.000000 0.000000 0.000000 0.000000 0.029721 0.000000
# 6 0.000000 0.000000 0.000000 0.000000 0.000000 0.060367
#
#
# Mechanical properties :
#
#
# Convention : Reuss Voigt Hill
#
# Bulk Modulus (GPa) = 49.28111 52.22244 50.75178
# Shear Modulus (GPa) = 23.58041 25.73777 24.65909
#
# Velocity S-wave (km/s) = 3.42875 3.58217 3.50630
# Velocity P-wave (km/s) = 6.34389 6.56852 6.45718
#
# Compressibility (1/GPa) = 0.02029175
#
# Stress axis : x y z
#
# Youngs Moduli (GPa) = 61.97500 86.16089 45.26397
#
# Poissons Ratio (x) = 0.28223 0.30578
# Poissons Ratio (y) = 0.20301 0.21456
# Poissons Ratio (z) = 0.41868 0.40841
#
# Static dielectric constant tensor:
#      x y z
#    x 3.285080 0.000000 0.000000 
#    y 0.000000 3.632030 0.000000 
#    z 0.000000 0.000000 3.793670 
# 
# 
# High freq. dielectric constant tensor:
#      x y z
#    x 1.751010 0.000000 0.000000 
#    y 0.000000 1.780280 0.000000 
#    z 0.000000 0.000000 1.803960 
# 
# From -- ./inp_files/14344.got.cif
#   From: 2010.03.12/outbox.cif.g09.slc.cpg/sg54_8_cif.got.tgz:14344.got - 2010.04.16 15:00:50.
