data_PCOD8222334
_publ_section_title
;
Structure prediction by ZEFSAII (Michael W. Deem and Ramdas Pophale) SiO2 
 PCOD8222334
Probable space group: P C C A
;
_chemical_formula_sum "Si O2"
_cell_formula_units_Z 56
_cell_length_a 12.594728
_cell_length_b 32.916880
_cell_length_c 5.288929
_cell_angle_alpha 90.000000
_cell_angle_beta 90.000000
_cell_angle_gamma 90.000000
_cell_volume 2192.679690
_symmetry_space_group_name_H-M "P C C A"
_symmetry_group_IT_number 54
_symmetry_cell_setting 'orthorhombic'
loop_
_space_group_symop_operation_xyz
x,y,z
1/2-x,-y,z
1/2+x,-y,1/2-z
-x,y,1/2-z
-x,-y,-z
1/2+x,y,-z
1/2-x,y,1/2+z
x,-y,1/2+z
loop_
_atom_site_type_symbol
_atom_site_label
_atom_site_fract_x
_atom_site_fract_y
_atom_site_fract_z
Si Si1 0.884227 0.517600 0.513879
Si Si2 0.867537 0.983257 0.894280
Si Si3 0.683271 0.308711 0.504926
Si Si4 0.877751 0.777265 0.604090
Si Si5 0.183766 0.395777 0.410198
Si Si6 0.360660 0.189608 0.395164
Si Si7 0.431243 0.104333 0.500999
O O1 0.825202 0.503793 0.254101
O O2 0.893267 0.566249 0.541890
O O3 0.000000 0.500000 0.500000
O O4 0.750000 0.000000 0.834005
O O5 0.925120 0.990993 0.621191
O O6 0.861032 0.935799 0.958612
O O7 0.775314 0.306144 0.717374
O O8 0.605952 0.270432 0.545390
O O9 0.624212 0.352311 0.545992
O O10 0.928120 0.787284 0.881006
O O11 0.753761 0.789796 0.651834
O O12 0.922924 0.804570 0.372449
O O13 0.223012 0.398265 0.120341
O O14 0.350793 0.142053 0.462287
O O15 0.500000 0.098337 0.250000
O O16 0.500000 0.112941 0.750000
#
# Coordination Sequence:
#
# PCOD8222334 Si02
#       7
#     8   8   8   8   8   8   8
#     4  10  21  37  55  77 108 158 193 235 290 366
#     4  10  23  42  67  92 119 158 200 257 298 350
#     4  10  16  30  50  84 121 141 178 240 307 346
#     4  10  17  32  57  88 110 144 190 240 300 341
#     4  10  21  32  53  87 117 143 188 250 303 344
#     4  10  20  33  57  86 116 149 191 238 288 352
#     4  12  26  42  59  88 125 165 203 245 299 350
#
# _framework density 25.539527
#
# number of rings (size 3 to 8) (size 9 to 14) (size 15 to 20)
#    0.000    1.714    2.857    2.571    0.000    8.000 
#    0.000    0.000    0.000    0.000   22.286    0.000 
#    0.000    0.000    0.000    0.000    0.000    0.000 
#
# Total GULP energy -694046.530524 kJ/mol
# GULP energy per Si atom -12393.688045 kJ/mol
# Density = 2.548140 g / cm^3
# Si number density = 25.539527 Si / 1000 Ang^3
#
#
#
# Elastic Constant Matrix: (Units=GPa)
#
#
# Indices 1 2 3 4 5 6 
#
# 1 41.5649 14.1460 13.5333 0.0000 0.0000 0.0000
# 2 14.1460 247.8214 47.5498 0.0000 0.0000 0.0000
# 3 13.5333 47.5498 232.3216 0.0000 0.0000 0.0000
# 4 0.0000 0.0000 0.0000 44.9585 0.0000 0.0000
# 5 0.0000 0.0000 0.0000 0.0000 -13.6384 0.0000
# 6 0.0000 0.0000 0.0000 0.0000 0.0000 14.1198
#
#
#
# Elastic Compliance Matrix: (Units=1/GPa)
#
#
# Indices 1 2 3 4 5 6 
#
# 1 0.024855 -0.001188 -0.001205 0.000000 0.000000 0.000000
# 2 -0.001188 0.004257 -0.000802 0.000000 0.000000 0.000000
# 3 -0.001205 -0.000802 0.004539 0.000000 0.000000 0.000000
# 4 0.000000 0.000000 0.000000 0.022243 0.000000 0.000000
# 5 0.000000 0.000000 0.000000 0.000000 -0.073322 0.000000
# 6 0.000000 0.000000 0.000000 0.000000 0.000000 0.070823
#
#
# Mechanical properties :
#
#
# Convention : Reuss Voigt Hill
#
# Bulk Modulus (GPa) = 36.68133 74.68512 55.68322
# Shear Modulus (GPa) = 72.60013 38.85321 55.72667
#
# Velocity S-wave (km/s) = 5.33744 3.90461 4.67623
# Velocity P-wave (km/s) = 7.23727 7.04517 7.14187
#
# Compressibility (1/GPa) = 0.02726183
#
# Stress axis : x y z
#
# Youngs Moduli (GPa) = 40.23297 234.91555 220.32620
#
# Poissons Ratio (x) = 0.27899 0.26545
# Poissons Ratio (y) = 0.04778 0.17672
# Poissons Ratio (z) = 0.04847 0.18842
#
# Static dielectric constant tensor:
#      x y z
#    x 4.147050 0.000000 0.000000 
#    y 0.000000 4.959630 0.000000 
#    z 0.000000 0.000000 4.926660 
# 
# 
# High freq. dielectric constant tensor:
#      x y z
#    x 1.995180 0.000000 0.000000 
#    y 0.000000 2.027760 0.000000 
#    z 0.000000 0.000000 2.074000 
# 
# From -- ./inp_files/740.got.cif
#   From: 2010.03.12/outbox.cif.g09.slc.cpg/sg54_1_cif.got.tgz:740.got - 2010.04.16 15:00:50.
