data_PCOD8222214
_publ_section_title
;
Structure prediction by ZEFSAII (Michael W. Deem and Ramdas Pophale) SiO2 
 PCOD8222214
Probable space group: P M N A
;
_chemical_formula_sum "Si O2"
_cell_formula_units_Z 32
_cell_length_a 18.753692
_cell_length_b 10.083467
_cell_length_c 8.861091
_cell_angle_alpha 90.000000
_cell_angle_beta 90.000000
_cell_angle_gamma 90.000000
_cell_volume 1675.652107
_symmetry_space_group_name_H-M "P M N A"
_symmetry_group_IT_number 53
_symmetry_cell_setting 'orthorhombic'
loop_
_space_group_symop_operation_xyz
x,y,z
1/2-x,-y,1/2+z
x,-y,-z
1/2-x,y,1/2-z
-x,-y,-z
1/2+x,y,1/2-z
-x,y,z
1/2+x,-y,1/2+z
loop_
_atom_site_type_symbol
_atom_site_label
_atom_site_fract_x
_atom_site_fract_y
_atom_site_fract_z
Si Si1 0.081308 0.201315 0.578833
Si Si2 0.782314 0.635146 0.410625
Si Si3 0.919345 0.068607 0.260337
Si Si4 0.786106 0.128525 0.089045
O O1 0.136318 0.318218 0.612587
O O2 0.097530 0.151789 0.410280
O O3 0.000000 0.253445 0.591101
O O4 0.094278 0.085401 0.700789
O O5 0.782776 0.500000 0.500000
O O6 0.750000 0.603471 0.250000
O O7 0.732351 0.741824 0.494027
O O8 0.870833 0.116660 0.120629
O O9 0.000000 0.091899 0.207399
O O10 0.750000 0.132668 0.250000
O O11 0.757487 0.000000 0.000000
#
# Coordination Sequence:
#
# PCOD8222214 Si02
#       4
#     8   8   8   8
#     4   9  18  37  63  90 120 158 205 248 296 363
#     4  12  26  42  61  88 123 161 206 253 307 365
#     4   9  18  34  61  93 122 154 198 250 300 354
#     4  12  22  36  61  90 124 160 200 250 304 359
#
# _framework density 19.097044
#
# number of rings (size 3 to 8) (size 9 to 14) (size 15 to 20)
#    0.000    1.500    2.500    6.000    0.000    1.000 
#    0.000    1.250    0.000    1.500    0.000    0.000 
#    0.000    0.000    0.000    0.000    0.000    0.000 
#
# Total GULP energy -396845.250742 kJ/mol
# GULP energy per Si atom -12401.414086 kJ/mol
# Density = 1.905358 g / cm^3
# Si number density = 19.097044 Si / 1000 Ang^3
#
#
#
# Elastic Constant Matrix: (Units=GPa)
#
#
# Indices 1 2 3 4 5 6 
#
# 1 127.3831 68.1187 54.6067 0.0000 0.0000 0.0000
# 2 68.1187 113.2308 32.3153 0.0000 0.0000 0.0000
# 3 54.6067 32.3153 70.9681 0.0000 0.0000 0.0000
# 4 0.0000 0.0000 0.0000 29.1756 0.0000 0.0000
# 5 0.0000 0.0000 0.0000 0.0000 48.1971 0.0000
# 6 0.0000 0.0000 0.0000 0.0000 0.0000 -9.8659
#
#
#
# Elastic Compliance Matrix: (Units=1/GPa)
#
#
# Indices 1 2 3 4 5 6 
#
# 1 0.015066 -0.006615 -0.008580 0.000000 0.000000 0.000000
# 2 -0.006615 0.013055 -0.000855 0.000000 0.000000 0.000000
# 3 -0.008580 -0.000855 0.021082 0.000000 0.000000 0.000000
# 4 0.000000 0.000000 0.000000 0.034275 0.000000 0.000000
# 5 0.000000 0.000000 0.000000 0.000000 0.020748 0.000000
# 6 0.000000 0.000000 0.000000 0.000000 0.000000 -0.101359
#
#
# Mechanical properties :
#
#
# Convention : Reuss Voigt Hill
#
# Bulk Modulus (GPa) = 58.46905 69.07371 63.77138
# Shear Modulus (GPa) = 122.94739 23.93747 73.44243
#
# Velocity S-wave (km/s) = 8.03244 3.54427 6.20814
# Velocity P-wave (km/s) = 10.80324 7.27994 9.21161
#
# Compressibility (1/GPa) = 0.01710307
#
# Stress axis : x y z
#
# Youngs Moduli (GPa) = 66.37536 76.60016 47.43306
#
# Poissons Ratio (x) = 0.50668 0.40700
# Poissons Ratio (y) = 0.43905 0.04055
# Poissons Ratio (z) = 0.56953 0.06548
#
# Static dielectric constant tensor:
#      x y z
#    x 3.851020 0.000000 0.000000 
#    y 0.000000 3.267120 0.000000 
#    z 0.000000 0.000000 3.526960 
# 
# 
# High freq. dielectric constant tensor:
#      x y z
#    x 1.760970 0.000000 0.000000 
#    y 0.000000 1.715710 0.000000 
#    z 0.000000 0.000000 1.743230 
# 
# From -- ./inp_files/10436.got.cif
#   From: 2010.03.12/outbox.cif.g09.slc.cpg/sg53_6_cif.got.tgz:10436.got - 2010.04.16 14:36:59.
