data_PCOD8222066
_publ_section_title
;
Structure prediction by ZEFSAII (Michael W. Deem and Ramdas Pophale) SiO2 
 PCOD8222066
Probable space group: P M N A
;
_chemical_formula_sum "Si O2"
_cell_formula_units_Z 32
_cell_length_a 13.015776
_cell_length_b 11.357779
_cell_length_c 9.931661
_cell_angle_alpha 90.000000
_cell_angle_beta 90.000000
_cell_angle_gamma 90.000000
_cell_volume 1468.200498
_symmetry_space_group_name_H-M "P M N A"
_symmetry_group_IT_number 53
_symmetry_cell_setting 'orthorhombic'
loop_
_space_group_symop_operation_xyz
x,y,z
1/2-x,-y,1/2+z
x,-y,-z
1/2-x,y,1/2-z
-x,-y,-z
1/2+x,y,1/2-z
-x,y,z
1/2+x,-y,1/2+z
loop_
_atom_site_type_symbol
_atom_site_label
_atom_site_fract_x
_atom_site_fract_y
_atom_site_fract_z
Si Si1 0.324262 0.065910 0.129401
Si Si2 0.114953 0.325228 0.375390
Si Si3 0.500000 0.196310 0.485588
Si Si4 0.163592 0.380394 0.068128
Si Si5 0.500000 0.008925 0.715806
O O1 0.250000 0.101676 0.250000
O O2 0.383067 0.185868 0.096183
O O3 0.402783 0.970493 0.188514
O O4 0.271903 0.000000 0.000000
O O5 0.131717 0.370728 0.223659
O O6 0.213076 0.374631 0.458497
O O7 0.000000 0.368510 0.421892
O O8 0.396071 0.272278 0.501918
O O9 0.500000 0.105133 0.603786
O O10 0.500000 0.124861 0.344573
O O11 0.122891 0.500000 0.000000
#
# Coordination Sequence:
#
# PCOD8222066 Si02
#       5
#     8   8   4   8   4
#     4  12  24  41  69 101 142 185 224 282 355 426
#     4  11  22  42  67  96 132 178 228 286 352 409
#     4  11  21  40  72 103 138 180 234 285 342 424
#     4  11  22  41  68  94 129 181 233 283 341 408
#     4  11  23  40  66 107 139 179 226 284 356 415
#
# _framework density 21.795387999999999
#
# number of rings (size 3 to 8) (size 9 to 14) (size 15 to 20)
#    0.000    0.750    7.500    0.750    7.000    0.500 
#    0.000    5.000    0.000    0.000    0.000    0.000 
#    0.000    0.000    0.000    0.000    0.000    0.000 
#
# Total GULP energy -396417.940853 kJ/mol
# GULP energy per Si atom -12388.060652 kJ/mol
# Density = 2.174578 g / cm^3
# Si number density = 21.795388 Si / 1000 Ang^3
#
#
#
# Elastic Constant Matrix: (Units=GPa)
#
#
# Indices 1 2 3 4 5 6 
#
# 1 150.4379 27.9382 6.8643 0.0000 0.0000 0.0000
# 2 27.9382 114.5224 46.5957 0.0000 0.0000 0.0000
# 3 6.8643 46.5957 63.6749 0.0000 0.0000 0.0000
# 4 0.0000 0.0000 0.0000 18.5037 0.0000 0.0000
# 5 0.0000 0.0000 0.0000 0.0000 18.2753 0.0000
# 6 0.0000 0.0000 0.0000 0.0000 0.0000 25.0821
#
#
#
# Elastic Compliance Matrix: (Units=1/GPa)
#
#
# Indices 1 2 3 4 5 6 
#
# 1 0.006985 -0.001990 0.000703 0.000000 0.000000 0.000000
# 2 -0.001990 0.013001 -0.009299 0.000000 0.000000 0.000000
# 3 0.000703 -0.009299 0.022434 0.000000 0.000000 0.000000
# 4 0.000000 0.000000 0.000000 0.054043 0.000000 0.000000
# 5 0.000000 0.000000 0.000000 0.000000 0.054719 0.000000
# 6 0.000000 0.000000 0.000000 0.000000 0.000000 0.039869
#
#
# Mechanical properties :
#
#
# Convention : Reuss Voigt Hill
#
# Bulk Modulus (GPa) = 47.06412 54.60351 50.83382
# Shear Modulus (GPa) = 22.79928 28.85470 25.82699
#
# Velocity S-wave (km/s) = 3.23779 3.64248 3.44608
# Velocity P-wave (km/s) = 5.96810 6.54197 6.26161
#
# Compressibility (1/GPa) = 0.02124761
#
# Stress axis : x y z
#
# Youngs Moduli (GPa) = 143.16884 76.91706 44.57528
#
# Poissons Ratio (x) = 0.15308 -0.03135
# Poissons Ratio (y) = 0.28493 0.41452
# Poissons Ratio (z) = -0.10070 0.71527
#
# Static dielectric constant tensor:
#      x y z
#    x 4.458150 0.000000 0.000000 
#    y 0.000000 3.761400 0.000000 
#    z 0.000000 0.000000 3.789470 
# 
# 
# High freq. dielectric constant tensor:
#      x y z
#    x 1.878750 0.000000 0.000000 
#    y 0.000000 1.843180 0.000000 
#    z 0.000000 0.000000 1.824450 
# 
# From -- ./inp_files/14600.got.cif
#   From: 2010.03.12/outbox.cif.g09.slc.cpg/sg53_8_cif.got.tgz:14600.got - 2010.04.16 14:36:59.
