data_PCOD8222599
_publ_section_title
;
Structure prediction by ZEFSAII (Michael W. Deem and Ramdas Pophale) SiO2 
 PCOD8222599
Probable space group: P C C A
;
_chemical_formula_sum "Si O2"
_cell_formula_units_Z 64
_cell_length_a 16.333905
_cell_length_b 11.895461
_cell_length_c 15.788034
_cell_angle_alpha 90.000000
_cell_angle_beta 90.000000
_cell_angle_gamma 90.000000
_cell_volume 3067.604427
_symmetry_space_group_name_H-M "P C C A"
_symmetry_group_IT_number 54
_symmetry_cell_setting 'orthorhombic'
loop_
_space_group_symop_operation_xyz
x,y,z
1/2-x,-y,z
1/2+x,-y,1/2-z
-x,y,1/2-z
-x,-y,-z
1/2+x,y,-z
1/2-x,y,1/2+z
x,-y,1/2+z
loop_
_atom_site_type_symbol
_atom_site_label
_atom_site_fract_x
_atom_site_fract_y
_atom_site_fract_z
Si Si1 0.276937 0.750167 0.616213
Si Si2 0.605240 0.853565 0.405707
Si Si3 0.780508 0.764122 0.194329
Si Si4 0.055082 0.119823 0.831382
Si Si5 0.128158 0.105562 0.281623
Si Si6 0.409885 0.902045 0.550970
Si Si7 0.202048 0.615717 0.952147
Si Si8 0.559443 0.742559 0.094022
O O1 0.190675 0.794218 0.581902
O O2 0.275992 0.702006 0.712883
O O3 0.339926 0.855558 0.614895
O O4 0.297021 0.650861 0.550688
O O5 0.598315 0.912389 0.314110
O O6 0.538019 0.754017 0.420356
O O7 0.594936 0.963091 0.466012
O O8 0.873544 0.787870 0.168313
O O9 0.726446 0.877525 0.209289
O O10 0.745040 0.695953 0.115757
O O11 0.000000 0.138947 0.750000
O O12 0.999099 0.133715 0.914120
O O13 0.097029 0.998435 0.835769
O O14 0.083250 0.220934 0.311009
O O15 0.395190 0.837563 0.463280
O O16 0.250000 0.500000 0.942068
O O17 0.103357 0.621701 0.927678
#
# Coordination Sequence:
#
# PCOD8222599 Si02
#       8
#     8   8   8   8   8   8   8   8
#     4  10  22  38  58  87 117 153 192 240 288 352
#     4  11  19  33  56  84 122 156 191 223 280 348
#     4  10  22  37  60  86 115 153 195 235 287 347
#     4  12  19  31  56  86 125 161 187 219 272 344
#     4  10  19  34  52  83 122 162 188 219 273 345
#     4  11  21  32  52  87 127 161 184 220 276 348
#     4  10  24  45  63  79 108 146 201 260 308 341
#     4  10  21  35  55  83 113 152 195 239 283 343
#
# _framework density 20.863185999999999
#
# number of rings (size 3 to 8) (size 9 to 14) (size 15 to 20)
#    0.000    1.500    3.750    1.500    1.750    2.500 
#    0.000    4.375    0.000    3.000    0.000    0.000 
#    0.000    0.000    0.000    0.000    0.000    0.000 
#
# Total GULP energy -792931.639609 kJ/mol
# GULP energy per Si atom -12389.556869 kJ/mol
# Density = 2.081570 g / cm^3
# Si number density = 20.863186 Si / 1000 Ang^3
#
#
#
# Elastic Constant Matrix: (Units=GPa)
#
#
# Indices 1 2 3 4 5 6 
#
# 1 134.8945 33.6900 8.0334 0.0000 0.0000 0.0000
# 2 33.6900 63.8720 10.5556 0.0000 0.0000 0.0000
# 3 8.0334 10.5556 55.9572 0.0000 0.0000 0.0000
# 4 0.0000 0.0000 0.0000 15.9420 0.0000 0.0000
# 5 0.0000 0.0000 0.0000 0.0000 22.1322 0.0000
# 6 0.0000 0.0000 0.0000 0.0000 0.0000 33.0099
#
#
#
# Elastic Compliance Matrix: (Units=1/GPa)
#
#
# Indices 1 2 3 4 5 6 
#
# 1 0.008546 -0.004444 -0.000389 0.000000 0.000000 0.000000
# 2 -0.004444 0.018470 -0.002846 0.000000 0.000000 0.000000
# 3 -0.000389 -0.002846 0.018464 0.000000 0.000000 0.000000
# 4 0.000000 0.000000 0.000000 0.062727 0.000000 0.000000
# 5 0.000000 0.000000 0.000000 0.000000 0.045183 0.000000
# 6 0.000000 0.000000 0.000000 0.000000 0.000000 0.030294
#
#
# Mechanical properties :
#
#
# Convention : Reuss Voigt Hill
#
# Bulk Modulus (GPa) = 33.19710 39.92020 36.55865
# Shear Modulus (GPa) = 23.91399 27.71312 25.81356
#
# Velocity S-wave (km/s) = 3.38927 3.64858 3.52131
# Velocity P-wave (km/s) = 5.59130 6.07662 5.83900
#
# Compressibility (1/GPa) = 0.03012311
#
# Stress axis : x y z
#
# Youngs Moduli (GPa) = 117.01212 54.14050 54.16090
#
# Poissons Ratio (x) = 0.24057 0.02105
# Poissons Ratio (y) = 0.51994 0.15416
# Poissons Ratio (z) = 0.04548 0.15410
#
# Static dielectric constant tensor:
#      x y z
#    x 4.158680 0.000000 0.000000 
#    y 0.000000 3.209580 0.000000 
#    z 0.000000 0.000000 3.915240 
# 
# 
# High freq. dielectric constant tensor:
#      x y z
#    x 1.836760 0.000000 0.000000 
#    y 0.000000 1.742040 0.000000 
#    z 0.000000 0.000000 1.838150 
# 
# From -- ./inp_files/18262.got.cif
#   From: 2010.03.12/outbox.cif.g09.slc.cpg/sg54_10_cif.got.tgz:18262.got - 2010.04.16 15:00:50.
