data_PCOD8222957
_publ_section_title
;
Structure prediction by ZEFSAII (Michael W. Deem and Ramdas Pophale) SiO2 
 PCOD8222957
Probable space group: P C C A
;
_chemical_formula_sum "Si O2"
_cell_formula_units_Z 40
_cell_length_a 5.129546
_cell_length_b 13.039729
_cell_length_c 28.565804
_cell_angle_alpha 90.000000
_cell_angle_beta 90.000000
_cell_angle_gamma 90.000000
_cell_volume 1910.706348
_symmetry_space_group_name_H-M "P C C A"
_symmetry_group_IT_number 54
_symmetry_cell_setting 'orthorhombic'
loop_
_space_group_symop_operation_xyz
x,y,z
1/2-x,-y,z
1/2+x,-y,1/2-z
-x,y,1/2-z
-x,-y,-z
1/2+x,y,-z
1/2-x,y,1/2+z
x,-y,1/2+z
loop_
_atom_site_type_symbol
_atom_site_label
_atom_site_fract_x
_atom_site_fract_y
_atom_site_fract_z
Si Si1 0.750000 0.500000 0.719499
Si Si2 0.671240 0.716157 0.677634
Si Si3 0.000000 0.857154 0.250000
Si Si4 0.750000 0.500000 0.468535
Si Si5 0.250000 0.000000 0.175714
Si Si6 0.843824 0.199864 0.370785
Si Si7 0.254877 0.722187 0.532002
O O1 0.500000 0.468121 0.750000
O O2 0.671016 0.595376 0.687116
O O3 0.716541 0.780953 0.726362
O O4 0.388393 0.748008 0.658332
O O5 0.891563 0.738741 0.639408
O O6 0.932123 0.932420 0.291869
O O7 0.500000 0.500000 0.500000
O O8 0.753727 0.390655 0.441719
O O9 0.099758 0.081364 0.142988
O O10 0.779925 0.197970 0.425981
O O11 0.530072 0.738071 0.506452
#
# Coordination Sequence:
#
# PCOD8222957 Si02
#       7
#     4   8   4   4   4   8   8
#     4  12  24  40  62  92 130 176 204 238 304 386
#     4  11  24  39  62  91 126 164 207 252 303 367
#     4  10  20  40  62  90 114 170 204 258 306 362
#     4   8  16  30  54  82 106 144 190 230 284 358
#     4  10  22  38  64  88 120 158 212 264 310 354
#     4  11  24  41  61  93 124 158 212 267 303 360
#     4  10  20  38  61  86 119 159 197 249 313 373
#
# _framework density 20.934666
#
# number of rings (size 3 to 8) (size 9 to 14) (size 15 to 20)
#    0.000    1.600    1.000    3.600    2.800    4.000 
#    0.000    3.000    0.000    0.000    0.000    0.000 
#    0.000    0.000    0.000    0.000    0.000    0.000 
#
# Total GULP energy -495573.460947 kJ/mol
# GULP energy per Si atom -12389.336524 kJ/mol
# Density = 2.088702 g / cm^3
# Si number density = 20.934666 Si / 1000 Ang^3
#
#
#
# Elastic Constant Matrix: (Units=GPa)
#
#
# Indices 1 2 3 4 5 6 
#
# 1 90.0583 12.3283 1.9227 0.0000 0.0000 0.0000
# 2 12.3283 138.8486 49.4708 0.0000 0.0000 0.0000
# 3 1.9227 49.4708 88.3778 0.0000 0.0000 0.0000
# 4 0.0000 0.0000 0.0000 19.7491 0.0000 0.0000
# 5 0.0000 0.0000 0.0000 0.0000 29.8205 0.0000
# 6 0.0000 0.0000 0.0000 0.0000 0.0000 19.5214
#
#
#
# Elastic Compliance Matrix: (Units=1/GPa)
#
#
# Indices 1 2 3 4 5 6 
#
# 1 0.011251 -0.001139 0.000393 0.000000 0.000000 0.000000
# 2 -0.001139 0.009112 -0.005076 0.000000 0.000000 0.000000
# 3 0.000393 -0.005076 0.014148 0.000000 0.000000 0.000000
# 4 0.000000 0.000000 0.000000 0.050635 0.000000 0.000000
# 5 0.000000 0.000000 0.000000 0.000000 0.033534 0.000000
# 6 0.000000 0.000000 0.000000 0.000000 0.000000 0.051226
#
#
# Mechanical properties :
#
#
# Convention : Reuss Voigt Hill
#
# Bulk Modulus (GPa) = 43.73084 49.41427 46.57256
# Shear Modulus (GPa) = 26.43102 30.72239 28.57671
#
# Velocity S-wave (km/s) = 3.55709 3.83500 3.69866
# Velocity P-wave (km/s) = 6.14858 6.57761 6.36671
#
# Compressibility (1/GPa) = 0.02286716
#
# Stress axis : x y z
#
# Youngs Moduli (GPa) = 88.87750 109.75010 70.68312
#
# Poissons Ratio (x) = 0.12500 -0.02776
# Poissons Ratio (y) = 0.10123 0.35876
# Poissons Ratio (z) = -0.03491 0.55705
#
# Static dielectric constant tensor:
#      x y z
#    x 3.798920 0.000000 0.000000 
#    y 0.000000 4.374490 0.000000 
#    z 0.000000 0.000000 3.674940 
# 
# 
# High freq. dielectric constant tensor:
#      x y z
#    x 1.821490 0.000000 0.000000 
#    y 0.000000 1.830940 0.000000 
#    z 0.000000 0.000000 1.800310 
# 
# From -- ./inp_files/25223.got.cif
#   From: 2010.03.12/outbox.cif.g09.slc.cpg/sg54_13_cif.got.tgz:25223.got - 2010.04.16 15:00:50.
