data_PCOD8222880
_publ_section_title
;
Structure prediction by ZEFSAII (Michael W. Deem and Ramdas Pophale) SiO2 
 PCOD8222880
Probable space group: P C C A
;
_chemical_formula_sum "Si O2"
_cell_formula_units_Z 60
_cell_length_a 14.023139
_cell_length_b 22.475808
_cell_length_c 9.385999
_cell_angle_alpha 90.000000
_cell_angle_beta 90.000000
_cell_angle_gamma 90.000000
_cell_volume 2958.292115
_symmetry_space_group_name_H-M "P C C A"
_symmetry_group_IT_number 54
_symmetry_cell_setting 'orthorhombic'
loop_
_space_group_symop_operation_xyz
x,y,z
1/2-x,-y,z
1/2+x,-y,1/2-z
-x,y,1/2-z
-x,-y,-z
1/2+x,y,-z
1/2-x,y,1/2+z
x,-y,1/2+z
loop_
_atom_site_type_symbol
_atom_site_label
_atom_site_fract_x
_atom_site_fract_y
_atom_site_fract_z
Si Si1 0.753951 0.269143 0.521452
Si Si2 0.284617 0.919668 0.453941
Si Si3 0.878698 0.164671 0.600845
Si Si4 0.250000 0.000000 0.206827
Si Si5 0.409777 0.438907 0.826399
Si Si6 0.898783 0.816499 0.431707
Si Si7 0.844022 0.463010 0.877590
Si Si8 0.244905 0.648707 0.725412
O O1 0.822298 0.212828 0.507508
O O2 0.644270 0.247878 0.483791
O O3 0.772059 0.295235 0.678108
O O4 0.791642 0.321700 0.419712
O O5 0.172326 0.898536 0.439953
O O6 0.313176 0.959367 0.315223
O O7 0.306622 0.956461 0.599141
O O8 0.353523 0.863377 0.458044
O O9 0.866073 0.173406 0.769629
O O10 0.988057 0.173758 0.553974
O O11 0.500000 0.409098 0.750000
O O12 0.392030 0.500528 0.746860
O O13 0.330405 0.389258 0.812877
O O14 0.418053 0.455789 0.992176
O O15 0.750000 0.500000 0.929784
O O16 0.828135 0.397178 0.815314
#
# Coordination Sequence:
#
# PCOD8222880 Si02
#       8
#     8   8   8   4   8   8   8   8
#     4  11  22  40  62  89 119 159 195 255 296 356
#     4  10  20  39  60  88 123 163 194 250 290 356
#     4  10  21  39  62  89 119 164 201 243 301 353
#     4  10  20  36  62  90 124 158 200 242 304 336
#     4  11  23  38  58  86 118 149 196 246 298 361
#     4  10  21  39  63  87 123 160 203 243 297 362
#     4  10  21  39  60  81 113 159 192 234 301 373
#     4  11  22  39  61  82 118 154 199 240 304 355
#
# _framework density 20.281974000000002
#
# number of rings (size 3 to 8) (size 9 to 14) (size 15 to 20)
#    0.000    1.600    4.000    1.600    1.867    1.067 
#    0.000    6.000    0.000    0.000    0.000    0.000 
#    0.000    0.000    0.000    0.000    0.000    0.000 
#
# Total GULP energy -743304.228195 kJ/mol
# GULP energy per Si atom -12388.403803 kJ/mol
# Density = 2.023581 g / cm^3
# Si number density = 20.281974 Si / 1000 Ang^3
#
#
#
# Elastic Constant Matrix: (Units=GPa)
#
#
# Indices 1 2 3 4 5 6 
#
# 1 70.0280 25.0347 33.3356 0.0000 0.0000 0.0000
# 2 25.0347 101.8318 37.0971 0.0000 0.0000 0.0000
# 3 33.3356 37.0971 98.0098 0.0000 0.0000 0.0000
# 4 0.0000 0.0000 0.0000 35.4700 0.0000 0.0000
# 5 0.0000 0.0000 0.0000 0.0000 24.0588 0.0000
# 6 0.0000 0.0000 0.0000 0.0000 0.0000 6.2247
#
#
#
# Elastic Compliance Matrix: (Units=1/GPa)
#
#
# Indices 1 2 3 4 5 6 
#
# 1 0.017564 -0.002484 -0.005034 0.000000 0.000000 0.000000
# 2 -0.002484 0.011742 -0.003599 0.000000 0.000000 0.000000
# 3 -0.005034 -0.003599 0.013278 0.000000 0.000000 0.000000
# 4 0.000000 0.000000 0.000000 0.028193 0.000000 0.000000
# 5 0.000000 0.000000 0.000000 0.000000 0.041565 0.000000
# 6 0.000000 0.000000 0.000000 0.000000 0.000000 0.160652
#
#
# Mechanical properties :
#
#
# Convention : Reuss Voigt Hill
#
# Bulk Modulus (GPa) = 49.14242 51.20048 50.17145
# Shear Modulus (GPa) = 16.55566 24.77749 20.66658
#
# Velocity S-wave (km/s) = 2.86015 3.49900 3.19558
# Velocity P-wave (km/s) = 5.93207 6.45160 6.19728
#
# Compressibility (1/GPa) = 0.02034902
#
# Stress axis : x y z
#
# Youngs Moduli (GPa) = 56.93342 85.16329 75.31485
#
# Poissons Ratio (x) = 0.21157 0.37912
# Poissons Ratio (y) = 0.14144 0.27109
# Poissons Ratio (z) = 0.28659 0.30654
#
# Static dielectric constant tensor:
#      x y z
#    x 3.539270 0.000000 0.000000 
#    y 0.000000 3.925780 0.000000 
#    z 0.000000 0.000000 3.748570 
# 
# 
# High freq. dielectric constant tensor:
#      x y z
#    x 1.750160 0.000000 0.000000 
#    y 0.000000 1.808960 0.000000 
#    z 0.000000 0.000000 1.805620 
# 
# From -- ./inp_files/3736.got.cif
#   From: 2010.03.12/outbox.cif.g09.slc.cpg/sg54_2_cif.got.tgz:3736.got - 2010.04.16 15:00:50.
