data_PCOD8222795
_publ_section_title
;
Structure prediction by ZEFSAII (Michael W. Deem and Ramdas Pophale) SiO2 
 PCOD8222795
Probable space group: P C C A
;
_chemical_formula_sum "Si O2"
_cell_formula_units_Z 24
_cell_length_a 4.900099
_cell_length_b 7.780193
_cell_length_c 28.730930
_cell_angle_alpha 90.000000
_cell_angle_beta 90.000000
_cell_angle_gamma 90.000000
_cell_volume 1095.329814
_symmetry_space_group_name_H-M "P C C A"
_symmetry_group_IT_number 54
_symmetry_cell_setting 'orthorhombic'
loop_
_space_group_symop_operation_xyz
x,y,z
1/2-x,-y,z
1/2+x,-y,1/2-z
-x,y,1/2-z
-x,-y,-z
1/2+x,y,-z
1/2-x,y,1/2+z
x,-y,1/2+z
loop_
_atom_site_type_symbol
_atom_site_label
_atom_site_fract_x
_atom_site_fract_y
_atom_site_fract_z
Si Si1 0.250000 0.500000 0.033765
Si Si2 0.266250 0.191941 0.604403
Si Si3 0.261976 0.701554 0.841727
Si Si4 0.500000 0.382747 0.750000
O O1 0.286627 0.330042 0.064563
O O2 0.500000 0.500000 0.000000
O O3 0.574526 0.203861 0.621424
O O4 0.064664 0.224628 0.648821
O O5 0.250000 0.000000 0.583728
O O6 0.250000 0.500000 0.851577
O O7 0.143975 0.734397 0.789577
O O8 0.750000 0.500000 0.771136
#
# Coordination Sequence:
#
# PCOD8222795 Si02
#       4
#     4   8   8   4
#     4  12  26  46  72  98 132 172 220 280 346 410
#     4  12  25  43  69 102 133 176 220 276 336 402
#     4  11  20  41  67  96 137 181 225 269 326 392
#     4  10  20  34  64 104 132 180 234 272 318 384
#
# _framework density 21.911207999999998
#
# number of rings (size 3 to 8) (size 9 to 14) (size 15 to 20)
#    0.000    0.667    3.333    7.000    0.000    1.333 
#    0.000    3.333    0.000    2.000    0.000    0.000 
#    0.000    0.000    0.000    0.000    0.000    0.000 
#
# Total GULP energy -297469.750412 kJ/mol
# GULP energy per Si atom -12394.572934 kJ/mol
# Density = 2.186134 g / cm^3
# Si number density = 21.911208 Si / 1000 Ang^3
#
#
#
# Elastic Constant Matrix: (Units=GPa)
#
#
# Indices 1 2 3 4 5 6 
#
# 1 105.3058 14.3614 29.8446 0.0000 0.0000 0.0000
# 2 14.3614 156.4250 50.6393 0.0000 0.0000 0.0000
# 3 29.8446 50.6393 124.5233 0.0000 0.0000 0.0000
# 4 0.0000 0.0000 0.0000 -15.3764 0.0000 0.0000
# 5 0.0000 0.0000 0.0000 0.0000 30.5556 0.0000
# 6 0.0000 0.0000 0.0000 0.0000 0.0000 29.4604
#
#
#
# Elastic Compliance Matrix: (Units=1/GPa)
#
#
# Indices 1 2 3 4 5 6 
#
# 1 0.010192 -0.000167 -0.002375 0.000000 0.000000 0.000000
# 2 -0.000167 0.007365 -0.002955 0.000000 0.000000 0.000000
# 3 -0.002375 -0.002955 0.009801 0.000000 0.000000 0.000000
# 4 0.000000 0.000000 0.000000 -0.065035 0.000000 0.000000
# 5 0.000000 0.000000 0.000000 0.000000 0.032727 0.000000
# 6 0.000000 0.000000 0.000000 0.000000 0.000000 0.033944
#
#
# Mechanical properties :
#
#
# Convention : Reuss Voigt Hill
#
# Bulk Modulus (GPa) = 61.10697 63.99383 62.55040
# Shear Modulus (GPa) = 110.02767 28.35517 69.19142
#
# Velocity S-wave (km/s) = 7.09396 3.60125 5.62554
# Velocity P-wave (km/s) = 9.74926 6.82359 8.41455
#
# Compressibility (1/GPa) = 0.01636475
#
# Stress axis : x y z
#
# Youngs Moduli (GPa) = 98.11653 135.78131 102.02522
#
# Poissons Ratio (x) = 0.02267 0.24229
# Poissons Ratio (y) = 0.01638 0.30148
# Poissons Ratio (z) = 0.23301 0.40123
#
# Static dielectric constant tensor:
#      x y z
#    x 4.390210 0.000000 0.000000 
#    y 0.000000 3.843380 0.000000 
#    z 0.000000 0.000000 3.974450 
# 
# 
# High freq. dielectric constant tensor:
#      x y z
#    x 1.892500 0.000000 0.000000 
#    y 0.000000 1.841560 0.000000 
#    z 0.000000 0.000000 1.848460 
# 
# From -- ./inp_files/24998.got.cif
#   From: 2010.03.12/outbox.cif.g09.slc.cpg/sg54_13_cif.got.tgz:24998.got - 2010.04.16 15:00:50.
