data_PCOD8222907
_publ_section_title
;
Structure prediction by ZEFSAII (Michael W. Deem and Ramdas Pophale) SiO2 
 PCOD8222907
Probable space group: P C C A
;
_chemical_formula_sum "Si O2"
_cell_formula_units_Z 48
_cell_length_a 12.558960
_cell_length_b 18.407637
_cell_length_c 9.590408
_cell_angle_alpha 90.000000
_cell_angle_beta 90.000000
_cell_angle_gamma 90.000000
_cell_volume 2217.117971
_symmetry_space_group_name_H-M "P C C A"
_symmetry_group_IT_number 54
_symmetry_cell_setting 'orthorhombic'
loop_
_space_group_symop_operation_xyz
x,y,z
1/2-x,-y,z
1/2+x,-y,1/2-z
-x,y,1/2-z
-x,-y,-z
1/2+x,y,-z
1/2-x,y,1/2+z
x,-y,1/2+z
loop_
_atom_site_type_symbol
_atom_site_label
_atom_site_fract_x
_atom_site_fract_y
_atom_site_fract_z
Si Si1 0.734926 0.287441 0.439879
Si Si2 0.235336 0.386441 0.315845
Si Si3 0.136883 0.846839 0.543956
Si Si4 0.734866 0.916223 0.727201
Si Si5 0.575798 0.510513 0.631629
Si Si6 0.065755 0.833537 0.120061
O O1 0.739441 0.357984 0.339517
O O2 0.716027 0.314865 0.595267
O O3 0.842415 0.239232 0.433679
O O4 0.636580 0.235067 0.414441
O O5 0.332378 0.429880 0.388627
O O6 0.129389 0.435429 0.316866
O O7 0.160519 0.887345 0.690457
O O8 0.215746 0.874874 0.419410
O O9 0.012859 0.858283 0.505041
O O10 0.635522 0.903192 0.832493
O O11 0.750000 0.000000 0.692215
O O12 0.500000 0.541473 0.750000
O O13 0.500000 0.500000 0.500000
O O14 0.000000 0.804229 0.250000
#
# Coordination Sequence:
#
# PCOD8222907 Si02
#       6
#     8   8   8   8   8   8
#     4  11  22  39  61  86 118 156 196 244 296 348
#     4  11  24  40  62  90 119 157 201 244 295 355
#     4  10  21  39  58  85 120 154 198 247 295 354
#     4  10  20  37  60  85 117 157 197 244 298 353
#     4  11  24  42  62  89 123 156 198 247 294 352
#     4   9  20  37  58  84 117 155 194 240 297 357
#
# _framework density 21.649728
#
# number of rings (size 3 to 8) (size 9 to 14) (size 15 to 20)
#    0.000    1.667    0.000    5.500    0.000    9.333 
#    0.000   11.667    0.000    0.000    0.000    0.000 
#    0.000    0.000    0.000    0.000    0.000    0.000 
#
# Total GULP energy -595054.760809 kJ/mol
# GULP energy per Si atom -12396.974184 kJ/mol
# Density = 2.160045 g / cm^3
# Si number density = 21.649728 Si / 1000 Ang^3
#
#
#
# Elastic Constant Matrix: (Units=GPa)
#
#
# Indices 1 2 3 4 5 6 
#
# 1 90.9105 22.0705 20.0293 0.0000 0.0000 0.0000
# 2 22.0705 103.5537 15.4523 0.0000 0.0000 0.0000
# 3 20.0293 15.4523 78.9980 0.0000 0.0000 0.0000
# 4 0.0000 0.0000 0.0000 33.5850 0.0000 0.0000
# 5 0.0000 0.0000 0.0000 0.0000 33.8503 0.0000
# 6 0.0000 0.0000 0.0000 0.0000 0.0000 14.9945
#
#
#
# Elastic Compliance Matrix: (Units=1/GPa)
#
#
# Indices 1 2 3 4 5 6 
#
# 1 0.012113 -0.002187 -0.002643 0.000000 0.000000 0.000000
# 2 -0.002187 0.010342 -0.001468 0.000000 0.000000 0.000000
# 3 -0.002643 -0.001468 0.013616 0.000000 0.000000 0.000000
# 4 0.000000 0.000000 0.000000 0.029775 0.000000 0.000000
# 5 0.000000 0.000000 0.000000 0.000000 0.029542 0.000000
# 6 0.000000 0.000000 0.000000 0.000000 0.000000 0.066691
#
#
# Mechanical properties :
#
#
# Convention : Reuss Voigt Hill
#
# Bulk Modulus (GPa) = 42.60168 43.17406 42.88787
# Shear Modulus (GPa) = 27.39697 30.87998 29.13847
#
# Velocity S-wave (km/s) = 3.56120 3.78080 3.67264
# Velocity P-wave (km/s) = 6.05226 6.24857 6.15120
#
# Compressibility (1/GPa) = 0.02347325
#
# Stress axis : x y z
#
# Youngs Moduli (GPa) = 82.55447 96.69211 73.44311
#
# Poissons Ratio (x) = 0.21149 0.19414
# Poissons Ratio (y) = 0.18057 0.10784
# Poissons Ratio (z) = 0.21822 0.14198
#
# Static dielectric constant tensor:
#      x y z
#    x 4.081870 0.000000 0.000000 
#    y 0.000000 3.779840 0.000000 
#    z 0.000000 0.000000 3.897490 
# 
# 
# High freq. dielectric constant tensor:
#      x y z
#    x 1.849490 0.000000 0.000000 
#    y 0.000000 1.845420 0.000000 
#    z 0.000000 0.000000 1.859140 
# 
# From -- ./inp_files/7580.got.cif
#   From: 2010.03.12/outbox.cif.g09.slc.cpg/sg54_4_cif.got.tgz:7580.got - 2010.04.16 15:00:50.
