data_PCOD8222161
_publ_section_title
;
Structure prediction by ZEFSAII (Michael W. Deem and Ramdas Pophale) SiO2 
 PCOD8222161
Probable space group: P M N A
;
_chemical_formula_sum "Si O2"
_cell_formula_units_Z 64
_cell_length_a 8.773164
_cell_length_b 21.471764
_cell_length_c 17.858509
_cell_angle_alpha 90.000000
_cell_angle_beta 90.000000
_cell_angle_gamma 90.000000
_cell_volume 3364.102114
_symmetry_space_group_name_H-M "P M N A"
_symmetry_group_IT_number 53
_symmetry_cell_setting 'orthorhombic'
loop_
_space_group_symop_operation_xyz
x,y,z
1/2-x,-y,1/2+z
x,-y,-z
1/2-x,y,1/2-z
-x,-y,-z
1/2+x,y,1/2-z
-x,y,z
1/2+x,-y,1/2+z
loop_
_atom_site_type_symbol
_atom_site_label
_atom_site_fract_x
_atom_site_fract_y
_atom_site_fract_z
Si Si1 0.321537 0.118216 0.083004
Si Si2 0.175112 0.311406 0.941860
Si Si3 0.179615 0.370859 0.172034
Si Si4 0.824408 0.112246 0.922891
Si Si5 0.318113 0.567021 0.523209
Si Si6 0.323048 0.990361 0.672476
Si Si7 0.678664 0.777635 0.168685
Si Si8 0.825192 0.244604 0.097536
O O1 0.500000 0.111392 0.067332
O O2 0.268693 0.069757 0.145391
O O3 0.284753 0.186874 0.114424
O O4 0.228204 0.105785 0.007827
O O5 0.271877 0.286060 0.872306
O O6 0.000000 0.315213 0.916656
O O7 0.236908 0.379978 0.964766
O O8 0.193548 0.264746 0.011442
O O9 0.250000 0.392587 0.250000
O O10 0.240658 0.416572 0.106628
O O11 0.227329 0.300294 0.152079
O O12 0.000000 0.375942 0.177516
O O13 0.726600 0.163000 0.879529
O O14 0.000000 0.133587 0.920748
O O15 0.800756 0.045203 0.886629
O O16 0.250707 0.500000 0.500000
O O17 0.500000 0.567016 0.523256
O O18 0.250000 0.013094 0.750000
O O19 0.500000 0.973559 0.683199
O O20 0.750000 0.781613 0.250000
O O21 0.500000 0.777983 0.178267
O O22 0.000000 0.225907 0.113210
#
# Coordination Sequence:
#
# PCOD8222161 Si02
#       8
#     8   8   8   8   8   8   8   8
#     4  12  24  37  59  88 115 148 189 232 281 341
#     4   9  17  33  57  81 109 146 186 233 279 330
#     4   9  18  32  53  82 112 149 187 231 282 331
#     4  11  23  41  63  85 112 147 189 236 287 342
#     4   8  15  31  57  85 112 150 196 232 274 335
#     4  11  25  43  61  81 110 148 188 236 290 342
#     4  12  24  37  57  85 115 148 187 235 290 344
#     4   9  18  34  55  77 108 146 187 229 279 334
#
# _framework density 19.024393
#
# number of rings (size 3 to 8) (size 9 to 14) (size 15 to 20)
#    0.000    1.875    1.250    5.250    0.000    5.500 
#    0.000    3.750    0.000    3.000    0.000    0.000 
#    0.000    0.000    0.000    0.000    0.000    0.000 
#
# Total GULP energy -793754.237042 kJ/mol
# GULP energy per Si atom -12402.409954 kJ/mol
# Density = 1.898109 g / cm^3
# Si number density = 19.024393 Si / 1000 Ang^3
#
#
#
# Elastic Constant Matrix: (Units=GPa)
#
#
# Indices 1 2 3 4 5 6 
#
# 1 78.1229 33.9369 22.3345 0.0000 0.0000 0.0000
# 2 33.9369 111.0073 29.8090 0.0000 0.0000 0.0000
# 3 22.3345 29.8090 80.9215 0.0000 0.0000 0.0000
# 4 0.0000 0.0000 0.0000 17.4758 0.0000 0.0000
# 5 0.0000 0.0000 0.0000 0.0000 32.8077 0.0000
# 6 0.0000 0.0000 0.0000 0.0000 0.0000 9.1996
#
#
#
# Elastic Compliance Matrix: (Units=1/GPa)
#
#
# Indices 1 2 3 4 5 6 
#
# 1 0.015302 -0.003933 -0.002775 0.000000 0.000000 0.000000
# 2 -0.003933 0.011008 -0.002970 0.000000 0.000000 0.000000
# 3 -0.002775 -0.002970 0.014217 0.000000 0.000000 0.000000
# 4 0.000000 0.000000 0.000000 0.057222 0.000000 0.000000
# 5 0.000000 0.000000 0.000000 0.000000 0.030481 0.000000
# 6 0.000000 0.000000 0.000000 0.000000 0.000000 0.108700
#
#
# Mechanical properties :
#
#
# Convention : Reuss Voigt Hill
#
# Bulk Modulus (GPa) = 47.22941 49.13475 48.18208
# Shear Modulus (GPa) = 18.98665 24.16138 21.57402
#
# Velocity S-wave (km/s) = 3.16257 3.56760 3.37117
# Velocity P-wave (km/s) = 6.18186 6.54627 6.36667
#
# Compressibility (1/GPa) = 0.02117325
#
# Stress axis : x y z
#
# Youngs Moduli (GPa) = 65.35048 90.84101 70.33657
#
# Poissons Ratio (x) = 0.35728 0.19516
# Poissons Ratio (y) = 0.25703 0.20887
# Poissons Ratio (z) = 0.18132 0.26976
#
# Static dielectric constant tensor:
#      x y z
#    x 3.331880 0.000000 0.000000 
#    y 0.000000 3.651320 0.000000 
#    z 0.000000 0.000000 3.635540 
# 
# 
# High freq. dielectric constant tensor:
#      x y z
#    x 1.727120 0.000000 0.000000 
#    y 0.000000 1.739830 0.000000 
#    z 0.000000 0.000000 1.739760 
# 
# From -- ./inp_files/26984.got.cif
#   From: 2010.03.12/outbox.cif.g09.slc.cpg/sg53_14_cif.got.tgz:26984.got - 2010.04.16 14:36:59.
