data_PCOD8222455
_publ_section_title
;
Structure prediction by ZEFSAII (Michael W. Deem and Ramdas Pophale) SiO2 
 PCOD8222455
Probable space group: P C C A
;
_chemical_formula_sum "Si O2"
_cell_formula_units_Z 40
_cell_length_a 17.179897
_cell_length_b 8.355181
_cell_length_c 13.528884
_cell_angle_alpha 90.000000
_cell_angle_beta 90.000000
_cell_angle_gamma 90.000000
_cell_volume 1941.951554
_symmetry_space_group_name_H-M "P C C A"
_symmetry_group_IT_number 54
_symmetry_cell_setting 'orthorhombic'
loop_
_space_group_symop_operation_xyz
x,y,z
1/2-x,-y,z
1/2+x,-y,1/2-z
-x,y,1/2-z
-x,-y,-z
1/2+x,y,-z
1/2-x,y,1/2+z
x,-y,1/2+z
loop_
_atom_site_type_symbol
_atom_site_label
_atom_site_fract_x
_atom_site_fract_y
_atom_site_fract_z
Si Si1 0.750000 0.000000 0.016076
Si Si2 0.831835 0.261226 0.134110
Si Si3 0.400106 0.838476 0.023338
Si Si4 0.835008 0.488232 0.971713
Si Si5 0.035880 0.025214 0.348035
Si Si6 0.250000 0.500000 0.216845
O O1 0.733897 0.847784 0.084742
O O2 0.823903 0.946511 0.949339
O O3 0.875699 0.360570 0.045027
O O4 0.898515 0.153610 0.183677
O O5 0.789892 0.362780 0.219148
O O6 0.383287 0.650928 0.028248
O O7 0.427027 0.883439 0.912381
O O8 0.468217 0.879042 0.097367
O O9 0.750000 0.500000 0.025328
O O10 0.817722 0.429880 0.857979
O O11 0.000000 0.945668 0.250000
#
# Coordination Sequence:
#
# PCOD8222455 Si02
#       6
#     4   8   8   8   8   4
#     4  10  18  36  62  82 114 158 198 250 308 342
#     4  11  20  37  59  87 121 156 196 259 295 362
#     4  10  20  40  59  86 122 158 203 252 300 366
#     4  10  20  36  60  85 120 148 200 254 300 350
#     4  10  23  39  59  84 127 161 202 245 306 370
#     4  10  18  34  58  84 120 150 206 250 294 356
#
# _framework density 20.597835
#
# number of rings (size 3 to 8) (size 9 to 14) (size 15 to 20)
#    0.600    1.200    3.000    1.200    0.000    0.800 
#    0.000   35.000    0.000    0.000    0.000    0.000 
#    0.000    0.000    0.000    0.000    0.000    0.000 
#
# Total GULP energy -495585.965886 kJ/mol
# GULP energy per Si atom -12389.649147 kJ/mol
# Density = 2.055095 g / cm^3
# Si number density = 20.597835 Si / 1000 Ang^3
#
#
#
# Elastic Constant Matrix: (Units=GPa)
#
#
# Indices 1 2 3 4 5 6 
#
# 1 88.1498 24.9615 20.6204 0.0000 0.0000 0.0000
# 2 24.9615 79.2019 44.6375 0.0000 0.0000 0.0000
# 3 20.6204 44.6375 101.4892 0.0000 0.0000 0.0000
# 4 0.0000 0.0000 0.0000 13.8515 0.0000 0.0000
# 5 0.0000 0.0000 0.0000 0.0000 27.1153 0.0000
# 6 0.0000 0.0000 0.0000 0.0000 0.0000 30.3194
#
#
#
# Elastic Compliance Matrix: (Units=1/GPa)
#
#
# Indices 1 2 3 4 5 6 
#
# 1 0.012544 -0.003346 -0.001077 0.000000 0.000000 0.000000
# 2 -0.003346 0.017680 -0.007096 0.000000 0.000000 0.000000
# 3 -0.001077 -0.007096 0.013193 0.000000 0.000000 0.000000
# 4 0.000000 0.000000 0.000000 0.072195 0.000000 0.000000
# 5 0.000000 0.000000 0.000000 0.000000 0.036880 0.000000
# 6 0.000000 0.000000 0.000000 0.000000 0.000000 0.032982
#
#
# Mechanical properties :
#
#
# Convention : Reuss Voigt Hill
#
# Bulk Modulus (GPa) = 49.07232 49.91997 49.49615
# Shear Modulus (GPa) = 23.22289 26.16534 24.69412
#
# Velocity S-wave (km/s) = 3.36139 3.56799 3.46623
# Velocity P-wave (km/s) = 6.24027 6.42357 6.33258
#
# Compressibility (1/GPa) = 0.02037808
#
# Stress axis : x y z
#
# Youngs Moduli (GPa) = 79.72047 56.56110 75.79713
#
# Poissons Ratio (x) = 0.18928 0.08162
# Poissons Ratio (y) = 0.26678 0.53787
# Poissons Ratio (z) = 0.08584 0.40137
#
# Static dielectric constant tensor:
#      x y z
#    x 3.883080 0.000000 0.000000 
#    y 0.000000 3.606710 0.000000 
#    z 0.000000 0.000000 3.716590 
# 
# 
# High freq. dielectric constant tensor:
#      x y z
#    x 1.802570 0.000000 0.000000 
#    y 0.000000 1.795270 0.000000 
#    z 0.000000 0.000000 1.801170 
# 
# From -- ./inp_files/13953.got.cif
#   From: 2010.03.12/outbox.cif.g09.slc.cpg/sg54_7_cif.got.tgz:13953.got - 2010.04.16 15:00:50.
