data_PCOD8222592
_publ_section_title
;
Structure prediction by ZEFSAII (Michael W. Deem and Ramdas Pophale) SiO2 
 PCOD8222592
Probable space group: P C C A
;
_chemical_formula_sum "Si O2"
_cell_formula_units_Z 56
_cell_length_a 18.120878
_cell_length_b 15.724437
_cell_length_c 9.386854
_cell_angle_alpha 90.000000
_cell_angle_beta 90.000000
_cell_angle_gamma 90.000000
_cell_volume 2674.695853
_symmetry_space_group_name_H-M "P C C A"
_symmetry_group_IT_number 54
_symmetry_cell_setting 'orthorhombic'
loop_
_space_group_symop_operation_xyz
x,y,z
1/2-x,-y,z
1/2+x,-y,1/2-z
-x,y,1/2-z
-x,-y,-z
1/2+x,y,-z
1/2-x,y,1/2+z
x,-y,1/2+z
loop_
_atom_site_type_symbol
_atom_site_label
_atom_site_fract_x
_atom_site_fract_y
_atom_site_fract_z
Si Si1 0.694917 0.283734 0.166710
Si Si2 0.170895 0.472229 0.792606
Si Si3 0.060428 0.264881 0.630841
Si Si4 0.926281 0.444681 0.977706
Si Si5 0.333031 0.029489 0.760255
Si Si6 0.220319 0.189605 0.112419
Si Si7 0.372430 0.106023 0.044305
O O1 0.689816 0.383193 0.131784
O O2 0.636174 0.259911 0.284991
O O3 0.769004 0.251597 0.248986
O O4 0.679959 0.239336 0.015588
O O5 0.250000 0.500000 0.728666
O O6 0.107987 0.465634 0.674883
O O7 0.137205 0.537332 0.907128
O O8 0.054480 0.344076 0.520612
O O9 0.060071 0.174984 0.545970
O O10 0.000000 0.274976 0.750000
O O11 0.000000 0.500000 0.000000
O O12 0.331621 0.112151 0.659316
O O13 0.250000 0.000000 0.799368
O O14 0.377428 0.954580 0.682110
O O15 0.378570 0.049272 0.902816
O O16 0.294369 0.153703 0.041797
#
# Coordination Sequence:
#
# PCOD8222592 Si02
#       7
#     8   8   8   8   8   8   8
#     4  10  22  36  60  90 129 164 205 267 335 385
#     4  11  25  38  62 101 136 166 215 288 347 384
#     4  10  23  44  65  87 121 172 224 270 326 385
#     4  11  23  45  70  91 128 187 230 263 331 427
#     4  10  19  33  58  93 130 165 215 253 326 403
#     4  10  19  34  59  90 128 163 208 258 324 393
#     4  10  21  34  60  90 122 167 208 270 316 385
#
# _framework density 20.936961
#
# number of rings (size 3 to 8) (size 9 to 14) (size 15 to 20)
#    0.000    1.714    1.429    3.857   12.000    0.000 
#    0.000    0.714    0.000    0.000    0.000    0.000 
#    0.000    0.000    0.000    0.000    0.000    0.000 
#
# Total GULP energy -694126.145522 kJ/mol
# GULP energy per Si atom -12395.109741 kJ/mol
# Density = 2.088931 g / cm^3
# Si number density = 20.936961 Si / 1000 Ang^3
#
#
#
# Elastic Constant Matrix: (Units=GPa)
#
#
# Indices 1 2 3 4 5 6 
#
# 1 50.8953 43.5287 7.8694 0.0000 0.0000 0.0000
# 2 43.5287 159.5494 66.8830 0.0000 0.0000 0.0000
# 3 7.8694 66.8830 92.4278 0.0000 0.0000 0.0000
# 4 0.0000 0.0000 0.0000 47.2440 0.0000 0.0000
# 5 0.0000 0.0000 0.0000 0.0000 27.2824 0.0000
# 6 0.0000 0.0000 0.0000 0.0000 0.0000 37.6185
#
#
#
# Elastic Compliance Matrix: (Units=1/GPa)
#
#
# Indices 1 2 3 4 5 6 
#
# 1 0.026776 -0.009114 0.004315 0.000000 0.000000 0.000000
# 2 -0.009114 0.012099 -0.007979 0.000000 0.000000 0.000000
# 3 0.004315 -0.007979 0.016226 0.000000 0.000000 0.000000
# 4 0.000000 0.000000 0.000000 0.021167 0.000000 0.000000
# 5 0.000000 0.000000 0.000000 0.000000 0.036654 0.000000
# 6 0.000000 0.000000 0.000000 0.000000 0.000000 0.026583
#
#
# Mechanical properties :
#
#
# Convention : Reuss Voigt Hill
#
# Bulk Modulus (GPa) = 33.84667 59.93721 46.89194
# Shear Modulus (GPa) = 28.58651 34.73508 31.66079
#
# Velocity S-wave (km/s) = 3.69909 4.07754 3.89292
# Velocity P-wave (km/s) = 5.86902 7.13148 6.53083
#
# Compressibility (1/GPa) = 0.02954501
#
# Stress axis : x y z
#
# Youngs Moduli (GPa) = 37.34710 82.65104 61.63038
#
# Poissons Ratio (x) = 0.75329 -0.26596
# Poissons Ratio (y) = 0.34039 0.49176
# Poissons Ratio (z) = -0.16117 0.65949
#
# Static dielectric constant tensor:
#      x y z
#    x 3.346720 0.000000 0.000000 
#    y 0.000000 4.277490 0.000000 
#    z 0.000000 0.000000 3.696950 
# 
# 
# High freq. dielectric constant tensor:
#      x y z
#    x 1.777220 0.000000 0.000000 
#    y 0.000000 1.838520 0.000000 
#    z 0.000000 0.000000 1.819750 
# 
# From -- ./inp_files/4801.got.cif
#   From: 2010.03.12/outbox.cif.g09.slc.cpg/sg54_3_cif.got.tgz:4801.got - 2010.04.16 15:00:50.
