data_PCOD8222723
_publ_section_title
;
Structure prediction by ZEFSAII (Michael W. Deem and Ramdas Pophale) SiO2 
 PCOD8222723
Probable space group: P C C A
;
_chemical_formula_sum "Si O2"
_cell_formula_units_Z 56
_cell_length_a 14.692455
_cell_length_b 11.280990
_cell_length_c 15.869489
_cell_angle_alpha 90.000000
_cell_angle_beta 90.000000
_cell_angle_gamma 90.000000
_cell_volume 2630.295404
_symmetry_space_group_name_H-M "P C C A"
_symmetry_group_IT_number 54
_symmetry_cell_setting 'orthorhombic'
loop_
_space_group_symop_operation_xyz
x,y,z
1/2-x,-y,z
1/2+x,-y,1/2-z
-x,y,1/2-z
-x,-y,-z
1/2+x,y,-z
1/2-x,y,1/2+z
x,-y,1/2+z
loop_
_atom_site_type_symbol
_atom_site_label
_atom_site_fract_x
_atom_site_fract_y
_atom_site_fract_z
Si Si1 0.876596 0.088589 0.094146
Si Si2 0.320711 0.151031 0.350055
Si Si3 0.157576 0.571036 0.891114
Si Si4 0.617685 0.741947 0.956561
Si Si5 0.402633 0.246123 0.764840
Si Si6 0.748602 0.132597 0.333223
Si Si7 0.458977 0.357672 0.343537
O O1 0.775460 0.147692 0.102378
O O2 0.933160 0.140012 0.172445
O O3 0.881576 0.947074 0.101124
O O4 0.914684 0.138318 0.005696
O O5 0.307643 0.114410 0.252912
O O6 0.368924 0.277223 0.352509
O O7 0.250000 0.500000 0.894117
O O8 0.163505 0.660073 0.811314
O O9 0.070439 0.486522 0.876133
O O10 0.146377 0.639453 0.978832
O O11 0.701292 0.775078 0.895916
O O12 0.534621 0.695362 0.903238
O O13 0.500000 0.309459 0.750000
O O14 0.348132 0.190681 0.685319
O O15 0.750000 0.000000 0.374363
O O16 0.500000 0.362668 0.250000
#
# Coordination Sequence:
#
# PCOD8222723 Si02
#       7
#     8   8   8   8   8   8   8
#     4   9  20  40  62  92 137 176 206 265 341 385
#     4  10  19  40  67  91 135 179 213 263 329 395
#     4  11  25  50  68  89 133 179 219 276 340 390
#     4  11  25  42  64 103 131 167 226 277 331 398
#     4  10  21  42  69  98 130 171 220 270 325 394
#     4  11  21  41  68 101 136 174 221 270 331 408
#     4  12  24  41  70  98 131 172 227 276 322 395
#
# _framework density 21.290386000000002
#
# number of rings (size 3 to 8) (size 9 to 14) (size 15 to 20)
#    0.000    1.429    4.286    3.429    2.000    2.286 
#   15.429    0.000    0.000    0.000    0.000    0.000 
#    0.000    0.000    0.000    0.000    0.000    0.000 
#
# Total GULP energy -694040.113684 kJ/mol
# GULP energy per Si atom -12393.573459 kJ/mol
# Density = 2.124193 g / cm^3
# Si number density = 21.290386 Si / 1000 Ang^3
#
#
#
# Elastic Constant Matrix: (Units=GPa)
#
#
# Indices 1 2 3 4 5 6 
#
# 1 76.9751 32.2406 33.4143 0.0000 0.0000 0.0000
# 2 32.2406 112.7915 38.2817 0.0000 0.0000 0.0000
# 3 33.4143 38.2817 89.3308 0.0000 0.0000 0.0000
# 4 0.0000 0.0000 0.0000 34.8905 0.0000 0.0000
# 5 0.0000 0.0000 0.0000 0.0000 16.1411 0.0000
# 6 0.0000 0.0000 0.0000 0.0000 0.0000 36.2010
#
#
#
# Elastic Compliance Matrix: (Units=1/GPa)
#
#
# Indices 1 2 3 4 5 6 
#
# 1 0.016355 -0.003041 -0.004814 0.000000 0.000000 0.000000
# 2 -0.003041 0.010940 -0.003551 0.000000 0.000000 0.000000
# 3 -0.004814 -0.003551 0.014517 0.000000 0.000000 0.000000
# 4 0.000000 0.000000 0.000000 0.028661 0.000000 0.000000
# 5 0.000000 0.000000 0.000000 0.000000 0.061954 0.000000
# 6 0.000000 0.000000 0.000000 0.000000 0.000000 0.027624
#
#
# Mechanical properties :
#
#
# Convention : Reuss Voigt Hill
#
# Bulk Modulus (GPa) = 52.63263 54.10783 53.37023
# Shear Modulus (GPa) = 26.42767 29.12392 27.77579
#
# Velocity S-wave (km/s) = 3.52703 3.70258 3.61587
# Velocity P-wave (km/s) = 6.43129 6.61424 6.52341
#
# Compressibility (1/GPa) = 0.01899962
#
# Stress axis : x y z
#
# Youngs Moduli (GPa) = 61.14435 91.40505 68.88537
#
# Poissons Ratio (x) = 0.27795 0.33164
# Poissons Ratio (y) = 0.18593 0.24461
# Poissons Ratio (z) = 0.29437 0.32457
#
# Static dielectric constant tensor:
#      x y z
#    x 3.799200 0.000000 0.000000 
#    y 0.000000 4.166490 0.000000 
#    z 0.000000 0.000000 3.877130 
# 
# 
# High freq. dielectric constant tensor:
#      x y z
#    x 1.824390 0.000000 0.000000 
#    y 0.000000 1.848380 0.000000 
#    z 0.000000 0.000000 1.829130 
# 
# From -- ./inp_files/13515.got.cif
#   From: 2010.03.12/outbox.cif.g09.slc.cpg/sg54_7_cif.got.tgz:13515.got - 2010.04.16 15:00:50.
