data_PCOD8222565
_publ_section_title
;
Structure prediction by ZEFSAII (Michael W. Deem and Ramdas Pophale) SiO2 
 PCOD8222565
Probable space group: P C C A
;
_chemical_formula_sum "Si O2"
_cell_formula_units_Z 36
_cell_length_a 5.010298
_cell_length_b 15.512816
_cell_length_c 28.257227
_cell_angle_alpha 90.000000
_cell_angle_beta 90.000000
_cell_angle_gamma 90.000000
_cell_volume 2196.259935
_symmetry_space_group_name_H-M "P C C A"
_symmetry_group_IT_number 54
_symmetry_cell_setting 'orthorhombic'
loop_
_space_group_symop_operation_xyz
x,y,z
1/2-x,-y,z
1/2+x,-y,1/2-z
-x,y,1/2-z
-x,-y,-z
1/2+x,y,-z
1/2-x,y,1/2+z
x,-y,1/2+z
loop_
_atom_site_type_symbol
_atom_site_label
_atom_site_fract_x
_atom_site_fract_y
_atom_site_fract_z
Si Si1 0.739767 0.157349 0.602326
Si Si2 0.250000 0.000000 0.966913
Si Si3 0.000000 0.943952 0.250000
Si Si4 0.750000 0.500000 0.032806
Si Si5 0.258597 0.313041 0.966216
Si Si6 0.760561 0.101493 0.845183
O O1 0.699645 0.248464 0.577112
O O2 0.528427 0.143926 0.645334
O O3 0.037997 0.153057 0.621793
O O4 0.706303 0.083616 0.564169
O O5 0.500000 0.000000 0.000000
O O6 0.136097 0.886882 0.208810
O O7 0.250000 0.000000 0.271362
O O8 0.500000 0.500000 0.000000
O O9 0.739533 0.592084 0.059992
O O10 0.483252 0.299061 0.006011
O O11 0.750000 0.000000 0.857729
#
# Coordination Sequence:
#
# PCOD8222565 Si02
#       6
#     8   4   4   4   8   8
#     4  12  21  32  48  67  97 127 165 199 232 279
#     4  12  22  32  42  60  92 136 166 190 218 266
#     4  10  20  34  54  70  88 122 164 202 250 298
#     4   8  16  30  50  66  88 120 160 206 242 276
#     4  10  19  33  48  69  94 128 166 200 240 275
#     4  11  20  35  48  69  93 124 159 200 244 281
#
# _framework density 16.391504000000001
#
# number of rings (size 3 to 8) (size 9 to 14) (size 15 to 20)
#    0.000    1.333    2.222    6.667    0.000    0.000 
#    0.000    0.000    0.000    0.000    0.000    0.000 
#    0.000    3.556    0.000    2.889    0.000    0.000 
#
# Total GULP energy -446023.972921 kJ/mol
# GULP energy per Si atom -12389.554803 kJ/mol
# Density = 1.635420 g / cm^3
# Si number density = 16.391504 Si / 1000 Ang^3
#
#
#
# Elastic Constant Matrix: (Units=GPa)
#
#
# Indices 1 2 3 4 5 6 
#
# 1 91.4196 14.9838 17.9869 0.0000 0.0000 0.0000
# 2 14.9838 120.8959 40.3772 0.0000 0.0000 0.0000
# 3 17.9869 40.3772 74.6348 0.0000 0.0000 0.0000
# 4 0.0000 0.0000 0.0000 20.7330 0.0000 0.0000
# 5 0.0000 0.0000 0.0000 0.0000 35.8385 0.0000
# 6 0.0000 0.0000 0.0000 0.0000 0.0000 19.5657
#
#
#
# Elastic Compliance Matrix: (Units=1/GPa)
#
#
# Indices 1 2 3 4 5 6 
#
# 1 0.011520 -0.000611 -0.002446 0.000000 0.000000 0.000000
# 2 -0.000611 0.010128 -0.005332 0.000000 0.000000 0.000000
# 3 -0.002446 -0.005332 0.016873 0.000000 0.000000 0.000000
# 4 0.000000 0.000000 0.000000 0.048232 0.000000 0.000000
# 5 0.000000 0.000000 0.000000 0.000000 0.027903 0.000000
# 6 0.000000 0.000000 0.000000 0.000000 0.000000 0.051110
#
#
# Mechanical properties :
#
#
# Convention : Reuss Voigt Hill
#
# Bulk Modulus (GPa) = 45.99150 48.18291 47.08720
# Shear Modulus (GPa) = 26.34476 29.46758 27.90617
#
# Velocity S-wave (km/s) = 4.01336 4.24457 4.13059
# Velocity P-wave (km/s) = 7.04238 7.31305 7.17899
#
# Compressibility (1/GPa) = 0.02174315
#
# Stress axis : x y z
#
# Youngs Moduli (GPa) = 86.80626 98.73508 59.26764
#
# Poissons Ratio (x) = 0.06032 0.14495
# Poissons Ratio (y) = 0.05303 0.31602
# Poissons Ratio (z) = 0.21231 0.52646
#
# Static dielectric constant tensor:
#      x y z
#    x 3.528270 0.000000 0.000000 
#    y 0.000000 3.367170 0.000000 
#    z 0.000000 0.000000 2.926240 
# 
# 
# High freq. dielectric constant tensor:
#      x y z
#    x 1.666210 0.000000 0.000000 
#    y 0.000000 1.606280 0.000000 
#    z 0.000000 0.000000 1.602120 
# 
# From -- ./inp_files/22805.got.cif
#   From: 2010.03.12/outbox.cif.g09.slc.cpg/sg54_12_cif.got.tgz:22805.got - 2010.04.16 15:00:50.
