data_PCOD8222734
_publ_section_title
;
Structure prediction by ZEFSAII (Michael W. Deem and Ramdas Pophale) SiO2 
 PCOD8222734
Probable space group: P C C A
;
_chemical_formula_sum "Si O2"
_cell_formula_units_Z 48
_cell_length_a 14.111379
_cell_length_b 8.266830
_cell_length_c 18.310636
_cell_angle_alpha 90.000000
_cell_angle_beta 90.000000
_cell_angle_gamma 90.000000
_cell_volume 2136.052351
_symmetry_space_group_name_H-M "P C C A"
_symmetry_group_IT_number 54
_symmetry_cell_setting 'orthorhombic'
loop_
_space_group_symop_operation_xyz
x,y,z
1/2-x,-y,z
1/2+x,-y,1/2-z
-x,y,1/2-z
-x,-y,-z
1/2+x,y,-z
1/2-x,y,1/2+z
x,-y,1/2+z
loop_
_atom_site_type_symbol
_atom_site_label
_atom_site_fract_x
_atom_site_fract_y
_atom_site_fract_z
Si Si1 0.367520 0.725148 0.143477
Si Si2 0.750000 0.000000 0.284911
Si Si3 0.250000 0.500000 0.039436
Si Si4 0.858556 0.477744 0.223152
Si Si5 0.623980 0.815251 0.674894
Si Si6 0.306880 0.278429 0.912614
Si Si7 0.972481 0.949633 0.580042
O O1 0.326711 0.594061 0.087628
O O2 0.408269 0.630592 0.214472
O O3 0.455267 0.816110 0.107954
O O4 0.286058 0.853446 0.164908
O O5 0.835963 0.941232 0.234067
O O6 0.304735 0.371444 0.989175
O O7 0.750000 0.500000 0.249465
O O8 0.909897 0.651642 0.215630
O O9 0.861687 0.389094 0.145615
O O10 0.702467 0.765206 0.615109
O O11 0.533259 0.895858 0.634667
O O12 0.365408 0.115447 0.923610
O O13 0.000000 0.000000 0.500000
#
# Coordination Sequence:
#
# PCOD8222734 Si02
#       7
#     8   4   4   8   8   8   8
#     4  12  26  44  69 109 142 185 247 310 348 432
#     4  12  22  42  76 100 136 188 244 296 356 418
#     4  12  24  44  74  96 140 198 236 284 366 444
#     4  10  19  44  74  98 124 182 253 286 345 428
#     4  11  20  45  76  99 133 190 239 289 365 433
#     4  11  22  44  75  97 136 194 234 282 360 443
#     4  12  28  44  65 110 152 180 232 299 370 431
#
# _framework density 22.471359
#
# number of rings (size 3 to 8) (size 9 to 14) (size 15 to 20)
#    0.000    0.667    8.333    1.000    2.333    3.333 
#    0.000    1.667    0.000    0.000    0.000    0.000 
#    0.000    0.000    0.000    0.000    0.000    0.000 
#
# Total GULP energy -595386.996693 kJ/mol
# GULP energy per Si atom -12403.895764 kJ/mol
# Density = 2.242021 g / cm^3
# Si number density = 22.471359 Si / 1000 Ang^3
#
#
#
# Elastic Constant Matrix: (Units=GPa)
#
#
# Indices 1 2 3 4 5 6 
#
# 1 62.6581 38.7726 41.7367 0.0000 0.0000 0.0000
# 2 38.7726 136.2642 52.2455 0.0000 0.0000 0.0000
# 3 41.7367 52.2455 115.6786 0.0000 0.0000 0.0000
# 4 0.0000 0.0000 0.0000 55.5971 0.0000 0.0000
# 5 0.0000 0.0000 0.0000 0.0000 28.7290 0.0000
# 6 0.0000 0.0000 0.0000 0.0000 0.0000 42.7895
#
#
#
# Elastic Compliance Matrix: (Units=1/GPa)
#
#
# Indices 1 2 3 4 5 6 
#
# 1 0.022688 -0.004012 -0.006374 0.000000 0.000000 0.000000
# 2 -0.004012 0.009585 -0.002882 0.000000 0.000000 0.000000
# 3 -0.006374 -0.002882 0.012246 0.000000 0.000000 0.000000
# 4 0.000000 0.000000 0.000000 0.017987 0.000000 0.000000
# 5 0.000000 0.000000 0.000000 0.000000 0.034808 0.000000
# 6 0.000000 0.000000 0.000000 0.000000 0.000000 0.023370
#
#
# Mechanical properties :
#
#
# Convention : Reuss Voigt Hill
#
# Bulk Modulus (GPa) = 55.60439 64.45672 60.03056
# Shear Modulus (GPa) = 32.63446 37.54619 35.09033
#
# Velocity S-wave (km/s) = 3.81500 4.09203 3.95594
# Velocity P-wave (km/s) = 6.64860 7.14650 6.90204
#
# Compressibility (1/GPa) = 0.01798419
#
# Stress axis : x y z
#
# Youngs Moduli (GPa) = 44.07675 104.32940 81.66097
#
# Poissons Ratio (x) = 0.41854 0.52049
# Poissons Ratio (y) = 0.17683 0.23531
# Poissons Ratio (z) = 0.28094 0.30063
#
# Static dielectric constant tensor:
#      x y z
#    x 4.464070 0.000000 0.000000 
#    y 0.000000 3.792050 0.000000 
#    z 0.000000 0.000000 4.112890 
# 
# 
# High freq. dielectric constant tensor:
#      x y z
#    x 1.858940 0.000000 0.000000 
#    y 0.000000 1.909350 0.000000 
#    z 0.000000 0.000000 1.892210 
# 
# From -- ./inp_files/18089.got.cif
#   From: 2010.03.12/outbox.cif.g09.slc.cpg/sg54_10_cif.got.tgz:18089.got - 2010.04.16 15:00:50.
