data_PCOD8222024
_publ_section_title
;
Structure prediction by ZEFSAII (Michael W. Deem and Ramdas Pophale) SiO2 
 PCOD8222024
Probable space group: P M N A
;
_chemical_formula_sum "Si O2"
_cell_formula_units_Z 40
_cell_length_a 8.682196
_cell_length_b 11.451633
_cell_length_c 21.220353
_cell_angle_alpha 90.000000
_cell_angle_beta 90.000000
_cell_angle_gamma 90.000000
_cell_volume 2109.840435
_symmetry_space_group_name_H-M "P M N A"
_symmetry_group_IT_number 53
_symmetry_cell_setting 'orthorhombic'
loop_
_space_group_symop_operation_xyz
x,y,z
1/2-x,-y,1/2+z
x,-y,-z
1/2-x,y,1/2-z
-x,-y,-z
1/2+x,y,1/2-z
-x,y,z
1/2+x,-y,1/2+z
loop_
_atom_site_type_symbol
_atom_site_label
_atom_site_fract_x
_atom_site_fract_y
_atom_site_fract_z
Si Si1 0.826375 0.557542 0.406397
Si Si2 0.673472 0.682159 0.960966
Si Si3 0.322061 0.721315 0.314453
Si Si4 0.181905 0.966667 0.318376
Si Si5 0.820478 0.076753 0.059403
O O1 0.789887 0.419341 0.410157
O O2 0.809680 0.621347 0.472359
O O3 0.699721 0.615001 0.361932
O O4 0.000000 0.575647 0.380400
O O5 0.500000 0.730341 0.951378
O O6 0.793176 0.787360 0.955200
O O7 0.250000 0.676695 0.250000
O O8 0.500000 0.752924 0.306433
O O9 0.234423 0.836971 0.337748
O O10 0.250000 0.003687 0.250000
O O11 0.000000 0.972642 0.312674
O O12 0.235485 0.049787 0.374988
O O13 0.000000 0.052173 0.068924
O O14 0.758417 0.000000 0.000000
#
# Coordination Sequence:
#
# PCOD8222024 Si02
#       5
#     8   8   8   8   8
#     4   9  18  35  56  79 108 139 175 219 267 318
#     4   9  19  35  56  80 107 142 179 218 267 320
#     4  11  21  34  54  80 108 139 177 219 265 316
#     4  11  22  38  59  81 110 146 184 227 276 329
#     4  11  23  37  55  83 116 147 184 229 273 323
#
# _framework density 18.958780000000001
#
# number of rings (size 3 to 8) (size 9 to 14) (size 15 to 20)
#    0.000    1.800    0.000    7.800    0.000    6.400 
#    0.000    3.000    0.000    4.800    0.000    0.000 
#    0.000    0.000    0.000    0.000    0.000    0.000 
#
# Total GULP energy -495970.116770 kJ/mol
# GULP energy per Si atom -12399.252919 kJ/mol
# Density = 1.891563 g / cm^3
# Si number density = 18.958780 Si / 1000 Ang^3
#
#
#
# Elastic Constant Matrix: (Units=GPa)
#
#
# Indices 1 2 3 4 5 6 
#
# 1 112.8700 34.6414 40.2878 0.0000 0.0000 0.0000
# 2 34.6414 101.6946 44.8759 0.0000 0.0000 0.0000
# 3 40.2878 44.8759 76.6252 0.0000 0.0000 0.0000
# 4 0.0000 0.0000 0.0000 30.7683 0.0000 0.0000
# 5 0.0000 0.0000 0.0000 0.0000 30.7619 0.0000
# 6 0.0000 0.0000 0.0000 0.0000 0.0000 29.8207
#
#
#
# Elastic Compliance Matrix: (Units=1/GPa)
#
#
# Indices 1 2 3 4 5 6 
#
# 1 0.011103 -0.001626 -0.004885 0.000000 0.000000 0.000000
# 2 -0.001626 0.013499 -0.007050 0.000000 0.000000 0.000000
# 3 -0.004885 -0.007050 0.019748 0.000000 0.000000 0.000000
# 4 0.000000 0.000000 0.000000 0.032501 0.000000 0.000000
# 5 0.000000 0.000000 0.000000 0.000000 0.032508 0.000000
# 6 0.000000 0.000000 0.000000 0.000000 0.000000 0.033534
#
#
# Mechanical properties :
#
#
# Convention : Reuss Voigt Hill
#
# Bulk Modulus (GPa) = 58.05280 58.97778 58.51529
# Shear Modulus (GPa) = 28.44836 29.69582 29.07209
#
# Velocity S-wave (km/s) = 3.87788 3.96199 3.92016
# Velocity P-wave (km/s) = 7.12303 7.21843 7.17089
#
# Compressibility (1/GPa) = 0.01722570
#
# Stress axis : x y z
#
# Youngs Moduli (GPa) = 90.06943 74.08190 50.63785
#
# Poissons Ratio (x) = 0.12048 0.24737
# Poissons Ratio (y) = 0.14648 0.35702
# Poissons Ratio (z) = 0.43999 0.52231
#
# Static dielectric constant tensor:
#      x y z
#    x 3.564460 0.000000 0.000000 
#    y 0.000000 3.474840 0.000000 
#    z 0.000000 0.000000 3.939350 
# 
# 
# High freq. dielectric constant tensor:
#      x y z
#    x 1.740660 0.000000 0.000000 
#    y 0.000000 1.731350 0.000000 
#    z 0.000000 0.000000 1.733850 
# 
# From -- ./inp_files/25856.got.cif
#   From: 2010.03.12/outbox.cif.g09.slc.cpg/sg53_13_cif.got.tgz:25856.got - 2010.04.16 14:36:59.
