data_PCOD8222931
_publ_section_title
;
Structure prediction by ZEFSAII (Michael W. Deem and Ramdas Pophale) SiO2 
 PCOD8222931
Probable space group: P C C A
;
_chemical_formula_sum "Si O2"
_cell_formula_units_Z 64
_cell_length_a 31.651297
_cell_length_b 11.259763
_cell_length_c 8.618205
_cell_angle_alpha 90.000000
_cell_angle_beta 90.000000
_cell_angle_gamma 90.000000
_cell_volume 3071.408494
_symmetry_space_group_name_H-M "P C C A"
_symmetry_group_IT_number 54
_symmetry_cell_setting 'orthorhombic'
loop_
_space_group_symop_operation_xyz
x,y,z
1/2-x,-y,z
1/2+x,-y,1/2-z
-x,y,1/2-z
-x,-y,-z
1/2+x,y,-z
1/2-x,y,1/2+z
x,-y,1/2+z
loop_
_atom_site_type_symbol
_atom_site_label
_atom_site_fract_x
_atom_site_fract_y
_atom_site_fract_z
Si Si1 0.367808 0.853032 0.717783
Si Si2 0.569352 0.144802 0.842678
Si Si3 0.862803 0.398221 0.918287
Si Si4 0.772422 0.386457 0.021209
Si Si5 0.297593 0.266334 0.682949
Si Si6 0.956437 0.071071 0.679289
Si Si7 0.842283 0.935137 0.946988
Si Si8 0.113799 0.631218 0.731345
O O1 0.361495 0.714161 0.695763
O O2 0.418135 0.873473 0.721874
O O3 0.343150 0.921785 0.577199
O O4 0.345774 0.897504 0.875323
O O5 0.617553 0.103168 0.845012
O O6 0.572812 0.287415 0.814361
O O7 0.546602 0.073479 0.701292
O O8 0.545075 0.109673 0.000420
O O9 0.891432 0.497971 0.833976
O O10 0.814018 0.438107 0.935462
O O11 0.883587 0.367662 0.082959
O O12 0.750000 0.500000 0.104021
O O13 0.786660 0.281965 0.136652
O O14 0.740161 0.330295 0.902761
O O15 0.301075 0.128024 0.630058
O O16 0.343494 0.322559 0.647965
O O17 0.000000 0.119953 0.750000
#
# Coordination Sequence:
#
# PCOD8222931 Si02
#       8
#     8   8   8   8   8   8   8   8
#     4  10  23  39  66  90 125 161 206 253 310 379
#     4   9  20  36  60  93 126 155 195 249 300 366
#     4  11  25  38  63  87 120 168 211 261 308 365
#     4  11  22  36  58  88 117 157 208 261 307 357
#     4  10  22  36  58  83 120 151 201 260 311 354
#     4  10  20  37  66  98 129 156 198 248 315 372
#     4   9  21  38  60  84 121 157 201 248 307 367
#     4  10  23  39  59  90 122 158 216 254 306 364
#
# _framework density 20.837346
#
# number of rings (size 3 to 8) (size 9 to 14) (size 15 to 20)
#    0.000    2.000    1.250    0.750   19.250    0.000 
#    0.000    0.625    0.000    1.500    0.000    0.000 
#    0.000    0.000    0.000    0.000    0.000    0.000 
#
# Total GULP energy -793136.328590 kJ/mol
# GULP energy per Si atom -12392.755134 kJ/mol
# Density = 2.078992 g / cm^3
# Si number density = 20.837346 Si / 1000 Ang^3
#
#
#
# Elastic Constant Matrix: (Units=GPa)
#
#
# Indices 1 2 3 4 5 6 
#
# 1 47.3022 21.4576 22.5128 0.0000 0.0000 0.0000
# 2 21.4576 128.5586 46.9569 0.0000 0.0000 0.0000
# 3 22.5128 46.9569 96.2276 0.0000 0.0000 0.0000
# 4 0.0000 0.0000 0.0000 32.6908 0.0000 0.0000
# 5 0.0000 0.0000 0.0000 0.0000 18.5115 0.0000
# 6 0.0000 0.0000 0.0000 0.0000 0.0000 22.1054
#
#
#
# Elastic Compliance Matrix: (Units=1/GPa)
#
#
# Indices 1 2 3 4 5 6 
#
# 1 0.024392 -0.002418 -0.004527 0.000000 0.000000 0.000000
# 2 -0.002418 0.009705 -0.004170 0.000000 0.000000 0.000000
# 3 -0.004527 -0.004170 0.013486 0.000000 0.000000 0.000000
# 4 0.000000 0.000000 0.000000 0.030590 0.000000 0.000000
# 5 0.000000 0.000000 0.000000 0.000000 0.054020 0.000000
# 6 0.000000 0.000000 0.000000 0.000000 0.000000 0.045238
#
#
# Mechanical properties :
#
#
# Convention : Reuss Voigt Hill
#
# Bulk Modulus (GPa) = 39.44216 50.43811 44.94014
# Shear Modulus (GPa) = 24.02551 26.73895 25.38223
#
# Velocity S-wave (km/s) = 3.39927 3.58610 3.49393
# Velocity P-wave (km/s) = 5.86314 6.43467 6.15554
#
# Compressibility (1/GPa) = 0.02535358
#
# Stress axis : x y z
#
# Youngs Moduli (GPa) = 40.99726 103.03592 74.15032
#
# Poissons Ratio (x) = 0.24912 0.33566
# Poissons Ratio (y) = 0.09912 0.30923
# Poissons Ratio (z) = 0.18558 0.42970
#
# Static dielectric constant tensor:
#      x y z
#    x 3.635520 0.000000 0.000000 
#    y 0.000000 4.032920 0.000000 
#    z 0.000000 0.000000 3.569380 
# 
# 
# High freq. dielectric constant tensor:
#      x y z
#    x 1.785290 0.000000 0.000000 
#    y 0.000000 1.810950 0.000000 
#    z 0.000000 0.000000 1.815920 
# 
# From -- ./inp_files/5988.got.cif
#   From: 2010.03.12/outbox.cif.g09.slc.cpg/sg54_3_cif.got.tgz:5988.got - 2010.04.16 15:00:50.
