data_PCOD8222294
_publ_section_title
;
Structure prediction by ZEFSAII (Michael W. Deem and Ramdas Pophale) SiO2 
 PCOD8222294
Probable space group: P C C A
;
_chemical_formula_sum "Si O2"
_cell_formula_units_Z 40
_cell_length_a 16.789355
_cell_length_b 22.371595
_cell_length_c 5.314320
_cell_angle_alpha 90.000000
_cell_angle_beta 90.000000
_cell_angle_gamma 90.000000
_cell_volume 1996.083306
_symmetry_space_group_name_H-M "P C C A"
_symmetry_group_IT_number 54
_symmetry_cell_setting 'orthorhombic'
loop_
_space_group_symop_operation_xyz
x,y,z
1/2-x,-y,z
1/2+x,-y,1/2-z
-x,y,1/2-z
-x,-y,-z
1/2+x,y,-z
1/2-x,y,1/2+z
x,-y,1/2+z
loop_
_atom_site_type_symbol
_atom_site_label
_atom_site_fract_x
_atom_site_fract_y
_atom_site_fract_z
Si Si1 0.198986 0.148804 0.277227
Si Si2 0.405871 0.965393 0.250506
Si Si3 0.339677 0.283632 0.783145
Si Si4 0.338757 0.474989 0.289131
Si Si5 0.661352 0.333833 0.216744
O O1 0.240000 0.141457 0.547753
O O2 0.130532 0.100137 0.251636
O O3 0.156320 0.212625 0.259963
O O4 0.500000 0.957959 0.250000
O O5 0.376605 0.000680 0.498837
O O6 0.382979 0.313088 0.539989
O O7 0.249680 0.307262 0.806170
O O8 0.383102 0.305575 0.039914
O O9 0.250000 0.500000 0.319984
O O10 0.382755 0.495176 0.547749
O O11 0.337210 0.404479 0.258099
#
# Coordination Sequence:
#
# PCOD8222294 Si02
#       5
#     8   8   8   8   8
#     4  12  21  34  55  82 106 127 172 221 245 297
#     4  10  23  42  59  77 106 141 168 199 257 317
#     4  10  16  27  38  61  86 119 151 196 242 294
#     4  10  16  22  31  49  71 111 169 201 219 277
#     4  10  16  25  38  51  87 123 153 199 249 289
#
# _framework density 20.039242999999999
#
# number of rings (size 3 to 8) (size 9 to 14) (size 15 to 20)
#    0.000    1.600    4.000    7.200    0.000    2.400 
#    0.000    0.000    0.000    0.000    0.000    0.000 
#    0.000    0.000    0.000    0.000    0.000   74.000 
#
# Total GULP energy -495764.758028 kJ/mol
# GULP energy per Si atom -12394.118951 kJ/mol
# Density = 1.999363 g / cm^3
# Si number density = 20.039243 Si / 1000 Ang^3
#
#
#
# Elastic Constant Matrix: (Units=GPa)
#
#
# Indices 1 2 3 4 5 6 
#
# 1 4.8768 15.9239 5.0974 0.0000 0.0000 0.0000
# 2 15.9239 155.8405 30.1747 0.0000 0.0000 0.0000
# 3 5.0974 30.1747 182.8571 0.0000 0.0000 0.0000
# 4 0.0000 0.0000 0.0000 18.2816 0.0000 0.0000
# 5 0.0000 0.0000 0.0000 0.0000 3.3466 0.0000
# 6 0.0000 0.0000 0.0000 0.0000 0.0000 0.5445
#
#
#
# Elastic Compliance Matrix: (Units=1/GPa)
#
#
# Indices 1 2 3 4 5 6 
#
# 1 0.309904 -0.030984 -0.003526 0.000000 0.000000 0.000000
# 2 -0.030984 0.009726 -0.000741 0.000000 0.000000 0.000000
# 3 -0.003526 -0.000741 0.005689 0.000000 0.000000 0.000000
# 4 0.000000 0.000000 0.000000 0.054700 0.000000 0.000000
# 5 0.000000 0.000000 0.000000 0.000000 0.298808 0.000000
# 6 0.000000 0.000000 0.000000 0.000000 0.000000 1.836694
#
#
# Mechanical properties :
#
#
# Convention : Reuss Voigt Hill
#
# Bulk Modulus (GPa) = 3.92437 49.55185 26.73811
# Shear Modulus (GPa) = 1.87198 23.92644 12.89921
#
# Velocity S-wave (km/s) = 0.96757 3.45915 2.53987
# Velocity P-wave (km/s) = 1.79188 6.38243 4.68755
#
# Compressibility (1/GPa) = 0.25481769
#
# Stress axis : x y z
#
# Youngs Moduli (GPa) = 3.22680 102.81427 175.76611
#
# Poissons Ratio (x) = 3.18555 0.61980
# Poissons Ratio (y) = 0.09998 0.13029
# Poissons Ratio (z) = 0.01138 0.07622
#
# Static dielectric constant tensor:
#      x y z
#    x 2.780990 0.000000 0.000000 
#    y 0.000000 3.722040 0.000000 
#    z 0.000000 0.000000 6.314610 
# 
# 
# High freq. dielectric constant tensor:
#      x y z
#    x 1.685360 0.000000 0.000000 
#    y 0.000000 1.800160 0.000000 
#    z 0.000000 0.000000 1.830940 
# 
# From -- ./inp_files/931.got.cif
#   From: 2010.03.12/outbox.cif.g09.slc.cpg/sg54_1_cif.got.tgz:931.got - 2010.04.16 15:00:50.
