data_PCOD8222143
_publ_section_title
;
Structure prediction by ZEFSAII (Michael W. Deem and Ramdas Pophale) SiO2 
 PCOD8222143
Probable space group: P M N A
;
_chemical_formula_sum "Si O2"
_cell_formula_units_Z 48
_cell_length_a 8.982396
_cell_length_b 30.561799
_cell_length_c 9.405205
_cell_angle_alpha 90.000000
_cell_angle_beta 90.000000
_cell_angle_gamma 90.000000
_cell_volume 2581.899769
_symmetry_space_group_name_H-M "P M N A"
_symmetry_group_IT_number 53
_symmetry_cell_setting 'orthorhombic'
loop_
_space_group_symop_operation_xyz
x,y,z
1/2-x,-y,1/2+z
x,-y,-z
1/2-x,y,1/2-z
-x,-y,-z
1/2+x,y,1/2-z
-x,y,z
1/2+x,-y,1/2+z
loop_
_atom_site_type_symbol
_atom_site_label
_atom_site_fract_x
_atom_site_fract_y
_atom_site_fract_z
Si Si1 0.826923 0.306753 0.895798
Si Si2 0.826726 0.865633 0.898623
Si Si3 0.676077 0.615081 0.595581
Si Si4 0.673830 0.542358 0.097020
Si Si5 0.326396 0.037555 0.399406
Si Si6 0.824414 0.791571 0.104666
O O1 0.750000 0.322666 0.750000
O O2 0.776594 0.257709 0.939322
O O3 0.000000 0.308723 0.861346
O O4 0.787135 0.337418 0.029426
O O5 0.750000 0.860700 0.750000
O O6 0.794724 0.913968 0.964072
O O7 0.000000 0.858460 0.874897
O O8 0.760629 0.826984 0.994870
O O9 0.750000 0.610906 0.750000
O O10 0.500000 0.606788 0.611055
O O11 0.744641 0.581076 0.485224
O O12 0.750000 0.534597 0.250000
O O13 0.500000 0.553586 0.119925
O O14 0.694037 0.500000 0.000000
O O15 0.250000 0.032174 0.250000
O O16 0.500000 0.029932 0.375980
O O17 0.258888 0.000000 0.500000
O O18 0.750000 0.805134 0.250000
O O19 0.000000 0.795454 0.121015
#
# Coordination Sequence:
#
# PCOD8222143 Si02
#       6
#     8   8   8   8   8   8
#     4   9  19  35  54  76 103 136 172 212 257 306
#     4   9  18  32  49  69  96 129 163 202 248 299
#     4  11  23  38  57  82 112 144 180 221 265 313
#     4  11  24  41  62  87 115 147 182 221 265 312
#     4   9  18  32  48  68  95 126 161 202 248 297
#     4   9  18  33  51  73 101 131 167 209 253 302
#
# _framework density 18.590961
#
# number of rings (size 3 to 8) (size 9 to 14) (size 15 to 20)
#    0.000    2.333    0.000    2.000    0.000    7.667 
#    0.000    0.000    0.000    0.000    0.000    0.000 
#    0.000    0.000    0.000    0.000    0.000    0.000 
#
# Total GULP energy -595069.362501 kJ/mol
# GULP energy per Si atom -12397.278385 kJ/mol
# Density = 1.854865 g / cm^3
# Si number density = 18.590961 Si / 1000 Ang^3
#
#
#
# Elastic Constant Matrix: (Units=GPa)
#
#
# Indices 1 2 3 4 5 6 
#
# 1 62.5077 49.5758 52.0989 0.0000 0.0000 0.0000
# 2 49.5758 126.2313 75.0046 0.0000 0.0000 0.0000
# 3 52.0989 75.0046 118.1681 0.0000 0.0000 0.0000
# 4 0.0000 0.0000 0.0000 38.9650 0.0000 0.0000
# 5 0.0000 0.0000 0.0000 0.0000 34.4276 0.0000
# 6 0.0000 0.0000 0.0000 0.0000 0.0000 28.9385
#
#
#
# Elastic Compliance Matrix: (Units=1/GPa)
#
#
# Indices 1 2 3 4 5 6 
#
# 1 0.027722 -0.005820 -0.008528 0.000000 0.000000 0.000000
# 2 -0.005820 0.013941 -0.006282 0.000000 0.000000 0.000000
# 3 -0.008528 -0.006282 0.016210 0.000000 0.000000 0.000000
# 4 0.000000 0.000000 0.000000 0.025664 0.000000 0.000000
# 5 0.000000 0.000000 0.000000 0.000000 0.029046 0.000000
# 6 0.000000 0.000000 0.000000 0.000000 0.000000 0.034556
#
#
# Mechanical properties :
#
#
# Convention : Reuss Voigt Hill
#
# Bulk Modulus (GPa) = 60.19988 73.36286 66.78137
# Shear Modulus (GPa) = 25.78138 29.14808 27.46473
#
# Velocity S-wave (km/s) = 3.72798 3.96392 3.84776
# Velocity P-wave (km/s) = 7.14017 7.77801 7.46590
#
# Compressibility (1/GPa) = 0.01661133
#
# Stress axis : x y z
#
# Youngs Moduli (GPa) = 36.07222 71.73199 61.68989
#
# Poissons Ratio (x) = 0.41750 0.52609
# Poissons Ratio (y) = 0.20995 0.38757
# Poissons Ratio (z) = 0.30763 0.45066
#
# Static dielectric constant tensor:
#      x y z
#    x 3.426830 0.000000 0.000000 
#    y 0.000000 3.944870 0.000000 
#    z 0.000000 0.000000 3.448650 
# 
# 
# High freq. dielectric constant tensor:
#      x y z
#    x 1.721300 0.000000 0.000000 
#    y 0.000000 1.739210 0.000000 
#    z 0.000000 0.000000 1.717440 
# 
# From -- ./inp_files/6620.got.cif
#   From: 2010.03.12/outbox.cif.g09.slc.cpg/sg53_4_cif.got.tgz:6620.got - 2010.04.16 14:36:59.
