data_PCOD8222120
_publ_section_title
;
Structure prediction by ZEFSAII (Michael W. Deem and Ramdas Pophale) SiO2 
 PCOD8222120
Probable space group: P M N A
;
_chemical_formula_sum "Si O2"
_cell_formula_units_Z 48
_cell_length_a 8.758300
_cell_length_b 9.977451
_cell_length_c 27.983615
_cell_angle_alpha 90.000000
_cell_angle_beta 90.000000
_cell_angle_gamma 90.000000
_cell_volume 2445.362443
_symmetry_space_group_name_H-M "P M N A"
_symmetry_group_IT_number 53
_symmetry_cell_setting 'orthorhombic'
loop_
_space_group_symop_operation_xyz
x,y,z
1/2-x,-y,1/2+z
x,-y,-z
1/2-x,y,1/2-z
-x,-y,-z
1/2+x,y,1/2-z
-x,y,z
1/2+x,-y,1/2+z
loop_
_atom_site_type_symbol
_atom_site_label
_atom_site_fract_x
_atom_site_fract_y
_atom_site_fract_z
Si Si1 0.322217 0.228746 0.599866
Si Si2 0.679641 0.729531 0.601689
Si Si3 0.174768 0.977589 0.555698
Si Si4 0.178326 0.146791 0.797696
Si Si5 0.821637 0.519173 0.445138
Si Si6 0.179530 0.155788 0.201795
O O1 0.500000 0.258788 0.590351
O O2 0.282646 0.238003 0.656331
O O3 0.217293 0.330172 0.570436
O O4 0.285170 0.078516 0.583488
O O5 0.500000 0.752256 0.594737
O O6 0.771184 0.827315 0.566526
O O7 0.724285 0.578654 0.588415
O O8 0.730028 0.756114 0.656338
O O9 0.000000 0.997928 0.572090
O O10 0.192835 0.000000 0.500000
O O11 0.250000 0.212380 0.750000
O O12 0.000000 0.139045 0.789833
O O13 0.242338 0.995791 0.805427
O O14 0.773009 0.500000 0.500000
O O15 0.000000 0.491002 0.438105
O O16 0.250000 0.219285 0.250000
O O17 0.000000 0.156838 0.207403
#
# Coordination Sequence:
#
# PCOD8222120 Si02
#       6
#     8   8   8   8   8   8
#     4  11  22  39  61  87 117 152 197 243 290 346
#     4  11  22  39  61  87 117 152 197 243 290 346
#     4  11  23  37  56  85 118 151 192 243 294 345
#     4   9  18  34  56  86 119 149 187 236 287 342
#     4  11  25  43  60  83 118 157 198 243 294 353
#     4   9  18  34  56  86 119 149 187 236 287 342
#
# _framework density 19.628990000000002
#
# number of rings (size 3 to 8) (size 9 to 14) (size 15 to 20)
#    0.000    1.667    1.667    3.000    0.000    9.333 
#    0.000    0.833    0.000    0.000    0.000    0.000 
#    0.000    0.000    0.000    0.000    0.000    0.000 
#
# Total GULP energy -595386.804218 kJ/mol
# GULP energy per Si atom -12403.891755 kJ/mol
# Density = 1.958431 g / cm^3
# Si number density = 19.628990 Si / 1000 Ang^3
#
#
#
# Elastic Constant Matrix: (Units=GPa)
#
#
# Indices 1 2 3 4 5 6 
#
# 1 55.3317 12.5805 52.9544 0.0000 0.0000 0.0000
# 2 12.5805 54.0297 20.6915 0.0000 0.0000 0.0000
# 3 52.9544 20.6915 112.6615 0.0000 0.0000 0.0000
# 4 0.0000 0.0000 0.0000 30.3096 0.0000 0.0000
# 5 0.0000 0.0000 0.0000 0.0000 31.9054 0.0000
# 6 0.0000 0.0000 0.0000 0.0000 0.0000 27.5330
#
#
#
# Elastic Compliance Matrix: (Units=1/GPa)
#
#
# Indices 1 2 3 4 5 6 
#
# 1 0.033026 -0.001877 -0.015178 0.000000 0.000000 0.000000
# 2 -0.001877 0.020015 -0.002794 0.000000 0.000000 0.000000
# 3 -0.015178 -0.002794 0.016524 0.000000 0.000000 0.000000
# 4 0.000000 0.000000 0.000000 0.032993 0.000000 0.000000
# 5 0.000000 0.000000 0.000000 0.000000 0.031343 0.000000
# 6 0.000000 0.000000 0.000000 0.000000 0.000000 0.036320
#
#
# Mechanical properties :
#
#
# Convention : Reuss Voigt Hill
#
# Bulk Modulus (GPa) = 33.48261 43.83063 38.65662
# Shear Modulus (GPa) = 22.74027 27.00271 24.87149
#
# Velocity S-wave (km/s) = 3.40737 3.71301 3.56347
# Velocity P-wave (km/s) = 5.70745 6.38435 6.05537
#
# Compressibility (1/GPa) = 0.02986625
#
# Stress axis : x y z
#
# Youngs Moduli (GPa) = 30.27928 49.96178 60.51954
#
# Poissons Ratio (x) = 0.09378 0.91859
# Poissons Ratio (y) = 0.05684 0.16908
# Poissons Ratio (z) = 0.45959 0.13958
#
# Static dielectric constant tensor:
#      x y z
#    x 3.505590 0.000000 0.000000 
#    y 0.000000 3.323070 0.000000 
#    z 0.000000 0.000000 3.959040 
# 
# 
# High freq. dielectric constant tensor:
#      x y z
#    x 1.767180 0.000000 0.000000 
#    y 0.000000 1.742550 0.000000 
#    z 0.000000 0.000000 1.779540 
# 
# From -- ./inp_files/37758.got.cif
#   From: 2010.03.12/outbox.cif.g09.slc.cpg/sg53_19_cif.got.tgz:37758.got - 2010.04.16 14:36:59.
