data_PCOD8222124
_publ_section_title
;
Structure prediction by ZEFSAII (Michael W. Deem and Ramdas Pophale) SiO2 
 PCOD8222124
Probable space group: P M N A
;
_chemical_formula_sum "Si O2"
_cell_formula_units_Z 40
_cell_length_a 8.376300
_cell_length_b 12.512323
_cell_length_c 18.113022
_cell_angle_alpha 90.000000
_cell_angle_beta 90.000000
_cell_angle_gamma 90.000000
_cell_volume 1898.370974
_symmetry_space_group_name_H-M "P M N A"
_symmetry_group_IT_number 53
_symmetry_cell_setting 'orthorhombic'
loop_
_space_group_symop_operation_xyz
x,y,z
1/2-x,-y,1/2+z
x,-y,-z
1/2-x,y,1/2-z
-x,-y,-z
1/2+x,y,1/2-z
-x,y,z
1/2+x,-y,1/2+z
loop_
_atom_site_type_symbol
_atom_site_label
_atom_site_fract_x
_atom_site_fract_y
_atom_site_fract_z
Si Si1 0.188167 0.490360 0.670331
Si Si2 0.185411 0.684322 0.566079
Si Si3 0.183532 0.286839 0.907916
Si Si4 0.186595 0.862576 0.831002
Si Si5 0.685528 0.092349 0.828051
O O1 0.250000 0.526280 0.750000
O O2 0.239054 0.583435 0.614449
O O3 0.272526 0.381118 0.647699
O O4 0.000000 0.472435 0.671101
O O5 0.284962 0.677698 0.491250
O O6 0.220590 0.793028 0.609148
O O7 0.000000 0.678387 0.545738
O O8 0.287485 0.181997 0.889820
O O9 0.000000 0.256855 0.896967
O O10 0.250000 0.833162 0.750000
O O11 0.000000 0.837496 0.835558
O O12 0.219146 0.985852 0.850244
O O13 0.750000 0.136767 0.750000
O O14 0.500000 0.063298 0.821376
#
# Coordination Sequence:
#
# PCOD8222124 Si02
#       5
#     8   8   8   8   8
#     4  11  24  42  65  91 121 158 202 249 298 357
#     4  11  24  42  63  90 124 161 202 249 303 359
#     4  12  25  41  62  90 124 160 201 249 304 362
#     4  11  22  39  63  92 124 160 204 250 300 356
#     4  11  22  40  64  90 122 160 204 251 301 356
#
# _framework density 21.070696999999999
#
# number of rings (size 3 to 8) (size 9 to 14) (size 15 to 20)
#    0.000    0.800    0.000    9.600    0.000    8.000 
#    0.000    4.000    0.000    0.000    0.000    0.000 
#    0.000    0.000    0.000    0.000    0.000    0.000 
#
# Total GULP energy -496383.161269 kJ/mol
# GULP energy per Si atom -12409.579032 kJ/mol
# Density = 2.102274 g / cm^3
# Si number density = 21.070697 Si / 1000 Ang^3
#
#
#
# Elastic Constant Matrix: (Units=GPa)
#
#
# Indices 1 2 3 4 5 6 
#
# 1 79.7794 13.2978 10.1393 0.0000 0.0000 0.0000
# 2 13.2978 81.6462 25.1069 0.0000 0.0000 0.0000
# 3 10.1393 25.1069 80.2337 0.0000 0.0000 0.0000
# 4 0.0000 0.0000 0.0000 16.0866 0.0000 0.0000
# 5 0.0000 0.0000 0.0000 0.0000 38.2263 0.0000
# 6 0.0000 0.0000 0.0000 0.0000 0.0000 -1.4771
#
#
#
# Elastic Compliance Matrix: (Units=1/GPa)
#
#
# Indices 1 2 3 4 5 6 
#
# 1 0.012969 -0.001779 -0.001082 0.000000 0.000000 0.000000
# 2 -0.001779 0.013796 -0.004092 0.000000 0.000000 0.000000
# 3 -0.001082 -0.004092 0.013881 0.000000 0.000000 0.000000
# 4 0.000000 0.000000 0.000000 0.062164 0.000000 0.000000
# 5 0.000000 0.000000 0.000000 0.000000 0.026160 0.000000
# 6 0.000000 0.000000 0.000000 0.000000 0.000000 -0.677002
#
#
# Mechanical properties :
#
#
# Convention : Reuss Voigt Hill
#
# Bulk Modulus (GPa) = 37.39968 37.63861 37.51914
# Shear Modulus (GPa) = -9.51996 23.44151 6.96077
#
# Velocity S-wave (km/s) = -2.12789 3.33906 1.81953
# Velocity P-wave (km/s) = 3.42796 5.72429 4.71797
#
# Compressibility (1/GPa) = 0.02673820
#
# Stress axis : x y z
#
# Youngs Moduli (GPa) = 77.10878 72.48373 72.04152
#
# Poissons Ratio (x) = 0.12898 0.07795
# Poissons Ratio (y) = 0.13721 0.29481
# Poissons Ratio (z) = 0.08343 0.29662
#
# Static dielectric constant tensor:
#      x y z
#    x 3.869130 0.000000 0.000000 
#    y 0.000000 3.811880 0.000000 
#    z 0.000000 0.000000 3.766430 
# 
# 
# High freq. dielectric constant tensor:
#      x y z
#    x 1.840430 0.000000 0.000000 
#    y 0.000000 1.836160 0.000000 
#    z 0.000000 0.000000 1.828600 
# 
# From -- ./inp_files/25838.got.cif
#   From: 2010.03.12/outbox.cif.g09.slc.cpg/sg53_13_cif.got.tgz:25838.got - 2010.04.16 14:36:59.
