data_PCOD8222872
_publ_section_title
;
Structure prediction by ZEFSAII (Michael W. Deem and Ramdas Pophale) SiO2 
 PCOD8222872
Probable space group: P C C A
;
_chemical_formula_sum "Si O2"
_cell_formula_units_Z 52
_cell_length_a 14.952361
_cell_length_b 19.403557
_cell_length_c 9.098765
_cell_angle_alpha 90.000000
_cell_angle_beta 90.000000
_cell_angle_gamma 90.000000
_cell_volume 2639.815490
_symmetry_space_group_name_H-M "P C C A"
_symmetry_group_IT_number 54
_symmetry_cell_setting 'orthorhombic'
loop_
_space_group_symop_operation_xyz
x,y,z
1/2-x,-y,z
1/2+x,-y,1/2-z
-x,y,1/2-z
-x,-y,-z
1/2+x,y,-z
1/2-x,y,1/2+z
x,-y,1/2+z
loop_
_atom_site_type_symbol
_atom_site_label
_atom_site_fract_x
_atom_site_fract_y
_atom_site_fract_z
Si Si1 0.020544 0.929458 0.419598
Si Si2 0.459833 0.405081 0.492434
Si Si3 0.359519 0.322609 0.043542
Si Si4 0.309035 0.151925 0.360158
Si Si5 0.500000 0.494130 0.750000
Si Si6 0.361652 0.163853 0.030512
Si Si7 0.184234 0.310782 0.879035
O O1 0.121822 0.901037 0.438449
O O2 0.000000 0.939932 0.250000
O O3 0.955222 0.873682 0.491553
O O4 0.000000 0.000000 0.500000
O O5 0.560584 0.375345 0.488720
O O6 0.440525 0.445135 0.644681
O O7 0.441228 0.457433 0.357011
O O8 0.391901 0.342749 0.481320
O O9 0.387675 0.243783 0.016054
O O10 0.327421 0.331555 0.210461
O O11 0.279263 0.340113 0.932466
O O12 0.315690 0.146074 0.185529
O O13 0.207419 0.135513 0.408015
O O14 0.328386 0.229942 0.410210
#
# Coordination Sequence:
#
# PCOD8222872 Si02
#       7
#     8   8   8   8   4   8   8
#     4  10  21  36  55  79 111 151 187 218 270 330
#     4  11  21  42  58  78 114 150 185 226 276 328
#     4  10  20  36  61  86 109 143 187 231 279 326
#     4   9  19  36  57  82 110 142 183 230 274 321
#     4  10  24  38  60  80 112 152 186 220 274 338
#     4   9  19  36  57  82 110 142 183 230 274 321
#     4  10  20  36  61  86 109 143 187 231 279 326
#
# _framework density 19.698345
#
# number of rings (size 3 to 8) (size 9 to 14) (size 15 to 20)
#    0.000    2.154    1.538    0.923    2.154    4.308 
#    0.000    7.692    3.385    0.000    0.000    0.000 
#    0.000    0.000    0.000    0.000    0.000    0.000 
#
# Total GULP energy -644676.001040 kJ/mol
# GULP energy per Si atom -12397.615405 kJ/mol
# Density = 1.965351 g / cm^3
# Si number density = 19.698345 Si / 1000 Ang^3
#
#
#
# Elastic Constant Matrix: (Units=GPa)
#
#
# Indices 1 2 3 4 5 6 
#
# 1 83.4798 35.6915 21.7934 0.0000 0.0000 0.0000
# 2 35.6915 72.8368 30.0036 0.0000 0.0000 0.0000
# 3 21.7934 30.0036 57.4963 0.0000 0.0000 0.0000
# 4 0.0000 0.0000 0.0000 31.7868 0.0000 0.0000
# 5 0.0000 0.0000 0.0000 0.0000 25.2860 0.0000
# 6 0.0000 0.0000 0.0000 0.0000 0.0000 12.0426
#
#
#
# Elastic Compliance Matrix: (Units=1/GPa)
#
#
# Indices 1 2 3 4 5 6 
#
# 1 0.015414 -0.006556 -0.002422 0.000000 0.000000 0.000000
# 2 -0.006556 0.020277 -0.008096 0.000000 0.000000 0.000000
# 3 -0.002422 -0.008096 0.022535 0.000000 0.000000 0.000000
# 4 0.000000 0.000000 0.000000 0.031460 0.000000 0.000000
# 5 0.000000 0.000000 0.000000 0.000000 0.039548 0.000000
# 6 0.000000 0.000000 0.000000 0.000000 0.000000 0.083038
#
#
# Mechanical properties :
#
#
# Convention : Reuss Voigt Hill
#
# Bulk Modulus (GPa) = 41.52996 43.19890 42.36443
# Shear Modulus (GPa) = 19.65063 22.24471 20.94767
#
# Velocity S-wave (km/s) = 3.16187 3.36410 3.26455
# Velocity P-wave (km/s) = 5.87015 6.08830 5.98022
#
# Compressibility (1/GPa) = 0.02407900
#
# Stress axis : x y z
#
# Youngs Moduli (GPa) = 64.87628 49.31736 44.37495
#
# Poissons Ratio (x) = 0.32331 0.10746
# Poissons Ratio (y) = 0.42531 0.35927
# Poissons Ratio (z) = 0.15710 0.39929
#
# Static dielectric constant tensor:
#      x y z
#    x 3.575120 0.000000 0.000000 
#    y 0.000000 3.624600 0.000000 
#    z 0.000000 0.000000 3.715700 
# 
# 
# High freq. dielectric constant tensor:
#      x y z
#    x 1.755730 0.000000 0.000000 
#    y 0.000000 1.770470 0.000000 
#    z 0.000000 0.000000 1.768310 
# 
# From -- ./inp_files/3656.got.cif
#   From: 2010.03.12/outbox.cif.g09.slc.cpg/sg54_2_cif.got.tgz:3656.got - 2010.04.16 15:00:50.
