data_PCOD8222760
_publ_section_title
;
Structure prediction by ZEFSAII (Michael W. Deem and Ramdas Pophale) SiO2 
 PCOD8222760
Probable space group: P C C A
;
_chemical_formula_sum "Si O2"
_cell_formula_units_Z 44
_cell_length_a 20.338970
_cell_length_b 5.075977
_cell_length_c 22.386063
_cell_angle_alpha 90.000000
_cell_angle_beta 90.000000
_cell_angle_gamma 90.000000
_cell_volume 2311.140366
_symmetry_space_group_name_H-M "P C C A"
_symmetry_group_IT_number 54
_symmetry_cell_setting 'orthorhombic'
loop_
_space_group_symop_operation_xyz
x,y,z
1/2-x,-y,z
1/2+x,-y,1/2-z
-x,y,1/2-z
-x,-y,-z
1/2+x,y,-z
1/2-x,y,1/2+z
x,-y,1/2+z
loop_
_atom_site_type_symbol
_atom_site_label
_atom_site_fract_x
_atom_site_fract_y
_atom_site_fract_z
Si Si1 0.969121 0.755549 0.925169
Si Si2 0.129562 0.192462 0.828656
Si Si3 0.683196 0.876908 0.069376
Si Si4 0.250000 0.500000 0.341079
Si Si5 0.453258 0.292484 0.806152
Si Si6 0.081464 0.743758 0.023348
O O1 0.922935 0.499461 0.930912
O O2 0.001741 0.794387 0.861110
O O3 0.921253 0.000488 0.935318
O O4 0.023921 0.739857 0.975445
O O5 0.202228 0.295174 0.804576
O O6 0.077858 0.427024 0.822733
O O7 0.138489 0.103306 0.898481
O O8 0.101738 0.935423 0.793231
O O9 0.697300 0.658494 0.119543
O O10 0.750000 0.000000 0.044469
O O11 0.649291 0.740398 0.013098
O O12 0.500000 0.329397 0.750000
#
# Coordination Sequence:
#
# PCOD8222760 Si02
#       6
#     8   8   8   4   8   8
#     4  10  21  33  54  81 113 154 181 224 285 337
#     4  11  21  37  57  88 120 141 195 239 296 349
#     4  10  21  33  58  87 118 147 183 241 303 350
#     4  10  20  36  60  88 118 150 184 246 306 344
#     4  12  24  39  58  85 120 159 199 244 289 344
#     4  10  20  33  54  83 117 143 181 228 284 358
#
# _framework density 19.038222000000001
#
# number of rings (size 3 to 8) (size 9 to 14) (size 15 to 20)
#    0.000    1.455    3.636    1.636   10.182    0.000 
#    0.000    0.000    0.000    0.000    9.455    0.000 
#    0.000    0.000    0.000    0.000    0.000    0.000 
#
# Total GULP energy -545299.732425 kJ/mol
# GULP energy per Si atom -12393.175737 kJ/mol
# Density = 1.899489 g / cm^3
# Si number density = 19.038222 Si / 1000 Ang^3
#
#
#
# Elastic Constant Matrix: (Units=GPa)
#
#
# Indices 1 2 3 4 5 6 
#
# 1 91.2586 56.7632 28.2591 0.0000 0.0000 0.0000
# 2 56.7632 141.7286 37.0298 0.0000 0.0000 0.0000
# 3 28.2591 37.0298 47.9947 0.0000 0.0000 0.0000
# 4 0.0000 0.0000 0.0000 -10.8656 0.0000 0.0000
# 5 0.0000 0.0000 0.0000 0.0000 19.3765 0.0000
# 6 0.0000 0.0000 0.0000 0.0000 0.0000 30.2047
#
#
#
# Elastic Compliance Matrix: (Units=1/GPa)
#
#
# Indices 1 2 3 4 5 6 
#
# 1 0.015669 -0.004841 -0.005491 0.000000 0.000000 0.000000
# 2 -0.004841 0.010333 -0.005122 0.000000 0.000000 0.000000
# 3 -0.005491 -0.005122 0.028020 0.000000 0.000000 0.000000
# 4 0.000000 0.000000 0.000000 -0.092033 0.000000 0.000000
# 5 0.000000 0.000000 0.000000 0.000000 0.051609 0.000000
# 6 0.000000 0.000000 0.000000 0.000000 0.000000 0.033107
#
#
# Mechanical properties :
#
#
# Convention : Reuss Voigt Hill
#
# Bulk Modulus (GPa) = 43.26215 58.34291 50.80253
# Shear Modulus (GPa) = 58.60419 18.33842 38.47130
#
# Velocity S-wave (km/s) = 5.55421 3.10698 4.50014
# Velocity P-wave (km/s) = 7.99409 6.60173 7.33104
#
# Compressibility (1/GPa) = 0.02311490
#
# Stress axis : x y z
#
# Youngs Moduli (GPa) = 63.81883 96.77927 35.68828
#
# Poissons Ratio (x) = 0.46851 0.19596
# Poissons Ratio (y) = 0.30895 0.18279
# Poissons Ratio (z) = 0.35043 0.49568
#
# Static dielectric constant tensor:
#      x y z
#    x 3.590320 0.000000 0.000000 
#    y 0.000000 4.078410 0.000000 
#    z 0.000000 0.000000 3.082150 
# 
# 
# High freq. dielectric constant tensor:
#      x y z
#    x 1.734250 0.000000 0.000000 
#    y 0.000000 1.771660 0.000000 
#    z 0.000000 0.000000 1.675130 
# 
# From -- ./inp_files/22041.got.cif
#   From: 2010.03.12/outbox.cif.g09.slc.cpg/sg54_12_cif.got.tgz:22041.got - 2010.04.16 15:00:50.
