data_PCOD8222251
_publ_section_title
;
Structure prediction by ZEFSAII (Michael W. Deem and Ramdas Pophale) SiO2 
 PCOD8222251
Probable space group: P M N A
;
_chemical_formula_sum "Si O2"
_cell_formula_units_Z 56
_cell_length_a 9.618919
_cell_length_b 12.733195
_cell_length_c 29.138102
_cell_angle_alpha 90.000000
_cell_angle_beta 90.000000
_cell_angle_gamma 90.000000
_cell_volume 3568.822242
_symmetry_space_group_name_H-M "P M N A"
_symmetry_group_IT_number 53
_symmetry_cell_setting 'orthorhombic'
loop_
_space_group_symop_operation_xyz
x,y,z
1/2-x,-y,1/2+z
x,-y,-z
1/2-x,y,1/2-z
-x,-y,-z
1/2+x,y,1/2-z
-x,y,z
1/2+x,-y,1/2+z
loop_
_atom_site_type_symbol
_atom_site_label
_atom_site_fract_x
_atom_site_fract_y
_atom_site_fract_z
Si Si1 0.665523 0.782258 0.952268
Si Si2 0.165132 0.636749 0.389632
Si Si3 0.339660 0.042227 0.793185
Si Si4 0.660025 0.288257 0.792762
Si Si5 0.334634 0.030986 0.109026
Si Si6 0.165581 0.452512 0.452264
Si Si7 0.334192 0.167101 0.946873
O O1 0.500000 0.778866 0.952625
O O2 0.718980 0.858189 0.911445
O O3 0.724943 0.664809 0.944464
O O4 0.718997 0.828179 0.000752
O O5 0.214942 0.648229 0.337129
O O6 0.217411 0.526064 0.410407
O O7 0.225449 0.731570 0.420243
O O8 0.000000 0.643980 0.391155
O O9 0.250000 0.003234 0.750000
O O10 0.500000 0.016379 0.782739
O O11 0.284809 0.981146 0.838353
O O12 0.318556 0.165329 0.802562
O O13 0.750000 0.327518 0.750000
O O14 0.500000 0.313384 0.781974
O O15 0.500000 0.024131 0.107913
O O16 0.274523 0.937251 0.077395
O O17 0.222553 0.500000 0.500000
O O18 0.000000 0.449511 0.454226
O O19 0.500000 0.166993 0.945506
#
# Coordination Sequence:
#
# PCOD8222251 Si02
#       7
#     8   8   8   8   8   8   8
#     4   9  15  20  29  47  73 104 131 153 183 231
#     4   9  14  21  34  50  73 102 126 152 192 234
#     4   9  16  26  40  57  78 102 130 164 199 234
#     4   9  16  26  40  58  79 103 131 163 200 237
#     4   9  15  22  32  49  74 101 127 156 192 232
#     4   9  14  20  30  46  71 103 131 152 182 230
#     4   9  13  19  30  47  72 101 125 148 187 235
#
# _framework density 15.69145
#
# number of rings (size 3 to 8) (size 9 to 14) (size 15 to 20)
#    0.000    3.000    2.857    0.429    0.000    1.714 
#    0.000    0.000    0.000    0.857    0.000    0.000 
#    0.000    4.000    0.000    0.286    0.000    0.143 
#
# Total GULP energy -694071.532549 kJ/mol
# GULP energy per Si atom -12394.134510 kJ/mol
# Density = 1.565574 g / cm^3
# Si number density = 15.691450 Si / 1000 Ang^3
#
#
#
# Elastic Constant Matrix: (Units=GPa)
#
#
# Indices 1 2 3 4 5 6 
#
# 1 14.7652 12.5234 27.4386 0.0000 0.0000 0.0000
# 2 12.5234 120.0072 79.0037 0.0000 0.0000 0.0000
# 3 27.4386 79.0037 164.6076 0.0000 0.0000 0.0000
# 4 0.0000 0.0000 0.0000 26.7167 0.0000 0.0000
# 5 0.0000 0.0000 0.0000 0.0000 16.0806 0.0000
# 6 0.0000 0.0000 0.0000 0.0000 0.0000 3.8884
#
#
#
# Elastic Compliance Matrix: (Units=1/GPa)
#
#
# Indices 1 2 3 4 5 6 
#
# 1 0.098171 0.000772 -0.016735 0.000000 0.000000 0.000000
# 2 0.000772 0.012188 -0.005978 0.000000 0.000000 0.000000
# 3 -0.016735 -0.005978 0.011734 0.000000 0.000000 0.000000
# 4 0.000000 0.000000 0.000000 0.037430 0.000000 0.000000
# 5 0.000000 0.000000 0.000000 0.000000 0.062187 0.000000
# 6 0.000000 0.000000 0.000000 0.000000 0.000000 0.257175
#
#
# Mechanical properties :
#
#
# Convention : Reuss Voigt Hill
#
# Bulk Modulus (GPa) = 12.78596 59.70128 36.24362
# Shear Modulus (GPa) = 9.11020 21.36476 15.23748
#
# Velocity S-wave (km/s) = 2.41214 3.69393 3.11958
# Velocity P-wave (km/s) = 3.99048 7.50487 6.01028
#
# Compressibility (1/GPa) = 0.07821077
#
# Stress axis : x y z
#
# Youngs Moduli (GPa) = 10.18634 82.04834 85.22284
#
# Poissons Ratio (x) = -0.06337 1.42620
# Poissons Ratio (y) = -0.00787 0.50949
# Poissons Ratio (z) = 0.17047 0.49052
#
# Static dielectric constant tensor:
#      x y z
#    x 2.317700 0.000000 0.000000 
#    y 0.000000 3.131610 0.000000 
#    z 0.000000 0.000000 3.187000 
# 
# 
# High freq. dielectric constant tensor:
#      x y z
#    x 1.519610 0.000000 0.000000 
#    y 0.000000 1.592970 0.000000 
#    z 0.000000 0.000000 1.611600 
# 
# From -- ./inp_files/34983.got.cif
#   From: 2010.03.12/outbox.cif.g09.slc.cpg/sg53_18_cif.got.tgz:34983.got - 2010.04.16 14:36:59.
