data_PCOD8222148
_publ_section_title
;
Structure prediction by ZEFSAII (Michael W. Deem and Ramdas Pophale) SiO2 
 PCOD8222148
Probable space group: P M N A
;
_chemical_formula_sum "Si O2"
_cell_formula_units_Z 40
_cell_length_a 8.656993
_cell_length_b 25.575639
_cell_length_c 9.133458
_cell_angle_alpha 90.000000
_cell_angle_beta 90.000000
_cell_angle_gamma 90.000000
_cell_volume 2022.221836
_symmetry_space_group_name_H-M "P M N A"
_symmetry_group_IT_number 53
_symmetry_cell_setting 'orthorhombic'
loop_
_space_group_symop_operation_xyz
x,y,z
1/2-x,-y,1/2+z
x,-y,-z
1/2-x,y,1/2-z
-x,-y,-z
1/2+x,y,1/2-z
-x,y,z
1/2+x,-y,1/2+z
loop_
_atom_site_type_symbol
_atom_site_label
_atom_site_fract_x
_atom_site_fract_y
_atom_site_fract_z
Si Si1 0.817386 0.952781 0.905979
Si Si2 0.178417 0.447787 0.907640
Si Si3 0.818398 0.837053 0.907423
Si Si4 0.817242 0.739020 0.089758
Si Si5 0.317376 0.644997 0.910022
O O1 0.750000 0.963604 0.750000
O O2 0.764694 0.894967 0.960561
O O3 0.000000 0.956096 0.901543
O O4 0.746517 0.000000 0.000000
O O5 0.250000 0.458699 0.750000
O O6 0.000000 0.430792 0.893501
O O7 0.196680 0.500000 0.000000
O O8 0.273883 0.402307 0.984386
O O9 0.750000 0.822069 0.750000
O O10 0.000000 0.834985 0.886251
O O11 0.765291 0.796038 0.031136
O O12 0.750000 0.729270 0.250000
O O13 0.000000 0.732973 0.097639
O O14 0.751238 0.697905 0.975027
O O15 0.250000 0.634300 0.750000
O O16 0.500000 0.649950 0.898758
#
# Coordination Sequence:
#
# PCOD8222148 Si02
#       5
#     8   8   8   8   8
#     4   9  18  33  52  76 107 141 180 226 276 332
#     4  11  24  42  65  93 125 160 198 240 287 338
#     4   9  19  35  55  78 106 143 184 228 278 334
#     4  11  23  39  58  83 115 149 189 235 286 340
#     4  12  25  42  64  89 119 154 194 238 287 341
#
# _framework density 19.780222999999999
#
# number of rings (size 3 to 8) (size 9 to 14) (size 15 to 20)
#    0.000    1.600    0.000    4.800    0.000    7.600 
#    0.000    0.000    0.000    0.000    0.000    0.000 
#    0.000    0.000    0.000    0.000    0.000    0.000 
#
# Total GULP energy -496032.049173 kJ/mol
# GULP energy per Si atom -12400.801229 kJ/mol
# Density = 1.973520 g / cm^3
# Si number density = 19.780223 Si / 1000 Ang^3
#
#
#
# Elastic Constant Matrix: (Units=GPa)
#
#
# Indices 1 2 3 4 5 6 
#
# 1 78.4063 39.9467 36.0657 0.0000 0.0000 0.0000
# 2 39.9467 117.1326 50.2404 0.0000 0.0000 0.0000
# 3 36.0657 50.2404 110.0273 0.0000 0.0000 0.0000
# 4 0.0000 0.0000 0.0000 17.0953 0.0000 0.0000
# 5 0.0000 0.0000 0.0000 0.0000 33.8269 0.0000
# 6 0.0000 0.0000 0.0000 0.0000 0.0000 167.8312
#
#
#
# Elastic Compliance Matrix: (Units=1/GPa)
#
#
# Indices 1 2 3 4 5 6 
#
# 1 0.016466 -0.004104 -0.003523 0.000000 0.000000 0.000000
# 2 -0.004104 0.011640 -0.003970 0.000000 0.000000 0.000000
# 3 -0.003523 -0.003970 0.012056 0.000000 0.000000 0.000000
# 4 0.000000 0.000000 0.000000 0.058495 0.000000 0.000000
# 5 0.000000 0.000000 0.000000 0.000000 0.029562 0.000000
# 6 0.000000 0.000000 0.000000 0.000000 0.000000 0.005958
#
#
# Mechanical properties :
#
#
# Convention : Reuss Voigt Hill
#
# Bulk Modulus (GPa) = 58.93636 62.00798 60.47217
# Shear Modulus (GPa) = 30.66967 55.70491 43.18729
#
# Velocity S-wave (km/s) = 3.94194 5.31254 4.67771
# Velocity P-wave (km/s) = 7.11188 8.30947 7.73389
#
# Compressibility (1/GPa) = 0.01696745
#
# Stress axis : x y z
#
# Youngs Moduli (GPa) = 60.73212 85.91314 82.94564
#
# Poissons Ratio (x) = 0.35261 0.29223
# Poissons Ratio (y) = 0.24926 0.32926
# Poissons Ratio (z) = 0.21397 0.34104
#
# Static dielectric constant tensor:
#      x y z
#    x 3.686650 0.000000 0.000000 
#    y 0.000000 4.204610 0.000000 
#    z 0.000000 0.000000 3.659990 
# 
# 
# High freq. dielectric constant tensor:
#      x y z
#    x 1.775910 0.000000 0.000000 
#    y 0.000000 1.792210 0.000000 
#    z 0.000000 0.000000 1.774900 
# 
# From -- ./inp_files/6254.got.cif
#   From: 2010.03.12/outbox.cif.g09.slc.cpg/sg53_4_cif.got.tgz:6254.got - 2010.04.16 14:36:59.
