data_PCOD8222899
_publ_section_title
;
Structure prediction by ZEFSAII (Michael W. Deem and Ramdas Pophale) SiO2 
 PCOD8222899
Probable space group: P C C A
;
_chemical_formula_sum "Si O2"
_cell_formula_units_Z 48
_cell_length_a 18.561749
_cell_length_b 8.546815
_cell_length_c 15.993824
_cell_angle_alpha 90.000000
_cell_angle_beta 90.000000
_cell_angle_gamma 90.000000
_cell_volume 2537.321572
_symmetry_space_group_name_H-M "P C C A"
_symmetry_group_IT_number 54
_symmetry_cell_setting 'orthorhombic'
loop_
_space_group_symop_operation_xyz
x,y,z
1/2-x,-y,z
1/2+x,-y,1/2-z
-x,y,1/2-z
-x,-y,-z
1/2+x,y,-z
1/2-x,y,1/2+z
x,-y,1/2+z
loop_
_atom_site_type_symbol
_atom_site_label
_atom_site_fract_x
_atom_site_fract_y
_atom_site_fract_z
Si Si1 0.588549 0.188630 0.880569
Si Si2 0.848416 0.357661 0.222738
Si Si3 0.574884 0.920114 0.763729
Si Si4 0.570850 0.150797 0.609974
Si Si5 0.674667 0.087005 0.029606
Si Si6 0.691020 0.714219 0.696576
O O1 0.607532 0.316376 0.807980
O O2 0.507977 0.213757 0.918935
O O3 0.585246 0.009051 0.850488
O O4 0.649784 0.194988 0.951906
O O5 0.885548 0.305234 0.136302
O O6 0.836865 0.539077 0.205398
O O7 0.772261 0.267900 0.228618
O O8 0.500000 0.822584 0.750000
O O9 0.643195 0.810402 0.760699
O O10 0.568116 0.054150 0.694959
O O11 0.612790 0.045510 0.542118
O O12 0.682085 0.209713 0.105286
O O13 0.750000 0.000000 0.012410
#
# Coordination Sequence:
#
# PCOD8222899 Si02
#       6
#     8   8   8   8   8   8
#     4  10  21  34  59  88 111 140 194 245 280 328
#     4  10  20  37  56  79 112 153 190 231 279 345
#     4   8  17  32  54  80 107 140 185 232 272 326
#     4   9  18  37  57  81 113 152 183 229 288 341
#     4  11  21  36  58  85 114 152 189 236 289 341
#     4  10  21  36  55  79 113 152 187 222 285 351
#
# _framework density 18.917587000000001
#
# number of rings (size 3 to 8) (size 9 to 14) (size 15 to 20)
#    0.000    2.333    1.667    2.000    2.333    1.333 
#    0.000    5.833    0.000    0.000    0.000    0.000 
#    0.000    0.000    0.000    0.000    0.000    0.000 
#
# Total GULP energy -594628.553175 kJ/mol
# GULP energy per Si atom -12388.094858 kJ/mol
# Density = 1.887453 g / cm^3
# Si number density = 18.917587 Si / 1000 Ang^3
#
#
#
# Elastic Constant Matrix: (Units=GPa)
#
#
# Indices 1 2 3 4 5 6 
#
# 1 131.6554 50.1887 18.3863 0.0000 0.0000 0.0000
# 2 50.1887 54.6607 20.1077 0.0000 0.0000 0.0000
# 3 18.3863 20.1077 46.4669 0.0000 0.0000 0.0000
# 4 0.0000 0.0000 0.0000 15.0491 0.0000 0.0000
# 5 0.0000 0.0000 0.0000 0.0000 28.7040 0.0000
# 6 0.0000 0.0000 0.0000 0.0000 0.0000 26.2829
#
#
#
# Elastic Compliance Matrix: (Units=1/GPa)
#
#
# Indices 1 2 3 4 5 6 
#
# 1 0.011686 -0.010738 0.000023 0.000000 0.000000 0.000000
# 2 -0.010738 0.031626 -0.009436 0.000000 0.000000 0.000000
# 3 0.000023 -0.009436 0.025595 0.000000 0.000000 0.000000
# 4 0.000000 0.000000 0.000000 0.066449 0.000000 0.000000
# 5 0.000000 0.000000 0.000000 0.000000 0.034838 0.000000
# 6 0.000000 0.000000 0.000000 0.000000 0.000000 0.038048
#
#
# Mechanical properties :
#
#
# Convention : Reuss Voigt Hill
#
# Bulk Modulus (GPa) = 34.96140 45.57204 40.26672
# Shear Modulus (GPa) = 19.37384 23.61389 21.49386
#
# Velocity S-wave (km/s) = 3.20366 3.53689 3.37439
# Velocity P-wave (km/s) = 5.67499 6.38917 6.04264
#
# Compressibility (1/GPa) = 0.02860298
#
# Stress axis : x y z
#
# Youngs Moduli (GPa) = 85.57281 31.61984 39.06992
#
# Poissons Ratio (x) = 0.33954 -0.00089
# Poissons Ratio (y) = 0.91890 0.36868
# Poissons Ratio (z) = -0.00195 0.29838
#
# Static dielectric constant tensor:
#      x y z
#    x 4.013090 0.000000 0.000000 
#    y 0.000000 3.245740 0.000000 
#    z 0.000000 0.000000 3.302210 
# 
# 
# High freq. dielectric constant tensor:
#      x y z
#    x 1.760760 0.000000 0.000000 
#    y 0.000000 1.712480 0.000000 
#    z 0.000000 0.000000 1.712090 
# 
# From -- ./inp_files/18501.got.cif
#   From: 2010.03.12/outbox.cif.g09.slc.cpg/sg54_10_cif.got.tgz:18501.got - 2010.04.16 15:00:50.
