data_PCOD8222613
_publ_section_title
;
Structure prediction by ZEFSAII (Michael W. Deem and Ramdas Pophale) SiO2 
 PCOD8222613
Probable space group: P C C A
;
_chemical_formula_sum "Si O2"
_cell_formula_units_Z 60
_cell_length_a 24.706624
_cell_length_b 13.808266
_cell_length_c 8.664487
_cell_angle_alpha 90.000000
_cell_angle_beta 90.000000
_cell_angle_gamma 90.000000
_cell_volume 2955.938574
_symmetry_space_group_name_H-M "P C C A"
_symmetry_group_IT_number 54
_symmetry_cell_setting 'orthorhombic'
loop_
_space_group_symop_operation_xyz
x,y,z
1/2-x,-y,z
1/2+x,-y,1/2-z
-x,y,1/2-z
-x,-y,-z
1/2+x,y,-z
1/2-x,y,1/2+z
x,-y,1/2+z
loop_
_atom_site_type_symbol
_atom_site_label
_atom_site_fract_x
_atom_site_fract_y
_atom_site_fract_z
Si Si1 0.750000 0.000000 0.825946
Si Si2 0.057664 0.541478 0.686854
Si Si3 0.012949 0.727447 0.572973
Si Si4 0.206068 0.194716 0.108119
Si Si5 0.601491 0.127497 0.021143
Si Si6 0.138840 0.943501 0.169023
Si Si7 0.812638 0.773482 0.530355
Si Si8 0.593012 0.632328 0.008004
O O1 0.768780 0.910984 0.932860
O O2 0.694347 0.972912 0.735244
O O3 0.047100 0.626950 0.560965
O O4 0.090085 0.452502 0.616912
O O5 0.000000 0.504052 0.750000
O O6 0.092986 0.586024 0.822928
O O7 0.044482 0.819236 0.505125
O O8 0.000000 0.750688 0.750000
O O9 0.955999 0.709924 0.484775
O O10 0.149814 0.204443 0.014894
O O11 0.254858 0.260419 0.042884
O O12 0.195165 0.210119 0.288035
O O13 0.608217 0.034007 0.910437
O O14 0.599706 0.100155 0.201502
O O15 0.157097 0.867655 0.038663
O O16 0.849891 0.683134 0.489489
#
# Coordination Sequence:
#
# PCOD8222613 Si02
#       8
#     4   8   8   8   8   8   8   8
#     4   8  16  30  50  74 102 142 194 238 258 298
#     4   9  18  36  62  87 108 142 189 242 287 331
#     4   9  19  37  60  86 114 150 192 243 292 337
#     4  10  19  34  56  83 115 151 194 241 284 331
#     4  11  21  36  58  85 119 156 197 239 282 336
#     4  10  21  34  55  85 115 156 197 235 281 331
#     4  11  22  37  58  86 117 151 193 239 287 342
#     4  10  21  38  62  88 113 142 187 239 292 344
#
# _framework density 20.298120999999998
#
# number of rings (size 3 to 8) (size 9 to 14) (size 15 to 20)
#    0.000    2.400    0.000    6.400    0.000    6.400 
#    0.000    4.000    0.000    6.400    0.000    0.000 
#    0.000    0.000    0.000    0.000    0.000    0.000 
#
# Total GULP energy -743347.251108 kJ/mol
# GULP energy per Si atom -12389.120852 kJ/mol
# Density = 2.025192 g / cm^3
# Si number density = 20.298121 Si / 1000 Ang^3
#
#
#
# Elastic Constant Matrix: (Units=GPa)
#
#
# Indices 1 2 3 4 5 6 
#
# 1 93.7259 49.8267 36.7149 0.0000 0.0000 0.0000
# 2 49.8267 69.8519 33.8878 0.0000 0.0000 0.0000
# 3 36.7149 33.8878 74.6463 0.0000 0.0000 0.0000
# 4 0.0000 0.0000 0.0000 15.4967 0.0000 0.0000
# 5 0.0000 0.0000 0.0000 0.0000 26.7969 0.0000
# 6 0.0000 0.0000 0.0000 0.0000 0.0000 33.7022
#
#
#
# Elastic Compliance Matrix: (Units=1/GPa)
#
#
# Indices 1 2 3 4 5 6 
#
# 1 0.018024 -0.010973 -0.003884 0.000000 0.000000 0.000000
# 2 -0.010973 0.025040 -0.005970 0.000000 0.000000 0.000000
# 3 -0.003884 -0.005970 0.018017 0.000000 0.000000 0.000000
# 4 0.000000 0.000000 0.000000 0.064530 0.000000 0.000000
# 5 0.000000 0.000000 0.000000 0.000000 0.037318 0.000000
# 6 0.000000 0.000000 0.000000 0.000000 0.000000 0.029672
#
#
# Mechanical properties :
#
#
# Convention : Reuss Voigt Hill
#
# Bulk Modulus (GPa) = 51.47504 53.23142 52.35323
# Shear Modulus (GPa) = 20.77015 23.05213 21.91114
#
# Velocity S-wave (km/s) = 3.20231 3.37364 3.28909
# Velocity P-wave (km/s) = 6.25201 6.43871 6.34604
#
# Compressibility (1/GPa) = 0.01942689
#
# Stress axis : x y z
#
# Youngs Moduli (GPa) = 55.48107 39.93669 55.50242
#
# Poissons Ratio (x) = 0.43822 0.21556
# Poissons Ratio (y) = 0.60878 0.33138
# Poissons Ratio (z) = 0.21548 0.23844
#
# Static dielectric constant tensor:
#      x y z
#    x 3.761150 0.000000 0.000000 
#    y 0.000000 3.572380 0.000000 
#    z 0.000000 0.000000 3.483910 
# 
# 
# High freq. dielectric constant tensor:
#      x y z
#    x 1.785110 0.000000 0.000000 
#    y 0.000000 1.769820 0.000000 
#    z 0.000000 0.000000 1.784000 
# 
# From -- ./inp_files/5275.got.cif
#   From: 2010.03.12/outbox.cif.g09.slc.cpg/sg54_3_cif.got.tgz:5275.got - 2010.04.16 15:00:50.
