data_PCOD8222549
_publ_section_title
;
Structure prediction by ZEFSAII (Michael W. Deem and Ramdas Pophale) SiO2 
 PCOD8222549
Probable space group: P C C A
;
_chemical_formula_sum "Si O2"
_cell_formula_units_Z 64
_cell_length_a 5.332363
_cell_length_b 13.690428
_cell_length_c 35.588008
_cell_angle_alpha 90.000000
_cell_angle_beta 90.000000
_cell_angle_gamma 90.000000
_cell_volume 2598.007565
_symmetry_space_group_name_H-M "P C C A"
_symmetry_group_IT_number 54
_symmetry_cell_setting 'orthorhombic'
loop_
_space_group_symop_operation_xyz
x,y,z
1/2-x,-y,z
1/2+x,-y,1/2-z
-x,y,1/2-z
-x,-y,-z
1/2+x,y,-z
1/2-x,y,1/2+z
x,-y,1/2+z
loop_
_atom_site_type_symbol
_atom_site_label
_atom_site_fract_x
_atom_site_fract_y
_atom_site_fract_z
Si Si1 0.816750 0.335259 0.140560
Si Si2 0.135880 0.901877 0.786912
Si Si3 0.405837 0.115127 0.866436
Si Si4 0.097069 0.888933 0.102442
Si Si5 0.183409 0.666986 0.106318
Si Si6 0.753891 0.384174 0.978921
Si Si7 0.004553 0.890522 0.015669
Si Si8 0.758559 0.305962 0.727199
O O1 0.837956 0.226569 0.122706
O O2 0.576148 0.385019 0.120020
O O3 0.771366 0.349053 0.185428
O O4 0.081787 0.384340 0.128257
O O5 0.978078 0.874055 0.824094
O O6 0.311942 0.810397 0.776401
O O7 0.000000 0.937398 0.750000
O O8 0.250000 0.000000 0.803055
O O9 0.620485 0.062678 0.892757
O O10 0.126748 0.064601 0.871517
O O11 0.162531 0.780718 0.117804
O O12 0.000252 0.890844 0.060224
O O13 0.221166 0.661248 0.062050
O O14 0.750000 0.500000 0.975347
O O15 0.495239 0.347380 0.997621
O O16 0.254411 0.836160 0.999969
O O17 0.000000 0.000000 0.000000
O O18 0.500000 0.324296 0.750000
O O19 0.000000 0.349764 0.750000
#
# Coordination Sequence:
#
# PCOD8222549 Si02
#       8
#     8   8   8   8   8   8   8   8
#     4   9  18  32  51  76 108 132 177 219 259 304
#     4  10  21  35  51  72 101 133 175 214 261 324
#     4   9  20  36  52  75  97 131 165 216 263 308
#     4  10  20  37  56  74 101 127 174 212 262 316
#     4  10  19  33  55  78 104 143 171 216 258 307
#     4  10  21  36  54  82 118 148 178 214 255 311
#     4  10  21  37  53  70  93 123 154 212 264 302
#     4  10  19  32  52  75 104 140 170 219 277 317
#
# _framework density 24.634263000000001
#
# number of rings (size 3 to 8) (size 9 to 14) (size 15 to 20)
#    0.000    2.250    0.000    2.625    0.000    8.000 
#    6.750    0.000    0.000    0.000    0.000    0.000 
#    0.000   10.000    0.000    0.000    0.000    0.000 
#
# Total GULP energy -792892.659769 kJ/mol
# GULP energy per Si atom -12388.947809 kJ/mol
# Density = 2.457819 g / cm^3
# Si number density = 24.634263 Si / 1000 Ang^3
#
#
#
# Elastic Constant Matrix: (Units=GPa)
#
#
# Indices 1 2 3 4 5 6 
#
# 1 247.8048 19.7498 101.3727 0.0000 0.0000 0.0000
# 2 19.7498 5.8395 3.3065 0.0000 0.0000 0.0000
# 3 101.3727 3.3065 190.8407 0.0000 0.0000 0.0000
# 4 0.0000 0.0000 0.0000 -59.2604 0.0000 0.0000
# 5 0.0000 0.0000 0.0000 0.0000 46.8668 0.0000
# 6 0.0000 0.0000 0.0000 0.0000 0.0000 15.1458
#
#
#
# Elastic Compliance Matrix: (Units=1/GPa)
#
#
# Indices 1 2 3 4 5 6 
#
# 1 0.007248 -0.022556 -0.003459 0.000000 0.000000 0.000000
# 2 -0.022556 0.243133 0.007769 0.000000 0.000000 0.000000
# 3 -0.003459 0.007769 0.006943 0.000000 0.000000 0.000000
# 4 0.000000 0.000000 0.000000 -0.016875 0.000000 0.000000
# 5 0.000000 0.000000 0.000000 0.000000 0.021337 0.000000
# 6 0.000000 0.000000 0.000000 0.000000 0.000000 0.066025
#
#
# Mechanical properties :
#
#
# Convention : Reuss Voigt Hill
#
# Bulk Modulus (GPa) = 4.52833 77.03812 40.78322
# Shear Modulus (GPa) = 11.41774 21.88751 16.65263
#
# Velocity S-wave (km/s) = 2.15522 2.98400 2.60281
# Velocity P-wave (km/s) = 2.83470 6.57366 5.06204
#
# Compressibility (1/GPa) = 0.22083216
#
# Stress axis : x y z
#
# Youngs Moduli (GPa) = 137.96366 4.11297 144.03032
#
# Poissons Ratio (x) = 0.09277 0.49826
# Poissons Ratio (y) = 3.11185 -1.11894
# Poissons Ratio (z) = 0.47727 -0.03195
#
# Static dielectric constant tensor:
#      x y z
#    x 9.100350 0.000000 0.000000 
#    y 0.000000 3.985640 0.000000 
#    z 0.000000 0.000000 4.254870 
# 
# 
# High freq. dielectric constant tensor:
#      x y z
#    x 1.999790 0.000000 0.000000 
#    y 0.000000 1.953620 0.000000 
#    z 0.000000 0.000000 1.983920 
# 
# From -- ./inp_files/27294.got.cif
#   From: 2010.03.12/outbox.cif.g09.slc.cpg/sg54_14_cif.got.tgz:27294.got - 2010.04.16 15:00:50.
