data_PCOD8222075
_publ_section_title
;
Structure prediction by ZEFSAII (Michael W. Deem and Ramdas Pophale) SiO2 
 PCOD8222075
Probable space group: P M N A
;
_chemical_formula_sum "Si O2"
_cell_formula_units_Z 32
_cell_length_a 18.173586
_cell_length_b 7.245089
_cell_length_c 11.242100
_cell_angle_alpha 90.000000
_cell_angle_beta 90.000000
_cell_angle_gamma 90.000000
_cell_volume 1480.238853
_symmetry_space_group_name_H-M "P M N A"
_symmetry_group_IT_number 53
_symmetry_cell_setting 'orthorhombic'
loop_
_space_group_symop_operation_xyz
x,y,z
1/2-x,-y,1/2+z
x,-y,-z
1/2-x,y,1/2-z
-x,-y,-z
1/2+x,y,1/2-z
-x,y,z
1/2+x,-y,1/2+z
loop_
_atom_site_type_symbol
_atom_site_label
_atom_site_fract_x
_atom_site_fract_y
_atom_site_fract_z
Si Si1 0.158512 0.688516 0.455119
Si Si2 0.182296 0.421596 0.873120
Si Si3 0.827652 0.784024 0.717923
Si Si4 0.914847 0.127156 0.756957
O O1 0.119978 0.500000 0.500000
O O2 0.232116 0.641802 0.377463
O O3 0.175668 0.797584 0.575240
O O4 0.101734 0.803361 0.376454
O O5 0.167386 0.577452 0.772081
O O6 0.130775 0.246848 0.850874
O O7 0.158714 0.500000 0.000000
O O8 0.750000 0.877208 0.750000
O O9 0.892863 0.911842 0.768408
O O10 0.000000 0.147916 0.786699
#
# Coordination Sequence:
#
# PCOD8222075 Si02
#       4
#     8   8   8   8
#     4  11  21  43  75 100 123 168 228 287 332 376
#     4  11  23  45  73  99 128 174 233 283 324 385
#     4  12  22  42  73 101 128 169 226 284 336 383
#     4  12  28  43  62 101 144 179 217 266 338 412
#
# _framework density 21.618133
#
# number of rings (size 3 to 8) (size 9 to 14) (size 15 to 20)
#    0.000    0.500    7.500    3.000    0.000    5.000 
#    0.000    1.250    0.000    0.000    0.000    0.000 
#    0.000    0.000    0.000    0.000    0.000    0.000 
#
# Total GULP energy -396728.227639 kJ/mol
# GULP energy per Si atom -12397.757114 kJ/mol
# Density = 2.156893 g / cm^3
# Si number density = 21.618133 Si / 1000 Ang^3
#
#
#
# Elastic Constant Matrix: (Units=GPa)
#
#
# Indices 1 2 3 4 5 6 
#
# 1 96.7695 53.6046 17.6745 0.0000 0.0000 0.0000
# 2 53.6046 107.9628 11.4510 0.0000 0.0000 0.0000
# 3 17.6745 11.4510 64.4106 0.0000 0.0000 0.0000
# 4 0.0000 0.0000 0.0000 29.3025 0.0000 0.0000
# 5 0.0000 0.0000 0.0000 0.0000 19.7538 0.0000
# 6 0.0000 0.0000 0.0000 0.0000 0.0000 20.1676
#
#
#
# Elastic Compliance Matrix: (Units=1/GPa)
#
#
# Indices 1 2 3 4 5 6 
#
# 1 0.014732 -0.007018 -0.002795 0.000000 0.000000 0.000000
# 2 -0.007018 0.012784 -0.000347 0.000000 0.000000 0.000000
# 3 -0.002795 -0.000347 0.016354 0.000000 0.000000 0.000000
# 4 0.000000 0.000000 0.000000 0.034127 0.000000 0.000000
# 5 0.000000 0.000000 0.000000 0.000000 0.050623 0.000000
# 6 0.000000 0.000000 0.000000 0.000000 0.000000 0.049584
#
#
# Mechanical properties :
#
#
# Convention : Reuss Voigt Hill
#
# Bulk Modulus (GPa) = 42.46282 48.28924 45.37603
# Shear Modulus (GPa) = 24.22789 26.27232 25.25010
#
# Velocity S-wave (km/s) = 3.35135 3.48988 3.42132
# Velocity P-wave (km/s) = 5.88730 6.21490 6.05331
#
# Compressibility (1/GPa) = 0.02355001
#
# Stress axis : x y z
#
# Youngs Moduli (GPa) = 67.87988 78.22402 61.14725
#
# Poissons Ratio (x) = 0.54898 0.17089
# Poissons Ratio (y) = 0.47639 0.02121
# Poissons Ratio (z) = 0.18971 0.02714
#
# Static dielectric constant tensor:
#      x y z
#    x 3.531870 0.000000 0.000000 
#    y 0.000000 3.961420 0.000000 
#    z 0.000000 0.000000 4.187510 
# 
# 
# High freq. dielectric constant tensor:
#      x y z
#    x 1.809750 0.000000 0.000000 
#    y 0.000000 1.858200 0.000000 
#    z 0.000000 0.000000 1.869080 
# 
# From -- ./inp_files/15418.got.cif
#   From: 2010.03.12/outbox.cif.g09.slc.cpg/sg53_8_cif.got.tgz:15418.got - 2010.04.16 14:36:59.
