data_PCOD8222335
_publ_section_title
;
Structure prediction by ZEFSAII (Michael W. Deem and Ramdas Pophale) SiO2 
 PCOD8222335
Probable space group: P C C A
;
_chemical_formula_sum "Si O2"
_cell_formula_units_Z 40
_cell_length_a 15.658002
_cell_length_b 22.676477
_cell_length_c 5.285810
_cell_angle_alpha 90.000000
_cell_angle_beta 90.000000
_cell_angle_gamma 90.000000
_cell_volume 1876.823688
_symmetry_space_group_name_H-M "P C C A"
_symmetry_group_IT_number 54
_symmetry_cell_setting 'orthorhombic'
loop_
_space_group_symop_operation_xyz
x,y,z
1/2-x,-y,z
1/2+x,-y,1/2-z
-x,y,1/2-z
-x,-y,-z
1/2+x,y,-z
1/2-x,y,1/2+z
x,-y,1/2+z
loop_
_atom_site_type_symbol
_atom_site_label
_atom_site_fract_x
_atom_site_fract_y
_atom_site_fract_z
Si Si1 0.898215 0.343607 0.250208
Si Si2 0.196687 0.156949 0.706723
Si Si3 0.600426 0.275663 0.250309
Si Si4 0.346084 0.975118 0.711075
Si Si5 0.654143 0.525045 0.253947
O O1 0.866724 0.307747 0.496367
O O2 0.847626 0.404715 0.253483
O O3 0.000000 0.354375 0.250000
O O4 0.866578 0.309131 0.000696
O O5 0.231533 0.161715 0.421988
O O6 0.129679 0.208542 0.750210
O O7 0.148870 0.095001 0.738233
O O8 0.500000 0.275235 0.250000
O O9 0.250000 0.000000 0.686671
O O10 0.393161 0.995880 0.453407
O O11 0.750000 0.500000 0.254725
O O12 0.606516 0.500125 0.504183
#
# Coordination Sequence:
#
# PCOD8222335 Si02
#       5
#     8   8   8   8   8
#     4  10  21  41  63  80 109 159 195 220 277 358
#     4  12  21  35  57  92 113 146 200 245 283 336
#     4  10  23  42  59  83 120 155 191 236 289 341
#     4  10  16  30  51  77 113 150 182 237 283 334
#     4  10  21  38  56  84 117 144 178 235 290 325
#
# _framework density 21.312602999999999
#
# number of rings (size 3 to 8) (size 9 to 14) (size 15 to 20)
#    0.000    1.600    4.000    2.400    0.000    0.800 
#   21.600    0.000    0.000    1.200    0.000    0.000 
#    0.000    0.000    0.000    0.000    0.000    0.000 
#
# Total GULP energy -495895.565732 kJ/mol
# GULP energy per Si atom -12397.389143 kJ/mol
# Density = 2.126409 g / cm^3
# Si number density = 21.312603 Si / 1000 Ang^3
#
#
#
# Elastic Constant Matrix: (Units=GPa)
#
#
# Indices 1 2 3 4 5 6 
#
# 1 10.5185 19.5939 8.7376 0.0000 0.0000 0.0000
# 2 19.5939 201.9688 71.1788 0.0000 0.0000 0.0000
# 3 8.7376 71.1788 213.0362 0.0000 0.0000 0.0000
# 4 0.0000 0.0000 0.0000 43.2805 0.0000 0.0000
# 5 0.0000 0.0000 0.0000 0.0000 1.0547 0.0000
# 6 0.0000 0.0000 0.0000 0.0000 0.0000 8.4439
#
#
#
# Elastic Compliance Matrix: (Units=1/GPa)
#
#
# Indices 1 2 3 4 5 6 
#
# 1 0.116282 -0.010882 -0.001134 0.000000 0.000000 0.000000
# 2 -0.010882 0.006630 -0.001769 0.000000 0.000000 0.000000
# 3 -0.001134 -0.001769 0.005332 0.000000 0.000000 0.000000
# 4 0.000000 0.000000 0.000000 0.023105 0.000000 0.000000
# 5 0.000000 0.000000 0.000000 0.000000 0.948157 0.000000
# 6 0.000000 0.000000 0.000000 0.000000 0.000000 0.118429
#
#
# Mechanical properties :
#
#
# Convention : Reuss Voigt Hill
#
# Bulk Modulus (GPa) = 9.93285 69.39380 39.66332
# Shear Modulus (GPa) = 3.90911 32.29002 18.09957
#
# Velocity S-wave (km/s) = 1.35579 3.89661 2.91734
# Velocity P-wave (km/s) = 2.66862 7.27155 5.47709
#
# Compressibility (1/GPa) = 0.10067604
#
# Stress axis : x y z
#
# Youngs Moduli (GPa) = 8.59975 150.82103 187.56147
#
# Poissons Ratio (x) = 1.64117 0.21261
# Poissons Ratio (y) = 0.09358 0.33180
# Poissons Ratio (z) = 0.00975 0.26680
#
# Static dielectric constant tensor:
#      x y z
#    x 3.166180 0.000000 0.000000 
#    y 0.000000 3.991950 0.000000 
#    z 0.000000 0.000000 6.653120 
# 
# 
# High freq. dielectric constant tensor:
#      x y z
#    x 1.778570 0.000000 0.000000 
#    y 0.000000 1.850310 0.000000 
#    z 0.000000 0.000000 1.876370 
# 
# From -- ./inp_files/924.got.cif
#   From: 2010.03.12/outbox.cif.g09.slc.cpg/sg54_1_cif.got.tgz:924.got - 2010.04.16 15:00:50.
