data_PCOD8222525
_publ_section_title
;
Structure prediction by ZEFSAII (Michael W. Deem and Ramdas Pophale) SiO2 
 PCOD8222525
Probable space group: P C C A
;
_chemical_formula_sum "Si O2"
_cell_formula_units_Z 40
_cell_length_a 4.951387
_cell_length_b 18.201406
_cell_length_c 28.354718
_cell_angle_alpha 90.000000
_cell_angle_beta 90.000000
_cell_angle_gamma 90.000000
_cell_volume 2555.389710
_symmetry_space_group_name_H-M "P C C A"
_symmetry_group_IT_number 54
_symmetry_cell_setting 'orthorhombic'
loop_
_space_group_symop_operation_xyz
x,y,z
1/2-x,-y,z
1/2+x,-y,1/2-z
-x,y,1/2-z
-x,-y,-z
1/2+x,y,-z
1/2-x,y,1/2+z
x,-y,1/2+z
loop_
_atom_site_type_symbol
_atom_site_label
_atom_site_fract_x
_atom_site_fract_y
_atom_site_fract_z
Si Si1 0.745077 0.365811 0.397602
Si Si2 0.811321 0.076498 0.469125
Si Si3 0.744510 0.586597 0.155449
Si Si4 0.691483 0.766054 0.966496
Si Si5 0.750000 0.500000 0.966533
Si Si6 0.500000 0.548616 0.250000
O O1 0.538035 0.377942 0.353807
O O2 0.708775 0.287824 0.422328
O O3 0.705822 0.428568 0.435615
O O4 0.047807 0.369522 0.378811
O O5 0.625269 0.076038 0.516579
O O6 0.731982 0.152523 0.442984
O O7 0.750000 0.000000 0.440442
O O8 0.750000 0.500000 0.143450
O O9 0.637598 0.597497 0.209041
O O10 0.406921 0.753661 0.991950
O O11 0.500000 0.500000 0.000000
O O12 0.750000 0.500000 0.271434
#
# Coordination Sequence:
#
# PCOD8222525 Si02
#       6
#     8   8   8   8   4   4
#     4  12  21  32  46  62  87 116 150 188 217 255
#     4   8  14  25  42  60  79 107 145 184 217 251
#     4  11  20  35  48  66  83 107 143 186 229 274
#     4  10  19  31  43  61  88 119 154 184 215 252
#     4  12  22  32  42  56  82 120 158 184 208 236
#     4  10  20  34  54  70  82 102 138 188 242 284
#
# _framework density 15.653191
#
# number of rings (size 3 to 8) (size 9 to 14) (size 15 to 20)
#    0.000    1.600    2.000    6.000    0.000    0.000 
#    0.000    0.000    0.000    0.000    0.000    0.000 
#    0.000    0.000    0.000    3.600    0.000    7.400 
#
# Total GULP energy -495601.629017 kJ/mol
# GULP energy per Si atom -12390.040725 kJ/mol
# Density = 1.561756 g / cm^3
# Si number density = 15.653191 Si / 1000 Ang^3
#
#
#
# Elastic Constant Matrix: (Units=GPa)
#
#
# Indices 1 2 3 4 5 6 
#
# 1 72.6274 9.3610 12.6577 0.0000 0.0000 0.0000
# 2 9.3610 116.8545 33.4265 0.0000 0.0000 0.0000
# 3 12.6577 33.4265 61.5466 0.0000 0.0000 0.0000
# 4 0.0000 0.0000 0.0000 26.5677 0.0000 0.0000
# 5 0.0000 0.0000 0.0000 0.0000 29.3891 0.0000
# 6 0.0000 0.0000 0.0000 0.0000 0.0000 19.4490
#
#
#
# Elastic Compliance Matrix: (Units=1/GPa)
#
#
# Indices 1 2 3 4 5 6 
#
# 1 0.014294 -0.000360 -0.002744 0.000000 0.000000 0.000000
# 2 -0.000360 0.010141 -0.005433 0.000000 0.000000 0.000000
# 3 -0.002744 -0.005433 0.019763 0.000000 0.000000 0.000000
# 4 0.000000 0.000000 0.000000 0.037640 0.000000 0.000000
# 5 0.000000 0.000000 0.000000 0.000000 0.034026 0.000000
# 6 0.000000 0.000000 0.000000 0.000000 0.000000 0.051417
#
#
# Mechanical properties :
#
#
# Convention : Reuss Voigt Hill
#
# Bulk Modulus (GPa) = 36.87010 40.21321 38.54166
# Shear Modulus (GPa) = 25.85371 28.12005 26.98688
#
# Velocity S-wave (km/s) = 4.06847 4.24304 4.15667
# Velocity P-wave (km/s) = 6.75836 7.05340 6.90745
#
# Compressibility (1/GPa) = 0.02712225
#
# Stress axis : x y z
#
# Youngs Moduli (GPa) = 69.96159 98.61201 50.59922
#
# Poissons Ratio (x) = 0.03551 0.13885
# Poissons Ratio (y) = 0.02519 0.27493
# Poissons Ratio (z) = 0.19198 0.53581
#
# Static dielectric constant tensor:
#      x y z
#    x 3.347160 0.000000 0.000000 
#    y 0.000000 3.156890 0.000000 
#    z 0.000000 0.000000 2.708480 
# 
# 
# High freq. dielectric constant tensor:
#      x y z
#    x 1.635090 0.000000 0.000000 
#    y 0.000000 1.584240 0.000000 
#    z 0.000000 0.000000 1.552210 
# 
# From -- ./inp_files/25413.got.cif
#   From: 2010.03.12/outbox.cif.g09.slc.cpg/sg54_13_cif.got.tgz:25413.got - 2010.04.16 15:00:50.
