data_PCOD8222395
_publ_section_title
;
Structure prediction by ZEFSAII (Michael W. Deem and Ramdas Pophale) SiO2 
 PCOD8222395
Probable space group: P C C A
;
_chemical_formula_sum "Si O2"
_cell_formula_units_Z 64
_cell_length_a 8.321517
_cell_length_b 20.504228
_cell_length_c 20.537270
_cell_angle_alpha 90.000000
_cell_angle_beta 90.000000
_cell_angle_gamma 90.000000
_cell_volume 3504.198020
_symmetry_space_group_name_H-M "P C C A"
_symmetry_group_IT_number 54
_symmetry_cell_setting 'orthorhombic'
loop_
_space_group_symop_operation_xyz
x,y,z
1/2-x,-y,z
1/2+x,-y,1/2-z
-x,y,1/2-z
-x,-y,-z
1/2+x,y,-z
1/2-x,y,1/2+z
x,-y,1/2+z
loop_
_atom_site_type_symbol
_atom_site_label
_atom_site_fract_x
_atom_site_fract_y
_atom_site_fract_z
Si Si1 0.314737 0.566063 0.671317
Si Si2 0.982317 0.135587 0.482184
Si Si3 0.707766 0.706682 0.187268
Si Si4 0.344303 0.696578 0.163114
Si Si5 0.828957 0.566747 0.174873
Si Si6 0.187112 0.799365 0.079356
Si Si7 0.069214 0.827446 0.321469
Si Si8 0.227158 0.074785 0.909042
O O1 0.250000 0.500000 0.639515
O O2 0.182898 0.619950 0.651487
O O3 0.330708 0.558417 0.748226
O O4 0.494057 0.577856 0.644448
O O5 0.843961 0.158581 0.434427
O O6 0.912716 0.087492 0.537802
O O7 0.071696 0.198851 0.515343
O O8 0.103808 0.096877 0.437542
O O9 0.527919 0.721404 0.162029
O O10 0.726354 0.711882 0.265352
O O11 0.737688 0.634194 0.158849
O O12 0.836194 0.759722 0.161921
O O13 0.242415 0.728764 0.104719
O O14 0.750000 0.500000 0.145114
O O15 0.091217 0.833603 0.136791
O O16 0.187629 0.886380 0.342101
O O17 0.000000 0.834720 0.250000
O O18 0.250000 0.000000 0.890369
#
# Coordination Sequence:
#
# PCOD8222395 Si02
#       8
#     8   8   8   8   8   8   8   8
#     4   9  16  25  39  62  98 136 178 217 258 309
#     4   9  20  36  58  82 101 131 175 233 276 308
#     4  10  19  29  47  73 108 143 180 208 259 325
#     4  10  18  29  48  74 101 140 176 217 262 319
#     4   9  16  25  39  62  99 144 181 216 251 302
#     4  10  19  35  55  78 106 133 177 221 271 316
#     4  11  21  35  53  77 111 148 175 210 265 333
#     4  10  20  37  59  81 107 137 178 225 274 322
#
# _framework density 18.263808000000001
#
# number of rings (size 3 to 8) (size 9 to 14) (size 15 to 20)
#    0.000    2.250    1.250    2.625    1.750    3.000 
#    0.000    1.250    0.000    0.000    0.000    0.875 
#    0.000    7.000    0.000    2.375    0.000    0.250 
#
# Total GULP energy -792922.432158 kJ/mol
# GULP energy per Si atom -12389.413002 kJ/mol
# Density = 1.822224 g / cm^3
# Si number density = 18.263808 Si / 1000 Ang^3
#
#
#
# Elastic Constant Matrix: (Units=GPa)
#
#
# Indices 1 2 3 4 5 6 
#
# 1 117.6751 51.7282 40.1604 0.0000 0.0000 0.0000
# 2 51.7282 133.0191 42.3316 0.0000 0.0000 0.0000
# 3 40.1604 42.3316 42.8560 0.0000 0.0000 0.0000
# 4 0.0000 0.0000 0.0000 14.1900 0.0000 0.0000
# 5 0.0000 0.0000 0.0000 0.0000 24.3512 0.0000
# 6 0.0000 0.0000 0.0000 0.0000 0.0000 21.5838
#
#
#
# Elastic Compliance Matrix: (Units=1/GPa)
#
#
# Indices 1 2 3 4 5 6 
#
# 1 0.012748 -0.001685 -0.010281 0.000000 0.000000 0.000000
# 2 -0.001685 0.011187 -0.009471 0.000000 0.000000 0.000000
# 3 -0.010281 -0.009471 0.042323 0.000000 0.000000 0.000000
# 4 0.000000 0.000000 0.000000 0.070472 0.000000 0.000000
# 5 0.000000 0.000000 0.000000 0.000000 0.041066 0.000000
# 6 0.000000 0.000000 0.000000 0.000000 0.000000 0.046331
#
#
# Mechanical properties :
#
#
# Convention : Reuss Voigt Hill
#
# Bulk Modulus (GPa) = 42.76523 62.44343 52.60433
# Shear Modulus (GPa) = 18.19534 22.64700 20.42117
#
# Velocity S-wave (km/s) = 3.15977 3.52517 3.34746
# Velocity P-wave (km/s) = 6.06451 7.12973 6.61859
#
# Compressibility (1/GPa) = 0.02338348
#
# Stress axis : x y z
#
# Youngs Moduli (GPa) = 78.44615 89.38849 23.62771
#
# Poissons Ratio (x) = 0.15066 0.24292
# Poissons Ratio (y) = 0.13222 0.22377
# Poissons Ratio (z) = 0.80650 0.84658
#
# Static dielectric constant tensor:
#      x y z
#    x 3.659540 0.000000 0.000000 
#    y 0.000000 3.348570 0.000000 
#    z 0.000000 0.000000 3.101680 
# 
# 
# High freq. dielectric constant tensor:
#      x y z
#    x 1.730360 0.000000 0.000000 
#    y 0.000000 1.699500 0.000000 
#    z 0.000000 0.000000 1.658100 
# 
# From -- ./inp_files/20668.got.cif
#   From: 2010.03.12/outbox.cif.g09.slc.cpg/sg54_11_cif.got.tgz:20668.got - 2010.04.16 15:00:50.
