data_PCOD8222036
_publ_section_title
;
Structure prediction by ZEFSAII (Michael W. Deem and Ramdas Pophale) SiO2 
 PCOD8222036
Probable space group: P M N A
;
_chemical_formula_sum "Si O2"
_cell_formula_units_Z 32
_cell_length_a 8.375212
_cell_length_b 10.246676
_cell_length_c 19.118626
_cell_angle_alpha 90.000000
_cell_angle_beta 90.000000
_cell_angle_gamma 90.000000
_cell_volume 1640.723848
_symmetry_space_group_name_H-M "P M N A"
_symmetry_group_IT_number 53
_symmetry_cell_setting 'orthorhombic'
loop_
_space_group_symop_operation_xyz
x,y,z
1/2-x,-y,1/2+z
x,-y,-z
1/2-x,y,1/2-z
-x,-y,-z
1/2+x,y,1/2-z
-x,y,z
1/2+x,-y,1/2+z
loop_
_atom_site_type_symbol
_atom_site_label
_atom_site_fract_x
_atom_site_fract_y
_atom_site_fract_z
Si Si1 0.685350 0.868012 0.538407
Si Si2 0.687268 0.977108 0.825691
Si Si3 0.813675 0.737463 0.176508
Si Si4 0.685298 0.373664 0.959095
O O1 0.500000 0.837226 0.525594
O O2 0.722622 0.883000 0.620218
O O3 0.788902 0.751453 0.507501
O O4 0.738352 0.000000 0.500000
O O5 0.750000 0.936001 0.750000
O O6 0.500000 0.953757 0.831519
O O7 0.725224 0.127865 0.841790
O O8 0.750000 0.679622 0.250000
O O9 0.779697 0.636084 0.114320
O O10 0.000000 0.767509 0.183047
O O11 0.500000 0.389346 0.941256
O O12 0.750821 0.500000 0.000000
#
# Coordination Sequence:
#
# PCOD8222036 Si02
#       4
#     8   8   8   8
#     4  11  22  37  60  89 119 153 196 243 293 350
#     4  11  21  35  58  87 121 155 195 246 299 350
#     4  11  21  36  59  87 118 154 197 243 294 351
#     4  11  24  41  61  88 121 158 200 245 296 353
#
# _framework density 19.503588000000001
#
# number of rings (size 3 to 8) (size 9 to 14) (size 15 to 20)
#    0.000    1.000    2.500    7.500    0.000    3.000 
#    0.000    1.250    0.000    6.000    0.000    0.000 
#    0.000    0.000    0.000    0.000    0.000    0.000 
#
# Total GULP energy -397005.864913 kJ/mol
# GULP energy per Si atom -12406.433279 kJ/mol
# Density = 1.945920 g / cm^3
# Si number density = 19.503588 Si / 1000 Ang^3
#
#
#
# Elastic Constant Matrix: (Units=GPa)
#
#
# Indices 1 2 3 4 5 6 
#
# 1 60.9301 12.4175 13.7313 0.0000 0.0000 0.0000
# 2 12.4175 79.2185 50.6474 0.0000 0.0000 0.0000
# 3 13.7313 50.6474 151.3963 0.0000 0.0000 0.0000
# 4 0.0000 0.0000 0.0000 27.1773 0.0000 0.0000
# 5 0.0000 0.0000 0.0000 0.0000 33.3705 0.0000
# 6 0.0000 0.0000 0.0000 0.0000 0.0000 23.6540
#
#
#
# Elastic Compliance Matrix: (Units=1/GPa)
#
#
# Indices 1 2 3 4 5 6 
#
# 1 0.017035 -0.002140 -0.000829 0.000000 0.000000 0.000000
# 2 -0.002140 0.016327 -0.005268 0.000000 0.000000 0.000000
# 3 -0.000829 -0.005268 0.008443 0.000000 0.000000 0.000000
# 4 0.000000 0.000000 0.000000 0.036795 0.000000 0.000000
# 5 0.000000 0.000000 0.000000 0.000000 0.029967 0.000000
# 6 0.000000 0.000000 0.000000 0.000000 0.000000 0.042276
#
#
# Mechanical properties :
#
#
# Convention : Reuss Voigt Hill
#
# Bulk Modulus (GPa) = 39.47809 49.45967 44.46888
# Shear Modulus (GPa) = 28.44785 31.15695 29.80240
#
# Velocity S-wave (km/s) = 3.82330 4.00121 3.91326
# Velocity P-wave (km/s) = 6.30679 6.83817 6.57785
#
# Compressibility (1/GPa) = 0.02533050
#
# Stress axis : x y z
#
# Youngs Moduli (GPa) = 58.70173 61.24959 118.44670
#
# Poissons Ratio (x) = 0.13109 0.09820
# Poissons Ratio (y) = 0.12563 0.62394
# Poissons Ratio (z) = 0.04867 0.32265
#
# Static dielectric constant tensor:
#      x y z
#    x 3.555910 0.000000 0.000000 
#    y 0.000000 3.299700 0.000000 
#    z 0.000000 0.000000 3.886180 
# 
# 
# High freq. dielectric constant tensor:
#      x y z
#    x 1.774730 0.000000 0.000000 
#    y 0.000000 1.721950 0.000000 
#    z 0.000000 0.000000 1.779760 
# 
# From -- ./inp_files/30007.got.cif
#   From: 2010.03.12/outbox.cif.g09.slc.cpg/sg53_16_cif.got.tgz:30007.got - 2010.04.16 14:36:59.
