data_PCOD8222969
_publ_section_title
;
Structure prediction by ZEFSAII (Michael W. Deem and Ramdas Pophale) SiO2 
 PCOD8222969
Probable space group: P C C A
;
_chemical_formula_sum "Si O2"
_cell_formula_units_Z 48
_cell_length_a 18.738074
_cell_length_b 8.241417
_cell_length_c 16.064686
_cell_angle_alpha 90.000000
_cell_angle_beta 90.000000
_cell_angle_gamma 90.000000
_cell_volume 2480.841854
_symmetry_space_group_name_H-M "P C C A"
_symmetry_group_IT_number 54
_symmetry_cell_setting 'orthorhombic'
loop_
_space_group_symop_operation_xyz
x,y,z
1/2-x,-y,z
1/2+x,-y,1/2-z
-x,y,1/2-z
-x,-y,-z
1/2+x,y,-z
1/2-x,y,1/2+z
x,-y,1/2+z
loop_
_atom_site_type_symbol
_atom_site_label
_atom_site_fract_x
_atom_site_fract_y
_atom_site_fract_z
Si Si1 0.898720 0.608584 0.681298
Si Si2 0.514403 0.678372 0.031361
Si Si3 0.739788 0.816783 0.831840
Si Si4 0.104679 0.202695 0.144098
Si Si5 0.415327 0.840911 0.622820
Si Si6 0.000000 0.359846 0.750000
Si Si7 0.750000 0.500000 0.719840
O O1 0.922847 0.706263 0.599585
O O2 0.904087 0.712552 0.765984
O O3 0.956284 0.465036 0.683887
O O4 0.819518 0.539185 0.664788
O O5 0.437465 0.714200 0.070035
O O6 0.500000 0.500000 0.000000
O O7 0.537766 0.798769 0.957655
O O8 0.812367 0.790049 0.884348
O O9 0.669805 0.810643 0.890708
O O10 0.732219 0.665254 0.769569
O O11 0.750000 0.000000 0.790136
O O12 0.072234 0.024283 0.150498
O O13 0.440789 0.740607 0.701775
#
# Coordination Sequence:
#
# PCOD8222969 Si02
#       7
#     8   8   8   8   8   4   4
#     4  11  21  40  61  88 121 158 208 247 305 367
#     4  12  23  39  57  92 125 157 201 257 304 370
#     4   9  20  38  63  89 116 158 211 249 297 374
#     4  10  22  41  65  84 122 163 205 253 307 365
#     4  11  23  39  62  91 122 161 203 256 312 360
#     4  12  20  36  62  88 116 156 204 244 294 372
#     4  10  20  38  64  88 116 166 204 250 308 356
#
# _framework density 19.348272000000001
#
# number of rings (size 3 to 8) (size 9 to 14) (size 15 to 20)
#    0.000    1.333    5.000    0.500    4.667    0.000 
#    3.000    0.000    0.000    3.000    0.000    0.000 
#    0.000    0.000    0.000    0.000    0.000    0.000 
#
# Total GULP energy -594669.311983 kJ/mol
# GULP energy per Si atom -12388.944000 kJ/mol
# Density = 1.930423 g / cm^3
# Si number density = 19.348272 Si / 1000 Ang^3
#
#
#
# Elastic Constant Matrix: (Units=GPa)
#
#
# Indices 1 2 3 4 5 6 
#
# 1 141.1506 41.8775 42.0135 0.0000 0.0000 0.0000
# 2 41.8775 104.2134 26.3830 0.0000 0.0000 0.0000
# 3 42.0135 26.3830 73.0870 0.0000 0.0000 0.0000
# 4 0.0000 0.0000 0.0000 15.9054 0.0000 0.0000
# 5 0.0000 0.0000 0.0000 0.0000 17.8877 0.0000
# 6 0.0000 0.0000 0.0000 0.0000 0.0000 34.4217
#
#
#
# Elastic Compliance Matrix: (Units=1/GPa)
#
#
# Indices 1 2 3 4 5 6 
#
# 1 0.009135 -0.002577 -0.004321 0.000000 0.000000 0.000000
# 2 -0.002577 0.011288 -0.002593 0.000000 0.000000 0.000000
# 3 -0.004321 -0.002593 0.017102 0.000000 0.000000 0.000000
# 4 0.000000 0.000000 0.000000 0.062872 0.000000 0.000000
# 5 0.000000 0.000000 0.000000 0.000000 0.055904 0.000000
# 6 0.000000 0.000000 0.000000 0.000000 0.000000 0.029051
#
#
# Mechanical properties :
#
#
# Convention : Reuss Voigt Hill
#
# Bulk Modulus (GPa) = 53.92966 59.88875 56.90920
# Shear Modulus (GPa) = 23.75106 27.52143 25.63625
#
# Velocity S-wave (km/s) = 3.50745 3.77559 3.64399
# Velocity P-wave (km/s) = 6.65857 7.07298 6.86890
#
# Compressibility (1/GPa) = 0.01854267
#
# Stress axis : x y z
#
# Youngs Moduli (GPa) = 109.46432 88.59135 58.47123
#
# Poissons Ratio (x) = 0.22830 0.25266
# Poissons Ratio (y) = 0.28209 0.15163
# Poissons Ratio (z) = 0.47301 0.22974
#
# Static dielectric constant tensor:
#      x y z
#    x 3.438600 0.000000 0.000000 
#    y 0.000000 3.827730 0.000000 
#    z 0.000000 0.000000 3.325960 
# 
# 
# High freq. dielectric constant tensor:
#      x y z
#    x 1.777720 0.000000 0.000000 
#    y 0.000000 1.769670 0.000000 
#    z 0.000000 0.000000 1.713150 
# 
# From -- ./inp_files/14167.got.cif
#   From: 2010.03.12/outbox.cif.g09.slc.cpg/sg54_8_cif.got.tgz:14167.got - 2010.04.16 15:00:50.
