data_PCOD8222445
_publ_section_title
;
Structure prediction by ZEFSAII (Michael W. Deem and Ramdas Pophale) SiO2 
 PCOD8222445
Probable space group: P C C A
;
_chemical_formula_sum "Si O2"
_cell_formula_units_Z 40
_cell_length_a 8.162645
_cell_length_b 8.790103
_cell_length_c 26.298286
_cell_angle_alpha 90.000000
_cell_angle_beta 90.000000
_cell_angle_gamma 90.000000
_cell_volume 1886.914915
_symmetry_space_group_name_H-M "P C C A"
_symmetry_group_IT_number 54
_symmetry_cell_setting 'orthorhombic'
loop_
_space_group_symop_operation_xyz
x,y,z
1/2-x,-y,z
1/2+x,-y,1/2-z
-x,y,1/2-z
-x,-y,-z
1/2+x,y,-z
1/2-x,y,1/2+z
x,-y,1/2+z
loop_
_atom_site_type_symbol
_atom_site_label
_atom_site_fract_x
_atom_site_fract_y
_atom_site_fract_z
Si Si1 0.004476 0.868619 0.385918
Si Si2 0.789933 0.822983 0.473134
Si Si3 0.293786 0.327930 0.835962
Si Si4 0.250000 0.000000 0.181835
Si Si5 0.959570 0.793172 0.574546
Si Si6 0.000000 0.822970 0.750000
O O1 0.142047 0.777980 0.354429
O O2 0.952427 0.787482 0.439148
O O3 0.057767 0.041228 0.399099
O O4 0.836870 0.872143 0.352910
O O5 0.820213 0.777031 0.531302
O O6 0.630779 0.741697 0.450144
O O7 0.750000 0.000000 0.470019
O O8 0.250000 0.500000 0.824984
O O9 0.426068 0.328164 0.881267
O O10 0.372905 0.273725 0.783250
O O11 0.393891 0.928642 0.214183
#
# Coordination Sequence:
#
# PCOD8222445 Si02
#       6
#     8   8   8   4   8   4
#     4  11  20  40  67 100 126 166 213 270 320 383
#     4  10  18  33  65 102 134 163 215 265 319 375
#     4  12  27  44  64  92 134 177 216 264 328 390
#     4  12  22  42  72 100 122 154 226 280 334 364
#     4  11  20  39  63  99 130 172 218 265 314 378
#     4  12  26  44  66  94 124 166 220 280 330 384
#
# _framework density 21.198625
#
# number of rings (size 3 to 8) (size 9 to 14) (size 15 to 20)
#    0.000    0.800    5.000    6.600    0.000    1.600 
#    0.000    7.000    0.000    0.000    0.000    0.000 
#    0.000    0.000    0.000    0.000    0.000    0.000 
#
# Total GULP energy -495811.717034 kJ/mol
# GULP energy per Si atom -12395.292926 kJ/mol
# Density = 2.115038 g / cm^3
# Si number density = 21.198625 Si / 1000 Ang^3
#
#
#
# Elastic Constant Matrix: (Units=GPa)
#
#
# Indices 1 2 3 4 5 6 
#
# 1 82.0416 15.5143 23.4546 0.0000 0.0000 0.0000
# 2 15.5143 55.0972 19.3799 0.0000 0.0000 0.0000
# 3 23.4546 19.3799 106.1684 0.0000 0.0000 0.0000
# 4 0.0000 0.0000 0.0000 -5.8432 0.0000 0.0000
# 5 0.0000 0.0000 0.0000 0.0000 58.7087 0.0000
# 6 0.0000 0.0000 0.0000 0.0000 0.0000 17.7077
#
#
#
# Elastic Compliance Matrix: (Units=1/GPa)
#
#
# Indices 1 2 3 4 5 6 
#
# 1 0.013439 -0.002928 -0.002434 0.000000 0.000000 0.000000
# 2 -0.002928 0.020033 -0.003010 0.000000 0.000000 0.000000
# 3 -0.002434 -0.003010 0.010506 0.000000 0.000000 0.000000
# 4 0.000000 0.000000 0.000000 -0.171139 0.000000 0.000000
# 5 0.000000 0.000000 0.000000 0.000000 0.017033 0.000000
# 6 0.000000 0.000000 0.000000 0.000000 0.000000 0.056473
#
#
# Mechanical properties :
#
#
# Convention : Reuss Voigt Hill
#
# Bulk Modulus (GPa) = 36.71963 40.00051 38.36007
# Shear Modulus (GPa) = -179.63977 26.44519 -76.59729
#
# Velocity S-wave (km/s) = -9.21549 3.53582 -6.01761
# Velocity P-wave (km/s) = 9.79154 5.96488 5.49065
#
# Compressibility (1/GPa) = 0.02723339
#
# Stress axis : x y z
#
# Youngs Moduli (GPa) = 74.41278 49.91792 95.18147
#
# Poissons Ratio (x) = 0.14615 0.23171
# Poissons Ratio (y) = 0.21786 0.28650
# Poissons Ratio (z) = 0.18115 0.15025
#
# Static dielectric constant tensor:
#      x y z
#    x 4.430940 0.000000 0.000000 
#    y 0.000000 3.252300 0.000000 
#    z 0.000000 0.000000 4.248180 
# 
# 
# High freq. dielectric constant tensor:
#      x y z
#    x 1.854390 0.000000 0.000000 
#    y 0.000000 1.762120 0.000000 
#    z 0.000000 0.000000 1.860310 
# 
# From -- ./inp_files/23333.got.cif
#   From: 2010.03.12/outbox.cif.g09.slc.cpg/sg54_12_cif.got.tgz:23333.got - 2010.04.16 15:00:50.
