data_PCOD8222548
_publ_section_title
;
Structure prediction by ZEFSAII (Michael W. Deem and Ramdas Pophale) SiO2 
 PCOD8222548
Probable space group: P C C A
;
_chemical_formula_sum "Si O2"
_cell_formula_units_Z 56
_cell_length_a 17.440680
_cell_length_b 31.987566
_cell_length_c 5.133482
_cell_angle_alpha 90.000000
_cell_angle_beta 90.000000
_cell_angle_gamma 90.000000
_cell_volume 2863.892105
_symmetry_space_group_name_H-M "P C C A"
_symmetry_group_IT_number 54
_symmetry_cell_setting 'orthorhombic'
loop_
_space_group_symop_operation_xyz
x,y,z
1/2-x,-y,z
1/2+x,-y,1/2-z
-x,y,1/2-z
-x,-y,-z
1/2+x,y,-z
1/2-x,y,1/2+z
x,-y,1/2+z
loop_
_atom_site_type_symbol
_atom_site_label
_atom_site_fract_x
_atom_site_fract_y
_atom_site_fract_z
Si Si1 0.951508 0.334081 0.002535
Si Si2 0.199170 0.099458 0.610904
Si Si3 0.047460 0.568046 0.995992
Si Si4 0.410016 0.974587 0.742223
Si Si5 0.202904 0.191192 0.659955
Si Si6 0.216671 0.454097 0.457162
Si Si7 0.803038 0.721049 0.473844
O O1 0.934617 0.383067 0.028168
O O2 0.869454 0.312827 0.974678
O O3 0.000000 0.323078 0.750000
O O4 0.000000 0.317778 0.250000
O O5 0.234401 0.092297 0.324994
O O6 0.129969 0.068600 0.670583
O O7 0.162305 0.146325 0.615833
O O8 0.000000 0.556562 0.250000
O O9 0.126770 0.543198 0.009248
O O10 0.000000 0.551594 0.750000
O O11 0.500000 0.965837 0.750000
O O12 0.384994 0.008533 0.524811
O O13 0.277049 0.192986 0.466662
O O14 0.156688 0.232902 0.570073
O O15 0.250000 0.500000 0.394666
O O16 0.261838 0.430029 0.689112
O O17 0.758386 0.715361 0.743984
#
# Coordination Sequence:
#
# PCOD8222548 Si02
#       7
#     8   8   8   8   8   8   8
#     4  10  21  36  54  80 113 142 174 220 268 310
#     4  10  19  32  52  74  96 126 166 209 247 293
#     4  10  21  38  58  79 108 147 181 214 267 328
#     4  10  21  35  49  68  98 130 159 202 257 305
#     4   8  16  30  48  72 101 129 162 206 251 295
#     4  10  21  38  56  81 111 138 176 229 270 303
#     4  10  19  33  55  80 105 140 180 212 255 318
#
# _framework density 19.553811
#
# number of rings (size 3 to 8) (size 9 to 14) (size 15 to 20)
#    0.000    2.286    0.000    2.571    0.000    2.857 
#    0.000    9.286    0.000    2.571    0.000    0.000 
#    0.000    0.000    0.000    0.000    0.000    0.000 
#
# Total GULP energy -693978.056701 kJ/mol
# GULP energy per Si atom -12392.465298 kJ/mol
# Density = 1.950931 g / cm^3
# Si number density = 19.553811 Si / 1000 Ang^3
#
#
#
# Elastic Constant Matrix: (Units=GPa)
#
#
# Indices 1 2 3 4 5 6 
#
# 1 82.4573 37.8908 24.3768 0.0000 0.0000 0.0000
# 2 37.8908 54.8882 12.1050 0.0000 0.0000 0.0000
# 3 24.3768 12.1050 127.9083 0.0000 0.0000 0.0000
# 4 0.0000 0.0000 0.0000 -21.0841 0.0000 0.0000
# 5 0.0000 0.0000 0.0000 0.0000 26.5054 0.0000
# 6 0.0000 0.0000 0.0000 0.0000 0.0000 18.2459
#
#
#
# Elastic Compliance Matrix: (Units=1/GPa)
#
#
# Indices 1 2 3 4 5 6 
#
# 1 0.018433 -0.012205 -0.002358 0.000000 0.000000 0.000000
# 2 -0.012205 0.026688 -0.000200 0.000000 0.000000 0.000000
# 3 -0.002358 -0.000200 0.008286 0.000000 0.000000 0.000000
# 4 0.000000 0.000000 0.000000 -0.047429 0.000000 0.000000
# 5 0.000000 0.000000 0.000000 0.000000 0.037728 0.000000
# 6 0.000000 0.000000 0.000000 0.000000 0.000000 0.054807
#
#
# Mechanical properties :
#
#
# Convention : Reuss Voigt Hill
#
# Bulk Modulus (GPa) = 41.87134 45.99989 43.93561
# Shear Modulus (GPa) = 36.76502 17.45885 27.11194
#
# Velocity S-wave (km/s) = 4.34083 2.99132 3.72765
# Velocity P-wave (km/s) = 6.82522 5.95873 6.40664
#
# Compressibility (1/GPa) = 0.02388268
#
# Stress axis : x y z
#
# Youngs Moduli (GPa) = 54.25101 37.46989 120.68006
#
# Poissons Ratio (x) = 0.45731 0.28455
# Poissons Ratio (y) = 0.66212 0.02410
# Poissons Ratio (z) = 0.12792 0.00748
#
# Static dielectric constant tensor:
#      x y z
#    x 3.176440 0.000000 0.000000 
#    y 0.000000 3.706800 0.000000 
#    z 0.000000 0.000000 4.003670 
# 
# 
# High freq. dielectric constant tensor:
#      x y z
#    x 1.725490 0.000000 0.000000 
#    y 0.000000 1.758530 0.000000 
#    z 0.000000 0.000000 1.795850 
# 
# From -- ./inp_files/741.got.cif
#   From: 2010.03.12/outbox.cif.g09.slc.cpg/sg54_1_cif.got.tgz:741.got - 2010.04.16 15:00:50.
