data_PCOD8222616
_publ_section_title
;
Structure prediction by ZEFSAII (Michael W. Deem and Ramdas Pophale) SiO2 
 PCOD8222616
Probable space group: P C C A
;
_chemical_formula_sum "Si O2"
_cell_formula_units_Z 56
_cell_length_a 18.189142
_cell_length_b 6.180557
_cell_length_c 24.114323
_cell_angle_alpha 90.000000
_cell_angle_beta 90.000000
_cell_angle_gamma 90.000000
_cell_volume 2710.908775
_symmetry_space_group_name_H-M "P C C A"
_symmetry_group_IT_number 54
_symmetry_cell_setting 'orthorhombic'
loop_
_space_group_symop_operation_xyz
x,y,z
1/2-x,-y,z
1/2+x,-y,1/2-z
-x,y,1/2-z
-x,-y,-z
1/2+x,y,-z
1/2-x,y,1/2+z
x,-y,1/2+z
loop_
_atom_site_type_symbol
_atom_site_label
_atom_site_fract_x
_atom_site_fract_y
_atom_site_fract_z
Si Si1 0.635111 0.330655 0.941299
Si Si2 0.471501 0.101387 0.636487
Si Si3 0.125931 0.716665 0.140401
Si Si4 0.750000 0.000000 0.397531
Si Si5 0.922207 0.412112 0.268785
Si Si6 0.127290 0.709833 0.848669
Si Si7 0.673932 0.617908 0.561088
Si Si8 0.750000 0.000000 0.611838
O O1 0.562712 0.214421 0.917768
O O2 0.642827 0.560638 0.911028
O O3 0.707477 0.178734 0.934496
O O4 0.623592 0.380136 0.006185
O O5 0.437134 0.202642 0.692756
O O6 0.558859 0.136280 0.635178
O O7 0.451522 0.846392 0.633918
O O8 0.191782 0.888299 0.143480
O O9 0.124475 0.586918 0.197547
O O10 0.875286 0.359818 0.214897
O O11 0.000000 0.513559 0.250000
O O12 0.129676 0.502898 0.889687
O O13 0.203808 0.836072 0.850855
O O14 0.750000 0.500000 0.546940
O O15 0.691323 0.866559 0.575600
#
# Coordination Sequence:
#
# PCOD8222616 Si02
#       8
#     8   8   8   4   8   8   8   4
#     4  10  20  37  60  86 116 152 191 237 292 344
#     4   9  21  38  60  88 114 146 193 243 296 350
#     4  10  20  36  60  88 114 148 188 235 298 348
#     4  10  19  34  57  88 120 146 186 238 288 350
#     4   9  20  39  60  81 110 149 192 238 286 340
#     4  10  22  41  59  84 118 153 198 241 285 351
#     4  10  21  38  58  82 116 157 197 235 283 345
#     4  10  23  40  59  82 114 162 198 232 290 346
#
# _framework density 20.65728
#
# number of rings (size 3 to 8) (size 9 to 14) (size 15 to 20)
#    0.000    2.286    0.000    1.714    0.000   10.286 
#    0.000   22.857    0.000    0.000    0.000    0.000 
#    0.000    0.000    0.000    0.000    0.000    0.000 
#
# Total GULP energy -694354.441938 kJ/mol
# GULP energy per Si atom -12399.186463 kJ/mol
# Density = 2.061026 g / cm^3
# Si number density = 20.657280 Si / 1000 Ang^3
#
#
#
# Elastic Constant Matrix: (Units=GPa)
#
#
# Indices 1 2 3 4 5 6 
#
# 1 71.4476 37.5249 42.0304 0.0000 0.0000 0.0000
# 2 37.5249 117.5240 53.2774 0.0000 0.0000 0.0000
# 3 42.0304 53.2774 158.6299 0.0000 0.0000 0.0000
# 4 0.0000 0.0000 0.0000 10.7092 0.0000 0.0000
# 5 0.0000 0.0000 0.0000 0.0000 27.2217 0.0000
# 6 0.0000 0.0000 0.0000 0.0000 0.0000 35.7739
#
#
#
# Elastic Compliance Matrix: (Units=1/GPa)
#
#
# Indices 1 2 3 4 5 6 
#
# 1 0.018244 -0.004287 -0.003394 0.000000 0.000000 0.000000
# 2 -0.004287 0.011044 -0.002574 0.000000 0.000000 0.000000
# 3 -0.003394 -0.002574 0.008068 0.000000 0.000000 0.000000
# 4 0.000000 0.000000 0.000000 0.093378 0.000000 0.000000
# 5 0.000000 0.000000 0.000000 0.000000 0.036735 0.000000
# 6 0.000000 0.000000 0.000000 0.000000 0.000000 0.027953
#
#
# Mechanical properties :
#
#
# Convention : Reuss Voigt Hill
#
# Bulk Modulus (GPa) = 59.35628 68.14076 63.74852
# Shear Modulus (GPa) = 22.56854 29.05890 25.81372
#
# Velocity S-wave (km/s) = 3.30892 3.75469 3.53883
# Velocity P-wave (km/s) = 6.58747 7.20103 6.90107
#
# Compressibility (1/GPa) = 0.01684742
#
# Stress axis : x y z
#
# Youngs Moduli (GPa) = 54.81131 90.54475 123.95123
#
# Poissons Ratio (x) = 0.38813 0.42073
# Poissons Ratio (y) = 0.23495 0.31899
# Poissons Ratio (z) = 0.18605 0.23302
#
# Static dielectric constant tensor:
#      x y z
#    x 3.670580 0.000000 0.000000 
#    y 0.000000 3.909120 0.000000 
#    z 0.000000 0.000000 3.622220 
# 
# 
# High freq. dielectric constant tensor:
#      x y z
#    x 1.800890 0.000000 0.000000 
#    y 0.000000 1.814640 0.000000 
#    z 0.000000 0.000000 1.800550 
# 
# From -- ./inp_files/24754.got.cif
#   From: 2010.03.12/outbox.cif.g09.slc.cpg/sg54_13_cif.got.tgz:24754.got - 2010.04.16 15:00:50.
