data_PCOD8222425
_publ_section_title
;
Structure prediction by ZEFSAII (Michael W. Deem and Ramdas Pophale) SiO2 
 PCOD8222425
Probable space group: P C C A
;
_chemical_formula_sum "Si O2"
_cell_formula_units_Z 48
_cell_length_a 20.472263
_cell_length_b 9.342944
_cell_length_c 11.749482
_cell_angle_alpha 90.000000
_cell_angle_beta 90.000000
_cell_angle_gamma 90.000000
_cell_volume 2247.337601
_symmetry_space_group_name_H-M "P C C A"
_symmetry_group_IT_number 54
_symmetry_cell_setting 'orthorhombic'
loop_
_space_group_symop_operation_xyz
x,y,z
1/2-x,-y,z
1/2+x,-y,1/2-z
-x,y,1/2-z
-x,-y,-z
1/2+x,y,-z
1/2-x,y,1/2+z
x,-y,1/2+z
loop_
_atom_site_type_symbol
_atom_site_label
_atom_site_fract_x
_atom_site_fract_y
_atom_site_fract_z
Si Si1 0.043120 0.230640 0.539701
Si Si2 0.119901 0.040004 0.381155
Si Si3 0.500000 0.077469 0.250000
Si Si4 0.830725 0.718639 0.754268
Si Si5 0.750000 0.500000 0.381220
Si Si6 0.128069 0.539141 0.958287
Si Si7 0.897493 0.768330 0.991063
O O1 0.102049 0.141918 0.485262
O O2 0.065327 0.395421 0.524941
O O3 0.039746 0.185447 0.669935
O O4 0.973667 0.192165 0.482588
O O5 0.176343 0.124048 0.307206
O O6 0.054026 0.022074 0.307974
O O7 0.142908 0.890525 0.438668
O O8 0.765964 0.638365 0.800824
O O9 0.864314 0.611721 0.664754
O O10 0.875888 0.746045 0.862641
O O11 0.691562 0.447572 0.461581
O O12 0.112602 0.373765 0.934465
#
# Coordination Sequence:
#
# PCOD8222425 Si02
#       7
#     8   8   4   8   4   8   8
#     4  10  20  33  54  87 123 158 196 241 304 378
#     4  10  19  33  56  87 118 156 195 232 293 367
#     4  10  18  32  56  86 128 162 186 244 306 360
#     4  10  21  39  64  84 115 160 197 252 307 350
#     4  10  22  40  62  84 110 156 214 258 300 356
#     4  10  22  38  59  85 116 156 207 252 301 361
#     4  10  20  35  58  92 124 152 196 246 303 375
#
# _framework density 21.358606000000002
#
# number of rings (size 3 to 8) (size 9 to 14) (size 15 to 20)
#    0.000    2.000    0.000    5.000    0.000    7.333 
#    0.000    0.000    0.000   60.000    0.000    0.000 
#    0.000    0.000    0.000    0.000    0.000    0.000 
#
# Total GULP energy -594701.237637 kJ/mol
# GULP energy per Si atom -12389.609117 kJ/mol
# Density = 2.130999 g / cm^3
# Si number density = 21.358606 Si / 1000 Ang^3
#
#
#
# Elastic Constant Matrix: (Units=GPa)
#
#
# Indices 1 2 3 4 5 6 
#
# 1 48.9408 22.9984 21.7131 0.0000 0.0000 0.0000
# 2 22.9984 152.4348 56.5912 0.0000 0.0000 0.0000
# 3 21.7131 56.5912 117.9884 0.0000 0.0000 0.0000
# 4 0.0000 0.0000 0.0000 47.4278 0.0000 0.0000
# 5 0.0000 0.0000 0.0000 0.0000 26.5470 0.0000
# 6 0.0000 0.0000 0.0000 0.0000 0.0000 34.6617
#
#
#
# Elastic Compliance Matrix: (Units=1/GPa)
#
#
# Indices 1 2 3 4 5 6 
#
# 1 0.022893 -0.002299 -0.003110 0.000000 0.000000 0.000000
# 2 -0.002299 0.008212 -0.003516 0.000000 0.000000 0.000000
# 3 -0.003110 -0.003516 0.010734 0.000000 0.000000 0.000000
# 4 0.000000 0.000000 0.000000 0.021085 0.000000 0.000000
# 5 0.000000 0.000000 0.000000 0.000000 0.037669 0.000000
# 6 0.000000 0.000000 0.000000 0.000000 0.000000 0.028850
#
#
# Mechanical properties :
#
#
# Convention : Reuss Voigt Hill
#
# Bulk Modulus (GPa) = 41.68565 57.99661 49.84113
# Shear Modulus (GPa) = 32.19774 36.26473 34.23123
#
# Velocity S-wave (km/s) = 3.88684 4.12503 4.00770
# Velocity P-wave (km/s) = 6.30102 7.06403 6.69340
#
# Compressibility (1/GPa) = 0.02398907
#
# Stress axis : x y z
#
# Youngs Moduli (GPa) = 43.68108 121.76843 93.16170
#
# Poissons Ratio (x) = 0.27999 0.28974
# Poissons Ratio (y) = 0.10044 0.32753
# Poissons Ratio (z) = 0.13585 0.42811
#
# Static dielectric constant tensor:
#      x y z
#    x 3.591710 0.000000 0.000000 
#    y 0.000000 4.328860 0.000000 
#    z 0.000000 0.000000 3.981890 
# 
# 
# High freq. dielectric constant tensor:
#      x y z
#    x 1.799500 0.000000 0.000000 
#    y 0.000000 1.852330 0.000000 
#    z 0.000000 0.000000 1.850020 
# 
# From -- ./inp_files/9948.got.cif
#   From: 2010.03.12/outbox.cif.g09.slc.cpg/sg54_5_cif.got.tgz:9948.got - 2010.04.16 15:00:50.
