data_PCOD8222053
_publ_section_title
;
Structure prediction by ZEFSAII (Michael W. Deem and Ramdas Pophale) SiO2 
 PCOD8222053
Probable space group: P M N A
;
_chemical_formula_sum "Si O2"
_cell_formula_units_Z 48
_cell_length_a 8.355851
_cell_length_b 14.452648
_cell_length_c 20.377324
_cell_angle_alpha 90.000000
_cell_angle_beta 90.000000
_cell_angle_gamma 90.000000
_cell_volume 2460.850686
_symmetry_space_group_name_H-M "P M N A"
_symmetry_group_IT_number 53
_symmetry_cell_setting 'orthorhombic'
loop_
_space_group_symop_operation_xyz
x,y,z
1/2-x,-y,1/2+z
x,-y,-z
1/2-x,y,1/2-z
-x,-y,-z
1/2+x,y,1/2-z
-x,y,z
1/2+x,-y,1/2+z
loop_
_atom_site_type_symbol
_atom_site_label
_atom_site_fract_x
_atom_site_fract_y
_atom_site_fract_z
Si Si1 0.685972 0.753820 0.515546
Si Si2 0.310754 0.443101 0.438795
Si Si3 0.686051 0.938532 0.939209
Si Si4 0.685729 0.053901 0.678726
Si Si5 0.310263 0.566902 0.320776
Si Si6 0.315140 0.759975 0.128399
O O1 0.500000 0.745720 0.496649
O O2 0.743414 0.663609 0.556048
O O3 0.717432 0.842381 0.561038
O O4 0.786109 0.761137 0.449096
O O5 0.237256 0.500000 0.500000
O O6 0.500000 0.451138 0.441003
O O7 0.249213 0.488055 0.371122
O O8 0.500000 0.916227 0.947156
O O9 0.716629 0.991736 0.872127
O O10 0.748372 0.000000 0.000000
O O11 0.750000 0.027844 0.750000
O O12 0.500000 0.029674 0.673202
O O13 0.711173 0.161861 0.663984
O O14 0.250000 0.534680 0.250000
O O15 0.500000 0.578966 0.322298
O O16 0.230323 0.663067 0.340004
O O17 0.500000 0.781791 0.142031
#
# Coordination Sequence:
#
# PCOD8222053 Si02
#       6
#     8   8   8   8   8   8
#     4  11  21  37  63  92 119 156 206 250 299 353
#     4   9  18  36  61  87 116 155 200 247 293 349
#     4  11  23  40  62  90 126 160 200 250 299 355
#     4  12  25  42  64  90 122 161 203 247 303 363
#     4  11  22  39  60  86 121 158 198 244 298 357
#     4  12  23  37  58  90 126 158 195 246 304 359
#
# _framework density 19.505448999999999
#
# number of rings (size 3 to 8) (size 9 to 14) (size 15 to 20)
#    0.000    1.000    3.333    5.000    0.000    0.667 
#    0.000    5.000    0.000    2.000    0.000    0.000 
#    0.000    0.000    0.000    0.000    0.000    0.000 
#
# Total GULP energy -595469.736942 kJ/mol
# GULP energy per Si atom -12405.619520 kJ/mol
# Density = 1.946105 g / cm^3
# Si number density = 19.505449 Si / 1000 Ang^3
#
#
#
# Elastic Constant Matrix: (Units=GPa)
#
#
# Indices 1 2 3 4 5 6 
#
# 1 58.4015 12.4139 10.7772 0.0000 0.0000 0.0000
# 2 12.4139 136.9816 60.6392 0.0000 0.0000 0.0000
# 3 10.7772 60.6392 145.5064 0.0000 0.0000 0.0000
# 4 0.0000 0.0000 0.0000 21.5406 0.0000 0.0000
# 5 0.0000 0.0000 0.0000 0.0000 29.2556 0.0000
# 6 0.0000 0.0000 0.0000 0.0000 0.0000 20.0009
#
#
#
# Elastic Compliance Matrix: (Units=1/GPa)
#
#
# Indices 1 2 3 4 5 6 
#
# 1 0.017531 -0.001243 -0.000780 0.000000 0.000000 0.000000
# 2 -0.001243 0.009040 -0.003675 0.000000 0.000000 0.000000
# 3 -0.000780 -0.003675 0.008462 0.000000 0.000000 0.000000
# 4 0.000000 0.000000 0.000000 0.046424 0.000000 0.000000
# 5 0.000000 0.000000 0.000000 0.000000 0.034181 0.000000
# 6 0.000000 0.000000 0.000000 0.000000 0.000000 0.049998
#
#
# Mechanical properties :
#
#
# Convention : Reuss Voigt Hill
#
# Bulk Modulus (GPa) = 42.30975 56.50557 49.40766
# Shear Modulus (GPa) = 27.03981 31.29669 29.16825
#
# Velocity S-wave (km/s) = 3.72730 4.00998 3.87122
# Velocity P-wave (km/s) = 6.34524 7.10436 6.73550
#
# Compressibility (1/GPa) = 0.02363522
#
# Stress axis : x y z
#
# Youngs Moduli (GPa) = 57.04143 110.62085 118.17545
#
# Poissons Ratio (x) = 0.13754 0.09222
# Poissons Ratio (y) = 0.07092 0.43432
# Poissons Ratio (z) = 0.04451 0.40656
#
# Static dielectric constant tensor:
#      x y z
#    x 3.501840 0.000000 0.000000 
#    y 0.000000 3.712430 0.000000 
#    z 0.000000 0.000000 3.798420 
# 
# 
# High freq. dielectric constant tensor:
#      x y z
#    x 1.757750 0.000000 0.000000 
#    y 0.000000 1.762330 0.000000 
#    z 0.000000 0.000000 1.759120 
# 
# From -- ./inp_files/30535.got.cif
#   From: 2010.03.12/outbox.cif.g09.slc.cpg/sg53_16_cif.got.tgz:30535.got - 2010.04.16 14:36:59.
