data_PCOD8222197
_publ_section_title
;
Structure prediction by ZEFSAII (Michael W. Deem and Ramdas Pophale) SiO2 
 PCOD8222197
Probable space group: P M N A
;
_chemical_formula_sum "Si O2"
_cell_formula_units_Z 24
_cell_length_a 19.290750
_cell_length_b 8.022330
_cell_length_c 7.049495
_cell_angle_alpha 90.000000
_cell_angle_beta 90.000000
_cell_angle_gamma 90.000000
_cell_volume 1090.957023
_symmetry_space_group_name_H-M "P M N A"
_symmetry_group_IT_number 53
_symmetry_cell_setting 'orthorhombic'
loop_
_space_group_symop_operation_xyz
x,y,z
1/2-x,-y,1/2+z
x,-y,-z
1/2-x,y,1/2-z
-x,-y,-z
1/2+x,y,1/2-z
-x,y,z
1/2+x,-y,1/2+z
loop_
_atom_site_type_symbol
_atom_site_label
_atom_site_fract_x
_atom_site_fract_y
_atom_site_fract_z
Si Si1 0.698002 0.674540 0.086243
Si Si2 0.134686 0.000000 0.000000
Si Si3 0.079976 0.659201 0.125662
Si Si4 0.250000 0.101096 0.250000
O O1 0.750000 0.724862 0.250000
O O2 0.620374 0.668381 0.173909
O O3 0.719273 0.500000 0.000000
O O4 0.711647 0.801313 0.917159
O O5 0.089559 0.830394 0.004596
O O6 0.185301 0.990755 0.181337
O O7 0.000000 0.637157 0.178672
O O8 0.105526 0.500000 0.000000
#
# Coordination Sequence:
#
# PCOD8222197 Si02
#       4
#     8   4   8   4
#     4  12  22  42  71 105 138 183 232 290 348 411
#     4  12  23  44  68 104 139 184 230 296 349 408
#     4  11  25  46  70 102 143 186 235 288 349 421
#     4  12  24  40  70 104 144 174 234 298 344 412
#
# _framework density 21.999034999999999
#
# number of rings (size 3 to 8) (size 9 to 14) (size 15 to 20)
#    0.000    0.333    5.000    5.500    0.000    0.667 
#    0.000    5.000    0.000    0.000    0.000    0.000 
#    0.000    0.000    0.000    0.000    0.000    0.000 
#
# Total GULP energy -297460.307595 kJ/mol
# GULP energy per Si atom -12394.179483 kJ/mol
# Density = 2.194896 g / cm^3
# Si number density = 21.999035 Si / 1000 Ang^3
#
#
#
# Elastic Constant Matrix: (Units=GPa)
#
#
# Indices 1 2 3 4 5 6 
#
# 1 122.2196 26.1429 55.5039 0.0000 0.0000 0.0000
# 2 26.1429 145.0808 33.6939 0.0000 0.0000 0.0000
# 3 55.5039 33.6939 128.1606 0.0000 0.0000 0.0000
# 4 0.0000 0.0000 0.0000 40.2591 0.0000 0.0000
# 5 0.0000 0.0000 0.0000 0.0000 -72.0734 0.0000
# 6 0.0000 0.0000 0.0000 0.0000 0.0000 32.2138
#
#
#
# Elastic Compliance Matrix: (Units=1/GPa)
#
#
# Indices 1 2 3 4 5 6 
#
# 1 0.010288 -0.000872 -0.004226 0.000000 0.000000 0.000000
# 2 -0.000872 0.007415 -0.001572 0.000000 0.000000 0.000000
# 3 -0.004226 -0.001572 0.010046 0.000000 0.000000 0.000000
# 4 0.000000 0.000000 0.000000 0.024839 0.000000 0.000000
# 5 0.000000 0.000000 0.000000 0.000000 -0.013875 0.000000
# 6 0.000000 0.000000 0.000000 0.000000 0.000000 0.031043
#
#
# Mechanical properties :
#
#
# Convention : Reuss Voigt Hill
#
# Bulk Modulus (GPa) = 69.40241 69.57139 69.48690
# Shear Modulus (GPa) = 56.88361 18.75459 37.81910
#
# Velocity S-wave (km/s) = 5.09053 2.92296 4.15073
# Velocity P-wave (km/s) = 8.13435 6.56392 7.39096
#
# Compressibility (1/GPa) = 0.01440872
#
# Stress axis : x y z
#
# Youngs Moduli (GPa) = 97.20256 134.86359 99.54075
#
# Poissons Ratio (x) = 0.11765 0.42067
# Poissons Ratio (y) = 0.08479 0.15644
# Poissons Ratio (z) = 0.41079 0.21195
#
# Static dielectric constant tensor:
#      x y z
#    x 4.020970 0.000000 0.000000 
#    y 0.000000 4.620830 0.000000 
#    z 0.000000 0.000000 4.309290 
# 
# 
# High freq. dielectric constant tensor:
#      x y z
#    x 1.856550 0.000000 0.000000 
#    y 0.000000 1.899760 0.000000 
#    z 0.000000 0.000000 1.867030 
# 
# From -- ./inp_files/3261.got.cif
#   From: 2010.03.12/outbox.cif.g09.slc.cpg/sg53_2_cif.got.tgz:3261.got - 2010.04.16 14:36:59.
