data_PCOD8222891
_publ_section_title
;
Structure prediction by ZEFSAII (Michael W. Deem and Ramdas Pophale) SiO2 
 PCOD8222891
Probable space group: P C C A
;
_chemical_formula_sum "Si O2"
_cell_formula_units_Z 32
_cell_length_a 15.048150
_cell_length_b 10.413080
_cell_length_c 8.821288
_cell_angle_alpha 90.000000
_cell_angle_beta 90.000000
_cell_angle_gamma 90.000000
_cell_volume 1382.274569
_symmetry_space_group_name_H-M "P C C A"
_symmetry_group_IT_number 54
_symmetry_cell_setting 'orthorhombic'
loop_
_space_group_symop_operation_xyz
x,y,z
1/2-x,-y,z
1/2+x,-y,1/2-z
-x,y,1/2-z
-x,-y,-z
1/2+x,y,-z
1/2-x,y,1/2+z
x,-y,1/2+z
loop_
_atom_site_type_symbol
_atom_site_label
_atom_site_fract_x
_atom_site_fract_y
_atom_site_fract_z
Si Si1 0.677588 0.332682 0.044347
Si Si2 0.250000 0.000000 0.731395
Si Si3 0.250000 0.500000 0.714245
Si Si4 0.986275 0.141149 0.572993
Si Si5 0.833028 0.841366 0.529211
O O1 0.671904 0.431741 0.184929
O O2 0.601845 0.222301 0.031644
O O3 0.688853 0.405004 0.885535
O O4 0.771083 0.269800 0.089417
O O5 0.206083 0.110081 0.631300
O O6 0.330701 0.047271 0.841517
O O7 0.000000 0.130537 0.750000
O O8 0.069434 0.217164 0.498699
O O9 0.000000 0.000000 0.500000
#
# Coordination Sequence:
#
# PCOD8222891 Si02
#       5
#     8   4   4   8   8
#     4  11  24  45  69  94 130 176 231 285 333 393
#     4  10  20  36  64  96 138 176 204 264 344 412
#     4  10  24  48  70  92 132 186 236 280 326 392
#     4  12  25  41  66 103 140 175 219 277 348 415
#     4  11  21  39  62  94 131 170 216 268 333 402
#
# _framework density 23.150248000000001
#
# number of rings (size 3 to 8) (size 9 to 14) (size 15 to 20)
#    0.000    1.000    0.000    9.000    0.000    2.000 
#    0.000   13.750    0.000    0.000    0.000    0.000 
#    0.000    0.000    0.000    0.000    0.000    0.000 
#
# Total GULP energy -396473.322340 kJ/mol
# GULP energy per Si atom -12389.791323 kJ/mol
# Density = 2.309756 g / cm^3
# Si number density = 23.150248 Si / 1000 Ang^3
#
#
#
# Elastic Constant Matrix: (Units=GPa)
#
#
# Indices 1 2 3 4 5 6 
#
# 1 137.9227 55.4457 26.1996 0.0000 0.0000 0.0000
# 2 55.4457 110.2056 41.6182 0.0000 0.0000 0.0000
# 3 26.1996 41.6182 124.3567 0.0000 0.0000 0.0000
# 4 0.0000 0.0000 0.0000 14.8623 0.0000 0.0000
# 5 0.0000 0.0000 0.0000 0.0000 25.4424 0.0000
# 6 0.0000 0.0000 0.0000 0.0000 0.0000 35.7678
#
#
#
# Elastic Compliance Matrix: (Units=1/GPa)
#
#
# Indices 1 2 3 4 5 6 
#
# 1 0.009110 -0.004417 -0.000441 0.000000 0.000000 0.000000
# 2 -0.004417 0.012528 -0.003262 0.000000 0.000000 0.000000
# 3 -0.000441 -0.003262 0.009226 0.000000 0.000000 0.000000
# 4 0.000000 0.000000 0.000000 0.067284 0.000000 0.000000
# 5 0.000000 0.000000 0.000000 0.000000 0.039304 0.000000
# 6 0.000000 0.000000 0.000000 0.000000 0.000000 0.027958
#
#
# Mechanical properties :
#
#
# Convention : Reuss Voigt Hill
#
# Bulk Modulus (GPa) = 68.38155 68.77909 68.58032
# Shear Modulus (GPa) = 26.80603 31.82926 29.31764
#
# Velocity S-wave (km/s) = 3.40651 3.71199 3.56252
# Velocity P-wave (km/s) = 6.71377 6.93874 6.82718
#
# Compressibility (1/GPa) = 0.01462383
#
# Stress axis : x y z
#
# Youngs Moduli (GPa) = 109.77252 79.82153 108.38841
#
# Poissons Ratio (x) = 0.35254 0.04782
# Poissons Ratio (y) = 0.48482 0.35358
# Poissons Ratio (z) = 0.04843 0.26039
#
# Static dielectric constant tensor:
#      x y z
#    x 4.573220 0.000000 0.000000 
#    y 0.000000 4.913160 0.000000 
#    z 0.000000 0.000000 4.389330 
# 
# 
# High freq. dielectric constant tensor:
#      x y z
#    x 1.899410 0.000000 0.000000 
#    y 0.000000 1.908690 0.000000 
#    z 0.000000 0.000000 1.944180 
# 
# From -- ./inp_files/3333.got.cif
#   From: 2010.03.12/outbox.cif.g09.slc.cpg/sg54_2_cif.got.tgz:3333.got - 2010.04.16 15:00:50.
