data_PCOD8222261
_publ_section_title
;
Structure prediction by ZEFSAII (Michael W. Deem and Ramdas Pophale) SiO2 
 PCOD8222261
Probable space group: P M N A
;
_chemical_formula_sum "Si O2"
_cell_formula_units_Z 64
_cell_length_a 9.000000
_cell_length_b 21.000000
_cell_length_c 18.000000
_cell_angle_alpha 90.000000
_cell_angle_beta 90.000000
_cell_angle_gamma 90.000000
_cell_volume 3402.000000
_symmetry_space_group_name_H-M "P M N A"
_symmetry_group_IT_number 53
_symmetry_cell_setting 'orthorhombic'
loop_
_space_group_symop_operation_xyz
x,y,z
1/2-x,-y,1/2+z
x,-y,-z
1/2-x,y,1/2-z
-x,-y,-z
1/2+x,y,1/2-z
-x,y,z
1/2+x,-y,1/2+z
loop_
_atom_site_type_symbol
_atom_site_label
_atom_site_fract_x
_atom_site_fract_y
_atom_site_fract_z
Si Si1 0.824092 0.620869 0.170255
Si Si2 0.676779 0.380625 0.172111
Si Si3 0.324198 0.737679 0.427275
Si Si4 0.824782 0.262972 0.097653
Si Si5 0.324642 0.120222 0.407403
Si Si6 0.176762 0.121835 0.927433
Si Si7 0.677122 0.994465 0.327773
Si Si8 0.328095 0.491778 0.413284
O O1 0.750000 0.620352 0.250000
O O2 0.759282 0.681547 0.124503
O O3 0.779464 0.556537 0.127575
O O4 0.000000 0.626039 0.179537
O O5 0.750000 0.399580 0.250000
O O6 0.500000 0.380364 0.179464
O O7 0.731913 0.310763 0.148448
O O8 0.726836 0.433444 0.112986
O O9 0.500000 0.734402 0.424894
O O10 0.274382 0.727063 0.512393
O O11 0.270784 0.807840 0.398796
O O12 0.784381 0.190640 0.123601
O O13 0.000000 0.276391 0.107474
O O14 0.500000 0.113485 0.412419
O O15 0.258736 0.111763 0.489941
O O16 0.261975 0.062701 0.357128
O O17 0.000000 0.120515 0.929386
O O18 0.236687 0.063824 0.878084
O O19 0.750000 0.981139 0.250000
O O20 0.500000 0.994226 0.321967
O O21 0.299568 0.500000 0.500000
O O22 0.500000 0.475393 0.397017
#
# Coordination Sequence:
#
# PCOD8222261 Si02
#       8
#     8   8   8   8   8   8   8   8
#     4  10  20  33  51  76 105 135 167 204 249 302
#     4  12  25  39  56  80 111 143 176 216 263 315
#     4   8  15  30  53  78 101 131 172 213 253 302
#     4   9  17  34  58  79 100 130 173 221 267 314
#     4   8  15  29  52  77  97 126 172 220 258 299
#     4   8  14  27  50  75  97 127 172 217 249 289
#     4  10  19  30  46  72 104 134 167 209 257 307
#     4  10  21  39  62  83 104 136 177 219 263 312
#
# _framework density 18.812463000000001
#
# number of rings (size 3 to 8) (size 9 to 14) (size 15 to 20)
#    0.000    2.625    0.000    4.125    0.000    6.250 
#    0.000    3.750    0.000    4.500    0.000    0.000 
#    0.000    0.000    0.000    0.000    0.000    0.000 
#
# Total GULP energy -793367.796871 kJ/mol
# GULP energy per Si atom -12396.371826 kJ/mol
# Density = 1.876965 g / cm^3
# Si number density = 18.812463 Si / 1000 Ang^3
#
#
#
# Elastic Constant Matrix: (Units=GPa)
#
#
# Indices 1 2 3 4 5 6 
#
# 1 52.1759 34.6787 26.4057 0.0000 0.0000 0.0000
# 2 34.6787 141.6685 43.2685 0.0000 0.0000 0.0000
# 3 26.4057 43.2685 78.8347 0.0000 0.0000 0.0000
# 4 0.0000 0.0000 0.0000 28.2253 0.0000 0.0000
# 5 0.0000 0.0000 0.0000 0.0000 27.6734 0.0000
# 6 0.0000 0.0000 0.0000 0.0000 0.0000 13.6062
#
#
#
# Elastic Compliance Matrix: (Units=1/GPa)
#
#
# Indices 1 2 3 4 5 6 
#
# 1 0.025078 -0.004293 -0.006044 0.000000 0.000000 0.000000
# 2 -0.004293 0.009215 -0.003620 0.000000 0.000000 0.000000
# 3 -0.006044 -0.003620 0.016696 0.000000 0.000000 0.000000
# 4 0.000000 0.000000 0.000000 0.035429 0.000000 0.000000
# 5 0.000000 0.000000 0.000000 0.000000 0.036136 0.000000
# 6 0.000000 0.000000 0.000000 0.000000 0.000000 0.073496
#
#
# Mechanical properties :
#
#
# Convention : Reuss Voigt Hill
#
# Bulk Modulus (GPa) = 43.33496 53.48720 48.41108
# Shear Modulus (GPa) = 21.58385 25.12272 23.35328
#
# Velocity S-wave (km/s) = 3.39088 3.65832 3.52713
# Velocity P-wave (km/s) = 6.19807 6.80719 6.50976
#
# Compressibility (1/GPa) = 0.02307605
#
# Stress axis : x y z
#
# Youngs Moduli (GPa) = 39.87578 108.51700 59.89505
#
# Poissons Ratio (x) = 0.46585 0.36199
# Poissons Ratio (y) = 0.17118 0.21681
# Poissons Ratio (z) = 0.24100 0.39281
#
# Static dielectric constant tensor:
#      x y z
#    x 2.995860 0.000000 0.000000 
#    y 0.000000 4.006920 0.000000 
#    z 0.000000 0.000000 3.477540 
# 
# 
# High freq. dielectric constant tensor:
#      x y z
#    x 1.682960 0.000000 0.000000 
#    y 0.000000 1.760440 0.000000 
#    z 0.000000 0.000000 1.729640 
# 
# From -- ./inp_files/26977.got.cif
#   From: 2010.03.12/outbox.ucp.g09.slc.cvg/sg53_14_cif.got.tgz:26977.got - 2010.05.04 19:20:06.
