data_PCOD8222888
_publ_section_title
;
Structure prediction by ZEFSAII (Michael W. Deem and Ramdas Pophale) SiO2 
 PCOD8222888
Probable space group: P C C A
;
_chemical_formula_sum "Si O2"
_cell_formula_units_Z 44
_cell_length_a 15.428737
_cell_length_b 15.444110
_cell_length_c 8.707122
_cell_angle_alpha 90.000000
_cell_angle_beta 90.000000
_cell_angle_gamma 90.000000
_cell_volume 2074.760121
_symmetry_space_group_name_H-M "P C C A"
_symmetry_group_IT_number 54
_symmetry_cell_setting 'orthorhombic'
loop_
_space_group_symop_operation_xyz
x,y,z
1/2-x,-y,z
1/2+x,-y,1/2-z
-x,y,1/2-z
-x,-y,-z
1/2+x,y,-z
1/2-x,y,1/2+z
x,-y,1/2+z
loop_
_atom_site_type_symbol
_atom_site_label
_atom_site_fract_x
_atom_site_fract_y
_atom_site_fract_z
Si Si1 0.667592 0.895681 0.949462
Si Si2 0.528723 0.377998 0.920156
Si Si3 0.868201 0.540217 0.456963
Si Si4 0.501704 0.180279 0.926367
Si Si5 0.750000 0.500000 0.707045
Si Si6 0.654963 0.084662 0.084325
O O1 0.664194 0.907373 0.767051
O O2 0.595629 0.825867 0.004368
O O3 0.764533 0.866214 0.000451
O O4 0.650603 0.984574 0.038951
O O5 0.500000 0.405256 0.750000
O O6 0.612928 0.435658 0.958949
O O7 0.542600 0.276175 0.935120
O O8 0.454879 0.404011 0.043552
O O9 0.810221 0.562575 0.605118
O O10 0.810993 0.562771 0.308480
O O11 0.500000 0.148341 0.750000
O O12 0.563898 0.122511 0.029735
#
# Coordination Sequence:
#
# PCOD8222888 Si02
#       6
#     8   8   8   8   4   8
#     4  11  22  41  65  92 121 160 204 250 301 360
#     4  10  21  40  60  84 119 161 195 243 296 357
#     4  10  20  40  60  88 114 156 198 244 294 354
#     4  11  23  41  60  91 125 164 199 251 304 359
#     4  10  20  36  64  90 112 144 206 246 296 348
#     4  11  22  41  65  92 121 160 204 250 301 360
#
# _framework density 21.207270000000001
#
# number of rings (size 3 to 8) (size 9 to 14) (size 15 to 20)
#    0.000    1.455    1.818    5.455    0.000    0.000 
#   13.091    0.000    0.000    0.000    0.000    0.000 
#    0.000    0.000    0.000    0.000    0.000    0.000 
#
# Total GULP energy -545461.230650 kJ/mol
# GULP energy per Si atom -12396.846151 kJ/mol
# Density = 2.115900 g / cm^3
# Si number density = 21.207270 Si / 1000 Ang^3
#
#
#
# Elastic Constant Matrix: (Units=GPa)
#
#
# Indices 1 2 3 4 5 6 
#
# 1 101.4118 14.0518 30.8901 0.0000 0.0000 0.0000
# 2 14.0518 48.9001 14.8242 0.0000 0.0000 0.0000
# 3 30.8901 14.8242 157.1605 0.0000 0.0000 0.0000
# 4 0.0000 0.0000 0.0000 20.4581 0.0000 0.0000
# 5 0.0000 0.0000 0.0000 0.0000 34.3432 0.0000
# 6 0.0000 0.0000 0.0000 0.0000 0.0000 17.7678
#
#
#
# Elastic Compliance Matrix: (Units=1/GPa)
#
#
# Indices 1 2 3 4 5 6 
#
# 1 0.010784 -0.002529 -0.001881 0.000000 0.000000 0.000000
# 2 -0.002529 0.021645 -0.001545 0.000000 0.000000 0.000000
# 3 -0.001881 -0.001545 0.006878 0.000000 0.000000 0.000000
# 4 0.000000 0.000000 0.000000 0.048880 0.000000 0.000000
# 5 0.000000 0.000000 0.000000 0.000000 0.029118 0.000000
# 6 0.000000 0.000000 0.000000 0.000000 0.000000 0.056282
#
#
# Mechanical properties :
#
#
# Convention : Reuss Voigt Hill
#
# Bulk Modulus (GPa) = 36.49844 47.44496 41.97170
# Shear Modulus (GPa) = 25.68995 31.02758 28.35877
#
# Velocity S-wave (km/s) = 3.48426 3.82915 3.66077
# Velocity P-wave (km/s) = 5.78225 6.47846 6.14023
#
# Compressibility (1/GPa) = 0.02739843
#
# Stress axis : x y z
#
# Youngs Moduli (GPa) = 92.72867 46.20065 145.38352
#
# Poissons Ratio (x) = 0.11682 0.27348
# Poissons Ratio (y) = 0.23448 0.22456
# Poissons Ratio (z) = 0.17443 0.07136
#
# Static dielectric constant tensor:
#      x y z
#    x 4.158480 0.000000 0.000000 
#    y 0.000000 3.412940 0.000000 
#    z 0.000000 0.000000 4.040640 
# 
# 
# High freq. dielectric constant tensor:
#      x y z
#    x 1.850560 0.000000 0.000000 
#    y 0.000000 1.785800 0.000000 
#    z 0.000000 0.000000 1.851160 
# 
# From -- ./inp_files/3526.got.cif
#   From: 2010.03.12/outbox.cif.g09.slc.cpg/sg54_2_cif.got.tgz:3526.got - 2010.04.16 15:00:50.
