data_PCOD8222722
_publ_section_title
;
Structure prediction by ZEFSAII (Michael W. Deem and Ramdas Pophale) SiO2 
 PCOD8222722
Probable space group: P C C A
;
_chemical_formula_sum "Si O2"
_cell_formula_units_Z 64
_cell_length_a 17.576126
_cell_length_b 8.766218
_cell_length_c 19.760702
_cell_angle_alpha 90.000000
_cell_angle_beta 90.000000
_cell_angle_gamma 90.000000
_cell_volume 3044.652927
_symmetry_space_group_name_H-M "P C C A"
_symmetry_group_IT_number 54
_symmetry_cell_setting 'orthorhombic'
loop_
_space_group_symop_operation_xyz
x,y,z
1/2-x,-y,z
1/2+x,-y,1/2-z
-x,y,1/2-z
-x,-y,-z
1/2+x,y,-z
1/2-x,y,1/2+z
x,-y,1/2+z
loop_
_atom_site_type_symbol
_atom_site_label
_atom_site_fract_x
_atom_site_fract_y
_atom_site_fract_z
Si Si1 0.327999 0.949866 0.487794
Si Si2 0.318585 0.405880 0.780397
Si Si3 0.550150 0.087365 0.911094
Si Si4 0.486373 0.575064 0.429121
Si Si5 0.085770 0.861062 0.735958
Si Si6 0.545450 0.620755 0.685527
Si Si7 0.689409 0.624559 0.070351
Si Si8 0.097051 0.933635 0.364912
O O1 0.319436 0.768167 0.479250
O O2 0.250000 0.000000 0.523636
O O3 0.397744 0.004074 0.534010
O O4 0.331443 0.032005 0.413762
O O5 0.250000 0.500000 0.744323
O O6 0.348021 0.264731 0.736249
O O7 0.390316 0.513499 0.785667
O O8 0.285541 0.340462 0.852128
O O9 0.530137 0.263980 0.926579
O O10 0.589927 0.066123 0.838236
O O11 0.471149 0.999743 0.910259
O O12 0.500000 0.500000 0.500000
O O13 0.512558 0.470285 0.365266
O O14 0.395935 0.567057 0.420503
O O15 0.000000 0.794456 0.750000
O O16 0.104934 0.987005 0.792194
O O17 0.500000 0.687489 0.750000
O O18 0.585918 0.755424 0.644431
O O19 0.750000 0.500000 0.039930
#
# Coordination Sequence:
#
# PCOD8222722 Si02
#       8
#     8   8   8   8   8   8   8   8
#     4  12  26  41  65  92 129 172 210 270 325 388
#     4  10  20  37  62  91 125 161 207 257 309 381
#     4  11  23  42  65  91 131 166 216 262 334 389
#     4  11  23  39  64  93 122 168 209 263 313 383
#     4  10  19  40  67  91 125 168 208 260 324 383
#     4  11  22  37  62  95 127 157 212 270 319 365
#     4  10  22  40  62  93 124 162 213 264 315 379
#     4  11  22  40  67  96 120 166 217 268 315 382
#
# _framework density 21.020458000000001
#
# number of rings (size 3 to 8) (size 9 to 14) (size 15 to 20)
#    0.000    1.250    2.500    5.625    8.750    0.000 
#    0.000    3.125    2.750    0.000    0.000    0.000 
#    0.000    0.000    0.000    0.000    0.000    0.000 
#
# Total GULP energy -793099.196212 kJ/mol
# GULP energy per Si atom -12392.174941 kJ/mol
# Density = 2.097261 g / cm^3
# Si number density = 21.020458 Si / 1000 Ang^3
#
#
#
# Elastic Constant Matrix: (Units=GPa)
#
#
# Indices 1 2 3 4 5 6 
#
# 1 42.4262 17.3333 26.3870 0.0000 0.0000 0.0000
# 2 17.3333 104.3659 31.0468 0.0000 0.0000 0.0000
# 3 26.3870 31.0468 101.5378 0.0000 0.0000 0.0000
# 4 0.0000 0.0000 0.0000 27.0939 0.0000 0.0000
# 5 0.0000 0.0000 0.0000 0.0000 25.0276 0.0000
# 6 0.0000 0.0000 0.0000 0.0000 0.0000 34.1369
#
#
#
# Elastic Compliance Matrix: (Units=1/GPa)
#
#
# Indices 1 2 3 4 5 6 
#
# 1 0.028848 -0.002817 -0.006636 0.000000 0.000000 0.000000
# 2 -0.002817 0.010816 -0.002575 0.000000 0.000000 0.000000
# 3 -0.006636 -0.002575 0.012360 0.000000 0.000000 0.000000
# 4 0.000000 0.000000 0.000000 0.036909 0.000000 0.000000
# 5 0.000000 0.000000 0.000000 0.000000 0.039956 0.000000
# 6 0.000000 0.000000 0.000000 0.000000 0.000000 0.029294
#
#
# Mechanical properties :
#
#
# Convention : Reuss Voigt Hill
#
# Bulk Modulus (GPa) = 35.75411 44.20713 39.98062
# Shear Modulus (GPa) = 26.10137 28.82251 27.46194
#
# Velocity S-wave (km/s) = 3.52762 3.70694 3.61839
# Velocity P-wave (km/s) = 5.79985 6.27679 6.04303
#
# Compressibility (1/GPa) = 0.02796881
#
# Stress axis : x y z
#
# Youngs Moduli (GPa) = 34.66410 92.45950 80.90444
#
# Poissons Ratio (x) = 0.26048 0.53684
# Poissons Ratio (y) = 0.09766 0.20832
# Poissons Ratio (z) = 0.23001 0.23807
#
# Static dielectric constant tensor:
#      x y z
#    x 3.412640 0.000000 0.000000 
#    y 0.000000 2.485670 0.000000 
#    z 0.000000 0.000000 4.627320 
# 
# 
# High freq. dielectric constant tensor:
#      x y z
#    x 1.813700 0.000000 0.000000 
#    y 0.000000 1.827020 0.000000 
#    z 0.000000 0.000000 1.816410 
# 
# From -- ./inp_files/21966.got.cif
#   From: 2010.03.12/outbox.cif.g09.slc.cpg/sg54_11_cif.got.tgz:21966.got - 2010.04.16 15:00:50.
