data_PCOD8222087
_publ_section_title
;
Structure prediction by ZEFSAII (Michael W. Deem and Ramdas Pophale) SiO2 
 PCOD8222087
Probable space group: P M N A
;
_chemical_formula_sum "Si O2"
_cell_formula_units_Z 36
_cell_length_a 13.327945
_cell_length_b 5.390279
_cell_length_c 24.519807
_cell_angle_alpha 90.000000
_cell_angle_beta 90.000000
_cell_angle_gamma 90.000000
_cell_volume 1761.535842
_symmetry_space_group_name_H-M "P M N A"
_symmetry_group_IT_number 53
_symmetry_cell_setting 'orthorhombic'
loop_
_space_group_symop_operation_xyz
x,y,z
1/2-x,-y,1/2+z
x,-y,-z
1/2-x,y,1/2-z
-x,-y,-z
1/2+x,y,1/2-z
-x,y,z
1/2+x,-y,1/2+z
loop_
_atom_site_type_symbol
_atom_site_label
_atom_site_fract_x
_atom_site_fract_y
_atom_site_fract_z
Si Si1 0.889894 0.767246 0.714196
Si Si2 0.383002 0.496234 0.935991
Si Si3 0.300519 0.001412 0.117387
Si Si4 0.250000 0.389115 0.750000
Si Si5 0.887001 0.047404 0.820478
O O1 0.850380 0.002095 0.678357
O O2 0.810884 0.547996 0.704588
O O3 0.000000 0.691093 0.693117
O O4 0.892128 0.816492 0.778977
O O5 0.500000 0.489331 0.921024
O O6 0.335294 0.747959 0.912494
O O7 0.331402 0.246073 0.914081
O O8 0.365096 0.500000 0.000000
O O9 0.179268 0.009232 0.125572
O O10 0.334397 0.256844 0.715016
O O11 0.000000 0.124243 0.838480
#
# Coordination Sequence:
#
# PCOD8222087 Si02
#       5
#     8   8   8   4   8
#     4  11  22  35  55  89 128 168 206 252 304 375
#     4  11  25  44  68  97 126 160 210 276 338 383
#     4  12  22  42  65  94 129 169 216 257 320 390
#     4  12  18  40  54  84 128 176 210 256 294 368
#     4  11  24  38  57  89 133 173 210 255 303 373
#
# _framework density 20.436713000000001
#
# number of rings (size 3 to 8) (size 9 to 14) (size 15 to 20)
#    0.000    0.667    4.444    4.667    0.000    1.778 
#    0.000    0.000    0.000    4.000    0.000    0.000 
#    0.000    0.000    0.000    0.000    0.000    0.000 
#
# Total GULP energy -446136.056274 kJ/mol
# GULP energy per Si atom -12392.668230 kJ/mol
# Density = 2.039020 g / cm^3
# Si number density = 20.436713 Si / 1000 Ang^3
#
#
#
# Elastic Constant Matrix: (Units=GPa)
#
#
# Indices 1 2 3 4 5 6 
#
# 1 207.6077 66.3870 58.0773 0.0000 0.0000 0.0000
# 2 66.3870 127.5522 43.7252 0.0000 0.0000 0.0000
# 3 58.0773 43.7252 86.7589 0.0000 0.0000 0.0000
# 4 0.0000 0.0000 0.0000 26.0552 0.0000 0.0000
# 5 0.0000 0.0000 0.0000 0.0000 33.3225 0.0000
# 6 0.0000 0.0000 0.0000 0.0000 0.0000 12.7423
#
#
#
# Elastic Compliance Matrix: (Units=1/GPa)
#
#
# Indices 1 2 3 4 5 6 
#
# 1 0.006424 -0.002260 -0.003161 0.000000 0.000000 0.000000
# 2 -0.002260 0.010272 -0.003664 0.000000 0.000000 0.000000
# 3 -0.003161 -0.003664 0.015489 0.000000 0.000000 0.000000
# 4 0.000000 0.000000 0.000000 0.038380 0.000000 0.000000
# 5 0.000000 0.000000 0.000000 0.000000 0.030010 0.000000
# 6 0.000000 0.000000 0.000000 0.000000 0.000000 0.078479
#
#
# Mechanical properties :
#
#
# Convention : Reuss Voigt Hill
#
# Bulk Modulus (GPa) = 71.35498 84.25533 77.80515
# Shear Modulus (GPa) = 24.76524 31.33928 28.05226
#
# Velocity S-wave (km/s) = 3.48487 3.92021 3.70894
# Velocity P-wave (km/s) = 7.15425 7.86179 7.51635
#
# Compressibility (1/GPa) = 0.01401444
#
# Stress axis : x y z
#
# Youngs Moduli (GPa) = 155.67365 97.35048 64.56120
#
# Poissons Ratio (x) = 0.21998 0.20409
# Poissons Ratio (y) = 0.35177 0.23658
# Poissons Ratio (z) = 0.49212 0.35673
#
# Static dielectric constant tensor:
#      x y z
#    x 4.102780 0.000000 0.000000 
#    y 0.000000 3.722470 0.000000 
#    z 0.000000 0.000000 3.904900 
# 
# 
# High freq. dielectric constant tensor:
#      x y z
#    x 1.810540 0.000000 0.000000 
#    y 0.000000 1.807270 0.000000 
#    z 0.000000 0.000000 1.772670 
# 
# From -- ./inp_files/35122.got.cif
#   From: 2010.03.12/outbox.cif.g09.slc.cpg/sg53_18_cif.got.tgz:35122.got - 2010.04.16 14:36:59.
