data_PCOD8222968
_publ_section_title
;
Structure prediction by ZEFSAII (Michael W. Deem and Ramdas Pophale) SiO2 
 PCOD8222968
Probable space group: P C C A
;
_chemical_formula_sum "Si O2"
_cell_formula_units_Z 60
_cell_length_a 17.484349
_cell_length_b 16.694914
_cell_length_c 9.352346
_cell_angle_alpha 90.000000
_cell_angle_beta 90.000000
_cell_angle_gamma 90.000000
_cell_volume 2729.947019
_symmetry_space_group_name_H-M "P C C A"
_symmetry_group_IT_number 54
_symmetry_cell_setting 'orthorhombic'
loop_
_space_group_symop_operation_xyz
x,y,z
1/2-x,-y,z
1/2+x,-y,1/2-z
-x,y,1/2-z
-x,-y,-z
1/2+x,y,-z
1/2-x,y,1/2+z
x,-y,1/2+z
loop_
_atom_site_type_symbol
_atom_site_label
_atom_site_fract_x
_atom_site_fract_y
_atom_site_fract_z
Si Si1 0.341065 0.052876 0.228503
Si Si2 0.361982 0.709712 0.425182
Si Si3 0.886015 0.591680 0.926323
Si Si4 0.000000 0.323709 0.250000
Si Si5 0.809043 0.743511 0.043434
Si Si6 0.810717 0.915377 0.946475
Si Si7 0.915704 0.214570 0.790757
Si Si8 0.165108 0.530685 0.867972
O O1 0.313626 0.047109 0.393032
O O2 0.273402 0.079809 0.121519
O O3 0.407924 0.118114 0.214581
O O4 0.366601 0.965991 0.162397
O O5 0.423850 0.725340 0.296973
O O6 0.278907 0.749730 0.402798
O O7 0.402512 0.751401 0.555002
O O8 0.349365 0.615088 0.446245
O O9 0.971308 0.621415 0.883494
O O10 0.849794 0.538486 0.799906
O O11 0.827480 0.665982 0.949275
O O12 0.892093 0.535919 0.065868
O O13 0.857326 0.740231 0.187619
O O14 0.833407 0.822050 0.952446
O O15 0.000000 0.239461 0.750000
O O16 0.250000 0.500000 0.898465
#
# Coordination Sequence:
#
# PCOD8222968 Si02
#       8
#     8   8   8   4   8   8   8   8
#     4  10  20  38  66  99 141 178 224 287 346 412
#     4  11  24  43  68 101 137 187 233 296 358 422
#     4  11  25  43  66  96 140 181 232 295 358 420
#     4  10  26  46  64 100 144 176 236 294 356 432
#     4  11  24  41  73 100 134 184 240 286 353 429
#     4  10  20  38  64 102 133 173 233 283 336 421
#     4  11  25  45  69 104 145 185 234 295 359 427
#     4  11  24  40  68  98 135 177 241 298 353 422
#
# _framework density 21.978448
#
# number of rings (size 3 to 8) (size 9 to 14) (size 15 to 20)
#    0.000    1.333    2.667    2.800    5.600    2.133 
#    6.000    2.667    1.467    0.000    0.000    0.000 
#    0.000    0.000    0.000    0.000    0.000    0.000 
#
# Total GULP energy -743534.915596 kJ/mol
# GULP energy per Si atom -12392.248593 kJ/mol
# Density = 2.192842 g / cm^3
# Si number density = 21.978448 Si / 1000 Ang^3
#
#
#
# Elastic Constant Matrix: (Units=GPa)
#
#
# Indices 1 2 3 4 5 6 
#
# 1 123.3600 26.8482 46.3414 0.0000 0.0000 0.0000
# 2 26.8482 100.6213 52.0712 0.0000 0.0000 0.0000
# 3 46.3414 52.0712 122.9197 0.0000 0.0000 0.0000
# 4 0.0000 0.0000 0.0000 40.0350 0.0000 0.0000
# 5 0.0000 0.0000 0.0000 0.0000 30.3450 0.0000
# 6 0.0000 0.0000 0.0000 0.0000 0.0000 13.9364
#
#
#
# Elastic Compliance Matrix: (Units=1/GPa)
#
#
# Indices 1 2 3 4 5 6 
#
# 1 0.009503 -0.000873 -0.003213 0.000000 0.000000 0.000000
# 2 -0.000873 0.012809 -0.005097 0.000000 0.000000 0.000000
# 3 -0.003213 -0.005097 0.011506 0.000000 0.000000 0.000000
# 4 0.000000 0.000000 0.000000 0.024978 0.000000 0.000000
# 5 0.000000 0.000000 0.000000 0.000000 0.032954 0.000000
# 6 0.000000 0.000000 0.000000 0.000000 0.000000 0.071755
#
#
# Mechanical properties :
#
#
# Convention : Reuss Voigt Hill
#
# Bulk Modulus (GPa) = 64.71582 66.38028 65.54805
# Shear Modulus (GPa) = 26.73487 31.63931 29.18709
#
# Velocity S-wave (km/s) = 3.49149 3.79827 3.64811
# Velocity P-wave (km/s) = 6.76484 7.03590 6.90170
#
# Compressibility (1/GPa) = 0.01545217
#
# Stress axis : x y z
#
# Youngs Moduli (GPa) = 105.22603 78.07112 86.91211
#
# Poissons Ratio (x) = 0.06816 0.27925
# Poissons Ratio (y) = 0.09186 0.44299
# Poissons Ratio (z) = 0.33809 0.39792
#
# Static dielectric constant tensor:
#      x y z
#    x 3.893510 0.000000 0.000000 
#    y 0.000000 4.355560 0.000000 
#    z 0.000000 0.000000 4.019810 
# 
# 
# High freq. dielectric constant tensor:
#      x y z
#    x 1.845130 0.000000 0.000000 
#    y 0.000000 1.867420 0.000000 
#    z 0.000000 0.000000 1.872130 
# 
# From -- ./inp_files/4347.got.cif
#   From: 2010.03.12/outbox.cif.g09.slc.cpg/sg54_3_cif.got.tgz:4347.got - 2010.04.16 15:00:50.
