data_PCOD8222819
_publ_section_title
;
Structure prediction by ZEFSAII (Michael W. Deem and Ramdas Pophale) SiO2 
 PCOD8222819
Probable space group: P C C A
;
_chemical_formula_sum "Si O2"
_cell_formula_units_Z 56
_cell_length_a 8.505156
_cell_length_b 14.590741
_cell_length_c 21.469987
_cell_angle_alpha 90.000000
_cell_angle_beta 90.000000
_cell_angle_gamma 90.000000
_cell_volume 2664.350851
_symmetry_space_group_name_H-M "P C C A"
_symmetry_group_IT_number 54
_symmetry_cell_setting 'orthorhombic'
loop_
_space_group_symop_operation_xyz
x,y,z
1/2-x,-y,z
1/2+x,-y,1/2-z
-x,y,1/2-z
-x,-y,-z
1/2+x,y,-z
1/2-x,y,1/2+z
x,-y,1/2+z
loop_
_atom_site_type_symbol
_atom_site_label
_atom_site_fract_x
_atom_site_fract_y
_atom_site_fract_z
Si Si1 0.610360 0.272356 0.573609
Si Si2 0.535787 0.546095 0.435523
Si Si3 0.533129 0.779410 0.554636
Si Si4 0.069022 0.979857 0.067026
Si Si5 0.406929 0.733620 0.190912
Si Si6 0.099095 0.938105 0.690917
Si Si7 0.827635 0.625250 0.386815
O O1 0.608725 0.384614 0.576947
O O2 0.782471 0.231091 0.566726
O O3 0.502400 0.232289 0.518280
O O4 0.533199 0.242171 0.637819
O O5 0.500000 0.500000 0.500000
O O6 0.695746 0.607484 0.440542
O O7 0.570031 0.469830 0.380735
O O8 0.470519 0.874481 0.582366
O O9 0.445733 0.702619 0.593590
O O10 0.250000 0.000000 0.058170
O O11 0.006052 0.043583 0.124768
O O12 0.000000 0.000000 0.000000
O O13 0.500000 0.692811 0.250000
O O14 0.338748 0.834762 0.203797
O O15 0.270375 0.659645 0.173948
O O16 0.000000 0.971639 0.750000
O O17 0.250000 0.000000 0.685331
#
# Coordination Sequence:
#
# PCOD8222819 Si02
#       7
#     8   8   8   8   8   8   8
#     4  11  23  38  61  95 127 166 212 266 338 396
#     4  10  20  35  60  94 123 158 200 259 328 389
#     4  12  23  37  62  95 130 163 213 274 337 404
#     4  11  23  39  58  86 127 169 213 264 332 393
#     4  10  22  43  64  87 128 177 218 267 324 393
#     4  10  22  40  64  91 123 166 221 273 325 391
#     4  10  21  36  61  92 125 165 207 264 324 387
#
# _framework density 21.018253999999999
#
# number of rings (size 3 to 8) (size 9 to 14) (size 15 to 20)
#    0.000    1.429    1.429    5.143    2.000    3.429 
#    0.000    0.714    0.000   20.571    0.000    0.000 
#    0.000    0.000    0.000    0.000    0.000    0.000 
#
# Total GULP energy -693740.961201 kJ/mol
# GULP energy per Si atom -12388.231450 kJ/mol
# Density = 2.097042 g / cm^3
# Si number density = 21.018254 Si / 1000 Ang^3
#
#
#
# Elastic Constant Matrix: (Units=GPa)
#
#
# Indices 1 2 3 4 5 6 
#
# 1 91.0591 24.3396 21.5748 0.0000 0.0000 0.0000
# 2 24.3396 105.8697 3.2656 0.0000 0.0000 0.0000
# 3 21.5748 3.2656 112.9319 0.0000 0.0000 0.0000
# 4 0.0000 0.0000 0.0000 23.7283 0.0000 0.0000
# 5 0.0000 0.0000 0.0000 0.0000 32.9829 0.0000
# 6 0.0000 0.0000 0.0000 0.0000 0.0000 43.1158
#
#
#
# Elastic Compliance Matrix: (Units=1/GPa)
#
#
# Indices 1 2 3 4 5 6 
#
# 1 0.012252 -0.002747 -0.002261 0.000000 0.000000 0.000000
# 2 -0.002747 0.010070 0.000234 0.000000 0.000000 0.000000
# 3 -0.002261 0.000234 0.009280 0.000000 0.000000 0.000000
# 4 0.000000 0.000000 0.000000 0.042144 0.000000 0.000000
# 5 0.000000 0.000000 0.000000 0.000000 0.030319 0.000000
# 6 0.000000 0.000000 0.000000 0.000000 0.000000 0.023193
#
#
# Mechanical properties :
#
#
# Convention : Reuss Voigt Hill
#
# Bulk Modulus (GPa) = 45.34579 45.35785 45.35182
# Shear Modulus (GPa) = 34.68419 37.34410 36.01414
#
# Velocity S-wave (km/s) = 4.06666 4.21972 4.14390
# Velocity P-wave (km/s) = 6.60845 6.73561 6.67234
#
# Compressibility (1/GPa) = 0.02205276
#
# Stress axis : x y z
#
# Youngs Moduli (GPa) = 81.62018 99.30589 107.75713
#
# Poissons Ratio (x) = 0.27279 0.24366
# Poissons Ratio (y) = 0.22421 -0.02517
# Poissons Ratio (z) = 0.18456 -0.02320
#
# Static dielectric constant tensor:
#      x y z
#    x 3.759620 0.000000 0.000000 
#    y 0.000000 4.035180 0.000000 
#    z 0.000000 0.000000 3.191620 
# 
# 
# High freq. dielectric constant tensor:
#      x y z
#    x 1.813170 0.000000 0.000000 
#    y 0.000000 1.846100 0.000000 
#    z 0.000000 0.000000 1.801590 
# 
# From -- ./inp_files/20556.got.cif
#   From: 2010.03.12/outbox.cif.g09.slc.cpg/sg54_11_cif.got.tgz:20556.got - 2010.04.16 15:00:50.
