data_PCOD8222202
_publ_section_title
;
Structure prediction by ZEFSAII (Michael W. Deem and Ramdas Pophale) SiO2 
 PCOD8222202
Probable space group: P M N A
;
_chemical_formula_sum "Si O2"
_cell_formula_units_Z 32
_cell_length_a 24.735450
_cell_length_b 6.314702
_cell_length_c 8.876591
_cell_angle_alpha 90.000000
_cell_angle_beta 90.000000
_cell_angle_gamma 90.000000
_cell_volume 1386.496845
_symmetry_space_group_name_H-M "P M N A"
_symmetry_group_IT_number 53
_symmetry_cell_setting 'orthorhombic'
loop_
_space_group_symop_operation_xyz
x,y,z
1/2-x,-y,1/2+z
x,-y,-z
1/2-x,y,1/2-z
-x,-y,-z
1/2+x,y,1/2-z
-x,y,z
1/2+x,-y,1/2+z
loop_
_atom_site_type_symbol
_atom_site_label
_atom_site_fract_x
_atom_site_fract_y
_atom_site_fract_z
Si Si1 0.250000 0.841443 0.250000
Si Si2 0.678445 0.000000 0.500000
Si Si3 0.559919 0.037964 0.822614
Si Si4 0.351771 0.387889 0.844111
Si Si5 0.601788 0.326750 0.390205
O O1 0.215660 0.996860 0.146319
O O2 0.209318 0.700117 0.351112
O O3 0.639580 0.798256 0.493961
O O4 0.500000 0.129865 0.787637
O O5 0.605864 0.208225 0.789865
O O6 0.565271 0.829276 0.714176
O O7 0.564831 0.000000 0.000000
O O8 0.355068 0.566150 0.719031
O O9 0.368014 0.500000 0.000000
O O10 0.570497 0.500000 0.500000
#
# Coordination Sequence:
#
# PCOD8222202 Si02
#       5
#     4   4   8   8   8
#     4  12  28  44  72 106 146 190 240 302 362 442
#     4  12  28  46  69 104 145 190 240 296 356 438
#     4  11  25  48  75 108 146 189 247 307 365 440
#     4  12  27  45  73 109 146 190 242 298 369 440
#     4  12  24  49  70 104 148 186 241 302 364 438
#
# _framework density 23.079751000000002
#
# number of rings (size 3 to 8) (size 9 to 14) (size 15 to 20)
#    0.000    0.250    7.500    0.000    8.750    2.000 
#    0.000    4.375    0.000    0.000    0.000    0.000 
#    0.000    0.000    0.000    0.000    0.000    0.000 
#
# Total GULP energy -396462.390866 kJ/mol
# GULP energy per Si atom -12389.449715 kJ/mol
# Density = 2.302722 g / cm^3
# Si number density = 23.079751 Si / 1000 Ang^3
#
#
#
# Elastic Constant Matrix: (Units=GPa)
#
#
# Indices 1 2 3 4 5 6 
#
# 1 134.8566 47.8729 29.5169 0.0000 0.0000 0.0000
# 2 47.8729 114.7509 52.3395 0.0000 0.0000 0.0000
# 3 29.5169 52.3395 131.3534 0.0000 0.0000 0.0000
# 4 0.0000 0.0000 0.0000 59.4394 0.0000 0.0000
# 5 0.0000 0.0000 0.0000 0.0000 19.0368 0.0000
# 6 0.0000 0.0000 0.0000 0.0000 0.0000 11.1075
#
#
#
# Elastic Compliance Matrix: (Units=1/GPa)
#
#
# Indices 1 2 3 4 5 6 
#
# 1 0.008746 -0.003364 -0.000625 0.000000 0.000000 0.000000
# 2 -0.003364 0.011944 -0.004003 0.000000 0.000000 0.000000
# 3 -0.000625 -0.004003 0.009349 0.000000 0.000000 0.000000
# 4 0.000000 0.000000 0.000000 0.016824 0.000000 0.000000
# 5 0.000000 0.000000 0.000000 0.000000 0.052530 0.000000
# 6 0.000000 0.000000 0.000000 0.000000 0.000000 0.090029
#
#
# Mechanical properties :
#
#
# Convention : Reuss Voigt Hill
#
# Bulk Modulus (GPa) = 71.15158 71.15773 71.15466
# Shear Modulus (GPa) = 23.79923 34.66549 29.23236
#
# Velocity S-wave (km/s) = 3.21467 3.87975 3.56277
# Velocity P-wave (km/s) = 6.68389 7.13920 6.91529
#
# Compressibility (1/GPa) = 0.01405450
#
# Stress axis : x y z
#
# Youngs Moduli (GPa) = 114.33551 83.72550 106.96696
#
# Poissons Ratio (x) = 0.28163 0.06686
# Poissons Ratio (y) = 0.38459 0.42822
# Poissons Ratio (z) = 0.07147 0.33518
#
# Static dielectric constant tensor:
#      x y z
#    x 4.037090 0.000000 0.000000 
#    y 0.000000 4.289250 0.000000 
#    z 0.000000 0.000000 4.358240 
# 
# 
# High freq. dielectric constant tensor:
#      x y z
#    x 1.896720 0.000000 0.000000 
#    y 0.000000 1.913000 0.000000 
#    z 0.000000 0.000000 1.941120 
# 
# From -- ./inp_files/12769.got.cif
#   From: 2010.03.12/outbox.cif.g09.slc.cpg/sg53_7_cif.got.tgz:12769.got - 2010.04.16 14:36:59.
