data_PCOD8222700
_publ_section_title
;
Structure prediction by ZEFSAII (Michael W. Deem and Ramdas Pophale) SiO2 
 PCOD8222700
Probable space group: P C C A
;
_chemical_formula_sum "Si O2"
_cell_formula_units_Z 56
_cell_length_a 18.959277
_cell_length_b 12.592987
_cell_length_c 11.213065
_cell_angle_alpha 90.000000
_cell_angle_beta 90.000000
_cell_angle_gamma 90.000000
_cell_volume 2677.163323
_symmetry_space_group_name_H-M "P C C A"
_symmetry_group_IT_number 54
_symmetry_cell_setting 'orthorhombic'
loop_
_space_group_symop_operation_xyz
x,y,z
1/2-x,-y,z
1/2+x,-y,1/2-z
-x,y,1/2-z
-x,-y,-z
1/2+x,y,-z
1/2-x,y,1/2+z
x,-y,1/2+z
loop_
_atom_site_type_symbol
_atom_site_label
_atom_site_fract_x
_atom_site_fract_y
_atom_site_fract_z
Si Si1 0.456702 0.114162 0.631823
Si Si2 0.586351 0.091125 0.483773
Si Si3 0.320090 0.947297 0.869678
Si Si4 0.168936 0.535464 0.238915
Si Si5 0.674122 0.446712 0.001311
Si Si6 0.825859 0.223542 0.817502
Si Si7 0.681965 0.214291 0.930616
O O1 0.500000 0.130438 0.750000
O O2 0.509275 0.134267 0.520029
O O3 0.394732 0.201420 0.629254
O O4 0.422631 0.996727 0.620849
O O5 0.634529 0.188741 0.439260
O O6 0.621537 0.036931 0.601471
O O7 0.351981 0.859531 0.781686
O O8 0.250000 0.000000 0.813943
O O9 0.298565 0.888260 0.991358
O O10 0.250000 0.500000 0.246606
O O11 0.138008 0.512103 0.373708
O O12 0.153189 0.658368 0.215998
O O13 0.133198 0.474915 0.124305
O O14 0.750000 0.500000 0.986808
O O15 0.682995 0.320064 0.011499
O O16 0.741206 0.220945 0.828982
#
# Coordination Sequence:
#
# PCOD8222700 Si02
#       7
#     8   8   8   8   8   8   8
#     4  10  23  42  58  84 124 180 209 251 316 388
#     4  10  23  41  59  85 128 167 217 258 314 392
#     4  11  23  34  57  90 129 154 205 271 319 370
#     4  10  20  36  60  91 131 157 203 265 336 383
#     4  10  19  38  58  93 125 162 200 271 327 378
#     4  12  22  36  62  97 120 168 210 274 324 374
#     4  11  22  38  60  92 125 159 219 260 318 385
#
# _framework density 20.917662
#
# number of rings (size 3 to 8) (size 9 to 14) (size 15 to 20)
#    0.000    1.429    5.714    0.857    6.000    0.000 
#    2.571    0.000    0.000    0.857    0.000    0.000 
#    0.000    0.000    0.000    0.000    0.000    0.000 
#
# Total GULP energy -693956.823070 kJ/mol
# GULP energy per Si atom -12392.086126 kJ/mol
# Density = 2.087005 g / cm^3
# Si number density = 20.917662 Si / 1000 Ang^3
#
#
#
# Elastic Constant Matrix: (Units=GPa)
#
#
# Indices 1 2 3 4 5 6 
#
# 1 73.8044 22.3517 10.4540 0.0000 0.0000 0.0000
# 2 22.3517 83.0075 24.7668 0.0000 0.0000 0.0000
# 3 10.4540 24.7668 120.0037 0.0000 0.0000 0.0000
# 4 0.0000 0.0000 0.0000 30.2656 0.0000 0.0000
# 5 0.0000 0.0000 0.0000 0.0000 12.9053 0.0000
# 6 0.0000 0.0000 0.0000 0.0000 0.0000 15.2638
#
#
#
# Elastic Compliance Matrix: (Units=1/GPa)
#
#
# Indices 1 2 3 4 5 6 
#
# 1 0.014780 -0.003832 -0.000497 0.000000 0.000000 0.000000
# 2 -0.003832 0.013831 -0.002521 0.000000 0.000000 0.000000
# 3 -0.000497 -0.002521 0.008897 0.000000 0.000000 0.000000
# 4 0.000000 0.000000 0.000000 0.033041 0.000000 0.000000
# 5 0.000000 0.000000 0.000000 0.000000 0.077487 0.000000
# 6 0.000000 0.000000 0.000000 0.000000 0.000000 0.065514
#
#
# Mechanical properties :
#
#
# Convention : Reuss Voigt Hill
#
# Bulk Modulus (GPa) = 42.00020 43.55118 42.77569
# Shear Modulus (GPa) = 21.25988 26.30317 23.78153
#
# Velocity S-wave (km/s) = 3.19150 3.54992 3.37547
# Velocity P-wave (km/s) = 5.80545 6.13743 5.97375
#
# Compressibility (1/GPa) = 0.02380941
#
# Stress axis : x y z
#
# Youngs Moduli (GPa) = 67.65846 72.30155 112.40278
#
# Poissons Ratio (x) = 0.27704 0.05584
# Poissons Ratio (y) = 0.25924 0.28333
# Poissons Ratio (z) = 0.03361 0.18225
#
# Static dielectric constant tensor:
#      x y z
#    x 3.503160 0.000000 0.000000 
#    y 0.000000 3.766610 0.000000 
#    z 0.000000 0.000000 4.196000 
# 
# 
# High freq. dielectric constant tensor:
#      x y z
#    x 1.772740 0.000000 0.000000 
#    y 0.000000 1.810030 0.000000 
#    z 0.000000 0.000000 1.833050 
# 
# From -- ./inp_files/9548.got.cif
#   From: 2010.03.12/outbox.cif.g09.slc.cpg/sg54_5_cif.got.tgz:9548.got - 2010.04.16 15:00:50.
