data_PCOD8222351
_publ_section_title
;
Structure prediction by ZEFSAII (Michael W. Deem and Ramdas Pophale) SiO2 
 PCOD8222351
Probable space group: P C C A
;
_chemical_formula_sum "Si O2"
_cell_formula_units_Z 32
_cell_length_a 13.529041
_cell_length_b 19.222301
_cell_length_c 5.267288
_cell_angle_alpha 90.000000
_cell_angle_beta 90.000000
_cell_angle_gamma 90.000000
_cell_volume 1369.807221
_symmetry_space_group_name_H-M "P C C A"
_symmetry_group_IT_number 54
_symmetry_cell_setting 'orthorhombic'
loop_
_space_group_symop_operation_xyz
x,y,z
1/2-x,-y,z
1/2+x,-y,1/2-z
-x,y,1/2-z
-x,-y,-z
1/2+x,y,-z
1/2-x,y,1/2+z
x,-y,1/2+z
loop_
_atom_site_type_symbol
_atom_site_label
_atom_site_fract_x
_atom_site_fract_y
_atom_site_fract_z
Si Si1 0.290944 0.422770 0.656939
Si Si2 0.314375 0.187920 0.328831
Si Si3 0.500000 0.626029 0.250000
Si Si4 0.359914 0.970733 0.863792
Si Si5 0.500000 0.285009 0.250000
O O1 0.250000 0.500000 0.609614
O O2 0.263516 0.383654 0.392330
O O3 0.407859 0.424414 0.696229
O O4 0.258458 0.200536 0.593321
O O5 0.359915 0.111159 0.319191
O O6 0.405072 0.239880 0.315879
O O7 0.475976 0.670557 0.499492
O O8 0.250000 0.000000 0.908293
O O9 0.414964 0.992103 0.126314
#
# Coordination Sequence:
#
# PCOD8222351 Si02
#       5
#     8   8   4   8   4
#     4  10  23  42  73 108 134 173 223 261 337 391
#     4  12  23  42  68  90 134 176 228 286 327 397
#     4  12  26  48  67  95 152 172 214 290 310 398
#     4  10  16  32  61  90 118 163 215 276 354 379
#     4  12  30  44  63 103 132 190 234 250 338 406
#
# _framework density 23.360951
#
# number of rings (size 3 to 8) (size 9 to 14) (size 15 to 20)
#    0.000    1.000    5.000    3.000    0.000   10.000 
#    0.000    1.250    0.000    0.000    0.000    0.000 
#    0.000    0.000    0.000    0.000    0.000    0.000 
#
# Total GULP energy -396743.308869 kJ/mol
# GULP energy per Si atom -12398.228402 kJ/mol
# Density = 2.330778 g / cm^3
# Si number density = 23.360951 Si / 1000 Ang^3
#
#
#
# Elastic Constant Matrix: (Units=GPa)
#
#
# Indices 1 2 3 4 5 6 
#
# 1 82.1521 26.0412 25.0329 0.0000 0.0000 0.0000
# 2 26.0412 74.5516 13.6416 0.0000 0.0000 0.0000
# 3 25.0329 13.6416 210.8195 0.0000 0.0000 0.0000
# 4 0.0000 0.0000 0.0000 58.0092 0.0000 0.0000
# 5 0.0000 0.0000 0.0000 0.0000 22.2879 0.0000
# 6 0.0000 0.0000 0.0000 0.0000 0.0000 28.6883
#
#
#
# Elastic Compliance Matrix: (Units=1/GPa)
#
#
# Indices 1 2 3 4 5 6 
#
# 1 0.014068 -0.004664 -0.001369 0.000000 0.000000 0.000000
# 2 -0.004664 0.015120 -0.000425 0.000000 0.000000 0.000000
# 3 -0.001369 -0.000425 0.004933 0.000000 0.000000 0.000000
# 4 0.000000 0.000000 0.000000 0.017239 0.000000 0.000000
# 5 0.000000 0.000000 0.000000 0.000000 0.044867 0.000000
# 6 0.000000 0.000000 0.000000 0.000000 0.000000 0.034857
#
#
# Mechanical properties :
#
#
# Convention : Reuss Voigt Hill
#
# Bulk Modulus (GPa) = 47.15242 55.21717 51.18479
# Shear Modulus (GPa) = 33.09771 41.98425 37.54098
#
# Velocity S-wave (km/s) = 3.76812 4.24394 4.01309
# Velocity P-wave (km/s) = 6.25777 6.90670 6.59023
#
# Compressibility (1/GPa) = 0.02120782
#
# Stress axis : x y z
#
# Youngs Moduli (GPa) = 71.08393 66.13659 202.70040
#
# Poissons Ratio (x) = 0.30843 0.27743
# Poissons Ratio (y) = 0.33150 0.08608
# Poissons Ratio (z) = 0.09729 0.02808
#
# Static dielectric constant tensor:
#      x y z
#    x 4.003380 0.000000 0.000000 
#    y 0.000000 4.181580 0.000000 
#    z 0.000000 0.000000 5.656780 
# 
# 
# High freq. dielectric constant tensor:
#      x y z
#    x 1.922800 0.000000 0.000000 
#    y 0.000000 1.907130 0.000000 
#    z 0.000000 0.000000 1.970060 
# 
# From -- ./inp_files/422.got.cif
#   From: 2010.03.12/outbox.cif.g09.slc.cpg/sg54_1_cif.got.tgz:422.got - 2010.04.16 15:00:50.
