data_PCOD8222636
_publ_section_title
;
Structure prediction by ZEFSAII (Michael W. Deem and Ramdas Pophale) SiO2 
 PCOD8222636
Probable space group: P C C A
;
_chemical_formula_sum "Si O2"
_cell_formula_units_Z 64
_cell_length_a 18.338987
_cell_length_b 18.985961
_cell_length_c 9.492069
_cell_angle_alpha 90.000000
_cell_angle_beta 90.000000
_cell_angle_gamma 90.000000
_cell_volume 3304.979832
_symmetry_space_group_name_H-M "P C C A"
_symmetry_group_IT_number 54
_symmetry_cell_setting 'orthorhombic'
loop_
_space_group_symop_operation_xyz
x,y,z
1/2-x,-y,z
1/2+x,-y,1/2-z
-x,y,1/2-z
-x,-y,-z
1/2+x,y,-z
1/2-x,y,1/2+z
x,-y,1/2+z
loop_
_atom_site_type_symbol
_atom_site_label
_atom_site_fract_x
_atom_site_fract_y
_atom_site_fract_z
Si Si1 0.927218 0.935081 0.333373
Si Si2 0.917950 0.331010 0.253682
Si Si3 0.572087 0.926551 0.167624
Si Si4 0.088596 0.581167 0.481578
Si Si5 0.086311 0.329072 0.729775
Si Si6 0.079206 0.571496 0.993473
Si Si7 0.324190 0.804797 0.675770
Si Si8 0.321858 0.203030 0.850147
O O1 0.942911 0.945159 0.501878
O O2 0.863885 0.879164 0.310729
O O3 0.000000 0.910639 0.250000
O O4 0.899141 0.006192 0.256570
O O5 0.895178 0.358143 0.406222
O O6 0.862435 0.272383 0.203572
O O7 0.000000 0.299228 0.250000
O O8 0.915465 0.403686 0.166661
O O9 0.500000 0.900398 0.250000
O O10 0.630261 0.865207 0.180028
O O11 0.120210 0.615930 0.341069
O O12 0.122210 0.503213 0.512256
O O13 0.003836 0.564512 0.455772
O O14 0.111742 0.364197 0.583582
O O15 0.122693 0.253306 0.741795
O O16 0.000000 0.317346 0.750000
O O17 0.251858 0.807356 0.766287
O O18 0.304626 0.788075 0.514504
#
# Coordination Sequence:
#
# PCOD8222636 Si02
#       8
#     8   8   8   8   8   8   8   8
#     4  10  21  40  65  95 122 150 189 234 285 339
#     4  10  19  35  57  85 115 147 192 241 294 345
#     4  10  21  40  65  95 122 150 189 234 285 339
#     4   9  18  28  55  89 110 147 184 241 299 348
#     4  10  19  35  57  85 115 147 192 241 294 345
#     4   9  16  32  53  83 120 141 186 241 295 348
#     4  11  25  41  58  82 118 159 198 238 282 339
#     4  11  25  41  58  82 118 159 198 238 282 339
#
# _framework density 19.364718
#
# number of rings (size 3 to 8) (size 9 to 14) (size 15 to 20)
#    0.000    2.000    1.250    3.000    1.750    5.500 
#    0.000    2.500    0.000    4.500    0.000    0.000 
#    0.000    0.000    0.000    0.000    0.000    0.000 
#
# Total GULP energy -793120.675156 kJ/mol
# GULP energy per Si atom -12392.510549 kJ/mol
# Density = 1.932064 g / cm^3
# Si number density = 19.364718 Si / 1000 Ang^3
#
#
#
# Elastic Constant Matrix: (Units=GPa)
#
#
# Indices 1 2 3 4 5 6 
#
# 1 77.2305 61.1350 45.0114 0.0000 0.0000 0.0000
# 2 61.1350 113.5208 48.5663 0.0000 0.0000 0.0000
# 3 45.0114 48.5663 114.1806 0.0000 0.0000 0.0000
# 4 0.0000 0.0000 0.0000 -42.1022 0.0000 0.0000
# 5 0.0000 0.0000 0.0000 0.0000 27.3581 0.0000
# 6 0.0000 0.0000 0.0000 0.0000 0.0000 7.5126
#
#
#
# Elastic Compliance Matrix: (Units=1/GPa)
#
#
# Indices 1 2 3 4 5 6 
#
# 1 0.024691 -0.011165 -0.004985 0.000000 0.000000 0.000000
# 2 -0.011165 0.015817 -0.002326 0.000000 0.000000 0.000000
# 3 -0.004985 -0.002326 0.011713 0.000000 0.000000 0.000000
# 4 0.000000 0.000000 0.000000 -0.023752 0.000000 0.000000
# 5 0.000000 0.000000 0.000000 0.000000 0.036552 0.000000
# 6 0.000000 0.000000 0.000000 0.000000 0.000000 0.133109
#
#
# Mechanical properties :
#
#
# Convention : Reuss Voigt Hill
#
# Bulk Modulus (GPa) = 65.49143 68.26193 66.87668
# Shear Modulus (GPa) = 20.81849 8.56833 14.69341
#
# Velocity S-wave (km/s) = 3.28239 2.10578 2.75757
# Velocity P-wave (km/s) = 6.94686 6.42181 6.68949
#
# Compressibility (1/GPa) = 0.01526917
#
# Stress axis : x y z
#
# Youngs Moduli (GPa) = 40.50025 63.22417 85.37784
#
# Poissons Ratio (x) = 0.70587 0.42559
# Poissons Ratio (y) = 0.45217 0.19862
# Poissons Ratio (z) = 0.20188 0.14708
#
# Static dielectric constant tensor:
#      x y z
#    x 2.916010 0.000000 0.000000 
#    y 0.000000 3.669060 0.000000 
#    z 0.000000 0.000000 3.787300 
# 
# 
# High freq. dielectric constant tensor:
#      x y z
#    x 1.710340 0.000000 0.000000 
#    y 0.000000 1.770890 0.000000 
#    z 0.000000 0.000000 1.772300 
# 
# From -- ./inp_files/4389.got.cif
#   From: 2010.03.12/outbox.cif.g09.slc.cpg/sg54_3_cif.got.tgz:4389.got - 2010.04.16 15:00:50.
