data_PCOD8222988
_publ_section_title
;
Structure prediction by ZEFSAII (Michael W. Deem and Ramdas Pophale) SiO2 
 PCOD8222988
Probable space group: P C C A
;
_chemical_formula_sum "Si O2"
_cell_formula_units_Z 36
_cell_length_a 8.989490
_cell_length_b 17.382239
_cell_length_c 11.488078
_cell_angle_alpha 90.000000
_cell_angle_beta 90.000000
_cell_angle_gamma 90.000000
_cell_volume 1795.097931
_symmetry_space_group_name_H-M "P C C A"
_symmetry_group_IT_number 54
_symmetry_cell_setting 'orthorhombic'
loop_
_space_group_symop_operation_xyz
x,y,z
1/2-x,-y,z
1/2+x,-y,1/2-z
-x,y,1/2-z
-x,-y,-z
1/2+x,y,-z
1/2-x,y,1/2+z
x,-y,1/2+z
loop_
_atom_site_type_symbol
_atom_site_label
_atom_site_fract_x
_atom_site_fract_y
_atom_site_fract_z
Si Si1 0.250000 0.500000 0.093871
Si Si2 0.495884 0.903560 0.114178
Si Si3 0.539557 0.731662 0.114508
Si Si4 0.250000 0.000000 0.502158
Si Si5 0.000000 0.556913 0.250000
Si Si6 0.324144 0.357298 0.446519
O O1 0.103659 0.500133 0.174625
O O2 0.260536 0.426233 0.011216
O O3 0.500000 0.897774 0.250000
O O4 0.517533 0.817798 0.064399
O O5 0.335056 0.936861 0.079320
O O6 0.629595 0.958172 0.076831
O O7 0.500000 0.724052 0.250000
O O8 0.710025 0.707759 0.095403
O O9 0.437636 0.676594 0.038896
O O10 0.095315 0.612446 0.331547
#
# Coordination Sequence:
#
# PCOD8222988 Si02
#       6
#     4   8   8   4   4   8
#     4  12  26  44  66  94 124 164 220 264 328 384
#     4  10  21  39  63  95 125 167 207 255 311 369
#     4  11  25  42  66  92 133 169 211 266 321 383
#     4  10  20  38  66  92 130 162 210 254 304 374
#     4  12  26  42  68  92 122 166 220 272 326 384
#     4  12  25  45  63  94 126 169 216 267 324 383
#
# _framework density 20.054618000000001
#
# number of rings (size 3 to 8) (size 9 to 14) (size 15 to 20)
#    0.000    0.889    2.222    4.667    4.667    0.000 
#    0.000    0.000    4.889    0.000    0.000    0.000 
#    0.000    0.000    0.000    0.000    0.000    0.000 
#
# Total GULP energy -446562.326190 kJ/mol
# GULP energy per Si atom -12404.509061 kJ/mol
# Density = 2.000897 g / cm^3
# Si number density = 20.054618 Si / 1000 Ang^3
#
#
#
# Elastic Constant Matrix: (Units=GPa)
#
#
# Indices 1 2 3 4 5 6 
#
# 1 111.3520 35.0829 26.5826 0.0000 0.0000 0.0000
# 2 35.0829 111.1080 29.2263 0.0000 0.0000 0.0000
# 3 26.5826 29.2263 77.9160 0.0000 0.0000 0.0000
# 4 0.0000 0.0000 0.0000 28.7853 0.0000 0.0000
# 5 0.0000 0.0000 0.0000 0.0000 26.9034 0.0000
# 6 0.0000 0.0000 0.0000 0.0000 0.0000 43.5525
#
#
#
# Elastic Compliance Matrix: (Units=1/GPa)
#
#
# Indices 1 2 3 4 5 6 
#
# 1 0.010418 -0.002612 -0.002574 0.000000 0.000000 0.000000
# 2 -0.002612 0.010641 -0.003100 0.000000 0.000000 0.000000
# 3 -0.002574 -0.003100 0.014875 0.000000 0.000000 0.000000
# 4 0.000000 0.000000 0.000000 0.034740 0.000000 0.000000
# 5 0.000000 0.000000 0.000000 0.000000 0.037170 0.000000
# 6 0.000000 0.000000 0.000000 0.000000 0.000000 0.022961
#
#
# Mechanical properties :
#
#
# Convention : Reuss Voigt Hill
#
# Bulk Modulus (GPa) = 51.65155 53.57329 52.61242
# Shear Modulus (GPa) = 32.50294 33.81386 33.15840
#
# Velocity S-wave (km/s) = 4.03019 4.11066 4.07062
# Velocity P-wave (km/s) = 6.88969 7.02152 6.95592
#
# Compressibility (1/GPa) = 0.01936050
#
# Stress axis : x y z
#
# Youngs Moduli (GPa) = 95.98598 93.97997 67.22472
#
# Poissons Ratio (x) = 0.24551 0.17307
# Poissons Ratio (y) = 0.25075 0.20840
# Poissons Ratio (z) = 0.24711 0.29134
#
# Static dielectric constant tensor:
#      x y z
#    x 3.579920 0.000000 0.000000 
#    y 0.000000 3.995890 0.000000 
#    z 0.000000 0.000000 3.711830 
# 
# 
# High freq. dielectric constant tensor:
#      x y z
#    x 1.796560 0.000000 0.000000 
#    y 0.000000 1.791850 0.000000 
#    z 0.000000 0.000000 1.792670 
# 
# From -- ./inp_files/2507.got.cif
#   From: 2010.03.12/outbox.cif.g09.slc.cpg/sg54_2_cif.got.tgz:2507.got - 2010.04.16 15:00:50.
