data_PCOD8222107
_publ_section_title
;
Structure prediction by ZEFSAII (Michael W. Deem and Ramdas Pophale) SiO2 
 PCOD8222107
Probable space group: P M N A
;
_chemical_formula_sum "Si O2"
_cell_formula_units_Z 56
_cell_length_a 17.183620
_cell_length_b 16.547249
_cell_length_c 9.507583
_cell_angle_alpha 90.000000
_cell_angle_beta 90.000000
_cell_angle_gamma 90.000000
_cell_volume 2703.401732
_symmetry_space_group_name_H-M "P M N A"
_symmetry_group_IT_number 53
_symmetry_cell_setting 'orthorhombic'
loop_
_space_group_symop_operation_xyz
x,y,z
1/2-x,-y,1/2+z
x,-y,-z
1/2-x,y,1/2-z
-x,-y,-z
1/2+x,y,1/2-z
-x,y,z
1/2+x,-y,1/2+z
loop_
_atom_site_type_symbol
_atom_site_label
_atom_site_fract_x
_atom_site_fract_y
_atom_site_fract_z
Si Si1 0.092882 0.499282 0.160115
Si Si2 0.092076 0.647736 0.344167
Si Si3 0.407507 0.347653 0.162035
Si Si4 0.909190 0.175746 0.223076
Si Si5 0.589747 0.174562 0.781675
Si Si6 0.340234 0.909178 0.968635
Si Si7 0.160434 0.092596 0.972279
O O1 0.125758 0.576392 0.246326
O O2 0.124275 0.420104 0.240634
O O3 0.000000 0.501105 0.157782
O O4 0.124930 0.500000 0.000000
O O5 0.126420 0.643701 0.503331
O O6 0.114060 0.731663 0.267580
O O7 0.000000 0.639720 0.357134
O O8 0.500000 0.350305 0.157260
O O9 0.379312 0.264773 0.234900
O O10 0.859281 0.109027 0.306945
O O11 0.000000 0.166179 0.254555
O O12 0.891464 0.155725 0.061139
O O13 0.500000 0.161541 0.742012
O O14 0.604671 0.150273 0.942730
O O15 0.643613 0.116149 0.688499
O O16 0.250403 0.893046 0.998184
O O17 0.364477 0.000000 0.000000
O O18 0.135731 0.000000 0.000000
#
# Coordination Sequence:
#
# PCOD8222107 Si02
#       7
#     8   8   8   8   8   8   8
#     4   9  17  27  47  79 116 153 182 222 287 348
#     4   9  17  31  50  78 114 149 187 234 285 337
#     4   9  17  31  50  78 114 149 187 234 285 337
#     4  11  22  37  60  89 118 150 195 247 295 342
#     4  11  22  37  60  89 118 150 195 247 295 342
#     4  11  23  41  61  82 113 156 202 241 285 355
#     4  11  25  41  57  82 119 158 194 241 301 355
#
# _framework density 20.714641
#
# number of rings (size 3 to 8) (size 9 to 14) (size 15 to 20)
#    0.000    1.857    1.429    3.000    2.000    7.429 
#    0.000    0.000    0.000    0.000    0.000    6.000 
#    0.000    0.000    0.000    0.000    0.000    0.000 
#
# Total GULP energy -694515.316698 kJ/mol
# GULP energy per Si atom -12402.059227 kJ/mol
# Density = 2.066749 g / cm^3
# Si number density = 20.714641 Si / 1000 Ang^3
#
#
#
# Elastic Constant Matrix: (Units=GPa)
#
#
# Indices 1 2 3 4 5 6 
#
# 1 36.3398 29.0927 11.3235 0.0000 0.0000 0.0000
# 2 29.0927 150.6927 51.3452 0.0000 0.0000 0.0000
# 3 11.3235 51.3452 108.0254 0.0000 0.0000 0.0000
# 4 0.0000 0.0000 0.0000 44.5089 0.0000 0.0000
# 5 0.0000 0.0000 0.0000 0.0000 22.3817 0.0000
# 6 0.0000 0.0000 0.0000 0.0000 0.0000 3.4295
#
#
#
# Elastic Compliance Matrix: (Units=1/GPa)
#
#
# Indices 1 2 3 4 5 6 
#
# 1 0.032572 -0.006115 -0.000508 0.000000 0.000000 0.000000
# 2 -0.006115 0.009067 -0.003668 0.000000 0.000000 0.000000
# 3 -0.000508 -0.003668 0.011054 0.000000 0.000000 0.000000
# 4 0.000000 0.000000 0.000000 0.022467 0.000000 0.000000
# 5 0.000000 0.000000 0.000000 0.000000 0.044679 0.000000
# 6 0.000000 0.000000 0.000000 0.000000 0.000000 0.291591
#
#
# Mechanical properties :
#
#
# Convention : Reuss Voigt Hill
#
# Bulk Modulus (GPa) = 31.14318 53.17561 42.15940
# Shear Modulus (GPa) = 11.29391 27.61711 19.45551
#
# Velocity S-wave (km/s) = 2.33751 3.65529 3.06799
# Velocity P-wave (km/s) = 4.72782 6.59857 5.73992
#
# Compressibility (1/GPa) = 0.03210976
#
# Stress axis : x y z
#
# Youngs Moduli (GPa) = 30.70121 110.29530 90.46587
#
# Poissons Ratio (x) = 0.67450 0.04592
# Poissons Ratio (y) = 0.18775 0.33186
# Poissons Ratio (z) = 0.01558 0.40460
#
# Static dielectric constant tensor:
#      x y z
#    x 3.151850 0.000000 0.000000 
#    y 0.000000 3.944490 0.000000 
#    z 0.000000 0.000000 3.851430 
# 
# 
# High freq. dielectric constant tensor:
#      x y z
#    x 1.761010 0.000000 0.000000 
#    y 0.000000 1.822590 0.000000 
#    z 0.000000 0.000000 1.823930 
# 
# From -- ./inp_files/11087.got.cif
#   From: 2010.03.12/outbox.cif.g09.slc.cpg/sg53_6_cif.got.tgz:11087.got - 2010.04.16 14:36:59.
