data_PCOD8222895
_publ_section_title
;
Structure prediction by ZEFSAII (Michael W. Deem and Ramdas Pophale) SiO2 
 PCOD8222895
Probable space group: P C C A
;
_chemical_formula_sum "Si O2"
_cell_formula_units_Z 40
_cell_length_a 8.832889
_cell_length_b 8.925734
_cell_length_c 26.154209
_cell_angle_alpha 90.000000
_cell_angle_beta 90.000000
_cell_angle_gamma 90.000000
_cell_volume 2061.998300
_symmetry_space_group_name_H-M "P C C A"
_symmetry_group_IT_number 54
_symmetry_cell_setting 'orthorhombic'
loop_
_space_group_symop_operation_xyz
x,y,z
1/2-x,-y,z
1/2+x,-y,1/2-z
-x,y,1/2-z
-x,-y,-z
1/2+x,y,-z
1/2-x,y,1/2+z
x,-y,1/2+z
loop_
_atom_site_type_symbol
_atom_site_label
_atom_site_fract_x
_atom_site_fract_y
_atom_site_fract_z
Si Si1 0.250000 0.000000 0.850276
Si Si2 0.250000 0.500000 0.851210
Si Si3 0.776582 0.328432 0.384821
Si Si4 0.559514 0.244618 0.096661
Si Si5 0.041798 0.253065 0.308530
Si Si6 0.628695 0.384172 0.998089
O O1 0.135578 0.093208 0.884963
O O2 0.353609 0.107971 0.816448
O O3 0.356740 0.606257 0.884410
O O4 0.361082 0.402458 0.816371
O O5 0.750000 0.500000 0.368415
O O6 0.615251 0.243242 0.385146
O O7 0.843768 0.317411 0.441848
O O8 0.893263 0.250971 0.345251
O O9 0.584860 0.246298 0.035328
O O10 0.000000 0.249806 0.250000
O O11 0.750000 0.500000 0.019508
O O12 0.500000 0.500000 0.000000
#
# Coordination Sequence:
#
# PCOD8222895 Si02
#       6
#     4   4   8   8   8   8
#     4  10  28  44  62  92 130 186 206 256 322 408
#     4  10  20  36  66  94 122 154 220 268 304 376
#     4  11  22  38  65 101 125 160 215 274 321 367
#     4  11  21  40  63  95 133 168 209 256 321 389
#     4  11  25  44  66  92 128 166 218 268 328 372
#     4  11  19  33  64  99 128 163 207 262 330 368
#
# _framework density 19.39866
#
# number of rings (size 3 to 8) (size 9 to 14) (size 15 to 20)
#    0.000    1.200    7.000    0.000    4.200    2.400 
#    0.000    8.000    0.000    0.000    0.000    0.000 
#    0.000    0.000    0.000    0.000    0.000    0.000 
#
# Total GULP energy -495622.780871 kJ/mol
# GULP energy per Si atom -12390.569522 kJ/mol
# Density = 1.935451 g / cm^3
# Si number density = 19.398660 Si / 1000 Ang^3
#
#
#
# Elastic Constant Matrix: (Units=GPa)
#
#
# Indices 1 2 3 4 5 6 
#
# 1 171.5881 53.9633 68.4417 0.0000 0.0000 0.0000
# 2 53.9633 99.6215 51.1739 0.0000 0.0000 0.0000
# 3 68.4417 51.1739 128.2753 0.0000 0.0000 0.0000
# 4 0.0000 0.0000 0.0000 16.3634 0.0000 0.0000
# 5 0.0000 0.0000 0.0000 0.0000 33.7691 0.0000
# 6 0.0000 0.0000 0.0000 0.0000 0.0000 28.6807
#
#
#
# Elastic Compliance Matrix: (Units=1/GPa)
#
#
# Indices 1 2 3 4 5 6 
#
# 1 0.007930 -0.002669 -0.003166 0.000000 0.000000 0.000000
# 2 -0.002669 0.013524 -0.003971 0.000000 0.000000 0.000000
# 3 -0.003166 -0.003971 0.011069 0.000000 0.000000 0.000000
# 4 0.000000 0.000000 0.000000 0.061112 0.000000 0.000000
# 5 0.000000 0.000000 0.000000 0.000000 0.029613 0.000000
# 6 0.000000 0.000000 0.000000 0.000000 0.000000 0.034867
#
#
# Mechanical properties :
#
#
# Convention : Reuss Voigt Hill
#
# Bulk Modulus (GPa) = 77.45793 82.96030 80.20912
# Shear Modulus (GPa) = 27.46778 30.82304 29.14541
#
# Velocity S-wave (km/s) = 3.76701 3.99046 3.88034
# Velocity P-wave (km/s) = 7.67702 8.00565 7.84306
#
# Compressibility (1/GPa) = 0.01291023
#
# Stress axis : x y z
#
# Youngs Moduli (GPa) = 126.09778 73.94441 90.33958
#
# Poissons Ratio (x) = 0.19737 0.28605
# Poissons Ratio (y) = 0.33658 0.35873
# Poissons Ratio (z) = 0.39928 0.29363
#
# Static dielectric constant tensor:
#      x y z
#    x 3.854160 0.000000 0.000000 
#    y 0.000000 3.458670 0.000000 
#    z 0.000000 0.000000 3.329970 
# 
# 
# High freq. dielectric constant tensor:
#      x y z
#    x 1.784360 0.000000 0.000000 
#    y 0.000000 1.737920 0.000000 
#    z 0.000000 0.000000 1.749790 
# 
# From -- ./inp_files/23339.got.cif
#   From: 2010.03.12/outbox.cif.g09.slc.cpg/sg54_12_cif.got.tgz:23339.got - 2010.04.16 15:00:50.
