data_PCOD8222759
_publ_section_title
;
Structure prediction by ZEFSAII (Michael W. Deem and Ramdas Pophale) SiO2 
 PCOD8222759
Probable space group: P C C A
;
_chemical_formula_sum "Si O2"
_cell_formula_units_Z 64
_cell_length_a 9.708799
_cell_length_b 12.351379
_cell_length_c 29.522161
_cell_angle_alpha 90.000000
_cell_angle_beta 90.000000
_cell_angle_gamma 90.000000
_cell_volume 3540.210636
_symmetry_space_group_name_H-M "P C C A"
_symmetry_group_IT_number 54
_symmetry_cell_setting 'orthorhombic'
loop_
_space_group_symop_operation_xyz
x,y,z
1/2-x,-y,z
1/2+x,-y,1/2-z
-x,y,1/2-z
-x,-y,-z
1/2+x,y,-z
1/2-x,y,1/2+z
x,-y,1/2+z
loop_
_atom_site_type_symbol
_atom_site_label
_atom_site_fract_x
_atom_site_fract_y
_atom_site_fract_z
Si Si1 0.942545 0.694638 0.141943
Si Si2 0.216298 0.623859 0.108446
Si Si3 0.224314 0.626349 0.922647
Si Si4 0.094120 0.880125 0.291750
Si Si5 0.589193 0.872242 0.207806
Si Si6 0.129111 0.421043 0.513097
Si Si7 0.000541 0.678984 0.850639
Si Si8 0.596966 0.486593 0.210282
O O1 0.862160 0.689639 0.093323
O O2 0.932239 0.813877 0.162518
O O3 0.870223 0.604531 0.172917
O O4 0.101965 0.664163 0.143091
O O5 0.250000 0.500000 0.117320
O O6 0.135486 0.647095 0.060256
O O7 0.353930 0.688334 0.123262
O O8 0.250000 0.500000 0.929039
O O9 0.103441 0.640246 0.888279
O O10 0.168897 0.662448 0.972479
O O11 0.252058 0.861577 0.277711
O O12 0.000000 0.839887 0.250000
O O13 0.057362 0.003398 0.304602
O O14 0.500000 0.832234 0.250000
O O15 0.545750 0.798201 0.165516
O O16 0.250000 0.500000 0.525448
O O17 0.000000 0.500000 0.500000
O O18 0.017762 0.592707 0.809682
O O19 0.750000 0.500000 0.230941
O O20 0.500000 0.440976 0.250000
#
# Coordination Sequence:
#
# PCOD8222759 Si02
#       8
#     8   8   8   8   8   8   8   8
#     4  12  21  36  54  79 112 148 183 223 280 331
#     4  11  22  35  53  85 116 150 184 227 271 335
#     4  11  18  35  56  77 113 150 178 228 275 340
#     4  10  22  40  60  82 107 143 192 239 283 328
#     4  10  22  40  60  82 108 142 190 243 282 322
#     4  10  20  33  54  81 113 152 188 224 277 327
#     4  12  21  36  54  80 114 147 184 226 281 331
#     4  12  24  35  51  75 110 146 182 220 278 341
#
# _framework density 18.078021
#
# number of rings (size 3 to 8) (size 9 to 14) (size 15 to 20)
#    0.000    1.000    5.000    3.750    3.500    0.000 
#    0.000    0.000    0.000    0.000    0.000    5.250 
#    0.000    0.000    0.000    0.000    0.000    0.000 
#
# Total GULP energy -792850.953551 kJ/mol
# GULP energy per Si atom -12388.296149 kJ/mol
# Density = 1.803687 g / cm^3
# Si number density = 18.078021 Si / 1000 Ang^3
#
#
#
# Elastic Constant Matrix: (Units=GPa)
#
#
# Indices 1 2 3 4 5 6 
#
# 1 122.6112 12.3697 30.7187 0.0000 0.0000 0.0000
# 2 12.3697 58.4935 26.7171 0.0000 0.0000 0.0000
# 3 30.7187 26.7171 70.8172 0.0000 0.0000 0.0000
# 4 0.0000 0.0000 0.0000 22.5137 0.0000 0.0000
# 5 0.0000 0.0000 0.0000 0.0000 21.8218 0.0000
# 6 0.0000 0.0000 0.0000 0.0000 0.0000 21.4461
#
#
#
# Elastic Compliance Matrix: (Units=1/GPa)
#
#
# Indices 1 2 3 4 5 6 
#
# 1 0.009151 -0.000148 -0.003914 0.000000 0.000000 0.000000
# 2 -0.000148 0.020658 -0.007729 0.000000 0.000000 0.000000
# 3 -0.003914 -0.007729 0.018735 0.000000 0.000000 0.000000
# 4 0.000000 0.000000 0.000000 0.044417 0.000000 0.000000
# 5 0.000000 0.000000 0.000000 0.000000 0.045826 0.000000
# 6 0.000000 0.000000 0.000000 0.000000 0.000000 0.046629
#
#
# Mechanical properties :
#
#
# Convention : Reuss Voigt Hill
#
# Bulk Modulus (GPa) = 40.06131 43.50364 41.78248
# Shear Modulus (GPa) = 23.00777 25.29740 24.15259
#
# Velocity S-wave (km/s) = 3.57135 3.74484 3.65913
# Velocity P-wave (km/s) = 6.26214 6.54332 6.40428
#
# Compressibility (1/GPa) = 0.02496174
#
# Stress axis : x y z
#
# Youngs Moduli (GPa) = 109.27361 48.40845 53.37686
#
# Poissons Ratio (x) = 0.00714 0.20891
# Poissons Ratio (y) = 0.01612 0.41257
# Poissons Ratio (z) = 0.42769 0.37417
#
# Static dielectric constant tensor:
#      x y z
#    x 3.675820 0.000000 0.000000 
#    y 0.000000 3.099880 0.000000 
#    z 0.000000 0.000000 3.858560 
# 
# 
# High freq. dielectric constant tensor:
#      x y z
#    x 1.726460 0.000000 0.000000 
#    y 0.000000 1.654760 0.000000 
#    z 0.000000 0.000000 1.700740 
# 
# From -- ./inp_files/27926.got.cif
#   From: 2010.03.12/outbox.cif.g09.slc.cpg/sg54_14_cif.got.tgz:27926.got - 2010.04.16 15:00:50.
