data_PCOD8222302
_publ_section_title
;
Structure prediction by ZEFSAII (Michael W. Deem and Ramdas Pophale) SiO2 
 PCOD8222302
Probable space group: P C C A
;
_chemical_formula_sum "Si O2"
_cell_formula_units_Z 32
_cell_length_a 12.294416
_cell_length_b 16.788333
_cell_length_c 5.397000
_cell_angle_alpha 90.000000
_cell_angle_beta 90.000000
_cell_angle_gamma 90.000000
_cell_volume 1113.955641
_symmetry_space_group_name_H-M "P C C A"
_symmetry_group_IT_number 54
_symmetry_cell_setting 'orthorhombic'
loop_
_space_group_symop_operation_xyz
x,y,z
1/2-x,-y,z
1/2+x,-y,1/2-z
-x,y,1/2-z
-x,-y,-z
1/2+x,y,-z
1/2-x,y,1/2+z
x,-y,1/2+z
loop_
_atom_site_type_symbol
_atom_site_label
_atom_site_fract_x
_atom_site_fract_y
_atom_site_fract_z
Si Si1 0.872220 0.282822 0.117241
Si Si2 0.119966 0.466252 0.313996
Si Si3 0.871497 0.218174 0.614883
Si Si4 0.371732 0.967777 0.886990
O O1 0.873507 0.377077 0.083565
O O2 0.930264 0.262524 0.381835
O O3 0.750204 0.250740 0.154937
O O4 0.928849 0.238303 0.880329
O O5 0.173435 0.521244 0.535854
O O6 0.000000 0.497129 0.250000
O O7 0.870494 0.125195 0.556962
O O8 0.250000 0.000000 0.842090
O O9 0.429070 0.985689 0.619314
#
# Coordination Sequence:
#
# PCOD8222302 Si02
#       4
#     8   8   8   8
#     4  10  18  32  48  67  97 126 148 191 241 276
#     4  10  21  37  54  70  89 118 160 202 234 273
#     4  10  19  30  45  72 104 125 151 189 231 283
#     4  10  16  25  41  63  96 129 156 182 215 266
#
# _framework density 28.726455999999999
#
# number of rings (size 3 to 8) (size 9 to 14) (size 15 to 20)
#    0.000    2.000    0.000    9.000    0.000    0.000 
#    0.000   15.000    0.000    0.000    0.000    0.000 
#    0.000   74.000    0.000    0.000    0.000    0.000 
#
# Total GULP energy -396727.361093 kJ/mol
# GULP energy per Si atom -12397.730034 kJ/mol
# Density = 2.866107 g / cm^3
# Si number density = 28.726456 Si / 1000 Ang^3
#
#
#
# Elastic Constant Matrix: (Units=GPa)
#
#
# Indices 1 2 3 4 5 6 
#
# 1 70.1062 -21.7759 14.4665 0.0000 0.0000 0.0000
# 2 -21.7759 177.2724 51.5682 0.0000 0.0000 0.0000
# 3 14.4665 51.5682 290.8398 0.0000 0.0000 0.0000
# 4 0.0000 0.0000 0.0000 64.1573 0.0000 0.0000
# 5 0.0000 0.0000 0.0000 0.0000 232.9270 0.0000
# 6 0.0000 0.0000 0.0000 0.0000 0.0000 19.0504
#
#
#
# Elastic Compliance Matrix: (Units=1/GPa)
#
#
# Indices 1 2 3 4 5 6 
#
# 1 0.015183 0.002198 -0.001145 0.000000 0.000000 0.000000
# 2 0.002198 0.006266 -0.001220 0.000000 0.000000 0.000000
# 3 -0.001145 -0.001220 0.003712 0.000000 0.000000 0.000000
# 4 0.000000 0.000000 0.000000 0.015587 0.000000 0.000000
# 5 0.000000 0.000000 0.000000 0.000000 0.004293 0.000000
# 6 0.000000 0.000000 0.000000 0.000000 0.000000 0.052492
#
#
# Mechanical properties :
#
#
# Convention : Reuss Voigt Hill
#
# Bulk Modulus (GPa) = 40.27961 69.63732 54.95846
# Shear Modulus (GPa) = 47.10628 96.15756 71.63192
#
# Velocity S-wave (km/s) = 4.05387 5.79191 4.99900
# Velocity P-wave (km/s) = 5.99700 8.30797 7.24522
#
# Compressibility (1/GPa) = 0.02482646
#
# Stress axis : x y z
#
# Youngs Moduli (GPa) = 65.86263 159.59008 269.42201
#
# Poissons Ratio (x) = -0.35080 0.30848
# Poissons Ratio (y) = -0.14478 0.32879
# Poissons Ratio (z) = 0.07541 0.19476
#
# Static dielectric constant tensor:
#      x y z
#    x 5.612680 0.000000 0.000000 
#    y 0.000000 4.491830 0.000000 
#    z 0.000000 0.000000 7.372700 
# 
# 
# High freq. dielectric constant tensor:
#      x y z
#    x 2.243840 0.000000 0.000000 
#    y 0.000000 2.128670 0.000000 
#    z 0.000000 0.000000 2.225790 
# 
# From -- ./inp_files/857.got.cif
#   From: 2010.03.12/outbox.cif.g09.slc.cpg/sg54_1_cif.got.tgz:857.got - 2010.04.16 15:00:50.
