data_PCOD8222595
_publ_section_title
;
Structure prediction by ZEFSAII (Michael W. Deem and Ramdas Pophale) SiO2 
 PCOD8222595
Probable space group: P C C A
;
_chemical_formula_sum "Si O2"
_cell_formula_units_Z 48
_cell_length_a 17.591910
_cell_length_b 8.619471
_cell_length_c 15.291008
_cell_angle_alpha 90.000000
_cell_angle_beta 90.000000
_cell_angle_gamma 90.000000
_cell_volume 2318.620775
_symmetry_space_group_name_H-M "P C C A"
_symmetry_group_IT_number 54
_symmetry_cell_setting 'orthorhombic'
loop_
_space_group_symop_operation_xyz
x,y,z
1/2-x,-y,z
1/2+x,-y,1/2-z
-x,y,1/2-z
-x,-y,-z
1/2+x,y,-z
1/2-x,y,1/2+z
x,-y,1/2+z
loop_
_atom_site_type_symbol
_atom_site_label
_atom_site_fract_x
_atom_site_fract_y
_atom_site_fract_z
Si Si1 0.081978 0.950725 0.036933
Si Si2 0.397880 0.404354 0.417588
Si Si3 0.090446 0.577983 0.749992
Si Si4 0.831515 0.074049 0.621437
Si Si5 0.922876 0.604686 0.416447
Si Si6 0.412704 0.081247 0.725007
O O1 0.102452 0.775396 0.060328
O O2 0.099375 0.048177 0.123145
O O3 0.139896 0.976736 0.959762
O O4 0.000000 0.000000 0.000000
O O5 0.373852 0.521359 0.340874
O O6 0.343347 0.254230 0.407056
O O7 0.486885 0.370791 0.406892
O O8 0.390662 0.484647 0.511788
O O9 0.113504 0.457547 0.673638
O O10 0.125004 0.749478 0.737387
O O11 0.000000 0.592668 0.750000
O O12 0.750000 0.000000 0.639735
O O13 0.876302 0.047799 0.712071
O O14 0.500000 0.082604 0.750000
#
# Coordination Sequence:
#
# PCOD8222595 Si02
#       6
#     8   8   8   8   8   8
#     4  12  22  38  66  94 127 168 223 274 325 399
#     4  10  19  35  58  87 127 162 209 266 329 392
#     4   9  19  32  57  92 121 154 208 270 322 376
#     4  12  26  42  62  95 134 174 216 277 346 407
#     4  10  19  33  60  93 121 159 212 272 320 382
#     4  11  21  39  66  93 125 167 222 272 325 400
#
# _framework density 20.701962999999999
#
# number of rings (size 3 to 8) (size 9 to 14) (size 15 to 20)
#    0.000    1.333    3.333    3.000    4.667    2.000 
#    0.000    3.333    0.000    2.000    0.000    0.000 
#    0.000    0.000    0.000    0.000    0.000    0.000 
#
# Total GULP energy -594726.442269 kJ/mol
# GULP energy per Si atom -12390.134214 kJ/mol
# Density = 2.065484 g / cm^3
# Si number density = 20.701963 Si / 1000 Ang^3
#
#
#
# Elastic Constant Matrix: (Units=GPa)
#
#
# Indices 1 2 3 4 5 6 
#
# 1 45.5229 27.3413 23.2802 0.0000 0.0000 0.0000
# 2 27.3413 122.4499 19.1224 0.0000 0.0000 0.0000
# 3 23.2802 19.1224 129.9091 0.0000 0.0000 0.0000
# 4 0.0000 0.0000 0.0000 26.2909 0.0000 0.0000
# 5 0.0000 0.0000 0.0000 0.0000 14.8833 0.0000
# 6 0.0000 0.0000 0.0000 0.0000 0.0000 21.2450
#
#
#
# Elastic Compliance Matrix: (Units=1/GPa)
#
#
# Indices 1 2 3 4 5 6 
#
# 1 0.027344 -0.005466 -0.004096 0.000000 0.000000 0.000000
# 2 -0.005466 0.009451 -0.000412 0.000000 0.000000 0.000000
# 3 -0.004096 -0.000412 0.008492 0.000000 0.000000 0.000000
# 4 0.000000 0.000000 0.000000 0.038036 0.000000 0.000000
# 5 0.000000 0.000000 0.000000 0.000000 0.067190 0.000000
# 6 0.000000 0.000000 0.000000 0.000000 0.000000 0.047070
#
#
# Mechanical properties :
#
#
# Convention : Reuss Voigt Hill
#
# Bulk Modulus (GPa) = 39.46124 48.59663 44.02894
# Shear Modulus (GPa) = 22.12614 27.69305 24.90960
#
# Velocity S-wave (km/s) = 3.27279 3.66143 3.47255
# Velocity P-wave (km/s) = 5.77793 6.43429 6.11492
#
# Compressibility (1/GPa) = 0.02534132
#
# Stress axis : x y z
#
# Youngs Moduli (GPa) = 36.57059 105.80470 117.75446
#
# Poissons Ratio (x) = 0.57833 0.48228
# Poissons Ratio (y) = 0.19990 0.04848
# Poissons Ratio (z) = 0.14978 0.04356
#
# Static dielectric constant tensor:
#      x y z
#    x 3.288850 0.000000 0.000000 
#    y 0.000000 4.523700 0.000000 
#    z 0.000000 0.000000 4.036790 
# 
# 
# High freq. dielectric constant tensor:
#      x y z
#    x 1.749210 0.000000 0.000000 
#    y 0.000000 1.828070 0.000000 
#    z 0.000000 0.000000 1.835800 
# 
# From -- ./inp_files/14070.got.cif
#   From: 2010.03.12/outbox.cif.g09.slc.cpg/sg54_8_cif.got.tgz:14070.got - 2010.04.16 15:00:50.
