data_PCOD8222715
_publ_section_title
;
Structure prediction by ZEFSAII (Michael W. Deem and Ramdas Pophale) SiO2 
 PCOD8222715
Probable space group: P C C A
;
_chemical_formula_sum "Si O2"
_cell_formula_units_Z 40
_cell_length_a 9.734189
_cell_length_b 8.108561
_cell_length_c 23.001495
_cell_angle_alpha 90.000000
_cell_angle_beta 90.000000
_cell_angle_gamma 90.000000
_cell_volume 1815.514102
_symmetry_space_group_name_H-M "P C C A"
_symmetry_group_IT_number 54
_symmetry_cell_setting 'orthorhombic'
loop_
_space_group_symop_operation_xyz
x,y,z
1/2-x,-y,z
1/2+x,-y,1/2-z
-x,y,1/2-z
-x,-y,-z
1/2+x,y,-z
1/2-x,y,1/2+z
x,-y,1/2+z
loop_
_atom_site_type_symbol
_atom_site_label
_atom_site_fract_x
_atom_site_fract_y
_atom_site_fract_z
Si Si1 0.000000 0.805745 0.250000
Si Si2 0.992805 0.753464 0.122317
Si Si3 0.579562 0.131611 0.880620
Si Si4 0.704829 0.814381 0.085178
Si Si5 0.714193 0.681580 0.962062
Si Si6 0.750000 0.000000 0.282273
O O1 0.985055 0.704255 0.309689
O O2 0.136911 0.916592 0.259104
O O3 0.836071 0.708211 0.105764
O O4 0.090586 0.642975 0.082753
O O5 0.044365 0.939272 0.107802
O O6 0.431511 0.223660 0.875815
O O7 0.662823 0.213963 0.933145
O O8 0.672284 0.137789 0.822310
O O9 0.750000 0.000000 0.094416
O O10 0.665352 0.782709 0.018253
O O11 0.750000 0.500000 0.984059
#
# Coordination Sequence:
#
# PCOD8222715 Si02
#       6
#     4   8   8   8   8   4
#     4  10  20  34  64  92 122 144 194 246 304 354
#     4  10  21  39  60  93 120 154 196 251 302 359
#     4  10  19  39  56  89 118 150 193 246 306 349
#     4  10  22  35  61  87 122 155 197 246 306 357
#     4  12  23  38  59  85 123 166 204 244 296 354
#     4  10  20  34  62  92 118 146 192 250 300 360
#
# _framework density 22.032326999999999
#
# number of rings (size 3 to 8) (size 9 to 14) (size 15 to 20)
#    0.000    1.600    4.000    2.400    7.000    6.400 
#    0.000    0.000    0.000    8.400    0.000    0.000 
#    0.000    0.000    0.000    0.000    0.000    0.000 
#
# Total GULP energy -495655.370857 kJ/mol
# GULP energy per Si atom -12391.384271 kJ/mol
# Density = 2.198218 g / cm^3
# Si number density = 22.032327 Si / 1000 Ang^3
#
#
#
# Elastic Constant Matrix: (Units=GPa)
#
#
# Indices 1 2 3 4 5 6 
#
# 1 170.9887 7.6923 44.4171 0.0000 0.0000 0.0000
# 2 7.6923 15.0750 -1.7645 0.0000 0.0000 0.0000
# 3 44.4171 -1.7645 100.5009 0.0000 0.0000 0.0000
# 4 0.0000 0.0000 0.0000 4.7427 0.0000 0.0000
# 5 0.0000 0.0000 0.0000 0.0000 41.5404 0.0000
# 6 0.0000 0.0000 0.0000 0.0000 0.0000 11.4032
#
#
#
# Elastic Compliance Matrix: (Units=1/GPa)
#
#
# Indices 1 2 3 4 5 6 
#
# 1 0.006822 -0.003842 -0.003082 0.000000 0.000000 0.000000
# 2 -0.003842 0.068635 0.002903 0.000000 0.000000 0.000000
# 3 -0.003082 0.002903 0.011363 0.000000 0.000000 0.000000
# 4 0.000000 0.000000 0.000000 0.210849 0.000000 0.000000
# 5 0.000000 0.000000 0.000000 0.000000 0.024073 0.000000
# 6 0.000000 0.000000 0.000000 0.000000 0.000000 0.087694
#
#
# Mechanical properties :
#
#
# Convention : Reuss Voigt Hill
#
# Bulk Modulus (GPa) = 12.69392 43.02828 27.86110
# Shear Modulus (GPa) = 11.26788 27.28525 19.27657
#
# Velocity S-wave (km/s) = 2.26392 3.52294 2.96112
# Velocity P-wave (km/s) = 3.55075 6.01000 4.93599
#
# Compressibility (1/GPa) = 0.07877788
#
# Stress axis : x y z
#
# Youngs Moduli (GPa) = 146.58708 14.56979 88.00166
#
# Poissons Ratio (x) = 0.05597 0.27126
# Poissons Ratio (y) = 0.56316 -0.25546
# Poissons Ratio (z) = 0.45184 -0.04230
#
# Static dielectric constant tensor:
#      x y z
#    x 4.823070 0.000000 0.000000 
#    y 0.000000 3.360220 0.000000 
#    z 0.000000 0.000000 3.788420 
# 
# 
# High freq. dielectric constant tensor:
#      x y z
#    x 1.901290 0.000000 0.000000 
#    y 0.000000 1.802070 0.000000 
#    z 0.000000 0.000000 1.859500 
# 
# From -- ./inp_files/23295.got.cif
#   From: 2010.03.12/outbox.cif.g09.slc.cpg/sg54_12_cif.got.tgz:23295.got - 2010.04.16 15:00:50.
