data_PCOD8222845
_publ_section_title
;
Structure prediction by ZEFSAII (Michael W. Deem and Ramdas Pophale) SiO2 
 PCOD8222845
Probable space group: P C C A
;
_chemical_formula_sum "Si O2"
_cell_formula_units_Z 32
_cell_length_a 16.316048
_cell_length_b 4.978082
_cell_length_c 19.141972
_cell_angle_alpha 90.000000
_cell_angle_beta 90.000000
_cell_angle_gamma 90.000000
_cell_volume 1554.761211
_symmetry_space_group_name_H-M "P C C A"
_symmetry_group_IT_number 54
_symmetry_cell_setting 'orthorhombic'
loop_
_space_group_symop_operation_xyz
x,y,z
1/2-x,-y,z
1/2+x,-y,1/2-z
-x,y,1/2-z
-x,-y,-z
1/2+x,y,-z
1/2-x,y,1/2+z
x,-y,1/2+z
loop_
_atom_site_type_symbol
_atom_site_label
_atom_site_fract_x
_atom_site_fract_y
_atom_site_fract_z
Si Si1 0.306507 0.249379 0.223663
Si Si2 0.843620 0.597429 0.420938
Si Si3 0.191895 0.754858 0.376465
Si Si4 0.091489 0.895825 0.505740
O O1 0.250000 0.500000 0.237451
O O2 0.366683 0.308166 0.158327
O O3 0.350364 0.213106 0.299185
O O4 0.250000 0.000000 0.202395
O O5 0.750000 0.500000 0.425868
O O6 0.903070 0.348319 0.438716
O O7 0.852906 0.850943 0.472242
O O8 0.250000 0.500000 0.387257
O O9 0.118865 0.765281 0.432330
O O10 0.250000 0.000000 0.391078
O O11 0.000000 0.000000 0.500000
#
# Coordination Sequence:
#
# PCOD8222845 Si02
#       4
#     8   8   8   8
#     4   9  18  33  57  86 109 138 191 248 283 324
#     4  11  21  38  62  84 108 150 198 238 280 337
#     4  10  20  36  59  84 112 149 192 236 284 337
#     4  12  24  37  56  88 123 153 186 234 287 340
#
# _framework density 20.581938000000001
#
# number of rings (size 3 to 8) (size 9 to 14) (size 15 to 20)
#    0.000    1.500    0.000    8.250    0.000    0.000 
#    0.000    1.250    0.000    9.000    0.000    0.000 
#    0.000    0.000    0.000    0.000    0.000    0.000 
#
# Total GULP energy -396581.091879 kJ/mol
# GULP energy per Si atom -12393.159121 kJ/mol
# Density = 2.053509 g / cm^3
# Si number density = 20.581938 Si / 1000 Ang^3
#
#
#
# Elastic Constant Matrix: (Units=GPa)
#
#
# Indices 1 2 3 4 5 6 
#
# 1 76.3541 36.3806 74.0214 0.0000 0.0000 0.0000
# 2 36.3806 149.6802 56.7357 0.0000 0.0000 0.0000
# 3 74.0214 56.7357 177.6681 0.0000 0.0000 0.0000
# 4 0.0000 0.0000 0.0000 35.9998 0.0000 0.0000
# 5 0.0000 0.0000 0.0000 0.0000 9.1653 0.0000
# 6 0.0000 0.0000 0.0000 0.0000 0.0000 32.8412
#
#
#
# Elastic Compliance Matrix: (Units=1/GPa)
#
#
# Indices 1 2 3 4 5 6 
#
# 1 0.022583 -0.002187 -0.008710 0.000000 0.000000 0.000000
# 2 -0.002187 0.007813 -0.001584 0.000000 0.000000 0.000000
# 3 -0.008710 -0.001584 0.009763 0.000000 0.000000 0.000000
# 4 0.000000 0.000000 0.000000 0.027778 0.000000 0.000000
# 5 0.000000 0.000000 0.000000 0.000000 0.109107 0.000000
# 6 0.000000 0.000000 0.000000 0.000000 0.000000 0.030450
#
#
# Mechanical properties :
#
#
# Convention : Reuss Voigt Hill
#
# Bulk Modulus (GPa) = 65.80383 81.99751 73.90067
# Shear Modulus (GPa) = 21.05067 31.37223 26.21145
#
# Velocity S-wave (km/s) = 3.20155 3.90841 3.57251
# Velocity P-wave (km/s) = 6.76074 7.76490 7.28015
#
# Compressibility (1/GPa) = 0.01519668
#
# Stress axis : x y z
#
# Youngs Moduli (GPa) = 44.28047 127.99483 102.42616
#
# Poissons Ratio (x) = 0.27997 0.89217
# Poissons Ratio (y) = 0.09686 0.16220
# Poissons Ratio (z) = 0.38570 0.20269
#
# Static dielectric constant tensor:
#      x y z
#    x 3.118000 0.000000 0.000000 
#    y 0.000000 4.222690 0.000000 
#    z 0.000000 0.000000 4.583730 
# 
# 
# High freq. dielectric constant tensor:
#      x y z
#    x 1.738560 0.000000 0.000000 
#    y 0.000000 1.838280 0.000000 
#    z 0.000000 0.000000 1.830610 
# 
# From -- ./inp_files/17572.got.cif
#   From: 2010.03.12/outbox.cif.g09.slc.cpg/sg54_9_cif.got.tgz:17572.got - 2010.04.16 15:00:50.
