data_PCOD8222456
_publ_section_title
;
Structure prediction by ZEFSAII (Michael W. Deem and Ramdas Pophale) SiO2 
 PCOD8222456
Probable space group: P C C A
;
_chemical_formula_sum "Si O2"
_cell_formula_units_Z 60
_cell_length_a 24.369528
_cell_length_b 12.313159
_cell_length_c 9.691717
_cell_angle_alpha 90.000000
_cell_angle_beta 90.000000
_cell_angle_gamma 90.000000
_cell_volume 2908.153523
_symmetry_space_group_name_H-M "P C C A"
_symmetry_group_IT_number 54
_symmetry_cell_setting 'orthorhombic'
loop_
_space_group_symop_operation_xyz
x,y,z
1/2-x,-y,z
1/2+x,-y,1/2-z
-x,y,1/2-z
-x,-y,-z
1/2+x,y,-z
1/2-x,y,1/2+z
x,-y,1/2+z
loop_
_atom_site_type_symbol
_atom_site_label
_atom_site_fract_x
_atom_site_fract_y
_atom_site_fract_z
Si Si1 0.918676 0.019411 0.639581
Si Si2 0.000000 0.848988 0.750000
Si Si3 0.380780 0.484306 0.684224
Si Si4 0.114096 0.127495 0.599320
Si Si5 0.995371 0.789036 0.044869
Si Si6 0.721518 0.385856 0.694942
Si Si7 0.950312 0.437842 0.570655
Si Si8 0.194267 0.682550 0.104196
O O1 0.878663 0.079777 0.746467
O O2 0.965376 0.100244 0.585374
O O3 0.947020 0.922237 0.722526
O O4 0.884749 0.970109 0.511921
O O5 0.010054 0.771326 0.619482
O O6 0.340737 0.393329 0.749422
O O7 0.400477 0.436013 0.538369
O O8 0.350909 0.598668 0.659884
O O9 0.431347 0.503068 0.789234
O O10 0.058175 0.197605 0.591345
O O11 0.165922 0.203261 0.571514
O O12 0.968437 0.683640 0.114287
O O13 0.750000 0.500000 0.721531
O O14 0.723151 0.357883 0.534823
O O15 0.757311 0.299818 0.783366
O O16 0.000000 0.500000 0.500000
#
# Coordination Sequence:
#
# PCOD8222456 Si02
#       8
#     8   4   8   8   8   8   8   8
#     4  11  19  40  60  92 127 168 217 259 311 386
#     4  10  18  34  58  86 120 174 220 266 280 382
#     4  11  23  42  62  92 133 175 215 258 319 387
#     4  11  22  38  65  93 127 162 215 268 322 381
#     4  11  22  35  62  89 134 178 216 249 315 383
#     4  10  22  42  70  92 122 163 225 274 323 392
#     4  12  26  39  59  96 147 180 208 257 321 399
#     4  11  23  42  68  97 119 162 220 282 329 383
#
# _framework density 20.631647000000001
#
# number of rings (size 3 to 8) (size 9 to 14) (size 15 to 20)
#    0.000    1.067    4.000    4.000    3.733    2.133 
#    0.000    0.000    0.000    2.400    0.000    0.000 
#    0.000    0.000    0.000    0.000    0.000    0.000 
#
# Total GULP energy -744193.738672 kJ/mol
# GULP energy per Si atom -12403.228978 kJ/mol
# Density = 2.058469 g / cm^3
# Si number density = 20.631647 Si / 1000 Ang^3
#
#
#
# Elastic Constant Matrix: (Units=GPa)
#
#
# Indices 1 2 3 4 5 6 
#
# 1 68.2536 32.2878 24.0889 0.0000 0.0000 0.0000
# 2 32.2878 63.6087 11.2278 0.0000 0.0000 0.0000
# 3 24.0889 11.2278 114.6710 0.0000 0.0000 0.0000
# 4 0.0000 0.0000 0.0000 22.4041 0.0000 0.0000
# 5 0.0000 0.0000 0.0000 0.0000 38.5005 0.0000
# 6 0.0000 0.0000 0.0000 0.0000 0.0000 20.5841
#
#
#
# Elastic Compliance Matrix: (Units=1/GPa)
#
#
# Indices 1 2 3 4 5 6 
#
# 1 0.020465 -0.009799 -0.003340 0.000000 0.000000 0.000000
# 2 -0.009799 0.020689 0.000033 0.000000 0.000000 0.000000
# 3 -0.003340 0.000033 0.009419 0.000000 0.000000 0.000000
# 4 0.000000 0.000000 0.000000 0.044635 0.000000 0.000000
# 5 0.000000 0.000000 0.000000 0.000000 0.025974 0.000000
# 6 0.000000 0.000000 0.000000 0.000000 0.000000 0.048581
#
#
# Mechanical properties :
#
#
# Convention : Reuss Voigt Hill
#
# Bulk Modulus (GPa) = 41.04758 42.41579 41.73168
# Shear Modulus (GPa) = 24.49839 28.22633 26.36236
#
# Velocity S-wave (km/s) = 3.44963 3.70281 3.57846
# Velocity P-wave (km/s) = 5.98375 6.23573 6.11104
#
# Compressibility (1/GPa) = 0.02436197
#
# Stress axis : x y z
#
# Youngs Moduli (GPa) = 48.86330 48.33449 106.16864
#
# Poissons Ratio (x) = 0.47361 0.35457
# Poissons Ratio (y) = 0.47879 -0.00347
# Poissons Ratio (z) = 0.16319 -0.00158
#
# Static dielectric constant tensor:
#      x y z
#    x 3.651300 0.000000 0.000000 
#    y 0.000000 3.596640 0.000000 
#    z 0.000000 0.000000 4.085070 
# 
# 
# High freq. dielectric constant tensor:
#      x y z
#    x 1.782810 0.000000 0.000000 
#    y 0.000000 1.786370 0.000000 
#    z 0.000000 0.000000 1.832760 
# 
# From -- ./inp_files/5583.got.cif
#   From: 2010.03.12/outbox.cif.g09.slc.cpg/sg54_3_cif.got.tgz:5583.got - 2010.04.16 15:00:50.
