data_PCOD8222953
_publ_section_title
;
Structure prediction by ZEFSAII (Michael W. Deem and Ramdas Pophale) SiO2 
 PCOD8222953
Probable space group: P C C A
;
_chemical_formula_sum "Si O2"
_cell_formula_units_Z 36
_cell_length_a 5.163499
_cell_length_b 11.395403
_cell_length_c 27.308038
_cell_angle_alpha 90.000000
_cell_angle_beta 90.000000
_cell_angle_gamma 90.000000
_cell_volume 1606.809107
_symmetry_space_group_name_H-M "P C C A"
_symmetry_group_IT_number 54
_symmetry_cell_setting 'orthorhombic'
loop_
_space_group_symop_operation_xyz
x,y,z
1/2-x,-y,z
1/2+x,-y,1/2-z
-x,y,1/2-z
-x,-y,-z
1/2+x,y,-z
1/2-x,y,1/2+z
x,-y,1/2+z
loop_
_atom_site_type_symbol
_atom_site_label
_atom_site_fract_x
_atom_site_fract_y
_atom_site_fract_z
Si Si1 0.000000 0.073399 0.750000
Si Si2 0.843515 0.131324 0.644700
Si Si3 0.547129 0.368162 0.979479
Si Si4 0.249913 0.364663 0.725003
Si Si5 0.326163 0.730921 0.121851
O O1 0.077245 0.146472 0.798318
O O2 0.250000 0.000000 0.733006
O O3 0.602109 0.212742 0.632546
O O4 0.097130 0.172396 0.613316
O O5 0.750000 0.000000 0.631855
O O6 0.640280 0.358162 0.923589
O O7 0.500000 0.500000 0.000000
O O8 0.770899 0.304595 0.012209
O O9 0.250000 0.500000 0.739310
O O10 0.500000 0.303147 0.750000
O O11 0.242046 0.350144 0.666956
O O12 0.000000 0.304379 0.750000
#
# Coordination Sequence:
#
# PCOD8222953 Si02
#       5
#     4   8   8   8   8
#     4  10  20  38  60  90 134 184 228 272 306 354
#     4  11  24  41  63  97 140 181 229 271 318 394
#     4  10  23  44  69  98 128 159 219 295 343 404
#     4  10  23  41  58  91 137 176 215 262 322 412
#     4  12  24  40  71  96 129 184 222 273 347 389
#
# _framework density 22.404653
#
# number of rings (size 3 to 8) (size 9 to 14) (size 15 to 20)
#    0.000    1.333    0.000    6.000    7.778    0.000 
#    8.000    0.000    0.000   13.333    0.000    0.000 
#    0.000    0.000    0.000    0.000    0.000    0.000 
#
# Total GULP energy -446001.133529 kJ/mol
# GULP energy per Si atom -12388.920376 kJ/mol
# Density = 2.235366 g / cm^3
# Si number density = 22.404653 Si / 1000 Ang^3
#
#
#
# Elastic Constant Matrix: (Units=GPa)
#
#
# Indices 1 2 3 4 5 6 
#
# 1 226.3101 39.7304 76.3883 0.0000 0.0000 0.0000
# 2 39.7304 69.1402 45.3819 0.0000 0.0000 0.0000
# 3 76.3883 45.3819 161.5756 0.0000 0.0000 0.0000
# 4 0.0000 0.0000 0.0000 40.3020 0.0000 0.0000
# 5 0.0000 0.0000 0.0000 0.0000 36.9194 0.0000
# 6 0.0000 0.0000 0.0000 0.0000 0.0000 19.9697
#
#
#
# Elastic Compliance Matrix: (Units=1/GPa)
#
#
# Indices 1 2 3 4 5 6 
#
# 1 0.005427 -0.001759 -0.002072 0.000000 0.000000 0.000000
# 2 -0.001759 0.018302 -0.004309 0.000000 0.000000 0.000000
# 3 -0.002072 -0.004309 0.008379 0.000000 0.000000 0.000000
# 4 0.000000 0.000000 0.000000 0.024813 0.000000 0.000000
# 5 0.000000 0.000000 0.000000 0.000000 0.027086 0.000000
# 6 0.000000 0.000000 0.000000 0.000000 0.000000 0.050076
#
#
# Mechanical properties :
#
#
# Convention : Reuss Voigt Hill
#
# Bulk Modulus (GPa) = 63.17523 86.66968 74.92245
# Shear Modulus (GPa) = 32.12589 39.13990 35.63290
#
# Velocity S-wave (km/s) = 3.79079 4.18419 3.99234
# Velocity P-wave (km/s) = 6.88612 7.88106 7.40033
#
# Compressibility (1/GPa) = 0.01582899
#
# Stress axis : x y z
#
# Youngs Moduli (GPa) = 184.27361 54.63776 119.34884
#
# Poissons Ratio (x) = 0.09609 0.24725
# Poissons Ratio (y) = 0.32406 0.51430
# Poissons Ratio (z) = 0.38175 0.23544
#
# Static dielectric constant tensor:
#      x y z
#    x -0.497710 0.000000 0.000000 
#    y 0.000000 3.295920 0.000000 
#    z 0.000000 0.000000 3.870600 
# 
# 
# High freq. dielectric constant tensor:
#      x y z
#    x 1.928060 0.000000 0.000000 
#    y 0.000000 1.861060 0.000000 
#    z 0.000000 0.000000 1.860540 
# 
# From -- ./inp_files/22695.got.cif
#   From: 2010.03.12/outbox.cif.g09.slc.cpg/sg54_12_cif.got.tgz:22695.got - 2010.04.16 15:00:50.
