data_PCOD8222310
_publ_section_title
;
Structure prediction by ZEFSAII (Michael W. Deem and Ramdas Pophale) SiO2 
 PCOD8222310
Probable space group: P C C A
;
_chemical_formula_sum "Si O2"
_cell_formula_units_Z 64
_cell_length_a 32.777339
_cell_length_b 21.173819
_cell_length_c 5.106031
_cell_angle_alpha 90.000000
_cell_angle_beta 90.000000
_cell_angle_gamma 90.000000
_cell_volume 3543.695004
_symmetry_space_group_name_H-M "P C C A"
_symmetry_group_IT_number 54
_symmetry_cell_setting 'orthorhombic'
loop_
_space_group_symop_operation_xyz
x,y,z
1/2-x,-y,z
1/2+x,-y,1/2-z
-x,y,1/2-z
-x,-y,-z
1/2+x,y,-z
1/2-x,y,1/2+z
x,-y,1/2+z
loop_
_atom_site_type_symbol
_atom_site_label
_atom_site_fract_x
_atom_site_fract_y
_atom_site_fract_z
Si Si1 0.776512 0.671830 0.841050
Si Si2 0.362200 0.280914 0.738616
Si Si3 0.955404 0.219168 0.835636
Si Si4 0.205164 0.472148 0.129202
Si Si5 0.046634 0.040803 0.272144
Si Si6 0.582222 0.169744 0.834047
Si Si7 0.546318 0.540968 0.730108
Si Si8 0.404929 0.665710 0.735445
O O1 0.758352 0.683524 0.127440
O O2 0.794313 0.601513 0.810920
O O3 0.813554 0.720017 0.798308
O O4 0.375638 0.206750 0.735161
O O5 0.384091 0.321355 0.513626
O O6 0.372723 0.315357 0.011098
O O7 0.926242 0.179070 0.641963
O O8 0.945760 0.292684 0.796824
O O9 0.000000 0.201707 0.750000
O O10 0.951024 0.201135 0.139776
O O11 0.250000 0.500000 0.062197
O O12 0.181890 0.489179 0.858761
O O13 0.080679 0.095048 0.225075
O O14 0.000000 0.067018 0.250000
O O15 0.053829 0.014443 0.562418
O O16 0.500000 0.567747 0.750000
O O17 0.553334 0.514354 0.439662
O O18 0.580185 0.594144 0.783053
#
# Coordination Sequence:
#
# PCOD8222310 Si02
#       8
#     8   8   8   8   8   8   8   8
#     4  12  21  35  57  74  98 127 166 211 254 319
#     4  10  23  37  53  76 100 136 163 208 268 307
#     4  10  18  29  51  73  93 134 175 207 248 290
#     4  10  16  30  48  70  93 115 146 191 235 304
#     4  10  19  30  48  76 108 143 179 208 237 280
#     4  10  20  34  49  71 111 138 167 215 249 296
#     4  10  20  34  54  71  93 130 171 217 262 302
#     4  10  20  37  50  69 103 124 167 212 255 314
#
# _framework density 18.060244000000001
#
# number of rings (size 3 to 8) (size 9 to 14) (size 15 to 20)
#    0.000    1.750    2.500    3.750    0.000    1.000 
#    0.000    7.500    0.000    0.000    0.000    0.000 
#    0.000    3.000    0.000    0.000    0.000    0.000 
#
# Total GULP energy -793357.478991 kJ/mol
# GULP energy per Si atom -12396.210609 kJ/mol
# Density = 1.801914 g / cm^3
# Si number density = 18.060244 Si / 1000 Ang^3
#
#
#
# Elastic Constant Matrix: (Units=GPa)
#
#
# Indices 1 2 3 4 5 6 
#
# 1 48.5072 31.4844 -0.5646 0.0000 0.0000 0.0000
# 2 31.4844 76.5282 5.4384 0.0000 0.0000 0.0000
# 3 -0.5646 5.4384 87.4126 0.0000 0.0000 0.0000
# 4 0.0000 0.0000 0.0000 17.7404 0.0000 0.0000
# 5 0.0000 0.0000 0.0000 0.0000 12.1313 0.0000
# 6 0.0000 0.0000 0.0000 0.0000 0.0000 19.4136
#
#
#
# Elastic Compliance Matrix: (Units=1/GPa)
#
#
# Indices 1 2 3 4 5 6 
#
# 1 0.028198 -0.011665 0.000908 0.000000 0.000000 0.000000
# 2 -0.011665 0.017951 -0.001192 0.000000 0.000000 0.000000
# 3 0.000908 -0.001192 0.011520 0.000000 0.000000 0.000000
# 4 0.000000 0.000000 0.000000 0.056369 0.000000 0.000000
# 5 0.000000 0.000000 0.000000 0.000000 0.082431 0.000000
# 6 0.000000 0.000000 0.000000 0.000000 0.000000 0.051510
#
#
# Mechanical properties :
#
#
# Convention : Reuss Voigt Hill
#
# Bulk Modulus (GPa) = 29.61248 31.68492 30.64870
# Shear Modulus (GPa) = 17.65947 21.59638 19.62792
#
# Velocity S-wave (km/s) = 3.13039 3.46178 3.30025
# Velocity P-wave (km/s) = 5.43119 5.79316 5.61509
#
# Compressibility (1/GPa) = 0.03376955
#
# Stress axis : x y z
#
# Youngs Moduli (GPa) = 35.46401 55.70728 86.80530
#
# Poissons Ratio (x) = 0.64984 -0.07881
# Poissons Ratio (y) = 0.41370 0.10349
# Poissons Ratio (z) = -0.03220 0.06641
#
# Static dielectric constant tensor:
#      x y z
#    x 3.086340 0.000000 0.000000 
#    y 0.000000 3.171580 0.000000 
#    z 0.000000 0.000000 3.741770 
# 
# 
# High freq. dielectric constant tensor:
#      x y z
#    x 1.656000 0.000000 0.000000 
#    y 0.000000 1.673900 0.000000 
#    z 0.000000 0.000000 1.732450 
# 
# From -- ./inp_files/2026.got.cif
#   From: 2010.03.12/outbox.cif.g09.slc.cpg/sg54_2_cif.got.tgz:2026.got - 2010.04.16 15:00:50.
