data_PCOD8222511
_publ_section_title
;
Structure prediction by ZEFSAII (Michael W. Deem and Ramdas Pophale) SiO2 
 PCOD8222511
Probable space group: P C C A
;
_chemical_formula_sum "Si O2"
_cell_formula_units_Z 56
_cell_length_a 12.442068
_cell_length_b 12.359146
_cell_length_c 18.681642
_cell_angle_alpha 90.000000
_cell_angle_beta 90.000000
_cell_angle_gamma 90.000000
_cell_volume 2872.738393
_symmetry_space_group_name_H-M "P C C A"
_symmetry_group_IT_number 54
_symmetry_cell_setting 'orthorhombic'
loop_
_space_group_symop_operation_xyz
x,y,z
1/2-x,-y,z
1/2+x,-y,1/2-z
-x,y,1/2-z
-x,-y,-z
1/2+x,y,-z
1/2-x,y,1/2+z
x,-y,1/2+z
loop_
_atom_site_type_symbol
_atom_site_label
_atom_site_fract_x
_atom_site_fract_y
_atom_site_fract_z
Si Si1 0.172359 0.735099 0.556224
Si Si2 0.501765 0.838756 0.981585
Si Si3 0.966339 0.029472 0.117862
Si Si4 0.147346 0.840171 0.695338
Si Si5 0.880959 0.381213 0.971809
Si Si6 0.993301 0.435000 0.397348
Si Si7 0.250000 0.000000 0.797491
Si Si8 0.500000 0.658225 0.250000
O O1 0.126696 0.814060 0.493585
O O2 0.213033 0.806698 0.623412
O O3 0.254357 0.643933 0.529334
O O4 0.065694 0.675594 0.583038
O O5 0.562345 0.732039 0.957098
O O6 0.518976 0.924286 0.918417
O O7 0.555251 0.882404 0.055458
O O8 0.048032 0.079041 0.176480
O O9 0.855816 0.991407 0.154020
O O10 0.103323 0.733063 0.734920
O O11 0.234684 0.895333 0.746899
O O12 0.916780 0.460592 0.907410
O O13 0.906140 0.440110 0.047573
O O14 0.030007 0.422671 0.315349
#
# Coordination Sequence:
#
# PCOD8222511 Si02
#       8
#     8   8   8   8   8   8   4   4
#     4   9  19  35  57  80 113 148 190 229 289 347
#     4   9  21  36  54  82 115 145 187 246 285 328
#     4  10  21  38  52  82 119 148 192 235 281 346
#     4  10  21  36  53  83 113 154 193 231 279 353
#     4  10  19  35  59  84 110 145 191 242 292 336
#     4   9  20  35  60  86 108 147 192 240 289 339
#     4  12  22  32  60  78 110 156 190 220 284 348
#     4  10  18  40  58  76 118 150 188 234 286 364
#
# _framework density 19.493597000000001
#
# number of rings (size 3 to 8) (size 9 to 14) (size 15 to 20)
#    0.000    2.286    1.429    1.286    4.000    0.000 
#    0.000    1.429    0.000   15.429    0.000    0.000 
#    0.000    0.000    0.000    0.000    0.000    0.000 
#
# Total GULP energy -694111.989662 kJ/mol
# GULP energy per Si atom -12394.856958 kJ/mol
# Density = 1.944923 g / cm^3
# Si number density = 19.493597 Si / 1000 Ang^3
#
#
#
# Elastic Constant Matrix: (Units=GPa)
#
#
# Indices 1 2 3 4 5 6 
#
# 1 70.9383 8.2606 31.5759 0.0000 0.0000 0.0000
# 2 8.2606 78.3454 35.8070 0.0000 0.0000 0.0000
# 3 31.5759 35.8070 102.1685 0.0000 0.0000 0.0000
# 4 0.0000 0.0000 0.0000 34.2443 0.0000 0.0000
# 5 0.0000 0.0000 0.0000 0.0000 20.5377 0.0000
# 6 0.0000 0.0000 0.0000 0.0000 0.0000 32.9309
#
#
#
# Elastic Compliance Matrix: (Units=1/GPa)
#
#
# Indices 1 2 3 4 5 6 
#
# 1 0.016377 0.000698 -0.005306 0.000000 0.000000 0.000000
# 2 0.000698 0.015228 -0.005553 0.000000 0.000000 0.000000
# 3 -0.005306 -0.005553 0.013374 0.000000 0.000000 0.000000
# 4 0.000000 0.000000 0.000000 0.029202 0.000000 0.000000
# 5 0.000000 0.000000 0.000000 0.000000 0.048691 0.000000
# 6 0.000000 0.000000 0.000000 0.000000 0.000000 0.030367
#
#
# Mechanical properties :
#
#
# Convention : Reuss Voigt Hill
#
# Bulk Modulus (GPa) = 40.55508 44.74880 42.65194
# Shear Modulus (GPa) = 27.50582 29.26318 28.38450
#
# Velocity S-wave (km/s) = 3.76043 3.87870 3.82002
# Velocity P-wave (km/s) = 6.30110 6.56236 6.43306
#
# Compressibility (1/GPa) = 0.02465782
#
# Stress axis : x y z
#
# Youngs Moduli (GPa) = 61.05995 65.66751 74.77300
#
# Poissons Ratio (x) = -0.04586 0.39677
# Poissons Ratio (y) = -0.04264 0.41520
# Poissons Ratio (z) = 0.32400 0.36464
#
# Static dielectric constant tensor:
#      x y z
#    x 3.315740 0.000000 0.000000 
#    y 0.000000 3.593110 0.000000 
#    z 0.000000 0.000000 3.730180 
# 
# 
# High freq. dielectric constant tensor:
#      x y z
#    x 1.731240 0.000000 0.000000 
#    y 0.000000 1.764840 0.000000 
#    z 0.000000 0.000000 1.756170 
# 
# From -- ./inp_files/21205.got.cif
#   From: 2010.03.12/outbox.cif.g09.slc.cpg/sg54_11_cif.got.tgz:21205.got - 2010.04.16 15:00:50.
