data_PCOD8222521
_publ_section_title
;
Structure prediction by ZEFSAII (Michael W. Deem and Ramdas Pophale) SiO2 
 PCOD8222521
Probable space group: P C C A
;
_chemical_formula_sum "Si O2"
_cell_formula_units_Z 36
_cell_length_a 5.173529
_cell_length_b 12.440723
_cell_length_c 31.614520
_cell_angle_alpha 90.000000
_cell_angle_beta 90.000000
_cell_angle_gamma 90.000000
_cell_volume 2034.787685
_symmetry_space_group_name_H-M "P C C A"
_symmetry_group_IT_number 54
_symmetry_cell_setting 'orthorhombic'
loop_
_space_group_symop_operation_xyz
x,y,z
1/2-x,-y,z
1/2+x,-y,1/2-z
-x,y,1/2-z
-x,-y,-z
1/2+x,y,-z
1/2-x,y,1/2+z
x,-y,1/2+z
loop_
_atom_site_type_symbol
_atom_site_label
_atom_site_fract_x
_atom_site_fract_y
_atom_site_fract_z
Si Si1 0.750000 0.000000 0.277461
Si Si2 0.726446 0.878524 0.613924
Si Si3 0.248467 0.624477 0.722903
Si Si4 0.935930 0.119501 0.517306
Si Si5 0.280361 0.808196 0.159263
O O1 0.827897 0.102385 0.305221
O O2 0.500000 0.031165 0.250000
O O3 0.669955 0.879504 0.564409
O O4 0.492213 0.821669 0.636958
O O5 0.990445 0.815358 0.624621
O O6 0.750000 0.000000 0.630801
O O7 0.250000 0.500000 0.709924
O O8 0.500000 0.656251 0.750000
O O9 0.229633 0.690616 0.679679
O O10 0.000000 0.654785 0.750000
O O11 0.714011 0.177895 0.488425
O O12 0.000000 0.000000 0.500000
#
# Coordination Sequence:
#
# PCOD8222521 Si02
#       5
#     4   8   8   8   8
#     4  12  22  32  46  66 100 140 168 196 244 314
#     4  12  21  34  49  76 111 148 168 206 267 309
#     4  10  21  40  62  78  98 136 186 235 272 305
#     4  10  19  30  50  69 100 147 178 211 236 302
#     4  12  23  35  51  76 110 137 175 216 267 321
#
# _framework density 17.692263000000001
#
# number of rings (size 3 to 8) (size 9 to 14) (size 15 to 20)
#    0.000    0.889    4.444    5.333    3.111    0.000 
#    0.000    0.000    0.000    0.000    0.000    0.000 
#    0.000   17.778    0.000    0.000    0.000    0.000 
#
# Total GULP energy -446302.293068 kJ/mol
# GULP energy per Si atom -12397.285919 kJ/mol
# Density = 1.765199 g / cm^3
# Si number density = 17.692263 Si / 1000 Ang^3
#
#
#
# Elastic Constant Matrix: (Units=GPa)
#
#
# Indices 1 2 3 4 5 6 
#
# 1 152.8037 29.6443 39.7997 0.0000 0.0000 0.0000
# 2 29.6443 65.1160 41.8781 0.0000 0.0000 0.0000
# 3 39.7997 41.8781 96.7890 0.0000 0.0000 0.0000
# 4 0.0000 0.0000 0.0000 14.1070 0.0000 0.0000
# 5 0.0000 0.0000 0.0000 0.0000 28.8278 0.0000
# 6 0.0000 0.0000 0.0000 0.0000 0.0000 40.7810
#
#
#
# Elastic Compliance Matrix: (Units=1/GPa)
#
#
# Indices 1 2 3 4 5 6 
#
# 1 0.007510 -0.001985 -0.002229 0.000000 0.000000 0.000000
# 2 -0.001985 0.021803 -0.008617 0.000000 0.000000 0.000000
# 3 -0.002229 -0.008617 0.014977 0.000000 0.000000 0.000000
# 4 0.000000 0.000000 0.000000 0.070887 0.000000 0.000000
# 5 0.000000 0.000000 0.000000 0.000000 0.034689 0.000000
# 6 0.000000 0.000000 0.000000 0.000000 0.000000 0.024521
#
#
# Mechanical properties :
#
#
# Convention : Reuss Voigt Hill
#
# Bulk Modulus (GPa) = 53.68696 59.70589 56.69643
# Shear Modulus (GPa) = 24.24137 30.30227 27.27182
#
# Velocity S-wave (km/s) = 3.70559 4.14302 3.93040
# Velocity P-wave (km/s) = 6.97992 7.53036 7.26036
#
# Compressibility (1/GPa) = 0.01862650
#
# Stress axis : x y z
#
# Youngs Moduli (GPa) = 133.15361 45.86512 66.76979
#
# Poissons Ratio (x) = 0.09106 0.14884
# Poissons Ratio (y) = 0.26436 0.57537
# Poissons Ratio (z) = 0.29682 0.39523
#
# Static dielectric constant tensor:
#      x y z
#    x -5.329170 0.000000 0.000000 
#    y 0.000000 2.946390 0.000000 
#    z 0.000000 0.000000 3.344810 
# 
# 
# High freq. dielectric constant tensor:
#      x y z
#    x 1.724780 0.000000 0.000000 
#    y 0.000000 1.628200 0.000000 
#    z 0.000000 0.000000 1.685050 
# 
# From -- ./inp_files/27026.got.cif
#   From: 2010.03.12/outbox.cif.g09.slc.cpg/sg54_14_cif.got.tgz:27026.got - 2010.04.16 15:00:50.
