data_PCOD8222185
_publ_section_title
;
Structure prediction by ZEFSAII (Michael W. Deem and Ramdas Pophale) SiO2 
 PCOD8222185
Probable space group: P M N A
;
_chemical_formula_sum "Si O2"
_cell_formula_units_Z 24
_cell_length_a 17.171267
_cell_length_b 4.794029
_cell_length_c 12.515325
_cell_angle_alpha 90.000000
_cell_angle_beta 90.000000
_cell_angle_gamma 90.000000
_cell_volume 1030.255947
_symmetry_space_group_name_H-M "P M N A"
_symmetry_group_IT_number 53
_symmetry_cell_setting 'orthorhombic'
loop_
_space_group_symop_operation_xyz
x,y,z
1/2-x,-y,1/2+z
x,-y,-z
1/2-x,y,1/2-z
-x,-y,-z
1/2+x,y,1/2-z
-x,y,z
1/2+x,-y,1/2+z
loop_
_atom_site_type_symbol
_atom_site_label
_atom_site_fract_x
_atom_site_fract_y
_atom_site_fract_z
Si Si1 0.411494 0.523463 0.255796
Si Si2 0.313608 0.252051 0.072640
Si Si3 0.847709 0.044392 0.124080
O O1 0.500000 0.618567 0.236570
O O2 0.379188 0.387899 0.146803
O O3 0.407461 0.287464 0.345693
O O4 0.361484 0.784677 0.296958
O O5 0.242081 0.133484 0.142147
O O6 0.279062 0.500000 0.000000
O O7 0.349221 0.000000 0.000000
O O8 0.864476 0.000000 0.000000
#
# Coordination Sequence:
#
# PCOD8222185 Si02
#       3
#     8   8   8
#     4  12  26  43  68 101 137 175 217 277 344 401
#     4  11  24  44  70  98 132 178 231 282 330 395
#     4  11  24  43  66  96 134 176 225 275 329 399
#
# _framework density 23.295183999999999
#
# number of rings (size 3 to 8) (size 9 to 14) (size 15 to 20)
#    0.000    0.667    0.000    9.000    0.000   10.667 
#    0.000    0.000    0.000    0.000    0.000    0.000 
#    0.000    0.000    0.000    0.000    0.000    0.000 
#
# Total GULP energy -297595.921778 kJ/mol
# GULP energy per Si atom -12399.830074 kJ/mol
# Density = 2.324216 g / cm^3
# Si number density = 23.295184 Si / 1000 Ang^3
#
#
#
# Elastic Constant Matrix: (Units=GPa)
#
#
# Indices 1 2 3 4 5 6 
#
# 1 114.3755 47.9233 70.5502 0.0000 0.0000 0.0000
# 2 47.9233 153.2231 43.1536 0.0000 0.0000 0.0000
# 3 70.5502 43.1536 100.1146 0.0000 0.0000 0.0000
# 4 0.0000 0.0000 0.0000 58.6268 0.0000 0.0000
# 5 0.0000 0.0000 0.0000 0.0000 21.6625 0.0000
# 6 0.0000 0.0000 0.0000 0.0000 0.0000 34.2664
#
#
#
# Elastic Compliance Matrix: (Units=1/GPa)
#
#
# Indices 1 2 3 4 5 6 
#
# 1 0.016031 -0.002085 -0.010398 0.000000 0.000000 0.000000
# 2 -0.002085 0.007699 -0.001849 0.000000 0.000000 0.000000
# 3 -0.010398 -0.001849 0.018113 0.000000 0.000000 0.000000
# 4 0.000000 0.000000 0.000000 0.017057 0.000000 0.000000
# 5 0.000000 0.000000 0.000000 0.000000 0.046163 0.000000
# 6 0.000000 0.000000 0.000000 0.000000 0.000000 0.029183
#
#
# Mechanical properties :
#
#
# Convention : Reuss Voigt Hill
#
# Bulk Modulus (GPa) = 75.88315 76.77417 76.32866
# Shear Modulus (GPa) = 29.88584 36.65021 33.26803
#
# Velocity S-wave (km/s) = 3.58567 3.97078 3.78313
# Velocity P-wave (km/s) = 7.05606 7.35197 7.20554
#
# Compressibility (1/GPa) = 0.01317816
#
# Stress axis : x y z
#
# Youngs Moduli (GPa) = 62.38078 129.87857 55.20929
#
# Poissons Ratio (x) = 0.27085 0.57405
# Poissons Ratio (y) = 0.13009 0.10209
# Poissons Ratio (z) = 0.64862 0.24017
#
# Static dielectric constant tensor:
#      x y z
#    x 3.889110 0.000000 0.000000 
#    y 0.000000 4.892940 0.000000 
#    z 0.000000 0.000000 4.279250 
# 
# 
# High freq. dielectric constant tensor:
#      x y z
#    x 1.895780 0.000000 0.000000 
#    y 0.000000 1.948020 0.000000 
#    z 0.000000 0.000000 1.935660 
# 
# From -- ./inp_files/16332.got.cif
#   From: 2010.03.12/outbox.cif.g09.slc.cpg/sg53_9_cif.got.tgz:16332.got - 2010.04.16 14:36:59.
