data_PCOD8222625
_publ_section_title
;
Structure prediction by ZEFSAII (Michael W. Deem and Ramdas Pophale) SiO2 
 PCOD8222625
Probable space group: P C C A
;
_chemical_formula_sum "Si O2"
_cell_formula_units_Z 60
_cell_length_a 13.929370
_cell_length_b 8.913171
_cell_length_c 24.406181
_cell_angle_alpha 90.000000
_cell_angle_beta 90.000000
_cell_angle_gamma 90.000000
_cell_volume 3030.145905
_symmetry_space_group_name_H-M "P C C A"
_symmetry_group_IT_number 54
_symmetry_cell_setting 'orthorhombic'
loop_
_space_group_symop_operation_xyz
x,y,z
1/2-x,-y,z
1/2+x,-y,1/2-z
-x,y,1/2-z
-x,-y,-z
1/2+x,y,-z
1/2-x,y,1/2+z
x,-y,1/2+z
loop_
_atom_site_type_symbol
_atom_site_label
_atom_site_fract_x
_atom_site_fract_y
_atom_site_fract_z
Si Si1 0.500000 0.747642 0.750000
Si Si2 0.615862 0.618819 0.542467
Si Si3 0.816499 0.300476 0.014439
Si Si4 0.513031 0.443698 0.355864
Si Si5 0.405091 0.242124 0.640527
Si Si6 0.646472 0.965991 0.799434
Si Si7 0.998164 0.156036 0.468952
Si Si8 0.807061 0.259770 0.889540
O O1 0.520160 0.641636 0.698554
O O2 0.591490 0.854776 0.758705
O O3 0.640721 0.468463 0.508844
O O4 0.716937 0.707402 0.548427
O O5 0.572816 0.582305 0.601583
O O6 0.538866 0.714378 0.509329
O O7 0.892107 0.196514 0.046499
O O8 0.799827 0.232363 0.954181
O O9 0.523432 0.621612 0.345188
O O10 0.615834 0.388803 0.377322
O O11 0.435927 0.153270 0.585735
O O12 0.297348 0.306541 0.633282
O O13 0.410084 0.122027 0.690232
O O14 0.660122 0.892562 0.859620
O O15 0.750000 0.000000 0.772388
O O16 0.000000 0.000000 0.500000
#
# Coordination Sequence:
#
# PCOD8222625 Si02
#       8
#     4   8   8   8   8   8   8   8
#     4  10  24  44  70  82 116 166 206 266 334 348
#     4  11  23  37  59  85 129 164 206 245 299 370
#     4  11  21  37  59  88 129 174 192 240 303 372
#     4  11  22  40  64  90 118 161 213 264 303 369
#     4  11  21  36  61  95 122 153 207 259 299 371
#     4   9  21  41  64  93 122 153 206 271 311 368
#     4  12  23  34  57  92 129 168 200 239 305 383
#     4  10  19  34  63  92 124 157 201 246 308 361
#
# _framework density 19.801027000000001
#
# number of rings (size 3 to 8) (size 9 to 14) (size 15 to 20)
#    0.000    1.333    4.000    2.400    3.733    1.067 
#    0.000    1.333   17.600    0.000    0.000    0.000 
#    0.000    0.000    0.000    0.000    0.000    0.000 
#
# Total GULP energy -743981.672094 kJ/mol
# GULP energy per Si atom -12399.694535 kJ/mol
# Density = 1.975596 g / cm^3
# Si number density = 19.801027 Si / 1000 Ang^3
#
#
#
# Elastic Constant Matrix: (Units=GPa)
#
#
# Indices 1 2 3 4 5 6 
#
# 1 117.9959 57.0510 46.7989 0.0000 0.0000 0.0000
# 2 57.0510 87.2554 35.5334 0.0000 0.0000 0.0000
# 3 46.7989 35.5334 85.8682 0.0000 0.0000 0.0000
# 4 0.0000 0.0000 0.0000 27.5282 0.0000 0.0000
# 5 0.0000 0.0000 0.0000 0.0000 24.6229 0.0000
# 6 0.0000 0.0000 0.0000 0.0000 0.0000 32.2494
#
#
#
# Elastic Compliance Matrix: (Units=1/GPa)
#
#
# Indices 1 2 3 4 5 6 
#
# 1 0.013714 -0.007124 -0.004527 0.000000 0.000000 0.000000
# 2 -0.007124 0.017484 -0.003352 0.000000 0.000000 0.000000
# 3 -0.004527 -0.003352 0.015500 0.000000 0.000000 0.000000
# 4 0.000000 0.000000 0.000000 0.036326 0.000000 0.000000
# 5 0.000000 0.000000 0.000000 0.000000 0.040613 0.000000
# 6 0.000000 0.000000 0.000000 0.000000 0.000000 0.031008
#
#
# Mechanical properties :
#
#
# Convention : Reuss Voigt Hill
#
# Bulk Modulus (GPa) = 59.90674 63.32066 61.61370
# Shear Modulus (GPa) = 26.28600 26.99585 26.64093
#
# Velocity S-wave (km/s) = 3.64745 3.69637 3.67199
# Velocity P-wave (km/s) = 6.93243 7.08981 7.01156
#
# Compressibility (1/GPa) = 0.01669261
#
# Stress axis : x y z
#
# Youngs Moduli (GPa) = 72.91562 57.19650 64.51565
#
# Poissons Ratio (x) = 0.40745 0.29204
# Poissons Ratio (y) = 0.51943 0.21629
# Poissons Ratio (z) = 0.33006 0.19175
#
# Static dielectric constant tensor:
#      x y z
#    x 3.913140 0.000000 0.000000 
#    y 0.000000 3.731430 0.000000 
#    z 0.000000 0.000000 3.263890 
# 
# 
# High freq. dielectric constant tensor:
#      x y z
#    x 1.782180 0.000000 0.000000 
#    y 0.000000 1.780260 0.000000 
#    z 0.000000 0.000000 1.735610 
# 
# From -- ./inp_files/24482.got.cif
#   From: 2010.03.12/outbox.cif.g09.slc.cpg/sg54_13_cif.got.tgz:24482.got - 2010.04.16 15:00:50.
