data_PCOD8222593
_publ_section_title
;
Structure prediction by ZEFSAII (Michael W. Deem and Ramdas Pophale) SiO2 
 PCOD8222593
Probable space group: P C C A
;
_chemical_formula_sum "Si O2"
_cell_formula_units_Z 60
_cell_length_a 14.755657
_cell_length_b 9.683441
_cell_length_c 21.926340
_cell_angle_alpha 90.000000
_cell_angle_beta 90.000000
_cell_angle_gamma 90.000000
_cell_volume 3132.956799
_symmetry_space_group_name_H-M "P C C A"
_symmetry_group_IT_number 54
_symmetry_cell_setting 'orthorhombic'
loop_
_space_group_symop_operation_xyz
x,y,z
1/2-x,-y,z
1/2+x,-y,1/2-z
-x,y,1/2-z
-x,-y,-z
1/2+x,y,-z
1/2-x,y,1/2+z
x,-y,1/2+z
loop_
_atom_site_type_symbol
_atom_site_label
_atom_site_fract_x
_atom_site_fract_y
_atom_site_fract_z
Si Si1 0.332458 0.734202 0.406709
Si Si2 0.974441 0.926796 0.434869
Si Si3 0.000000 0.661125 0.750000
Si Si4 0.161344 0.314265 0.543154
Si Si5 0.133524 0.735642 0.407590
Si Si6 0.134309 0.373083 0.041535
Si Si7 0.480048 0.191533 0.629168
Si Si8 0.846405 0.496624 0.683745
O O1 0.363772 0.699176 0.473526
O O2 0.233575 0.805612 0.406708
O O3 0.410589 0.825251 0.375443
O O4 0.322771 0.588443 0.374390
O O5 0.895474 0.812245 0.428779
O O6 0.065267 0.862252 0.407838
O O7 0.938750 0.043016 0.387563
O O8 0.000000 0.000000 0.500000
O O9 0.042905 0.758321 0.697447
O O10 0.077464 0.559852 0.773550
O O11 0.268506 0.303077 0.557906
O O12 0.128971 0.467205 0.562602
O O13 0.117707 0.644046 0.468971
O O14 0.119918 0.648457 0.344977
O O15 0.055534 0.301426 0.079941
O O16 0.750000 0.500000 0.720850
#
# Coordination Sequence:
#
# PCOD8222593 Si02
#       8
#     8   8   4   8   8   8   8   8
#     4   9  17  32  58  85 120 152 190 241 297 365
#     4  12  23  35  55  94 128 162 191 245 316 377
#     4  10  24  42  64  78 116 174 204 256 294 350
#     4  10  20  34  56  94 126 156 191 241 316 370
#     4  10  19  33  59  93 120 148 193 255 306 356
#     4  10  20  36  61  89 124 158 195 250 310 360
#     4  11  23  41  57  86 120 168 205 236 305 368
#     4   9  18  37  62  90 115 150 212 259 300 347
#
# _framework density 19.151236999999998
#
# number of rings (size 3 to 8) (size 9 to 14) (size 15 to 20)
#    0.000    1.867    4.000    0.000    3.733    2.133 
#    2.400    0.667    0.000    4.800    0.000    0.000 
#    0.000    0.000    0.000    0.000    0.000    0.000 
#
# Total GULP energy -743344.913906 kJ/mol
# GULP energy per Si atom -12389.081898 kJ/mol
# Density = 1.910765 g / cm^3
# Si number density = 19.151237 Si / 1000 Ang^3
#
#
#
# Elastic Constant Matrix: (Units=GPa)
#
#
# Indices 1 2 3 4 5 6 
#
# 1 85.3736 49.4689 43.4462 0.0000 0.0000 0.0000
# 2 49.4689 116.0541 40.5803 0.0000 0.0000 0.0000
# 3 43.4462 40.5803 86.4815 0.0000 0.0000 0.0000
# 4 0.0000 0.0000 0.0000 2.8347 0.0000 0.0000
# 5 0.0000 0.0000 0.0000 0.0000 17.1044 0.0000
# 6 0.0000 0.0000 0.0000 0.0000 0.0000 29.9769
#
#
#
# Elastic Compliance Matrix: (Units=1/GPa)
#
#
# Indices 1 2 3 4 5 6 
#
# 1 0.018239 -0.005468 -0.006597 0.000000 0.000000 0.000000
# 2 -0.005468 0.011947 -0.002859 0.000000 0.000000 0.000000
# 3 -0.006597 -0.002859 0.016219 0.000000 0.000000 0.000000
# 4 0.000000 0.000000 0.000000 0.352775 0.000000 0.000000
# 5 0.000000 0.000000 0.000000 0.000000 0.058465 0.000000
# 6 0.000000 0.000000 0.000000 0.000000 0.000000 0.033359
#
#
# Mechanical properties :
#
#
# Convention : Reuss Voigt Hill
#
# Bulk Modulus (GPa) = 60.39747 61.65555 61.02651
# Shear Modulus (GPa) = 9.49903 20.27744 14.88824
#
# Velocity S-wave (km/s) = 2.22952 3.25746 2.79122
# Velocity P-wave (km/s) = 6.18331 6.81263 6.50558
#
# Compressibility (1/GPa) = 0.01655698
#
# Stress axis : x y z
#
# Youngs Moduli (GPa) = 54.82904 83.70290 61.65614
#
# Poissons Ratio (x) = 0.45765 0.40675
# Poissons Ratio (y) = 0.29978 0.17629
# Poissons Ratio (z) = 0.36171 0.23932
#
# Static dielectric constant tensor:
#      x y z
#    x 4.880850 0.000000 0.000000 
#    y 0.000000 3.657690 0.000000 
#    z 0.000000 0.000000 3.221140 
# 
# 
# High freq. dielectric constant tensor:
#      x y z
#    x 1.758650 0.000000 0.000000 
#    y 0.000000 1.737700 0.000000 
#    z 0.000000 0.000000 1.705320 
# 
# From -- ./inp_files/24446.got.cif
#   From: 2010.03.12/outbox.cif.g09.slc.cpg/sg54_13_cif.got.tgz:24446.got - 2010.04.16 15:00:50.
