data_PCOD8222784
_publ_section_title
;
Structure prediction by ZEFSAII (Michael W. Deem and Ramdas Pophale) SiO2 
 PCOD8222784
Probable space group: P C C A
;
_chemical_formula_sum "Si O2"
_cell_formula_units_Z 64
_cell_length_a 19.588904
_cell_length_b 10.632413
_cell_length_c 14.522185
_cell_angle_alpha 90.000000
_cell_angle_beta 90.000000
_cell_angle_gamma 90.000000
_cell_volume 3024.641737
_symmetry_space_group_name_H-M "P C C A"
_symmetry_group_IT_number 54
_symmetry_cell_setting 'orthorhombic'
loop_
_space_group_symop_operation_xyz
x,y,z
1/2-x,-y,z
1/2+x,-y,1/2-z
-x,y,1/2-z
-x,-y,-z
1/2+x,y,-z
1/2-x,y,1/2+z
x,-y,1/2+z
loop_
_atom_site_type_symbol
_atom_site_label
_atom_site_fract_x
_atom_site_fract_y
_atom_site_fract_z
Si Si1 0.434909 0.887372 0.186118
Si Si2 0.339477 0.340110 0.733936
Si Si3 0.006824 0.783293 0.981871
Si Si4 0.734642 0.357108 0.943306
Si Si5 0.943941 0.160834 0.826641
Si Si6 0.580033 0.588984 0.753776
Si Si7 0.644351 0.329855 0.558580
Si Si8 0.896566 0.395055 0.544077
O O1 0.500000 0.870308 0.250000
O O2 0.378530 0.788851 0.215616
O O3 0.458827 0.867579 0.081599
O O4 0.404189 0.030021 0.194114
O O5 0.272763 0.338995 0.667466
O O6 0.383742 0.463490 0.706804
O O7 0.319442 0.345765 0.841396
O O8 0.080689 0.764629 0.933873
O O9 0.018241 0.856911 0.076621
O O10 0.968444 0.651487 0.002528
O O11 0.750000 0.500000 0.970629
O O12 0.798373 0.278739 0.986454
O O13 0.664453 0.317064 0.994224
O O14 0.900710 0.292145 0.821671
O O15 0.000000 0.185972 0.750000
O O16 0.500000 0.555275 0.750000
O O17 0.607372 0.627088 0.653397
O O18 0.611153 0.458375 0.521669
#
# Coordination Sequence:
#
# PCOD8222784 Si02
#       8
#     8   8   8   8   8   8   8   8
#     4  11  22  38  61  95 127 160 202 262 307 368
#     4  11  22  38  64  91 120 166 204 256 312 365
#     4  12  20  36  63  93 117 169 202 262 298 373
#     4  10  23  39  57  88 124 168 196 252 311 371
#     4  10  22  37  56  95 133 161 198 249 316 368
#     4  10  20  34  58  94 127 155 201 253 307 363
#     4  10  24  38  56  95 129 156 207 257 311 366
#     4  10  20  35  57  88 128 156 202 249 305 367
#
# _framework density 21.159531000000001
#
# number of rings (size 3 to 8) (size 9 to 14) (size 15 to 20)
#    0.000    1.500    5.000    1.125    5.250    2.500 
#    0.000    0.000    0.000    0.750    0.000    0.000 
#    0.000    0.000    0.000    0.000    0.000    0.000 
#
# Total GULP energy -793252.387554 kJ/mol
# GULP energy per Si atom -12394.568556 kJ/mol
# Density = 2.111137 g / cm^3
# Si number density = 21.159531 Si / 1000 Ang^3
#
#
#
# Elastic Constant Matrix: (Units=GPa)
#
#
# Indices 1 2 3 4 5 6 
#
# 1 81.0616 23.8096 29.0338 0.0000 0.0000 0.0000
# 2 23.8096 112.6642 17.9230 0.0000 0.0000 0.0000
# 3 29.0338 17.9230 105.4888 0.0000 0.0000 0.0000
# 4 0.0000 0.0000 0.0000 -57.2965 0.0000 0.0000
# 5 0.0000 0.0000 0.0000 0.0000 37.7731 0.0000
# 6 0.0000 0.0000 0.0000 0.0000 0.0000 3.5469
#
#
#
# Elastic Compliance Matrix: (Units=1/GPa)
#
#
# Indices 1 2 3 4 5 6 
#
# 1 0.014323 -0.002466 -0.003523 0.000000 0.000000 0.000000
# 2 -0.002466 0.009547 -0.000943 0.000000 0.000000 0.000000
# 3 -0.003523 -0.000943 0.010610 0.000000 0.000000 0.000000
# 4 0.000000 0.000000 0.000000 -0.017453 0.000000 0.000000
# 5 0.000000 0.000000 0.000000 0.000000 0.026474 0.000000
# 6 0.000000 0.000000 0.000000 0.000000 0.000000 0.281939
#
#
# Mechanical properties :
#
#
# Convention : Reuss Voigt Hill
#
# Bulk Modulus (GPa) = 48.51051 48.97193 48.74122
# Shear Modulus (GPa) = 14.44351 12.03456 13.23903
#
# Velocity S-wave (km/s) = 2.61550 2.38744 2.50407
# Velocity P-wave (km/s) = 5.66542 5.54926 5.60764
#
# Compressibility (1/GPa) = 0.02061409
#
# Stress axis : x y z
#
# Youngs Moduli (GPa) = 69.81999 104.74247 94.25442
#
# Poissons Ratio (x) = 0.25833 0.33205
# Poissons Ratio (y) = 0.17220 0.08891
# Poissons Ratio (z) = 0.24597 0.09880
#
# Static dielectric constant tensor:
#      x y z
#    x 3.713360 0.000000 0.000000 
#    y 0.000000 3.716200 0.000000 
#    z 0.000000 0.000000 4.004730 
# 
# 
# High freq. dielectric constant tensor:
#      x y z
#    x 1.799450 0.000000 0.000000 
#    y 0.000000 1.802320 0.000000 
#    z 0.000000 0.000000 1.849860 
# 
# From -- ./inp_files/14358.got.cif
#   From: 2010.03.12/outbox.cif.g09.slc.cpg/sg54_8_cif.got.tgz:14358.got - 2010.04.16 15:00:50.
