data_PCOD8222094
_publ_section_title
;
Structure prediction by ZEFSAII (Michael W. Deem and Ramdas Pophale) SiO2 
 PCOD8222094
Probable space group: P M N A
;
_chemical_formula_sum "Si O2"
_cell_formula_units_Z 32
_cell_length_a 8.940016
_cell_length_b 7.180065
_cell_length_c 24.036438
_cell_angle_alpha 90.000000
_cell_angle_beta 90.000000
_cell_angle_gamma 90.000000
_cell_volume 1542.896455
_symmetry_space_group_name_H-M "P M N A"
_symmetry_group_IT_number 53
_symmetry_cell_setting 'orthorhombic'
loop_
_space_group_symop_operation_xyz
x,y,z
1/2-x,-y,1/2+z
x,-y,-z
1/2-x,y,1/2-z
-x,-y,-z
1/2+x,y,1/2-z
-x,y,z
1/2+x,-y,1/2+z
loop_
_atom_site_type_symbol
_atom_site_label
_atom_site_fract_x
_atom_site_fract_y
_atom_site_fract_z
Si Si1 0.324326 0.929940 0.692809
Si Si2 0.835589 0.284412 0.015606
Si Si3 0.825745 0.754056 0.105299
Si Si4 0.175441 0.635255 0.622316
O O1 0.250000 0.996154 0.750000
O O2 0.500000 0.908350 0.701244
O O3 0.255600 0.732789 0.674423
O O4 0.282421 0.081278 0.646397
O O5 0.718527 0.255638 0.065337
O O6 0.000000 0.217012 0.036410
O O7 0.843407 0.500000 0.000000
O O8 0.790046 0.177631 0.958356
O O9 0.726159 0.577769 0.121408
O O10 0.000000 0.697111 0.109696
O O11 0.000000 0.646547 0.630926
#
# Coordination Sequence:
#
# PCOD8222094 Si02
#       4
#     8   8   8   8
#     4  11  24  42  61  82 111 148 195 242 282 334
#     4   8  15  32  57  84 114 149 189 229 278 341
#     4   9  20  39  62  85 113 152 192 235 287 340
#     4  11  22  36  58  88 121 153 185 230 285 339
#
# _framework density 20.740212
#
# number of rings (size 3 to 8) (size 9 to 14) (size 15 to 20)
#    0.000    2.250    0.000    4.500    0.000    8.500 
#    0.000    7.500    0.000    0.000    0.000    0.000 
#    0.000    0.000    0.000    0.000    0.000    0.000 
#
# Total GULP energy -396812.480946 kJ/mol
# GULP energy per Si atom -12400.390030 kJ/mol
# Density = 2.069301 g / cm^3
# Si number density = 20.740212 Si / 1000 Ang^3
#
#
#
# Elastic Constant Matrix: (Units=GPa)
#
#
# Indices 1 2 3 4 5 6 
#
# 1 122.4397 38.5596 44.8892 0.0000 0.0000 0.0000
# 2 38.5596 36.6685 21.7805 0.0000 0.0000 0.0000
# 3 44.8892 21.7805 97.4182 0.0000 0.0000 0.0000
# 4 0.0000 0.0000 0.0000 32.8300 0.0000 0.0000
# 5 0.0000 0.0000 0.0000 0.0000 36.7608 0.0000
# 6 0.0000 0.0000 0.0000 0.0000 0.0000 14.8293
#
#
#
# Elastic Compliance Matrix: (Units=1/GPa)
#
#
# Indices 1 2 3 4 5 6 
#
# 1 0.013129 -0.011776 -0.003417 0.000000 0.000000 0.000000
# 2 -0.011776 0.042011 -0.003966 0.000000 0.000000 0.000000
# 3 -0.003417 -0.003966 0.012726 0.000000 0.000000 0.000000
# 4 0.000000 0.000000 0.000000 0.030460 0.000000 0.000000
# 5 0.000000 0.000000 0.000000 0.000000 0.027203 0.000000
# 6 0.000000 0.000000 0.000000 0.000000 0.000000 0.067434
#
#
# Mechanical properties :
#
#
# Convention : Reuss Voigt Hill
#
# Bulk Modulus (GPa) = 33.84407 51.88722 42.86564
# Shear Modulus (GPa) = 20.73570 26.97049 23.85310
#
# Velocity S-wave (km/s) = 3.16536 3.61001 3.39498
# Velocity P-wave (km/s) = 5.45095 6.51523 6.00671
#
# Compressibility (1/GPa) = 0.02954727
#
# Stress axis : x y z
#
# Youngs Moduli (GPa) = 76.16997 23.80335 78.57844
#
# Poissons Ratio (x) = 0.28031 0.26847
# Poissons Ratio (y) = 0.89699 0.31167
# Poissons Ratio (z) = 0.26024 0.09441
#
# Static dielectric constant tensor:
#      x y z
#    x 3.586810 0.000000 0.000000 
#    y 0.000000 3.598520 0.000000 
#    z 0.000000 0.000000 4.102990 
# 
# 
# High freq. dielectric constant tensor:
#      x y z
#    x 1.799090 0.000000 0.000000 
#    y 0.000000 1.805350 0.000000 
#    z 0.000000 0.000000 1.817390 
# 
# From -- ./inp_files/30010.got.cif
#   From: 2010.03.12/outbox.cif.g09.slc.cpg/sg53_16_cif.got.tgz:30010.got - 2010.04.16 14:36:59.
