data_PCOD8222454
_publ_section_title
;
Structure prediction by ZEFSAII (Michael W. Deem and Ramdas Pophale) SiO2 
 PCOD8222454
Probable space group: P C C A
;
_chemical_formula_sum "Si O2"
_cell_formula_units_Z 40
_cell_length_a 18.615432
_cell_length_b 12.131668
_cell_length_c 8.738618
_cell_angle_alpha 90.000000
_cell_angle_beta 90.000000
_cell_angle_gamma 90.000000
_cell_volume 1973.496638
_symmetry_space_group_name_H-M "P C C A"
_symmetry_group_IT_number 54
_symmetry_cell_setting 'orthorhombic'
loop_
_space_group_symop_operation_xyz
x,y,z
1/2-x,-y,z
1/2+x,-y,1/2-z
-x,y,1/2-z
-x,-y,-z
1/2+x,y,-z
1/2-x,y,1/2+z
x,-y,1/2+z
loop_
_atom_site_type_symbol
_atom_site_label
_atom_site_fract_x
_atom_site_fract_y
_atom_site_fract_z
Si Si1 0.309792 0.365326 0.027287
Si Si2 0.554519 0.038205 0.122331
Si Si3 0.068063 0.753375 0.536624
Si Si4 0.593229 0.798131 0.129216
Si Si5 0.837364 0.410674 0.616335
O O1 0.321332 0.392587 0.205190
O O2 0.345647 0.248349 0.983661
O O3 0.345052 0.459920 0.920320
O O4 0.225571 0.358433 0.988730
O O5 0.500000 0.081697 0.250000
O O6 0.602894 0.930224 0.159335
O O7 0.600435 0.140891 0.056999
O O8 0.500000 0.000000 0.000000
O O9 0.102475 0.743209 0.704521
O O10 0.088515 0.646709 0.436190
O O11 0.982489 0.765829 0.552621
#
# Coordination Sequence:
#
# PCOD8222454 Si02
#       5
#     8   8   8   8   8
#     4  11  23  40  62  81 116 151 197 236 298 346
#     4  10  18  34  57  84 119 154 185 229 285 339
#     4  10  21  35  60  87 120 150 195 235 289 341
#     4  10  20  37  58  88 118 154 189 242 281 347
#     4  11  23  40  61  83 112 156 191 243 290 356
#
# _framework density 20.268594
#
# number of rings (size 3 to 8) (size 9 to 14) (size 15 to 20)
#    0.000    1.600    4.000    4.800    5.600    0.800 
#    0.000    1.000    0.000    4.800    0.000    0.000 
#    0.000    0.000    0.000    0.000    0.000    0.000 
#
# Total GULP energy -495620.789132 kJ/mol
# GULP energy per Si atom -12390.519728 kJ/mol
# Density = 2.022246 g / cm^3
# Si number density = 20.268594 Si / 1000 Ang^3
#
#
#
# Elastic Constant Matrix: (Units=GPa)
#
#
# Indices 1 2 3 4 5 6 
#
# 1 42.4462 31.4642 18.9457 0.0000 0.0000 0.0000
# 2 31.4642 84.8201 22.2811 0.0000 0.0000 0.0000
# 3 18.9457 22.2811 134.9120 0.0000 0.0000 0.0000
# 4 0.0000 0.0000 0.0000 38.0489 0.0000 0.0000
# 5 0.0000 0.0000 0.0000 0.0000 29.7423 0.0000
# 6 0.0000 0.0000 0.0000 0.0000 0.0000 22.6550
#
#
#
# Elastic Compliance Matrix: (Units=1/GPa)
#
#
# Indices 1 2 3 4 5 6 
#
# 1 0.033455 -0.011683 -0.002769 0.000000 0.000000 0.000000
# 2 -0.011683 0.016404 -0.001069 0.000000 0.000000 0.000000
# 3 -0.002769 -0.001069 0.007978 0.000000 0.000000 0.000000
# 4 0.000000 0.000000 0.000000 0.026282 0.000000 0.000000
# 5 0.000000 0.000000 0.000000 0.000000 0.033622 0.000000
# 6 0.000000 0.000000 0.000000 0.000000 0.000000 0.044140
#
#
# Mechanical properties :
#
#
# Convention : Reuss Voigt Hill
#
# Bulk Modulus (GPa) = 37.31821 45.28448 41.30134
# Shear Modulus (GPa) = 24.77037 30.72173 27.74605
#
# Velocity S-wave (km/s) = 3.49966 3.89746 3.70390
# Velocity P-wave (km/s) = 5.89762 6.53026 6.22199
#
# Compressibility (1/GPa) = 0.02679657
#
# Stress axis : x y z
#
# Youngs Moduli (GPa) = 29.89065 60.96011 125.35234
#
# Poissons Ratio (x) = 0.71220 0.34706
# Poissons Ratio (y) = 0.34921 0.13395
# Poissons Ratio (z) = 0.08276 0.06514
#
# Static dielectric constant tensor:
#      x y z
#    x 3.265970 0.000000 0.000000 
#    y 0.000000 4.002390 0.000000 
#    z 0.000000 0.000000 3.517280 
# 
# 
# High freq. dielectric constant tensor:
#      x y z
#    x 1.746500 0.000000 0.000000 
#    y 0.000000 1.793450 0.000000 
#    z 0.000000 0.000000 1.815890 
# 
# From -- ./inp_files/4649.got.cif
#   From: 2010.03.12/outbox.cif.g09.slc.cpg/sg54_3_cif.got.tgz:4649.got - 2010.04.16 15:00:50.
