data_PCOD8222027
_publ_section_title
;
Structure prediction by ZEFSAII (Michael W. Deem and Ramdas Pophale) SiO2 
 PCOD8222027
Probable space group: P M N A
;
_chemical_formula_sum "Si O2"
_cell_formula_units_Z 64
_cell_length_a 8.897342
_cell_length_b 12.411791
_cell_length_c 28.943377
_cell_angle_alpha 90.000000
_cell_angle_beta 90.000000
_cell_angle_gamma 90.000000
_cell_volume 3196.273543
_symmetry_space_group_name_H-M "P M N A"
_symmetry_group_IT_number 53
_symmetry_cell_setting 'orthorhombic'
loop_
_space_group_symop_operation_xyz
x,y,z
1/2-x,-y,1/2+z
x,-y,-z
1/2-x,y,1/2-z
-x,-y,-z
1/2+x,y,1/2-z
-x,y,z
1/2+x,-y,1/2+z
loop_
_atom_site_type_symbol
_atom_site_label
_atom_site_fract_x
_atom_site_fract_y
_atom_site_fract_z
Si Si1 0.326852 0.484414 0.429458
Si Si2 0.326637 0.553696 0.332681
Si Si3 0.677062 0.818772 0.861061
Si Si4 0.675387 0.730593 0.958600
Si Si5 0.678311 0.782302 0.348844
Si Si6 0.179524 0.996718 0.199676
Si Si7 0.328121 0.727457 0.450904
Si Si8 0.174208 0.664239 0.795289
O O1 0.500000 0.446559 0.427825
O O2 0.255569 0.502315 0.378676
O O3 0.234786 0.390413 0.453400
O O4 0.310863 0.598128 0.455839
O O5 0.500000 0.573045 0.345596
O O6 0.263232 0.673592 0.321861
O O7 0.306690 0.466168 0.292167
O O8 0.500000 0.833303 0.852359
O O9 0.715953 0.809234 0.915505
O O10 0.735833 0.707367 0.839211
O O11 0.768422 0.914125 0.836895
O O12 0.500000 0.722228 0.964222
O O13 0.741456 0.781352 0.005911
O O14 0.500000 0.792132 0.348631
O O15 0.743119 0.884339 0.321170
O O16 0.735784 0.773546 0.402040
O O17 0.250000 0.016980 0.250000
O O18 0.000000 0.999809 0.204216
O O19 0.500000 0.762039 0.455094
O O20 0.250000 0.715395 0.750000
O O21 0.000000 0.698360 0.797807
#
# Coordination Sequence:
#
# PCOD8222027 Si02
#       8
#     8   8   8   8   8   8   8   8
#     4   9  16  30  52  78 109 150 193 225 259 321
#     4   8  15  30  53  80 111 145 180 221 271 328
#     4  11  24  41  57  78 112 150 192 237 282 335
#     4  11  22  33  50  79 116 152 187 233 284 330
#     4   8  17  36  60  86 114 145 186 234 277 327
#     4  11  23  41  66  89 110 141 187 239 289 340
#     4   9  18  33  56  83 113 151 192 228 268 329
#     4  11  21  34  55  81 111 146 182 226 283 344
#
# _framework density 20.023316999999999
#
# number of rings (size 3 to 8) (size 9 to 14) (size 15 to 20)
#    0.000    2.250    1.250    3.750    0.000    4.000 
#    0.000    1.875    0.000    7.500    0.000    0.000 
#    0.000    0.000    0.000    0.000    0.000    0.000 
#
# Total GULP energy -793036.981739 kJ/mol
# GULP energy per Si atom -12391.202840 kJ/mol
# Density = 1.997774 g / cm^3
# Si number density = 20.023317 Si / 1000 Ang^3
#
#
#
# Elastic Constant Matrix: (Units=GPa)
#
#
# Indices 1 2 3 4 5 6 
#
# 1 59.4060 20.6115 30.6806 0.0000 0.0000 0.0000
# 2 20.6115 92.8147 27.6091 0.0000 0.0000 0.0000
# 3 30.6806 27.6091 77.4445 0.0000 0.0000 0.0000
# 4 0.0000 0.0000 0.0000 22.6123 0.0000 0.0000
# 5 0.0000 0.0000 0.0000 0.0000 27.9739 0.0000
# 6 0.0000 0.0000 0.0000 0.0000 0.0000 10.4489
#
#
#
# Elastic Compliance Matrix: (Units=1/GPa)
#
#
# Indices 1 2 3 4 5 6 
#
# 1 0.021681 -0.002528 -0.007688 0.000000 0.000000 0.000000
# 2 -0.002528 0.012347 -0.003400 0.000000 0.000000 0.000000
# 3 -0.007688 -0.003400 0.017170 0.000000 0.000000 0.000000
# 4 0.000000 0.000000 0.000000 0.044224 0.000000 0.000000
# 5 0.000000 0.000000 0.000000 0.000000 0.035748 0.000000
# 6 0.000000 0.000000 0.000000 0.000000 0.000000 0.095704
#
#
# Mechanical properties :
#
#
# Convention : Reuss Voigt Hill
#
# Bulk Modulus (GPa) = 41.72567 43.05195 42.38881
# Shear Modulus (GPa) = 19.07713 22.25796 20.66755
#
# Velocity S-wave (km/s) = 3.09001 3.33769 3.21623
# Velocity P-wave (km/s) = 5.79781 6.03333 5.91675
#
# Compressibility (1/GPa) = 0.02396606
#
# Stress axis : x y z
#
# Youngs Moduli (GPa) = 46.12365 80.99147 58.23981
#
# Poissons Ratio (x) = 0.20473 0.44775
# Poissons Ratio (y) = 0.11659 0.19803
# Poissons Ratio (z) = 0.35460 0.27540
#
# Static dielectric constant tensor:
#      x y z
#    x 3.355870 0.000000 0.000000 
#    y 0.000000 3.657270 0.000000 
#    z 0.000000 0.000000 3.764330 
# 
# 
# High freq. dielectric constant tensor:
#      x y z
#    x 1.753920 0.000000 0.000000 
#    y 0.000000 1.767560 0.000000 
#    z 0.000000 0.000000 1.788760 
# 
# From -- ./inp_files/38233.got.cif
#   From: 2010.03.12/outbox.cif.g09.slc.cpg/sg53_20_cif.got.tgz:38233.got - 2010.04.16 14:36:59.
