data_PCOD8222553
_publ_section_title
;
Structure prediction by ZEFSAII (Michael W. Deem and Ramdas Pophale) SiO2 
 PCOD8222553
Probable space group: P C C A
;
_chemical_formula_sum "Si O2"
_cell_formula_units_Z 56
_cell_length_a 16.417504
_cell_length_b 33.672201
_cell_length_c 5.165015
_cell_angle_alpha 90.000000
_cell_angle_beta 90.000000
_cell_angle_gamma 90.000000
_cell_volume 2855.289992
_symmetry_space_group_name_H-M "P C C A"
_symmetry_group_IT_number 54
_symmetry_cell_setting 'orthorhombic'
loop_
_space_group_symop_operation_xyz
x,y,z
1/2-x,-y,z
1/2+x,-y,1/2-z
-x,y,1/2-z
-x,-y,-z
1/2+x,y,-z
1/2-x,y,1/2+z
x,-y,1/2+z
loop_
_atom_site_type_symbol
_atom_site_label
_atom_site_fract_x
_atom_site_fract_y
_atom_site_fract_z
Si Si1 0.096002 0.396779 0.242967
Si Si2 0.903535 0.023385 0.749214
Si Si3 0.199293 0.185700 0.820797
Si Si4 0.158431 0.482523 0.284075
Si Si5 0.803722 0.100972 0.779693
Si Si6 0.197276 0.270035 0.717363
Si Si7 0.594769 0.347372 0.257013
O O1 0.153315 0.435241 0.264258
O O2 0.120906 0.368018 0.476540
O O3 0.000000 0.408038 0.250000
O O4 0.121420 0.375552 0.978155
O O5 0.871696 0.068011 0.737697
O O6 0.000000 0.025681 0.750000
O O7 0.870469 0.999183 0.502319
O O8 0.276928 0.185757 0.623804
O O9 0.152423 0.144355 0.756800
O O10 0.151978 0.227058 0.758213
O O11 0.250000 0.500000 0.304895
O O12 0.112325 0.497316 0.541964
O O13 0.732422 0.096672 0.567296
O O14 0.229446 0.273300 0.424360
O O15 0.134440 0.304684 0.772751
O O16 0.500000 0.339351 0.250000
#
# Coordination Sequence:
#
# PCOD8222553 Si02
#       7
#     8   8   8   8   8   8   8
#     4  10  21  38  58  77 105 142 173 206 255 309
#     4  10  21  35  49  69 103 140 171 217 274 320
#     4   8  16  30  50  72 106 134 165 214 261 309
#     4  10  21  38  53  77 105 134 167 213 257 288
#     4  10  19  32  52  77  98 133 177 220 264 305
#     4  10  19  35  54  83 108 139 177 210 257 312
#     4  10  21  38  56  81 112 140 172 213 257 304
#
# _framework density 19.612718000000001
#
# number of rings (size 3 to 8) (size 9 to 14) (size 15 to 20)
#    0.000    2.286    0.000    2.571    0.000    2.286 
#   15.429    0.714    0.000    0.000    0.000   18.000 
#    0.000    0.000    0.000    0.000    0.000    0.000 
#
# Total GULP energy -694004.008277 kJ/mol
# GULP energy per Si atom -12392.928719 kJ/mol
# Density = 1.956808 g / cm^3
# Si number density = 19.612718 Si / 1000 Ang^3
#
#
#
# Elastic Constant Matrix: (Units=GPa)
#
#
# Indices 1 2 3 4 5 6 
#
# 1 22.3010 41.6665 10.5652 0.0000 0.0000 0.0000
# 2 41.6665 162.4191 9.0775 0.0000 0.0000 0.0000
# 3 10.5652 9.0775 107.2038 0.0000 0.0000 0.0000
# 4 0.0000 0.0000 0.0000 28.1980 0.0000 0.0000
# 5 0.0000 0.0000 0.0000 0.0000 7.6622 0.0000
# 6 0.0000 0.0000 0.0000 0.0000 0.0000 10.9325
#
#
#
# Elastic Compliance Matrix: (Units=1/GPa)
#
#
# Indices 1 2 3 4 5 6 
#
# 1 0.091107 -0.022979 -0.007033 0.000000 0.000000 0.000000
# 2 -0.022979 0.011982 0.001250 0.000000 0.000000 0.000000
# 3 -0.007033 0.001250 0.009915 0.000000 0.000000 0.000000
# 4 0.000000 0.000000 0.000000 0.035464 0.000000 0.000000
# 5 0.000000 0.000000 0.000000 0.000000 0.130511 0.000000
# 6 0.000000 0.000000 0.000000 0.000000 0.000000 0.091471
#
#
# Mechanical properties :
#
#
# Convention : Reuss Voigt Hill
#
# Bulk Modulus (GPa) = 18.02458 46.06027 32.04243
# Shear Modulus (GPa) = 11.19905 24.73285 17.96595
#
# Velocity S-wave (km/s) = 2.39217 3.55500 3.02989
# Velocity P-wave (km/s) = 4.10368 6.35504 5.34915
#
# Compressibility (1/GPa) = 0.05547978
#
# Stress axis : x y z
#
# Youngs Moduli (GPa) = 10.97614 83.45816 100.85419
#
# Poissons Ratio (x) = 1.91780 0.70931
# Poissons Ratio (y) = 0.25222 -0.12608
# Poissons Ratio (z) = 0.07720 -0.10433
#
# Static dielectric constant tensor:
#      x y z
#    x 2.988630 0.000000 0.000000 
#    y 0.000000 3.930410 0.000000 
#    z 0.000000 0.000000 4.924190 
# 
# 
# High freq. dielectric constant tensor:
#      x y z
#    x 1.698660 0.000000 0.000000 
#    y 0.000000 1.789020 0.000000 
#    z 0.000000 0.000000 1.797440 
# 
# From -- ./inp_files/750.got.cif
#   From: 2010.03.12/outbox.cif.g09.slc.cpg/sg54_1_cif.got.tgz:750.got - 2010.04.16 15:00:50.
