data_PCOD8222727
_publ_section_title
;
Structure prediction by ZEFSAII (Michael W. Deem and Ramdas Pophale) SiO2 
 PCOD8222727
Probable space group: P C C A
;
_chemical_formula_sum "Si O2"
_cell_formula_units_Z 60
_cell_length_a 9.121804
_cell_length_b 14.699166
_cell_length_c 21.471823
_cell_angle_alpha 90.000000
_cell_angle_beta 90.000000
_cell_angle_gamma 90.000000
_cell_volume 2879.004537
_symmetry_space_group_name_H-M "P C C A"
_symmetry_group_IT_number 54
_symmetry_cell_setting 'orthorhombic'
loop_
_space_group_symop_operation_xyz
x,y,z
1/2-x,-y,z
1/2+x,-y,1/2-z
-x,y,1/2-z
-x,-y,-z
1/2+x,y,-z
1/2-x,y,1/2+z
x,-y,1/2+z
loop_
_atom_site_type_symbol
_atom_site_label
_atom_site_fract_x
_atom_site_fract_y
_atom_site_fract_z
Si Si1 0.566893 0.577515 0.078145
Si Si2 0.624453 0.388654 0.033798
Si Si3 0.250000 0.000000 0.190440
Si Si4 0.838909 0.842583 0.224854
Si Si5 0.919044 0.849697 0.579103
Si Si6 0.602203 0.808543 0.532197
Si Si7 0.538215 0.957659 0.618572
Si Si8 0.405317 0.717385 0.312122
O O1 0.572257 0.467222 0.082238
O O2 0.699125 0.612918 0.034540
O O3 0.580533 0.624757 0.146434
O O4 0.419973 0.598818 0.039035
O O5 0.558843 0.292306 0.056328
O O6 0.256239 0.905623 0.228845
O O7 0.105954 0.998256 0.149374
O O8 0.849972 0.906396 0.164364
O O9 0.759440 0.746149 0.210170
O O10 0.000000 0.818772 0.250000
O O11 0.775827 0.814857 0.543102
O O12 0.952754 0.802349 0.645385
O O13 0.064289 0.824080 0.540127
O O14 0.885903 0.956239 0.586806
O O15 0.500581 0.882007 0.567218
O O16 0.500000 0.704739 0.250000
#
# Coordination Sequence:
#
# PCOD8222727 Si02
#       8
#     8   8   4   8   8   8   8   8
#     4  10  21  39  71 101 129 169 215 274 330 394
#     4  10  19  41  68  99 127 168 218 264 330 396
#     4  10  22  38  60  90 122 184 226 268 310 392
#     4  10  21  41  63  87 129 181 233 265 320 388
#     4  12  25  40  61  98 131 175 214 276 330 389
#     4  12  23  40  64  93 131 169 218 267 332 391
#     4  11  23  38  61  89 133 172 221 270 324 384
#     4  12  23  42  67  99 130 173 222 275 330 393
#
# _framework density 20.840537000000001
#
# number of rings (size 3 to 8) (size 9 to 14) (size 15 to 20)
#    0.000    1.067    4.000    2.400    1.867    1.067 
#    0.000    1.333    0.000   18.400    0.000    0.000 
#    0.000    0.000    0.000    0.000    0.000    0.000 
#
# Total GULP energy -743445.517272 kJ/mol
# GULP energy per Si atom -12390.758621 kJ/mol
# Density = 2.079310 g / cm^3
# Si number density = 20.840537 Si / 1000 Ang^3
#
#
#
# Elastic Constant Matrix: (Units=GPa)
#
#
# Indices 1 2 3 4 5 6 
#
# 1 79.0587 30.6820 57.7628 0.0000 0.0000 0.0000
# 2 30.6820 168.3463 64.5703 0.0000 0.0000 0.0000
# 3 57.7628 64.5703 121.1941 0.0000 0.0000 0.0000
# 4 0.0000 0.0000 0.0000 35.8274 0.0000 0.0000
# 5 0.0000 0.0000 0.0000 0.0000 19.5748 0.0000
# 6 0.0000 0.0000 0.0000 0.0000 0.0000 17.8035
#
#
#
# Elastic Compliance Matrix: (Units=1/GPa)
#
#
# Indices 1 2 3 4 5 6 
#
# 1 0.019407 0.000013 -0.009257 0.000000 0.000000 0.000000
# 2 0.000013 0.007466 -0.003984 0.000000 0.000000 0.000000
# 3 -0.009257 -0.003984 0.014786 0.000000 0.000000 0.000000
# 4 0.000000 0.000000 0.000000 0.027912 0.000000 0.000000
# 5 0.000000 0.000000 0.000000 0.000000 0.051086 0.000000
# 6 0.000000 0.000000 0.000000 0.000000 0.000000 0.056169
#
#
# Mechanical properties :
#
#
# Convention : Reuss Voigt Hill
#
# Bulk Modulus (GPa) = 65.77335 74.95882 70.36609
# Shear Modulus (GPa) = 23.99835 29.01340 26.50588
#
# Velocity S-wave (km/s) = 3.39709 3.73522 3.57016
# Velocity P-wave (km/s) = 6.85681 7.39245 7.12966
#
# Compressibility (1/GPa) = 0.01520373
#
# Stress axis : x y z
#
# Youngs Moduli (GPa) = 51.52809 133.94412 67.63249
#
# Poissons Ratio (x) = -0.00181 0.62606
# Poissons Ratio (y) = -0.00070 0.26945
# Poissons Ratio (z) = 0.47698 0.53365
#
# Static dielectric constant tensor:
#      x y z
#    x 3.497430 0.000000 0.000000 
#    y 0.000000 4.088680 0.000000 
#    z 0.000000 0.000000 3.856100 
# 
# 
# High freq. dielectric constant tensor:
#      x y z
#    x 1.809890 0.000000 0.000000 
#    y 0.000000 1.821770 0.000000 
#    z 0.000000 0.000000 1.803040 
# 
# From -- ./inp_files/23642.got.cif
#   From: 2010.03.12/outbox.cif.g09.slc.cpg/sg54_12_cif.got.tgz:23642.got - 2010.04.16 15:00:50.
