data_PCOD8222422
_publ_section_title
;
Structure prediction by ZEFSAII (Michael W. Deem and Ramdas Pophale) SiO2 
 PCOD8222422
Probable space group: P C C A
;
_chemical_formula_sum "Si O2"
_cell_formula_units_Z 48
_cell_length_a 8.270856
_cell_length_b 11.166335
_cell_length_c 27.837490
_cell_angle_alpha 90.000000
_cell_angle_beta 90.000000
_cell_angle_gamma 90.000000
_cell_volume 2570.935532
_symmetry_space_group_name_H-M "P C C A"
_symmetry_group_IT_number 54
_symmetry_cell_setting 'orthorhombic'
loop_
_space_group_symop_operation_xyz
x,y,z
1/2-x,-y,z
1/2+x,-y,1/2-z
-x,y,1/2-z
-x,-y,-z
1/2+x,y,-z
1/2-x,y,1/2+z
x,-y,1/2+z
loop_
_atom_site_type_symbol
_atom_site_label
_atom_site_fract_x
_atom_site_fract_y
_atom_site_fract_z
Si Si1 0.422751 0.767949 0.487592
Si Si2 0.750000 0.500000 0.709493
Si Si3 0.349543 0.380924 0.455519
Si Si4 0.300604 0.868224 0.068052
Si Si5 0.843374 0.689836 0.845102
Si Si6 0.500000 0.673476 0.250000
Si Si7 0.016821 0.566854 0.142057
O O1 0.282901 0.726134 0.450717
O O2 0.534942 0.651737 0.499539
O O3 0.533860 0.870010 0.463189
O O4 0.347659 0.816433 0.537140
O O5 0.654017 0.410557 0.743084
O O6 0.633410 0.581792 0.677355
O O7 0.250000 0.500000 0.466999
O O8 0.462161 0.384897 0.409247
O O9 0.339649 0.791649 0.115143
O O10 0.250000 0.000000 0.084841
O O11 0.940748 0.573641 0.863646
O O12 0.659903 0.646898 0.835611
O O13 0.939630 0.744414 0.797883
#
# Coordination Sequence:
#
# PCOD8222422 Si02
#       7
#     8   4   8   8   8   4   8
#     4  10  23  35  54  81 115 153 199 231 284 329
#     4  10  18  32  54  82 110 150 172 224 286 348
#     4  11  19  33  50  84 118 155 181 228 282 350
#     4  11  22  40  59  80 111 153 199 242 277 325
#     4  10  21  36  55  83 111 151 184 232 289 341
#     4  10  20  34  56  82 114 142 186 230 284 352
#     4  10  19  32  55  81 121 141 181 223 287 353
#
# _framework density 18.670245999999999
#
# number of rings (size 3 to 8) (size 9 to 14) (size 15 to 20)
#    0.000    1.667    2.500    4.000    2.333    1.333 
#    0.000    0.000    0.000    2.000    0.000    0.000 
#    0.000    0.000    0.000    0.000    0.000    0.000 
#
# Total GULP energy -594872.961387 kJ/mol
# GULP energy per Si atom -12393.186696 kJ/mol
# Density = 1.862775 g / cm^3
# Si number density = 18.670246 Si / 1000 Ang^3
#
#
#
# Elastic Constant Matrix: (Units=GPa)
#
#
# Indices 1 2 3 4 5 6 
#
# 1 116.2917 31.4738 50.4491 0.0000 0.0000 0.0000
# 2 31.4738 71.5511 41.8366 0.0000 0.0000 0.0000
# 3 50.4491 41.8366 111.8758 0.0000 0.0000 0.0000
# 4 0.0000 0.0000 0.0000 15.5645 0.0000 0.0000
# 5 0.0000 0.0000 0.0000 0.0000 40.6917 0.0000
# 6 0.0000 0.0000 0.0000 0.0000 0.0000 16.8864
#
#
#
# Elastic Compliance Matrix: (Units=1/GPa)
#
#
# Indices 1 2 3 4 5 6 
#
# 1 0.011025 -0.002487 -0.004042 0.000000 0.000000 0.000000
# 2 -0.002487 0.018448 -0.005777 0.000000 0.000000 0.000000
# 3 -0.004042 -0.005777 0.012922 0.000000 0.000000 0.000000
# 4 0.000000 0.000000 0.000000 0.064249 0.000000 0.000000
# 5 0.000000 0.000000 0.000000 0.000000 0.024575 0.000000
# 6 0.000000 0.000000 0.000000 0.000000 0.000000 0.059219
#
#
# Mechanical properties :
#
#
# Convention : Reuss Voigt Hill
#
# Bulk Modulus (GPa) = 56.23275 60.80419 58.51847
# Shear Modulus (GPa) = 22.62673 26.35914 24.49293
#
# Velocity S-wave (km/s) = 3.48503 3.76150 3.62590
# Velocity P-wave (km/s) = 6.81016 7.17658 6.99577
#
# Compressibility (1/GPa) = 0.01778323
#
# Stress axis : x y z
#
# Youngs Moduli (GPa) = 90.69885 54.20672 77.38939
#
# Poissons Ratio (x) = 0.13479 0.31281
# Poissons Ratio (y) = 0.22552 0.44711
# Poissons Ratio (z) = 0.36660 0.31318
#
# Static dielectric constant tensor:
#      x y z
#    x 3.885210 0.000000 0.000000 
#    y 0.000000 3.039030 0.000000 
#    z 0.000000 0.000000 3.458010 
# 
# 
# High freq. dielectric constant tensor:
#      x y z
#    x 1.755090 0.000000 0.000000 
#    y 0.000000 1.671910 0.000000 
#    z 0.000000 0.000000 1.721810 
# 
# From -- ./inp_files/23561.got.cif
#   From: 2010.03.12/outbox.cif.g09.slc.cpg/sg54_12_cif.got.tgz:23561.got - 2010.04.16 15:00:50.
