data_PCOD8222902
_publ_section_title
;
Structure prediction by ZEFSAII (Michael W. Deem and Ramdas Pophale) SiO2 
 PCOD8222902
Probable space group: P C C A
;
_chemical_formula_sum "Si O2"
_cell_formula_units_Z 64
_cell_length_a 16.665435
_cell_length_b 8.043178
_cell_length_c 22.807263
_cell_angle_alpha 90.000000
_cell_angle_beta 90.000000
_cell_angle_gamma 90.000000
_cell_volume 3057.155326
_symmetry_space_group_name_H-M "P C C A"
_symmetry_group_IT_number 54
_symmetry_cell_setting 'orthorhombic'
loop_
_space_group_symop_operation_xyz
x,y,z
1/2-x,-y,z
1/2+x,-y,1/2-z
-x,y,1/2-z
-x,-y,-z
1/2+x,y,-z
1/2-x,y,1/2+z
x,-y,1/2+z
loop_
_atom_site_type_symbol
_atom_site_label
_atom_site_fract_x
_atom_site_fract_y
_atom_site_fract_z
Si Si1 0.138701 0.661247 0.321602
Si Si2 0.316654 0.721213 0.308364
Si Si3 0.988525 0.837698 0.106690
Si Si4 0.402077 0.393071 0.617403
Si Si5 0.898284 0.299885 0.805366
Si Si6 0.428371 0.616117 0.517011
Si Si7 0.223231 0.187810 0.182003
Si Si8 0.934335 0.200461 0.095122
O O1 0.224411 0.752112 0.326701
O O2 0.155018 0.467096 0.315937
O O3 0.088012 0.718219 0.264280
O O4 0.085647 0.713844 0.377430
O O5 0.326709 0.790650 0.242441
O O6 0.374178 0.823929 0.350682
O O7 0.050750 0.844978 0.162014
O O8 0.037239 0.769988 0.052408
O O9 0.958075 0.011985 0.082444
O O10 0.422740 0.518465 0.670741
O O11 0.373051 0.501479 0.559936
O O12 0.332878 0.258782 0.630381
O O13 0.485262 0.299650 0.608643
O O14 0.803075 0.296473 0.816677
O O15 0.500000 0.500000 0.500000
O O16 0.389017 0.702684 0.459044
O O17 0.250000 0.000000 0.169562
#
# Coordination Sequence:
#
# PCOD8222902 Si02
#       8
#     8   8   8   8   8   8   8   8
#     4  10  20  38  58  87 121 167 209 243 307 384
#     4  10  22  37  60  85 129 167 201 250 311 383
#     4  11  22  36  64  90 124 160 209 265 313 368
#     4  10  20  39  64  88 119 168 214 252 312 385
#     4  10  20  37  58  86 122 167 205 246 307 385
#     4   9  20  40  65  85 114 162 213 260 306 365
#     4  11  22  36  59  92 133 163 201 263 323 375
#     4  11  23  38  59  94 124 160 210 267 317 363
#
# _framework density 20.934493
#
# number of rings (size 3 to 8) (size 9 to 14) (size 15 to 20)
#    0.000    1.750    1.250    4.125    3.500    0.500 
#    2.250    0.000   30.250    0.000    0.000    0.000 
#    0.000    0.000    0.000    0.000    0.000    0.000 
#
# Total GULP energy -793126.024941 kJ/mol
# GULP energy per Si atom -12392.594140 kJ/mol
# Density = 2.088685 g / cm^3
# Si number density = 20.934493 Si / 1000 Ang^3
#
#
#
# Elastic Constant Matrix: (Units=GPa)
#
#
# Indices 1 2 3 4 5 6 
#
# 1 52.5579 17.6741 34.4620 0.0000 0.0000 0.0000
# 2 17.6741 106.0406 40.4422 0.0000 0.0000 0.0000
# 3 34.4620 40.4422 93.1048 0.0000 0.0000 0.0000
# 4 0.0000 0.0000 0.0000 28.6272 0.0000 0.0000
# 5 0.0000 0.0000 0.0000 0.0000 19.6001 0.0000
# 6 0.0000 0.0000 0.0000 0.0000 0.0000 35.2376
#
#
#
# Elastic Compliance Matrix: (Units=1/GPa)
#
#
# Indices 1 2 3 4 5 6 
#
# 1 0.025177 -0.000770 -0.008985 0.000000 0.000000 0.000000
# 2 -0.000770 0.011326 -0.004635 0.000000 0.000000 0.000000
# 3 -0.008985 -0.004635 0.016079 0.000000 0.000000 0.000000
# 4 0.000000 0.000000 0.000000 0.034932 0.000000 0.000000
# 5 0.000000 0.000000 0.000000 0.000000 0.051020 0.000000
# 6 0.000000 0.000000 0.000000 0.000000 0.000000 0.028379
#
#
# Mechanical properties :
#
#
# Convention : Reuss Voigt Hill
#
# Bulk Modulus (GPa) = 42.00986 48.54000 45.27493
# Shear Modulus (GPa) = 24.55480 27.30133 25.92806
#
# Velocity S-wave (km/s) = 3.42853 3.61519 3.52310
# Velocity P-wave (km/s) = 5.98197 6.37676 6.18252
#
# Compressibility (1/GPa) = 0.02380394
#
# Stress axis : x y z
#
# Youngs Moduli (GPa) = 39.71940 88.28983 62.19117
#
# Poissons Ratio (x) = 0.06796 0.55876
# Poissons Ratio (y) = 0.03057 0.28825
# Poissons Ratio (z) = 0.35686 0.40922
#
# Static dielectric constant tensor:
#      x y z
#    x 3.855850 0.000000 0.000000 
#    y 0.000000 3.747640 0.000000 
#    z 0.000000 0.000000 4.127350 
# 
# 
# High freq. dielectric constant tensor:
#      x y z
#    x 1.807480 0.000000 0.000000 
#    y 0.000000 1.822600 0.000000 
#    z 0.000000 0.000000 1.814640 
# 
# From -- ./inp_files/24485.got.cif
#   From: 2010.03.12/outbox.cif.g09.slc.cpg/sg54_13_cif.got.tgz:24485.got - 2010.04.16 15:00:50.
