data_PCOD8222817
_publ_section_title
;
Structure prediction by ZEFSAII (Michael W. Deem and Ramdas Pophale) SiO2 
 PCOD8222817
Probable space group: P C C A
;
_chemical_formula_sum "Si O2"
_cell_formula_units_Z 40
_cell_length_a 19.485516
_cell_length_b 7.484573
_cell_length_c 14.538261
_cell_angle_alpha 90.000000
_cell_angle_beta 90.000000
_cell_angle_gamma 90.000000
_cell_volume 2120.271134
_symmetry_space_group_name_H-M "P C C A"
_symmetry_group_IT_number 54
_symmetry_cell_setting 'orthorhombic'
loop_
_space_group_symop_operation_xyz
x,y,z
1/2-x,-y,z
1/2+x,-y,1/2-z
-x,y,1/2-z
-x,-y,-z
1/2+x,y,-z
1/2-x,y,1/2+z
x,-y,1/2+z
loop_
_atom_site_type_symbol
_atom_site_label
_atom_site_fract_x
_atom_site_fract_y
_atom_site_fract_z
Si Si1 0.304710 0.358417 0.511466
Si Si2 0.643773 0.021682 0.772228
Si Si3 0.388241 0.706515 0.839279
Si Si4 0.000000 0.101415 0.750000
Si Si5 0.750000 0.000000 0.425164
Si Si6 0.676650 0.418589 0.778620
O O1 0.250000 0.500000 0.472778
O O2 0.369312 0.349187 0.442642
O O3 0.333307 0.415768 0.611108
O O4 0.265104 0.170546 0.512419
O O5 0.561201 0.020216 0.793071
O O6 0.683599 0.957218 0.862935
O O7 0.668992 0.216987 0.740415
O O8 0.659873 0.874207 0.693349
O O9 0.380372 0.541166 0.768810
O O10 0.467453 0.772191 0.830669
O O11 0.750000 0.500000 0.751072
#
# Coordination Sequence:
#
# PCOD8222817 Si02
#       6
#     8   8   8   4   4   8
#     4  10  21  34  56  92 117 146 199 249 299 345
#     4   9  19  38  59  82 118 158 195 243 297 350
#     4  10  20  38  57  83 122 154 197 242 286 364
#     4   8  22  38  60  84 116 166 200 228 304 364
#     4  10  20  36  60  84 120 156 194 258 298 340
#     4  10  20  35  60  87 118 155 193 252 305 336
#
# _framework density 18.865513
#
# number of rings (size 3 to 8) (size 9 to 14) (size 15 to 20)
#    1.200    1.200    0.000    4.200    0.000    4.800 
#    0.000    5.000    0.000    0.000    0.000    0.000 
#    0.000    0.000    0.000    0.000    0.000    0.000 
#
# Total GULP energy -495599.592396 kJ/mol
# GULP energy per Si atom -12389.989810 kJ/mol
# Density = 1.882257 g / cm^3
# Si number density = 18.865513 Si / 1000 Ang^3
#
#
#
# Elastic Constant Matrix: (Units=GPa)
#
#
# Indices 1 2 3 4 5 6 
#
# 1 94.0084 10.7701 26.7194 0.0000 0.0000 0.0000
# 2 10.7701 91.4227 33.4840 0.0000 0.0000 0.0000
# 3 26.7194 33.4840 64.2508 0.0000 0.0000 0.0000
# 4 0.0000 0.0000 0.0000 4.3978 0.0000 0.0000
# 5 0.0000 0.0000 0.0000 0.0000 10.3035 0.0000
# 6 0.0000 0.0000 0.0000 0.0000 0.0000 32.1808
#
#
#
# Elastic Compliance Matrix: (Units=1/GPa)
#
#
# Indices 1 2 3 4 5 6 
#
# 1 0.012083 0.000515 -0.005293 0.000000 0.000000 0.000000
# 2 0.000515 0.013540 -0.007271 0.000000 0.000000 0.000000
# 3 -0.005293 -0.007271 0.021554 0.000000 0.000000 0.000000
# 4 0.000000 0.000000 0.000000 0.227384 0.000000 0.000000
# 5 0.000000 0.000000 0.000000 0.000000 0.097054 0.000000
# 6 0.000000 0.000000 0.000000 0.000000 0.000000 0.031074
#
#
# Mechanical properties :
#
#
# Convention : Reuss Voigt Hill
#
# Bulk Modulus (GPa) = 43.32755 43.51432 43.42093
# Shear Modulus (GPa) = 11.50798 21.29035 16.39916
#
# Velocity S-wave (km/s) = 2.47250 3.36301 2.95153
# Velocity P-wave (km/s) = 5.58278 6.18024 5.88909
#
# Compressibility (1/GPa) = 0.02308000
#
# Stress axis : x y z
#
# Youngs Moduli (GPa) = 82.76240 73.85266 46.39423
#
# Poissons Ratio (x) = -0.03805 0.24558
# Poissons Ratio (y) = -0.04264 0.33732
# Poissons Ratio (z) = 0.43808 0.53697
#
# Static dielectric constant tensor:
#      x y z
#    x 3.258100 0.000000 0.000000 
#    y 0.000000 3.659020 0.000000 
#    z 0.000000 0.000000 3.108000 
# 
# 
# High freq. dielectric constant tensor:
#      x y z
#    x 1.711190 0.000000 0.000000 
#    y 0.000000 1.748320 0.000000 
#    z 0.000000 0.000000 1.706670 
# 
# From -- ./inp_files/13954.got.cif
#   From: 2010.03.12/outbox.cif.g09.slc.cpg/sg54_7_cif.got.tgz:13954.got - 2010.04.16 15:00:50.
