data_PCOD8222234
_publ_section_title
;
Structure prediction by ZEFSAII (Michael W. Deem and Ramdas Pophale) SiO2 
 PCOD8222234
Probable space group: P M N A
;
_chemical_formula_sum "Si O2"
_cell_formula_units_Z 64
_cell_length_a 9.597496
_cell_length_b 21.269728
_cell_length_c 19.547410
_cell_angle_alpha 90.000000
_cell_angle_beta 90.000000
_cell_angle_gamma 90.000000
_cell_volume 3990.332617
_symmetry_space_group_name_H-M "P M N A"
_symmetry_group_IT_number 53
_symmetry_cell_setting 'orthorhombic'
loop_
_space_group_symop_operation_xyz
x,y,z
1/2-x,-y,1/2+z
x,-y,-z
1/2-x,y,1/2-z
-x,-y,-z
1/2+x,y,1/2-z
-x,y,z
1/2+x,-y,1/2+z
loop_
_atom_site_type_symbol
_atom_site_label
_atom_site_fract_x
_atom_site_fract_y
_atom_site_fract_z
Si Si1 0.343658 0.414853 0.938131
Si Si2 0.842691 0.304606 0.965544
Si Si3 0.843446 0.339501 0.124644
Si Si4 0.844670 0.195079 0.505597
Si Si5 0.656118 0.550833 0.903552
Si Si6 0.347246 0.231555 0.150970
Si Si7 0.333986 0.061400 0.037708
Si Si8 0.162770 0.907614 0.687475
O O1 0.500000 0.393785 0.917082
O O2 0.299603 0.477587 0.896300
O O3 0.235210 0.359048 0.922245
O O4 0.342041 0.430011 0.017798
O O5 0.843749 0.321901 0.045109
O O6 0.761686 0.238953 0.952182
O O7 0.000000 0.297915 0.937810
O O8 0.763774 0.405354 0.137654
O O9 0.766831 0.284790 0.168073
O O10 0.000000 0.346266 0.152577
O O11 0.856126 0.221264 0.429626
O O12 0.784400 0.123763 0.503077
O O13 0.000000 0.197056 0.538880
O O14 0.500000 0.560895 0.874435
O O15 0.500000 0.253911 0.176398
O O16 0.305217 0.166698 0.186861
O O17 0.500000 0.062010 0.038057
O O18 0.283092 0.061779 0.116491
O O19 0.272849 0.000000 0.000000
O O20 0.250000 0.937705 0.750000
O O21 0.000000 0.921302 0.698766
#
# Coordination Sequence:
#
# PCOD8222234 Si02
#       8
#     8   8   8   8   8   8   8   8
#     4   8  13  20  28  37  51  76 111 145 177 216
#     4   9  15  20  27  41  61  83 108 143 185 223
#     4   9  15  20  28  43  60  80 109 146 185 219
#     4   8  13  22  36  50  64  86 117 152 186 222
#     4   8  13  20  28  37  52  77 108 143 181 219
#     4   8  14  24  35  47  65  90 119 148 182 224
#     4   8  14  26  44  63  80 101 134 171 202 238
#     4   9  17  28  43  62  82 105 132 165 204 243
#
# _framework density 16.038764
#
# number of rings (size 3 to 8) (size 9 to 14) (size 15 to 20)
#    0.000    3.625    0.000    3.000    0.000    4.000 
#    0.000    4.375    0.000    1.500    0.000    0.000 
#    0.000    0.000    0.000    0.000    0.000    1.250 
#
# Total GULP energy -793016.301404 kJ/mol
# GULP energy per Si atom -12390.879709 kJ/mol
# Density = 1.600226 g / cm^3
# Si number density = 16.038764 Si / 1000 Ang^3
#
#
#
# Elastic Constant Matrix: (Units=GPa)
#
#
# Indices 1 2 3 4 5 6 
#
# 1 100.4566 65.6837 23.2652 0.0000 0.0000 0.0000
# 2 65.6837 120.4048 27.2614 0.0000 0.0000 0.0000
# 3 23.2652 27.2614 24.8802 0.0000 0.0000 0.0000
# 4 0.0000 0.0000 0.0000 7.3659 0.0000 0.0000
# 5 0.0000 0.0000 0.0000 0.0000 9.6494 0.0000
# 6 0.0000 0.0000 0.0000 0.0000 0.0000 12.1192
#
#
#
# Elastic Compliance Matrix: (Units=1/GPa)
#
#
# Indices 1 2 3 4 5 6 
#
# 1 0.016431 -0.007295 -0.007372 0.000000 0.000000 0.000000
# 2 -0.007295 0.014284 -0.008830 0.000000 0.000000 0.000000
# 3 -0.007372 -0.008830 0.056761 0.000000 0.000000 0.000000
# 4 0.000000 0.000000 0.000000 0.135760 0.000000 0.000000
# 5 0.000000 0.000000 0.000000 0.000000 0.103633 0.000000
# 6 0.000000 0.000000 0.000000 0.000000 0.000000 0.082514
#
#
# Mechanical properties :
#
#
# Convention : Reuss Voigt Hill
#
# Bulk Modulus (GPa) = 24.70150 53.12911 38.91531
# Shear Modulus (GPa) = 10.64122 14.46234 12.55178
#
# Velocity S-wave (km/s) = 2.57858 3.00611 2.80052
# Velocity P-wave (km/s) = 4.92950 6.72653 5.89688
#
# Compressibility (1/GPa) = 0.04048337
#
# Stress axis : x y z
#
# Youngs Moduli (GPa) = 60.85880 70.00879 17.61766
#
# Poissons Ratio (x) = 0.51069 0.12988
# Poissons Ratio (y) = 0.44394 0.15556
# Poissons Ratio (z) = 0.44866 0.61817
#
# Static dielectric constant tensor:
#      x y z
#    x 3.160470 0.000000 0.000000 
#    y 0.000000 3.290930 0.000000 
#    z 0.000000 0.000000 2.446910 
# 
# 
# High freq. dielectric constant tensor:
#      x y z
#    x 1.610920 0.000000 0.000000 
#    y 0.000000 1.612390 0.000000 
#    z 0.000000 0.000000 1.537600 
# 
# From -- ./inp_files/34556.got.cif
#   From: 2010.03.12/outbox.cif.g09.slc.cpg/sg53_18_cif.got.tgz:34556.got - 2010.04.16 14:36:59.
