data_PCOD8222572
_publ_section_title
;
Structure prediction by ZEFSAII (Michael W. Deem and Ramdas Pophale) SiO2 
 PCOD8222572
Probable space group: P C C A
;
_chemical_formula_sum "Si O2"
_cell_formula_units_Z 52
_cell_length_a 19.674285
_cell_length_b 13.686811
_cell_length_c 9.065038
_cell_angle_alpha 90.000000
_cell_angle_beta 90.000000
_cell_angle_gamma 90.000000
_cell_volume 2441.017300
_symmetry_space_group_name_H-M "P C C A"
_symmetry_group_IT_number 54
_symmetry_cell_setting 'orthorhombic'
loop_
_space_group_symop_operation_xyz
x,y,z
1/2-x,-y,z
1/2+x,-y,1/2-z
-x,y,1/2-z
-x,-y,-z
1/2+x,y,-z
1/2-x,y,1/2+z
x,-y,1/2+z
loop_
_atom_site_type_symbol
_atom_site_label
_atom_site_fract_x
_atom_site_fract_y
_atom_site_fract_z
Si Si1 0.889382 0.649003 0.032425
Si Si2 0.830556 0.925149 0.677294
Si Si3 0.689867 0.098338 0.344128
Si Si4 0.707251 0.692429 0.766221
Si Si5 0.886043 0.428902 0.961245
Si Si6 0.000000 0.621468 0.250000
Si Si7 0.366458 0.284759 0.777574
O O1 0.819233 0.693061 0.096918
O O2 0.876477 0.532861 0.036795
O O3 0.949685 0.683256 0.144018
O O4 0.907066 0.689167 0.871147
O O5 0.810924 0.942737 0.508882
O O6 0.764837 0.904912 0.776218
O O7 0.879088 0.830458 0.691067
O O8 0.860063 0.027685 0.744907
O O9 0.672203 0.212898 0.343972
O O10 0.787967 0.689056 0.754954
O O11 0.678712 0.600092 0.859097
O O12 0.896256 0.348327 0.089202
O O13 0.953234 0.441479 0.860491
#
# Coordination Sequence:
#
# PCOD8222572 Si02
#       7
#     8   8   8   8   8   4   8
#     4  11  24  37  62  83 116 159 195 245 294 344
#     4  10  20  31  55  83 120 162 197 231 276 345
#     4  10  19  33  52  82 121 163 195 231 279 337
#     4  10  22  36  55  88 133 157 183 236 291 362
#     4  11  22  41  58  87 114 157 201 241 297 341
#     4  10  24  44  60  80 110 152 204 272 288 320
#     4  11  22  35  58  92 124 155 197 230 292 368
#
# _framework density 21.302593999999999
#
# number of rings (size 3 to 8) (size 9 to 14) (size 15 to 20)
#    0.000    1.538    1.538    5.077    8.615    4.308 
#    0.000    0.000    0.000    0.000    0.000   17.231 
#    0.000    0.000    0.000    0.000    0.000    0.000 
#
# Total GULP energy -644307.325953 kJ/mol
# GULP energy per Si atom -12390.525499 kJ/mol
# Density = 2.125411 g / cm^3
# Si number density = 21.302594 Si / 1000 Ang^3
#
#
#
# Elastic Constant Matrix: (Units=GPa)
#
#
# Indices 1 2 3 4 5 6 
#
# 1 54.4503 16.7243 22.0731 0.0000 0.0000 0.0000
# 2 16.7243 104.0788 35.3927 0.0000 0.0000 0.0000
# 3 22.0731 35.3927 157.7774 0.0000 0.0000 0.0000
# 4 0.0000 0.0000 0.0000 37.6964 0.0000 0.0000
# 5 0.0000 0.0000 0.0000 0.0000 33.0059 0.0000
# 6 0.0000 0.0000 0.0000 0.0000 0.0000 5.2979
#
#
#
# Elastic Compliance Matrix: (Units=1/GPa)
#
#
# Indices 1 2 3 4 5 6 
#
# 1 0.020032 -0.002453 -0.002252 0.000000 0.000000 0.000000
# 2 -0.002453 0.010702 -0.002057 0.000000 0.000000 0.000000
# 3 -0.002252 -0.002057 0.007115 0.000000 0.000000 0.000000
# 4 0.000000 0.000000 0.000000 0.026528 0.000000 0.000000
# 5 0.000000 0.000000 0.000000 0.000000 0.030298 0.000000
# 6 0.000000 0.000000 0.000000 0.000000 0.000000 0.188755
#
#
# Mechanical properties :
#
#
# Convention : Reuss Voigt Hill
#
# Bulk Modulus (GPa) = 41.11332 51.63186 46.37259
# Shear Modulus (GPa) = 16.39009 31.34111 23.86560
#
# Velocity S-wave (km/s) = 2.77680 3.83983 3.35074
# Velocity P-wave (km/s) = 5.44265 6.62941 6.06512
#
# Compressibility (1/GPa) = 0.02432302
#
# Stress axis : x y z
#
# Youngs Moduli (GPa) = 49.92057 93.44103 140.55482
#
# Poissons Ratio (x) = 0.22921 0.31656
# Poissons Ratio (y) = 0.12246 0.28919
# Poissons Ratio (z) = 0.11243 0.19225
#
# Static dielectric constant tensor:
#      x y z
#    x 3.428630 0.000000 0.000000 
#    y 0.000000 5.016920 0.000000 
#    z 0.000000 0.000000 4.163510 
# 
# 
# High freq. dielectric constant tensor:
#      x y z
#    x 1.776330 0.000000 0.000000 
#    y 0.000000 1.833990 0.000000 
#    z 0.000000 0.000000 1.867630 
# 
# From -- ./inp_files/4771.got.cif
#   From: 2010.03.12/outbox.cif.g09.slc.cpg/sg54_3_cif.got.tgz:4771.got - 2010.04.16 15:00:50.
