data_PCOD8222865
_publ_section_title
;
Structure prediction by ZEFSAII (Michael W. Deem and Ramdas Pophale) SiO2 
 PCOD8222865
Probable space group: P C C A
;
_chemical_formula_sum "Si O2"
_cell_formula_units_Z 44
_cell_length_a 11.362999
_cell_length_b 9.266388
_cell_length_c 22.734347
_cell_angle_alpha 90.000000
_cell_angle_beta 90.000000
_cell_angle_gamma 90.000000
_cell_volume 2393.789369
_symmetry_space_group_name_H-M "P C C A"
_symmetry_group_IT_number 54
_symmetry_cell_setting 'orthorhombic'
loop_
_space_group_symop_operation_xyz
x,y,z
1/2-x,-y,z
1/2+x,-y,1/2-z
-x,y,1/2-z
-x,-y,-z
1/2+x,y,-z
1/2-x,y,1/2+z
x,-y,1/2+z
loop_
_atom_site_type_symbol
_atom_site_label
_atom_site_fract_x
_atom_site_fract_y
_atom_site_fract_z
Si Si1 0.524991 0.309328 0.686206
Si Si2 0.310583 0.643227 0.579491
Si Si3 0.210418 0.837483 0.669324
Si Si4 0.750000 0.500000 0.533106
Si Si5 0.057082 0.593200 0.377135
Si Si6 0.226922 0.669280 0.280593
O O1 0.500000 0.380013 0.750000
O O2 0.431252 0.179574 0.676800
O O3 0.509240 0.434272 0.638655
O O4 0.661258 0.255867 0.685842
O O5 0.250000 0.500000 0.608354
O O6 0.240637 0.781754 0.603900
O O7 0.304337 0.626885 0.508488
O O8 0.445138 0.674791 0.597280
O O9 0.285923 0.744125 0.717020
O O10 0.250000 0.000000 0.677491
O O11 0.846043 0.421944 0.572590
O O12 0.111140 0.682796 0.321783
O O13 0.250000 0.500000 0.272126
#
# Coordination Sequence:
#
# PCOD8222865 Si02
#       6
#     8   8   8   4   8   8
#     4   9  17  32  56  80 112 148 185 232 297 341
#     4  10  22  33  58  86 113 146 204 245 280 343
#     4  11  22  38  54  82 126 162 191 233 291 359
#     4  10  20  36  60  90 114 144 196 254 306 330
#     4  11  18  35  61  91 113 143 186 258 298 344
#     4   9  19  34  60  85 112 148 196 241 305 341
#
# _framework density 18.3809
#
# number of rings (size 3 to 8) (size 9 to 14) (size 15 to 20)
#    0.545    1.455    4.545    1.091    5.091    0.000 
#    9.818    0.000    0.000    5.455    0.000    0.000 
#    0.000    0.000    0.000    0.000    0.000    0.000 
#
# Total GULP energy -545143.686938 kJ/mol
# GULP energy per Si atom -12389.629249 kJ/mol
# Density = 1.833906 g / cm^3
# Si number density = 18.380900 Si / 1000 Ang^3
#
#
#
# Elastic Constant Matrix: (Units=GPa)
#
#
# Indices 1 2 3 4 5 6 
#
# 1 99.8780 23.1364 13.0465 0.0000 0.0000 0.0000
# 2 23.1364 61.2152 16.1277 0.0000 0.0000 0.0000
# 3 13.0465 16.1277 66.3328 0.0000 0.0000 0.0000
# 4 0.0000 0.0000 0.0000 3.3166 0.0000 0.0000
# 5 0.0000 0.0000 0.0000 0.0000 27.9996 0.0000
# 6 0.0000 0.0000 0.0000 0.0000 0.0000 24.2572
#
#
#
# Elastic Compliance Matrix: (Units=1/GPa)
#
#
# Indices 1 2 3 4 5 6 
#
# 1 0.011067 -0.003856 -0.001239 0.000000 0.000000 0.000000
# 2 -0.003856 0.018798 -0.003812 0.000000 0.000000 0.000000
# 3 -0.001239 -0.003812 0.016246 0.000000 0.000000 0.000000
# 4 0.000000 0.000000 0.000000 0.301510 0.000000 0.000000
# 5 0.000000 0.000000 0.000000 0.000000 0.035715 0.000000
# 6 0.000000 0.000000 0.000000 0.000000 0.000000 0.041225
#
#
# Mechanical properties :
#
#
# Convention : Reuss Voigt Hill
#
# Bulk Modulus (GPa) = 35.34046 36.89411 36.11728
# Shear Modulus (GPa) = 11.06666 22.78906 16.92786
#
# Velocity S-wave (km/s) = 2.45638 3.52493 3.03801
# Velocity P-wave (km/s) = 5.22624 6.05660 5.65668
#
# Compressibility (1/GPa) = 0.02829618
#
# Stress axis : x y z
#
# Youngs Moduli (GPa) = 90.35535 53.19815 61.55371
#
# Poissons Ratio (x) = 0.20516 0.07627
# Poissons Ratio (y) = 0.34845 0.23463
# Poissons Ratio (z) = 0.11196 0.20278
#
# Static dielectric constant tensor:
#      x y z
#    x 3.741670 0.000000 0.000000 
#    y 0.000000 2.808360 0.000000 
#    z 0.000000 0.000000 3.383860 
# 
# 
# High freq. dielectric constant tensor:
#      x y z
#    x 1.731400 0.000000 0.000000 
#    y 0.000000 1.645230 0.000000 
#    z 0.000000 0.000000 1.709470 
# 
# From -- ./inp_files/23970.got.cif
#   From: 2010.03.12/outbox.cif.g09.slc.cpg/sg54_12_cif.got.tgz:23970.got - 2010.04.16 15:00:50.
