data_PCOD8222452
_publ_section_title
;
Structure prediction by ZEFSAII (Michael W. Deem and Ramdas Pophale) SiO2 
 PCOD8222452
Probable space group: P C C A
;
_chemical_formula_sum "Si O2"
_cell_formula_units_Z 48
_cell_length_a 9.245916
_cell_length_b 14.525883
_cell_length_c 16.975222
_cell_angle_alpha 90.000000
_cell_angle_beta 90.000000
_cell_angle_gamma 90.000000
_cell_volume 2279.858787
_symmetry_space_group_name_H-M "P C C A"
_symmetry_group_IT_number 54
_symmetry_cell_setting 'orthorhombic'
loop_
_space_group_symop_operation_xyz
x,y,z
1/2-x,-y,z
1/2+x,-y,1/2-z
-x,y,1/2-z
-x,-y,-z
1/2+x,y,-z
1/2-x,y,1/2+z
x,-y,1/2+z
loop_
_atom_site_type_symbol
_atom_site_label
_atom_site_fract_x
_atom_site_fract_y
_atom_site_fract_z
Si Si1 0.755701 0.633905 0.109158
Si Si2 0.250000 0.500000 0.525678
Si Si3 0.250000 0.500000 0.271298
Si Si4 0.500000 0.915751 0.750000
Si Si5 0.074917 0.398351 0.643163
Si Si6 0.093039 0.198542 0.600296
Si Si7 0.250000 0.000000 0.846007
Si Si8 0.767943 0.825508 0.050355
O O1 0.659095 0.570171 0.168766
O O2 0.695574 0.736493 0.094430
O O3 0.908908 0.628854 0.154402
O O4 0.784876 0.589944 0.024407
O O5 0.108611 0.475965 0.577468
O O6 0.362147 0.439366 0.223210
O O7 0.417916 0.855191 0.683494
O O8 0.386888 0.982564 0.791280
O O9 0.148606 0.301242 0.619655
O O10 0.214058 0.159667 0.539534
O O11 0.940524 0.191287 0.553361
O O12 0.216260 0.913228 0.900932
#
# Coordination Sequence:
#
# PCOD8222452 Si02
#       8
#     8   4   4   4   8   8   4   8
#     4  10  20  36  56  81 122 156 201 259 299 365
#     4  10  18  34  56  80 110 156 200 240 304 362
#     4  10  22  32  54  82 118 160 206 244 304 362
#     4  10  24  42  68  96 126 166 206 262 326 376
#     4  10  20  34  55  83 118 160 204 249 306 367
#     4  10  22  40  66  92 126 167 206 258 318 374
#     4  10  24  42  68  94 124 164 210 258 320 384
#     4  10  22  41  64  91 123 163 211 261 312 377
#
# _framework density 21.053934999999999
#
# number of rings (size 3 to 8) (size 9 to 14) (size 15 to 20)
#    0.000    2.000    1.667    1.000    7.000    4.667 
#    0.000    1.667    7.333    0.000    0.000    0.000 
#    0.000    0.000    0.000    0.000    0.000    0.000 
#
# Total GULP energy -594635.145631 kJ/mol
# GULP energy per Si atom -12388.232201 kJ/mol
# Density = 2.100602 g / cm^3
# Si number density = 21.053935 Si / 1000 Ang^3
#
#
#
# Elastic Constant Matrix: (Units=GPa)
#
#
# Indices 1 2 3 4 5 6 
#
# 1 48.1976 27.4681 41.1967 0.0000 0.0000 0.0000
# 2 27.4681 158.6280 83.7179 0.0000 0.0000 0.0000
# 3 41.1967 83.7179 165.3951 0.0000 0.0000 0.0000
# 4 0.0000 0.0000 0.0000 30.8222 0.0000 0.0000
# 5 0.0000 0.0000 0.0000 0.0000 36.6920 0.0000
# 6 0.0000 0.0000 0.0000 0.0000 0.0000 29.0595
#
#
#
# Elastic Compliance Matrix: (Units=1/GPa)
#
#
# Indices 1 2 3 4 5 6 
#
# 1 0.026624 -0.001515 -0.005865 0.000000 0.000000 0.000000
# 2 -0.001515 0.008688 -0.004020 0.000000 0.000000 0.000000
# 3 -0.005865 -0.004020 0.009542 0.000000 0.000000 0.000000
# 4 0.000000 0.000000 0.000000 0.032444 0.000000 0.000000
# 5 0.000000 0.000000 0.000000 0.000000 0.027254 0.000000
# 6 0.000000 0.000000 0.000000 0.000000 0.000000 0.034412
#
#
# Mechanical properties :
#
#
# Convention : Reuss Voigt Hill
#
# Bulk Modulus (GPa) = 45.34310 75.22067 60.28189
# Shear Modulus (GPa) = 29.56553 33.97062 31.76807
#
# Velocity S-wave (km/s) = 3.75143 4.02120 3.88866
# Velocity P-wave (km/s) = 6.35199 7.57399 6.98974
#
# Compressibility (1/GPa) = 0.02205407
#
# Stress axis : x y z
#
# Youngs Moduli (GPa) = 37.55982 115.09894 104.80134
#
# Poissons Ratio (x) = 0.17439 0.61463
# Poissons Ratio (y) = 0.05691 0.42133
# Poissons Ratio (z) = 0.22028 0.46273
#
# Static dielectric constant tensor:
#      x y z
#    x 3.520790 0.000000 0.000000 
#    y 0.000000 4.020720 0.000000 
#    z 0.000000 0.000000 4.125430 
# 
# 
# High freq. dielectric constant tensor:
#      x y z
#    x 1.788020 0.000000 0.000000 
#    y 0.000000 1.830240 0.000000 
#    z 0.000000 0.000000 1.850340 
# 
# From -- ./inp_files/16712.got.cif
#   From: 2010.03.12/outbox.cif.g09.slc.cpg/sg54_9_cif.got.tgz:16712.got - 2010.04.16 15:00:50.
