data_PCOD8222140
_publ_section_title
;
Structure prediction by ZEFSAII (Michael W. Deem and Ramdas Pophale) SiO2 
 PCOD8222140
Probable space group: P M N A
;
_chemical_formula_sum "Si O2"
_cell_formula_units_Z 48
_cell_length_a 19.063796
_cell_length_b 14.245620
_cell_length_c 8.501075
_cell_angle_alpha 90.000000
_cell_angle_beta 90.000000
_cell_angle_gamma 90.000000
_cell_volume 2308.684489
_symmetry_space_group_name_H-M "P M N A"
_symmetry_group_IT_number 53
_symmetry_cell_setting 'orthorhombic'
loop_
_space_group_symop_operation_xyz
x,y,z
1/2-x,-y,1/2+z
x,-y,-z
1/2-x,y,1/2-z
-x,-y,-z
1/2+x,y,1/2-z
-x,y,z
1/2+x,-y,1/2+z
loop_
_atom_site_type_symbol
_atom_site_label
_atom_site_fract_x
_atom_site_fract_y
_atom_site_fract_z
Si Si1 0.080445 0.044459 0.665641
Si Si2 0.186294 0.565850 0.853258
Si Si3 0.919840 0.599204 0.582761
Si Si4 0.797649 0.249434 0.969465
Si Si5 0.353661 0.243429 0.859235
Si Si6 0.688919 0.933049 0.631296
O O1 0.095895 0.154685 0.654263
O O2 0.000000 0.030508 0.712239
O O3 0.099063 0.000000 0.500000
O O4 0.124315 0.989881 0.796572
O O5 0.250000 0.520613 0.750000
O O6 0.118229 0.588816 0.749938
O O7 0.166025 0.500000 0.000000
O O8 0.215266 0.663520 0.917573
O O9 0.913488 0.500000 0.500000
O O10 0.886574 0.677248 0.469638
O O11 0.000000 0.627239 0.616685
O O12 0.841628 0.283779 0.817050
O O13 0.721065 0.209141 0.925403
O O14 0.838737 0.164969 0.057101
O O15 0.750000 0.906666 0.750000
O O16 0.723035 0.000000 0.500000
#
# Coordination Sequence:
#
# PCOD8222140 Si02
#       6
#     8   8   8   8   8   8
#     4  11  25  43  65  93 133 179 227 278 337 408
#     4  12  25  42  69 103 134 172 221 282 336 395
#     4  11  25  46  70  97 136 180 220 270 338 411
#     4  11  24  39  68  98 134 166 224 283 333 394
#     4  11  22  44  66  98 131 179 223 277 337 402
#     4  12  23  41  64  96 130 176 224 282 335 398
#
# _framework density 20.791060000000002
#
# number of rings (size 3 to 8) (size 9 to 14) (size 15 to 20)
#    0.000    0.667    3.333    5.000    4.667    0.667 
#    0.000    1.667    0.000    0.000    0.000    0.000 
#    0.000    0.000    0.000    0.000    0.000    0.000 
#
# Total GULP energy -595332.914665 kJ/mol
# GULP energy per Si atom -12402.769056 kJ/mol
# Density = 2.074374 g / cm^3
# Si number density = 20.791060 Si / 1000 Ang^3
#
#
#
# Elastic Constant Matrix: (Units=GPa)
#
#
# Indices 1 2 3 4 5 6 
#
# 1 96.7678 34.1967 63.7884 0.0000 0.0000 0.0000
# 2 34.1967 110.7676 55.2614 0.0000 0.0000 0.0000
# 3 63.7884 55.2614 141.4958 0.0000 0.0000 0.0000
# 4 0.0000 0.0000 0.0000 50.6303 0.0000 0.0000
# 5 0.0000 0.0000 0.0000 0.0000 -64.4599 0.0000
# 6 0.0000 0.0000 0.0000 0.0000 0.0000 21.6592
#
#
#
# Elastic Compliance Matrix: (Units=1/GPa)
#
#
# Indices 1 2 3 4 5 6 
#
# 1 0.014915 -0.001553 -0.006118 0.000000 0.000000 0.000000
# 2 -0.001553 0.011374 -0.003742 0.000000 0.000000 0.000000
# 3 -0.006118 -0.003742 0.011287 0.000000 0.000000 0.000000
# 4 0.000000 0.000000 0.000000 0.019751 0.000000 0.000000
# 5 0.000000 0.000000 0.000000 0.000000 -0.015514 0.000000
# 6 0.000000 0.000000 0.000000 0.000000 0.000000 0.046170
#
#
# Mechanical properties :
#
#
# Convention : Reuss Voigt Hill
#
# Bulk Modulus (GPa) = 67.79081 72.83602 70.31342
# Shear Modulus (GPa) = 43.20540 14.61823 28.91181
#
# Velocity S-wave (km/s) = 4.56354 2.65448 3.73311
# Velocity P-wave (km/s) = 7.77460 6.67109 7.24389
#
# Compressibility (1/GPa) = 0.01475126
#
# Stress axis : x y z
#
# Youngs Moduli (GPa) = 67.04453 87.91781 88.59872
#
# Poissons Ratio (x) = 0.13651 0.54202
# Poissons Ratio (y) = 0.10410 0.33156
# Poissons Ratio (z) = 0.41016 0.32901
#
# Static dielectric constant tensor:
#      x y z
#    x 3.678080 0.000000 0.000000 
#    y 0.000000 3.778090 0.000000 
#    z 0.000000 0.000000 4.151790 
# 
# 
# High freq. dielectric constant tensor:
#      x y z
#    x 1.800010 0.000000 0.000000 
#    y 0.000000 1.824980 0.000000 
#    z 0.000000 0.000000 1.832560 
# 
# From -- ./inp_files/10018.got.cif
#   From: 2010.03.12/outbox.cif.g09.slc.cpg/sg53_6_cif.got.tgz:10018.got - 2010.04.16 14:36:59.
