data_PCOD8222878
_publ_section_title
;
Structure prediction by ZEFSAII (Michael W. Deem and Ramdas Pophale) SiO2 
 PCOD8222878
Probable space group: P C C A
;
_chemical_formula_sum "Si O2"
_cell_formula_units_Z 48
_cell_length_a 14.206786
_cell_length_b 11.693216
_cell_length_c 14.054808
_cell_angle_alpha 90.000000
_cell_angle_beta 90.000000
_cell_angle_gamma 90.000000
_cell_volume 2334.827113
_symmetry_space_group_name_H-M "P C C A"
_symmetry_group_IT_number 54
_symmetry_cell_setting 'orthorhombic'
loop_
_space_group_symop_operation_xyz
x,y,z
1/2-x,-y,z
1/2+x,-y,1/2-z
-x,y,1/2-z
-x,-y,-z
1/2+x,y,-z
1/2-x,y,1/2+z
x,-y,1/2+z
loop_
_atom_site_type_symbol
_atom_site_label
_atom_site_fract_x
_atom_site_fract_y
_atom_site_fract_z
Si Si1 0.003024 0.397051 0.862289
Si Si2 0.140990 0.526370 0.519819
Si Si3 0.470925 0.029165 0.642035
Si Si4 0.149185 0.225155 0.077366
Si Si5 0.598486 0.832645 0.615239
Si Si6 0.803386 0.107991 0.799253
O O1 0.015116 0.261018 0.877542
O O2 0.000000 0.430040 0.750000
O O3 0.904883 0.428024 0.914496
O O4 0.088197 0.463138 0.917517
O O5 0.250000 0.500000 0.499562
O O6 0.128748 0.640643 0.584046
O O7 0.500000 0.048736 0.750000
O O8 0.447155 0.153772 0.599397
O O9 0.556494 0.959660 0.592900
O O10 0.380928 0.945893 0.630817
O O11 0.235116 0.192404 0.144321
O O12 0.173346 0.196234 0.967291
O O13 0.651873 0.819948 0.714673
O O14 0.750000 0.000000 0.752710
#
# Coordination Sequence:
#
# PCOD8222878 Si02
#       6
#     8   8   8   8   8   8
#     4  10  22  42  65  89 121 164 213 253 316 375
#     4  10  24  41  62  92 127 157 212 267 305 370
#     4   9  18  34  59  85 121 155 194 240 302 368
#     4  10  21  37  56  87 121 155 196 248 306 356
#     4  10  20  36  62  89 116 161 203 247 309 369
#     4   9  19  34  56  89 123 154 197 248 294 368
#
# _framework density 20.558268999999999
#
# number of rings (size 3 to 8) (size 9 to 14) (size 15 to 20)
#    0.000    2.333    0.000    2.000    4.667    3.333 
#    3.000    1.667    7.333    0.000    0.000    0.000 
#    0.000    0.000    0.000    0.000    0.000    0.000 
#
# Total GULP energy -594874.984338 kJ/mol
# GULP energy per Si atom -12393.228840 kJ/mol
# Density = 2.051148 g / cm^3
# Si number density = 20.558269 Si / 1000 Ang^3
#
#
#
# Elastic Constant Matrix: (Units=GPa)
#
#
# Indices 1 2 3 4 5 6 
#
# 1 101.1592 37.2535 44.5698 0.0000 0.0000 0.0000
# 2 37.2535 105.3001 51.5085 0.0000 0.0000 0.0000
# 3 44.5698 51.5085 74.1997 0.0000 0.0000 0.0000
# 4 0.0000 0.0000 0.0000 24.0664 0.0000 0.0000
# 5 0.0000 0.0000 0.0000 0.0000 27.7811 0.0000
# 6 0.0000 0.0000 0.0000 0.0000 0.0000 29.2182
#
#
#
# Elastic Compliance Matrix: (Units=1/GPa)
#
#
# Indices 1 2 3 4 5 6 
#
# 1 0.013548 -0.001230 -0.007284 0.000000 0.000000 0.000000
# 2 -0.001230 0.014491 -0.009321 0.000000 0.000000 0.000000
# 3 -0.007284 -0.009321 0.024323 0.000000 0.000000 0.000000
# 4 0.000000 0.000000 0.000000 0.041552 0.000000 0.000000
# 5 0.000000 0.000000 0.000000 0.000000 0.035996 0.000000
# 6 0.000000 0.000000 0.000000 0.000000 0.000000 0.034225
#
#
# Mechanical properties :
#
#
# Convention : Reuss Voigt Hill
#
# Bulk Modulus (GPa) = 59.90793 60.81364 60.36079
# Shear Modulus (GPa) = 24.34663 26.03496 25.19080
#
# Velocity S-wave (km/s) = 3.44506 3.56251 3.50428
# Velocity P-wave (km/s) = 6.71032 6.82402 6.76741
#
# Compressibility (1/GPa) = 0.01669228
#
# Stress axis : x y z
#
# Youngs Moduli (GPa) = 73.81403 69.00762 41.11381
#
# Poissons Ratio (x) = 0.08488 0.29947
# Poissons Ratio (y) = 0.09079 0.38321
# Poissons Ratio (z) = 0.53765 0.64320
#
# Static dielectric constant tensor:
#      x y z
#    x 3.735460 0.000000 0.000000 
#    y 0.000000 3.771560 0.000000 
#    z 0.000000 0.000000 3.737650 
# 
# 
# High freq. dielectric constant tensor:
#      x y z
#    x 1.793010 0.000000 0.000000 
#    y 0.000000 1.802730 0.000000 
#    z 0.000000 0.000000 1.803350 
# 
# From -- ./inp_files/13416.got.cif
#   From: 2010.03.12/outbox.cif.g09.slc.cpg/sg54_7_cif.got.tgz:13416.got - 2010.04.16 15:00:50.
