data_PCOD8222300
_publ_section_title
;
Structure prediction by ZEFSAII (Michael W. Deem and Ramdas Pophale) SiO2 
 PCOD8222300
Probable space group: P C C A
;
_chemical_formula_sum "Si O2"
_cell_formula_units_Z 40
_cell_length_a 5.378120
_cell_length_b 20.880786
_cell_length_c 12.285053
_cell_angle_alpha 90.000000
_cell_angle_beta 90.000000
_cell_angle_gamma 90.000000
_cell_volume 1379.603747
_symmetry_space_group_name_H-M "P C C A"
_symmetry_group_IT_number 54
_symmetry_cell_setting 'orthorhombic'
loop_
_space_group_symop_operation_xyz
x,y,z
1/2-x,-y,z
1/2+x,-y,1/2-z
-x,y,1/2-z
-x,-y,-z
1/2+x,y,-z
1/2-x,y,1/2+z
x,-y,1/2+z
loop_
_atom_site_type_symbol
_atom_site_label
_atom_site_fract_x
_atom_site_fract_y
_atom_site_fract_z
Si Si1 0.620831 0.179272 0.610567
Si Si2 0.355764 0.621492 0.630425
Si Si3 0.149226 0.429430 0.389752
Si Si4 0.994315 0.961265 0.623865
Si Si5 0.368436 0.230736 0.126445
O O1 0.568654 0.106712 0.568272
O O2 0.629355 0.223013 0.503400
O O3 0.372209 0.195607 0.678960
O O4 0.877050 0.197980 0.675079
O O5 0.402619 0.608482 0.502015
O O6 0.629225 0.602963 0.682673
O O7 0.326302 0.695737 0.656290
O O8 0.119992 0.577257 0.670763
O O9 0.250000 0.500000 0.417346
O O10 0.000000 0.946122 0.750000
O O11 0.750000 0.000000 0.590406
O O12 0.250000 0.000000 0.589604
#
# Coordination Sequence:
#
# PCOD8222300 Si02
#       5
#     8   8   8   8   8
#     4  10  18  32  48  67  90 114 148 184 216 270
#     4  10  16  25  36  51  80 114 149 183 215 253
#     4  10  16  22  33  51  75 112 159 190 208 239
#     4  10  21  37  54  70  89 115 146 181 224 272
#     4  10  19  30  45  67  92 121 152 182 224 272
#
# _framework density 28.993832000000001
#
# number of rings (size 3 to 8) (size 9 to 14) (size 15 to 20)
#    0.000    2.000    0.000   10.200    0.000    0.000 
#    0.000   12.000    0.000    0.000    0.000    0.000 
#    0.000    0.000    0.000    0.000    0.000  400.000 
#
# Total GULP energy -495636.071079 kJ/mol
# GULP energy per Si atom -12390.901777 kJ/mol
# Density = 2.892784 g / cm^3
# Si number density = 28.993832 Si / 1000 Ang^3
#
#
#
# Elastic Constant Matrix: (Units=GPa)
#
#
# Indices 1 2 3 4 5 6 
#
# 1 365.7292 97.7776 41.1646 0.0000 0.0000 0.0000
# 2 97.7776 204.5436 -0.7402 0.0000 0.0000 0.0000
# 3 41.1646 -0.7402 69.1601 0.0000 0.0000 0.0000
# 4 0.0000 0.0000 0.0000 1.9484 0.0000 0.0000
# 5 0.0000 0.0000 0.0000 0.0000 71.5184 0.0000
# 6 0.0000 0.0000 0.0000 0.0000 0.0000 67.4804
#
#
#
# Elastic Compliance Matrix: (Units=1/GPa)
#
#
# Indices 1 2 3 4 5 6 
#
# 1 0.003401 -0.001633 -0.002042 0.000000 0.000000 0.000000
# 2 -0.001633 0.005673 0.001033 0.000000 0.000000 0.000000
# 3 -0.002042 0.001033 0.015685 0.000000 0.000000 0.000000
# 4 0.000000 0.000000 0.000000 0.513237 0.000000 0.000000
# 5 0.000000 0.000000 0.000000 0.000000 0.013982 0.000000
# 6 0.000000 0.000000 0.000000 0.000000 0.000000 0.014819
#
#
# Mechanical properties :
#
#
# Convention : Reuss Voigt Hill
#
# Bulk Modulus (GPa) = 51.34632 101.75969 76.55300
# Shear Modulus (GPa) = 8.64195 61.60483 35.12339
#
# Velocity S-wave (km/s) = 1.72832 4.61451 3.48431
# Velocity P-wave (km/s) = 4.66161 7.97275 6.53052
#
# Compressibility (1/GPa) = 0.01947559
#
# Stress axis : x y z
#
# Youngs Moduli (GPa) = 294.06325 176.26482 63.75354
#
# Poissons Ratio (x) = 0.28784 0.13016
# Poissons Ratio (y) = 0.48020 -0.06584
# Poissons Ratio (z) = 0.60035 -0.18203
#
# Static dielectric constant tensor:
#      x y z
#    x 6.978470 0.000000 0.000000 
#    y 0.000000 4.823600 0.000000 
#    z 0.000000 0.000000 5.358040 
# 
# 
# High freq. dielectric constant tensor:
#      x y z
#    x 2.233590 0.000000 0.000000 
#    y 0.000000 2.151070 0.000000 
#    z 0.000000 0.000000 2.237340 
# 
# From -- ./inp_files/15795.got.cif
#   From: 2010.03.12/outbox.cif.g09.slc.cpg/sg54_8_cif.got.tgz:15795.got - 2010.04.16 15:00:50.
