data_PCOD8222577
_publ_section_title
;
Structure prediction by ZEFSAII (Michael W. Deem and Ramdas Pophale) SiO2 
 PCOD8222577
Probable space group: P C C A
;
_chemical_formula_sum "Si O2"
_cell_formula_units_Z 48
_cell_length_a 30.883411
_cell_length_b 8.844009
_cell_length_c 8.792976
_cell_angle_alpha 90.000000
_cell_angle_beta 90.000000
_cell_angle_gamma 90.000000
_cell_volume 2401.653363
_symmetry_space_group_name_H-M "P C C A"
_symmetry_group_IT_number 54
_symmetry_cell_setting 'orthorhombic'
loop_
_space_group_symop_operation_xyz
x,y,z
1/2-x,-y,z
1/2+x,-y,1/2-z
-x,y,1/2-z
-x,-y,-z
1/2+x,y,-z
1/2-x,y,1/2+z
x,-y,1/2+z
loop_
_atom_site_type_symbol
_atom_site_label
_atom_site_fract_x
_atom_site_fract_y
_atom_site_fract_z
Si Si1 0.583327 0.049865 0.068325
Si Si2 0.047371 0.191775 0.214364
Si Si3 0.148494 0.693484 0.394086
Si Si4 0.160313 0.858900 0.942810
Si Si5 0.369189 0.387650 0.737164
Si Si6 0.204397 0.081168 0.743263
O O1 0.611886 0.183292 0.140836
O O2 0.555336 0.958819 0.188824
O O3 0.615806 0.927895 0.987040
O O4 0.549825 0.131581 0.956665
O O5 0.081490 0.327181 0.242442
O O6 0.000000 0.258895 0.250000
O O7 0.151050 0.643760 0.570517
O O8 0.135167 0.563173 0.275398
O O9 0.195238 0.768206 0.346834
O O10 0.156443 0.690388 0.877104
O O11 0.169698 0.955305 0.790768
O O12 0.198305 0.872131 0.067060
O O13 0.250000 0.000000 0.770356
#
# Coordination Sequence:
#
# PCOD8222577 Si02
#       6
#     8   8   8   8   8   8
#     4   9  18  33  54  77 108 151 194 232 282 340
#     4  10  19  33  53  83 115 148 195 249 288 328
#     4  10  20  37  57  82 112 151 196 233 281 353
#     4  10  19  35  57  81 112 150 189 230 278 347
#     4  10  21  37  59  82 115 159 197 232 287 354
#     4  11  21  35  58  87 113 141 183 236 286 334
#
# _framework density 19.986231
#
# number of rings (size 3 to 8) (size 9 to 14) (size 15 to 20)
#    0.000    2.000    0.000    7.000    0.000    1.333 
#    0.000    5.833    0.000    6.000    0.000    0.000 
#    0.000    0.000    0.000    0.000    0.000    0.000 
#
# Total GULP energy -594681.358790 kJ/mol
# GULP energy per Si atom -12389.194975 kJ/mol
# Density = 1.994074 g / cm^3
# Si number density = 19.986231 Si / 1000 Ang^3
#
#
#
# Elastic Constant Matrix: (Units=GPa)
#
#
# Indices 1 2 3 4 5 6 
#
# 1 91.9185 47.4918 48.3676 0.0000 0.0000 0.0000
# 2 47.4918 115.5044 44.8578 0.0000 0.0000 0.0000
# 3 48.3676 44.8578 104.1979 0.0000 0.0000 0.0000
# 4 0.0000 0.0000 0.0000 30.6647 0.0000 0.0000
# 5 0.0000 0.0000 0.0000 0.0000 25.5618 0.0000
# 6 0.0000 0.0000 0.0000 0.0000 0.0000 23.7821
#
#
#
# Elastic Compliance Matrix: (Units=1/GPa)
#
#
# Indices 1 2 3 4 5 6 
#
# 1 0.016110 -0.004466 -0.005555 0.000000 0.000000 0.000000
# 2 -0.004466 0.011634 -0.002935 0.000000 0.000000 0.000000
# 3 -0.005555 -0.002935 0.013439 0.000000 0.000000 0.000000
# 4 0.000000 0.000000 0.000000 0.032611 0.000000 0.000000
# 5 0.000000 0.000000 0.000000 0.000000 0.039121 0.000000
# 6 0.000000 0.000000 0.000000 0.000000 0.000000 0.042049
#
#
# Mechanical properties :
#
#
# Convention : Reuss Voigt Hill
#
# Bulk Modulus (GPa) = 65.48953 65.89502 65.69228
# Shear Modulus (GPa) = 26.88636 27.39528 27.14082
#
# Velocity S-wave (km/s) = 3.67174 3.70632 3.68907
# Velocity P-wave (km/s) = 7.12839 7.16642 7.14743
#
# Compressibility (1/GPa) = 0.01526962
#
# Stress axis : x y z
#
# Youngs Moduli (GPa) = 62.07279 85.95411 74.40767
#
# Poissons Ratio (x) = 0.38391 0.41336
# Poissons Ratio (y) = 0.27725 0.21841
# Poissons Ratio (z) = 0.34483 0.25230
#
# Static dielectric constant tensor:
#      x y z
#    x 3.479570 0.000000 0.000000 
#    y 0.000000 3.615420 0.000000 
#    z 0.000000 0.000000 3.623990 
# 
# 
# High freq. dielectric constant tensor:
#      x y z
#    x 1.753230 0.000000 0.000000 
#    y 0.000000 1.775060 0.000000 
#    z 0.000000 0.000000 1.788710 
# 
# From -- ./inp_files/5810.got.cif
#   From: 2010.03.12/outbox.cif.g09.slc.cpg/sg54_3_cif.got.tgz:5810.got - 2010.04.16 15:00:50.
