data_PCOD8222134
_publ_section_title
;
Structure prediction by ZEFSAII (Michael W. Deem and Ramdas Pophale) SiO2 
 PCOD8222134
Probable space group: P M N A
;
_chemical_formula_sum "Si O2"
_cell_formula_units_Z 28
_cell_length_a 13.558286
_cell_length_b 8.822304
_cell_length_c 10.576007
_cell_angle_alpha 90.000000
_cell_angle_beta 90.000000
_cell_angle_gamma 90.000000
_cell_volume 1265.052470
_symmetry_space_group_name_H-M "P M N A"
_symmetry_group_IT_number 53
_symmetry_cell_setting 'orthorhombic'
loop_
_space_group_symop_operation_xyz
x,y,z
1/2-x,-y,1/2+z
x,-y,-z
1/2-x,y,1/2-z
-x,-y,-z
1/2+x,y,1/2-z
-x,y,z
1/2+x,-y,1/2+z
loop_
_atom_site_type_symbol
_atom_site_label
_atom_site_fract_x
_atom_site_fract_y
_atom_site_fract_z
Si Si1 0.392790 0.896790 0.379427
Si Si2 0.750000 0.886320 0.750000
Si Si3 0.613446 0.174534 0.035456
Si Si4 0.251410 0.627554 0.105359
O O1 0.500000 0.855232 0.323266
O O2 0.338157 0.742746 0.414421
O O3 0.404276 0.000000 0.500000
O O4 0.338277 0.999669 0.279098
O O5 0.803036 0.783675 0.642379
O O6 0.500000 0.209549 0.075559
O O7 0.644736 0.282219 0.917950
O O8 0.627941 0.000000 0.000000
O O9 0.250000 0.564416 0.250000
O O10 0.237743 0.500000 0.000000
#
# Coordination Sequence:
#
# PCOD8222134 Si02
#       4
#     8   4   8   8
#     4  11  22  40  68 100 132 170 219 278 339 397
#     4  12  18  40  72 106 130 164 220 288 344 400
#     4  11  23  42  72 101 132 176 227 284 345 405
#     4  12  26  45  67  96 141 183 227 279 335 404
#
# _framework density 22.133468000000001
#
# number of rings (size 3 to 8) (size 9 to 14) (size 15 to 20)
#    0.000    0.571    7.143    0.857    2.000    4.571 
#    0.000    0.000    0.000    0.000    0.000    0.000 
#    0.000    0.000    0.000    0.000    0.000    0.000 
#
# Total GULP energy -346977.024960 kJ/mol
# GULP energy per Si atom -12392.036606 kJ/mol
# Density = 2.208309 g / cm^3
# Si number density = 22.133468 Si / 1000 Ang^3
#
#
#
# Elastic Constant Matrix: (Units=GPa)
#
#
# Indices 1 2 3 4 5 6 
#
# 1 164.5836 23.3661 50.7979 0.0000 0.0000 0.0000
# 2 23.3661 69.3146 40.6187 0.0000 0.0000 0.0000
# 3 50.7979 40.6187 128.6563 0.0000 0.0000 0.0000
# 4 0.0000 0.0000 0.0000 37.4172 0.0000 0.0000
# 5 0.0000 0.0000 0.0000 0.0000 41.0211 0.0000
# 6 0.0000 0.0000 0.0000 0.0000 0.0000 10.9516
#
#
#
# Elastic Compliance Matrix: (Units=1/GPa)
#
#
# Indices 1 2 3 4 5 6 
#
# 1 0.006965 -0.000904 -0.002465 0.000000 0.000000 0.000000
# 2 -0.000904 0.017819 -0.005269 0.000000 0.000000 0.000000
# 3 -0.002465 -0.005269 0.010409 0.000000 0.000000 0.000000
# 4 0.000000 0.000000 0.000000 0.026726 0.000000 0.000000
# 5 0.000000 0.000000 0.000000 0.000000 0.024378 0.000000
# 6 0.000000 0.000000 0.000000 0.000000 0.000000 0.091311
#
#
# Mechanical properties :
#
#
# Convention : Reuss Voigt Hill
#
# Bulk Modulus (GPa) = 55.80716 65.79110 60.79913
# Shear Modulus (GPa) = 24.89351 34.39611 29.64481
#
# Velocity S-wave (km/s) = 3.35729 3.94640 3.66371
# Velocity P-wave (km/s) = 6.34801 7.11018 6.73988
#
# Compressibility (1/GPa) = 0.01791885
#
# Stress axis : x y z
#
# Youngs Moduli (GPa) = 143.57619 56.11915 96.06783
#
# Poissons Ratio (x) = 0.05071 0.23678
# Poissons Ratio (y) = 0.12973 0.50618
# Poissons Ratio (z) = 0.35388 0.29569
#
# Static dielectric constant tensor:
#      x y z
#    x 5.832260 0.000000 0.000000 
#    y 0.000000 3.807920 0.000000 
#    z 0.000000 0.000000 4.251040 
# 
# 
# High freq. dielectric constant tensor:
#      x y z
#    x 1.880070 0.000000 0.000000 
#    y 0.000000 1.846900 0.000000 
#    z 0.000000 0.000000 1.883670 
# 
# From -- ./inp_files/15302.got.cif
#   From: 2010.03.12/outbox.cif.g09.slc.cpg/sg53_8_cif.got.tgz:15302.got - 2010.04.16 14:36:59.
