data_PCOD8222841
_publ_section_title
;
Structure prediction by ZEFSAII (Michael W. Deem and Ramdas Pophale) SiO2 
 PCOD8222841
Probable space group: P C C A
;
_chemical_formula_sum "Si O2"
_cell_formula_units_Z 60
_cell_length_a 13.291442
_cell_length_b 22.872147
_cell_length_c 9.152929
_cell_angle_alpha 90.000000
_cell_angle_beta 90.000000
_cell_angle_gamma 90.000000
_cell_volume 2782.525337
_symmetry_space_group_name_H-M "P C C A"
_symmetry_group_IT_number 54
_symmetry_cell_setting 'orthorhombic'
loop_
_space_group_symop_operation_xyz
x,y,z
1/2-x,-y,z
1/2+x,-y,1/2-z
-x,y,1/2-z
-x,-y,-z
1/2+x,y,-z
1/2-x,y,1/2+z
x,-y,1/2+z
loop_
_atom_site_type_symbol
_atom_site_label
_atom_site_fract_x
_atom_site_fract_y
_atom_site_fract_z
Si Si1 0.338795 0.100080 0.663491
Si Si2 0.357943 0.524490 0.602409
Si Si3 0.818088 0.946321 0.125363
Si Si4 0.239646 0.284900 0.982734
Si Si5 0.403633 0.420378 0.802555
Si Si6 0.617048 0.227546 0.757681
Si Si7 0.200685 0.361746 0.737833
Si Si8 0.000000 0.991954 0.750000
O O1 0.317116 0.106883 0.491443
O O2 0.232522 0.080319 0.730881
O O3 0.380857 0.157495 0.741467
O O4 0.420859 0.048449 0.665657
O O5 0.250000 0.500000 0.551138
O O6 0.411198 0.471392 0.680688
O O7 0.412765 0.549639 0.460638
O O8 0.354779 0.576361 0.724233
O O9 0.750000 0.000000 0.066026
O O10 0.933563 0.966095 0.147236
O O11 0.169506 0.247272 0.090186
O O12 0.305034 0.329259 0.082456
O O13 0.319040 0.248564 0.883827
O O14 0.164023 0.321013 0.872769
O O15 0.500000 0.382572 0.750000
O O16 0.315156 0.374667 0.785376
O O17 0.500000 0.247824 0.750000
#
# Coordination Sequence:
#
# PCOD8222841 Si02
#       8
#     8   8   8   8   8   8   8   4
#     4  11  21  39  63  91 132 177 210 265 334 387
#     4  10  20  36  58  87 127 166 203 242 329 404
#     4  10  21  36  60  96 135 172 211 263 315 395
#     4  10  23  43  69  92 125 164 231 289 329 390
#     4  11  22  35  58  92 127 163 204 259 319 411
#     4  11  24  47  71  96 128 176 225 282 344 392
#     4  10  20  40  63  86 121 168 207 266 340 379
#     4  10  20  36  60 100 132 170 218 256 316 406
#
# _framework density 21.563144000000001
#
# number of rings (size 3 to 8) (size 9 to 14) (size 15 to 20)
#    0.000    1.600    2.000    4.000    1.867    3.200 
#    2.400    2.667    0.000    0.000    0.000    0.000 
#    0.000    0.000    0.000    0.000    0.000    0.000 
#
# Total GULP energy -743380.226433 kJ/mol
# GULP energy per Si atom -12389.670441 kJ/mol
# Density = 2.151407 g / cm^3
# Si number density = 21.563144 Si / 1000 Ang^3
#
#
#
# Elastic Constant Matrix: (Units=GPa)
#
#
# Indices 1 2 3 4 5 6 
#
# 1 93.8506 17.3364 36.5809 0.0000 0.0000 0.0000
# 2 17.3364 75.2018 31.3209 0.0000 0.0000 0.0000
# 3 36.5809 31.3209 131.9337 0.0000 0.0000 0.0000
# 4 0.0000 0.0000 0.0000 50.7623 0.0000 0.0000
# 5 0.0000 0.0000 0.0000 0.0000 20.1448 0.0000
# 6 0.0000 0.0000 0.0000 0.0000 0.0000 5.9742
#
#
#
# Elastic Compliance Matrix: (Units=1/GPa)
#
#
# Indices 1 2 3 4 5 6 
#
# 1 0.012106 -0.001546 -0.002990 0.000000 0.000000 0.000000
# 2 -0.001546 0.014954 -0.003121 0.000000 0.000000 0.000000
# 3 -0.002990 -0.003121 0.009150 0.000000 0.000000 0.000000
# 4 0.000000 0.000000 0.000000 0.019700 0.000000 0.000000
# 5 0.000000 0.000000 0.000000 0.000000 0.049641 0.000000
# 6 0.000000 0.000000 0.000000 0.000000 0.000000 0.167386
#
#
# Mechanical properties :
#
#
# Convention : Reuss Voigt Hill
#
# Bulk Modulus (GPa) = 47.85628 52.38473 50.12051
# Shear Modulus (GPa) = 16.93681 29.75946 23.34814
#
# Velocity S-wave (km/s) = 2.80563 3.71901 3.29413
# Velocity P-wave (km/s) = 5.72164 6.54124 6.14512
#
# Compressibility (1/GPa) = 0.02089590
#
# Stress axis : x y z
#
# Youngs Moduli (GPa) = 82.60324 66.87191 109.29503
#
# Poissons Ratio (x) = 0.10336 0.32676
# Poissons Ratio (y) = 0.12768 0.34116
# Poissons Ratio (z) = 0.24696 0.20874
#
# Static dielectric constant tensor:
#      x y z
#    x 3.962210 0.000000 0.000000 
#    y 0.000000 3.910490 0.000000 
#    z 0.000000 0.000000 3.875770 
# 
# 
# High freq. dielectric constant tensor:
#      x y z
#    x 1.831860 0.000000 0.000000 
#    y 0.000000 1.843990 0.000000 
#    z 0.000000 0.000000 1.857720 
# 
# From -- ./inp_files/3734.got.cif
#   From: 2010.03.12/outbox.cif.g09.slc.cpg/sg54_2_cif.got.tgz:3734.got - 2010.04.16 15:00:50.
