data_PCOD8222527
_publ_section_title
;
Structure prediction by ZEFSAII (Michael W. Deem and Ramdas Pophale) SiO2 
 PCOD8222527
Probable space group: P C C A
;
_chemical_formula_sum "Si O2"
_cell_formula_units_Z 56
_cell_length_a 17.749242
_cell_length_b 17.834701
_cell_length_c 9.702348
_cell_angle_alpha 90.000000
_cell_angle_beta 90.000000
_cell_angle_gamma 90.000000
_cell_volume 3071.301778
_symmetry_space_group_name_H-M "P C C A"
_symmetry_group_IT_number 54
_symmetry_cell_setting 'orthorhombic'
loop_
_space_group_symop_operation_xyz
x,y,z
1/2-x,-y,z
1/2+x,-y,1/2-z
-x,y,1/2-z
-x,-y,-z
1/2+x,y,-z
1/2-x,y,1/2+z
x,-y,1/2+z
loop_
_atom_site_type_symbol
_atom_site_label
_atom_site_fract_x
_atom_site_fract_y
_atom_site_fract_z
Si Si1 0.944114 0.498948 0.872111
Si Si2 0.266518 0.127931 0.472979
Si Si3 0.831092 0.371366 0.785788
Si Si4 0.683330 0.201201 0.293638
Si Si5 0.703120 0.427793 0.983471
Si Si6 0.075955 0.068211 0.675940
Si Si7 0.639078 0.991153 0.074047
O O1 0.904040 0.419074 0.836373
O O2 0.000000 0.525416 0.750000
O O3 0.875116 0.555585 0.902652
O O4 0.000000 0.500000 0.000000
O O5 0.287334 0.189391 0.359812
O O6 0.252257 0.178674 0.606468
O O7 0.196876 0.077153 0.424482
O O8 0.332867 0.068179 0.497714
O O9 0.848860 0.284527 0.811209
O O10 0.814849 0.383524 0.623697
O O11 0.755730 0.385439 0.874354
O O12 0.615207 0.147786 0.332803
O O13 0.750000 0.500000 0.032828
O O14 0.068571 0.034420 0.521794
O O15 0.000000 0.086032 0.750000
O O16 0.120537 0.007131 0.767554
#
# Coordination Sequence:
#
# PCOD8222527 Si02
#       7
#     8   8   8   8   8   8   8
#     4  11  22  39  60  85 110 141 183 229 271 321
#     4   9  17  32  51  76  99 128 177 216 259 301
#     4  11  22  36  57  83 111 146 178 223 281 328
#     4  10  20  33  51  75 106 136 165 214 264 319
#     4  10  21  37  59  83 108 137 184 229 265 322
#     4  10  19  31  47  73 102 135 173 211 258 310
#     4   9  17  30  52  72  96 133 174 222 253 294
#
# _framework density 18.233311
#
# number of rings (size 3 to 8) (size 9 to 14) (size 15 to 20)
#    0.000    2.000    1.429    3.429    2.000    4.000 
#    0.000    0.000    0.000    0.000    0.000    0.000 
#    0.000    0.000    0.000    0.000    0.000    0.000 
#
# Total GULP energy -693763.661306 kJ/mol
# GULP energy per Si atom -12388.636809 kJ/mol
# Density = 1.819181 g / cm^3
# Si number density = 18.233311 Si / 1000 Ang^3
#
#
#
# Elastic Constant Matrix: (Units=GPa)
#
#
# Indices 1 2 3 4 5 6 
#
# 1 83.8887 24.2965 36.9100 0.0000 0.0000 0.0000
# 2 24.2965 95.6478 40.0304 0.0000 0.0000 0.0000
# 3 36.9100 40.0304 38.8865 0.0000 0.0000 0.0000
# 4 0.0000 0.0000 0.0000 27.5928 0.0000 0.0000
# 5 0.0000 0.0000 0.0000 0.0000 35.6376 0.0000
# 6 0.0000 0.0000 0.0000 0.0000 0.0000 11.4252
#
#
#
# Elastic Compliance Matrix: (Units=1/GPa)
#
#
# Indices 1 2 3 4 5 6 
#
# 1 0.022023 0.005542 -0.026608 0.000000 0.000000 0.000000
# 2 0.005542 0.019763 -0.025605 0.000000 0.000000 0.000000
# 3 -0.026608 -0.025605 0.077330 0.000000 0.000000 0.000000
# 4 0.000000 0.000000 0.000000 0.036241 0.000000 0.000000
# 5 0.000000 0.000000 0.000000 0.000000 0.028060 0.000000
# 6 0.000000 0.000000 0.000000 0.000000 0.000000 0.087526
#
#
# Mechanical properties :
#
#
# Convention : Reuss Voigt Hill
#
# Bulk Modulus (GPa) = 38.79984 46.76631 42.78307
# Shear Modulus (GPa) = 13.40920 22.74352 18.07636
#
# Velocity S-wave (km/s) = 2.71481 3.53563 3.15205
# Velocity P-wave (km/s) = 5.58147 6.50939 6.06320
#
# Compressibility (1/GPa) = 0.02577331
#
# Stress axis : x y z
#
# Youngs Moduli (GPa) = 45.40740 50.59834 12.93157
#
# Poissons Ratio (x) = -0.28041 0.34409
# Poissons Ratio (y) = -0.25164 0.33111
# Poissons Ratio (z) = 1.20822 1.29557
#
# Static dielectric constant tensor:
#      x y z
#    x 3.570900 0.000000 0.000000 
#    y 0.000000 3.231000 0.000000 
#    z 0.000000 0.000000 3.886700 
# 
# 
# High freq. dielectric constant tensor:
#      x y z
#    x 1.700850 0.000000 0.000000 
#    y 0.000000 1.691490 0.000000 
#    z 0.000000 0.000000 1.721650 
# 
# From -- ./inp_files/4865.got.cif
#   From: 2010.03.12/outbox.cif.g09.slc.cpg/sg54_3_cif.got.tgz:4865.got - 2010.04.16 15:00:50.
