data_PCOD8222746
_publ_section_title
;
Structure prediction by ZEFSAII (Michael W. Deem and Ramdas Pophale) SiO2 
 PCOD8222746
Probable space group: P C C A
;
_chemical_formula_sum "Si O2"
_cell_formula_units_Z 60
_cell_length_a 24.046058
_cell_length_b 10.517880
_cell_length_c 12.328743
_cell_angle_alpha 90.000000
_cell_angle_beta 90.000000
_cell_angle_gamma 90.000000
_cell_volume 3118.106190
_symmetry_space_group_name_H-M "P C C A"
_symmetry_group_IT_number 54
_symmetry_cell_setting 'orthorhombic'
loop_
_space_group_symop_operation_xyz
x,y,z
1/2-x,-y,z
1/2+x,-y,1/2-z
-x,y,1/2-z
-x,-y,-z
1/2+x,y,-z
1/2-x,y,1/2+z
x,-y,1/2+z
loop_
_atom_site_type_symbol
_atom_site_label
_atom_site_fract_x
_atom_site_fract_y
_atom_site_fract_z
Si Si1 0.563649 0.729704 0.763928
Si Si2 0.172337 0.747649 0.619967
Si Si3 0.710577 0.689453 0.976087
Si Si4 0.120231 0.889867 0.423117
Si Si5 0.848126 0.523988 0.306517
Si Si6 0.250000 0.500000 0.352784
Si Si7 0.619868 0.123978 0.441069
Si Si8 0.685585 0.991179 0.256955
O O1 0.500000 0.692126 0.750000
O O2 0.579546 0.823731 0.663620
O O3 0.597542 0.597218 0.762447
O O4 0.571049 0.794625 0.883098
O O5 0.238484 0.733903 0.600346
O O6 0.143125 0.786915 0.507419
O O7 0.141051 0.623229 0.665418
O O8 0.163646 0.849978 0.715577
O O9 0.736531 0.627389 0.082055
O O10 0.674952 0.582595 0.916419
O O11 0.665375 0.796419 0.011601
O O12 0.092374 0.007862 0.490830
O O13 0.171316 0.960381 0.363363
O O14 0.802577 0.541805 0.215124
O O15 0.657277 0.085745 0.339867
O O16 0.750000 0.000000 0.275308
#
# Coordination Sequence:
#
# PCOD8222746 Si02
#       8
#     8   8   8   8   8   4   8   8
#     4  10  23  45  66  83 119 162 209 265 306 357
#     4  11  20  36  54  84 132 154 196 248 293 367
#     4  11  20  33  53  84 126 167 188 235 300 366
#     4  10  23  36  60  90 116 160 204 246 310 370
#     4  11  23  38  55  89 119 158 209 246 298 367
#     4  12  20  32  58  90 122 164 190 236 306 370
#     4   9  21  37  56  90 122 152 207 244 299 367
#     4  10  20  32  53  87 127 166 187 234 297 365
#
# _framework density 19.242449000000001
#
# number of rings (size 3 to 8) (size 9 to 14) (size 15 to 20)
#    0.000    1.600    4.000    0.800    3.733    0.533 
#    0.000    0.667    0.000    7.200    0.000    0.000 
#    0.000    0.000    0.000    0.000    0.000    0.000 
#
# Total GULP energy -743583.639801 kJ/mol
# GULP energy per Si atom -12393.060663 kJ/mol
# Density = 1.919865 g / cm^3
# Si number density = 19.242449 Si / 1000 Ang^3
#
#
#
# Elastic Constant Matrix: (Units=GPa)
#
#
# Indices 1 2 3 4 5 6 
#
# 1 95.6486 44.6615 33.8519 0.0000 0.0000 0.0000
# 2 44.6615 112.8286 50.1272 0.0000 0.0000 0.0000
# 3 33.8519 50.1272 85.0677 0.0000 0.0000 0.0000
# 4 0.0000 0.0000 0.0000 35.0309 0.0000 0.0000
# 5 0.0000 0.0000 0.0000 0.0000 12.7158 0.0000
# 6 0.0000 0.0000 0.0000 0.0000 0.0000 18.4488
#
#
#
# Elastic Compliance Matrix: (Units=1/GPa)
#
#
# Indices 1 2 3 4 5 6 
#
# 1 0.013361 -0.003964 -0.002981 0.000000 0.000000 0.000000
# 2 -0.003964 0.013182 -0.006190 0.000000 0.000000 0.000000
# 3 -0.002981 -0.006190 0.016589 0.000000 0.000000 0.000000
# 4 0.000000 0.000000 0.000000 0.028546 0.000000 0.000000
# 5 0.000000 0.000000 0.000000 0.000000 0.078642 0.000000
# 6 0.000000 0.000000 0.000000 0.000000 0.000000 0.054204
#
#
# Mechanical properties :
#
#
# Convention : Reuss Voigt Hill
#
# Bulk Modulus (GPa) = 59.30627 61.20288 60.25457
# Shear Modulus (GPa) = 21.14905 24.23272 22.69089
#
# Velocity S-wave (km/s) = 3.31884 3.55256 3.43769
# Velocity P-wave (km/s) = 6.75083 6.97874 6.86573
#
# Compressibility (1/GPa) = 0.01686162
#
# Stress axis : x y z
#
# Youngs Moduli (GPa) = 74.84448 75.85815 60.28000
#
# Poissons Ratio (x) = 0.30074 0.17968
# Poissons Ratio (y) = 0.29672 0.37315
# Poissons Ratio (z) = 0.22310 0.46959
#
# Static dielectric constant tensor:
#      x y z
#    x 3.177120 0.000000 0.000000 
#    y 0.000000 3.972910 0.000000 
#    z 0.000000 0.000000 3.584510 
# 
# 
# High freq. dielectric constant tensor:
#      x y z
#    x 1.702920 0.000000 0.000000 
#    y 0.000000 1.764420 0.000000 
#    z 0.000000 0.000000 1.755500 
# 
# From -- ./inp_files/9612.got.cif
#   From: 2010.03.12/outbox.cif.g09.slc.cpg/sg54_5_cif.got.tgz:9612.got - 2010.04.16 15:00:50.
