data_PCOD8222212
_publ_section_title
;
Structure prediction by ZEFSAII (Michael W. Deem and Ramdas Pophale) SiO2 
 PCOD8222212
Probable space group: P M N A
;
_chemical_formula_sum "Si O2"
_cell_formula_units_Z 40
_cell_length_a 24.652162
_cell_length_b 9.870879
_cell_length_c 8.747913
_cell_angle_alpha 90.000000
_cell_angle_beta 90.000000
_cell_angle_gamma 90.000000
_cell_volume 2128.704099
_symmetry_space_group_name_H-M "P M N A"
_symmetry_group_IT_number 53
_symmetry_cell_setting 'orthorhombic'
loop_
_space_group_symop_operation_xyz
x,y,z
1/2-x,-y,1/2+z
x,-y,-z
1/2-x,y,1/2-z
-x,-y,-z
1/2+x,y,1/2-z
-x,y,z
1/2+x,-y,1/2+z
loop_
_atom_site_type_symbol
_atom_site_label
_atom_site_fract_x
_atom_site_fract_y
_atom_site_fract_z
Si Si1 0.116749 0.412347 0.240711
Si Si2 0.222270 0.133000 0.904537
Si Si3 0.117644 0.295854 0.911345
Si Si4 0.500000 0.698483 0.399795
Si Si5 0.278510 0.633415 0.911251
Si Si6 0.500000 0.573728 0.732820
O O1 0.120550 0.569533 0.192107
O O2 0.157070 0.373204 0.378228
O O3 0.056500 0.376476 0.308415
O O4 0.129341 0.325027 0.089766
O O5 0.250000 0.085042 0.750000
O O6 0.164694 0.196715 0.857161
O O7 0.262444 0.235709 0.991690
O O8 0.210598 0.000000 0.000000
O O9 0.057982 0.222518 0.890352
O O10 0.500000 0.618980 0.558118
O O11 0.500000 0.589251 0.263578
O O12 0.250000 0.635499 0.750000
O O13 0.258528 0.500000 0.000000
#
# Coordination Sequence:
#
# PCOD8222212 Si02
#       6
#     8   8   8   4   8   4
#     4   9  16  29  55  83 113 144 181 226 274 323
#     4  12  26  41  56  79 112 150 188 233 284 336
#     4   9  16  32  54  84 112 143 182 232 274 327
#     4   7  12  24  51  80 110 138 177 227 277 315
#     4  12  22  35  56  83 112 149 189 228 274 330
#     4   7  12  24  45  82 114 139 173 222 275 321
#
# _framework density 18.790776000000001
#
# number of rings (size 3 to 8) (size 9 to 14) (size 15 to 20)
#    0.000    2.200    2.000    6.000    0.000    0.000 
#    0.000    1.000    0.000    1.200    0.000    1.400 
#    0.000    0.000    0.000    0.000    0.000    0.000 
#
# Total GULP energy -495559.538563 kJ/mol
# GULP energy per Si atom -12388.988464 kJ/mol
# Density = 1.874801 g / cm^3
# Si number density = 18.790776 Si / 1000 Ang^3
#
#
#
# Elastic Constant Matrix: (Units=GPa)
#
#
# Indices 1 2 3 4 5 6 
#
# 1 159.5346 27.4985 22.3878 0.0000 0.0000 0.0000
# 2 27.4985 38.9765 -2.1949 0.0000 0.0000 0.0000
# 3 22.3878 -2.1949 38.3127 0.0000 0.0000 0.0000
# 4 0.0000 0.0000 0.0000 21.0857 0.0000 0.0000
# 5 0.0000 0.0000 0.0000 0.0000 40.7883 0.0000
# 6 0.0000 0.0000 0.0000 0.0000 0.0000 -1.0731
#
#
#
# Elastic Compliance Matrix: (Units=1/GPa)
#
#
# Indices 1 2 3 4 5 6 
#
# 1 0.007992 -0.005920 -0.005009 0.000000 0.000000 0.000000
# 2 -0.005920 0.030125 0.005185 0.000000 0.000000 0.000000
# 3 -0.005009 0.005185 0.029325 0.000000 0.000000 0.000000
# 4 0.000000 0.000000 0.000000 0.047425 0.000000 0.000000
# 5 0.000000 0.000000 0.000000 0.000000 0.024517 0.000000
# 6 0.000000 0.000000 0.000000 0.000000 0.000000 -0.931840
#
#
# Mechanical properties :
#
#
# Convention : Reuss Voigt Hill
#
# Bulk Modulus (GPa) = 17.87183 36.91185 27.39184
# Shear Modulus (GPa) = -6.55896 24.76900 9.10502
#
# Velocity S-wave (km/s) = -1.87032 3.63457 2.20363
# Velocity P-wave (km/s) = 2.20624 6.10735 4.59169
#
# Compressibility (1/GPa) = 0.05595399
#
# Stress axis : x y z
#
# Youngs Moduli (GPa) = 125.13118 33.19469 34.10056
#
# Poissons Ratio (x) = 0.19652 0.17081
# Poissons Ratio (y) = 0.74081 -0.17682
# Poissons Ratio (z) = 0.62678 -0.17212
#
# Static dielectric constant tensor:
#      x y z
#    x 4.199310 0.000000 0.000000 
#    y 0.000000 2.986170 0.000000 
#    z 0.000000 0.000000 3.273230 
# 
# 
# High freq. dielectric constant tensor:
#      x y z
#    x 1.761190 0.000000 0.000000 
#    y 0.000000 1.673730 0.000000 
#    z 0.000000 0.000000 1.706700 
# 
# From -- ./inp_files/12335.got.cif
#   From: 2010.03.12/outbox.cif.g09.slc.cpg/sg53_7_cif.got.tgz:12335.got - 2010.04.16 14:36:59.
