data_PCOD8222407
_publ_section_title
;
Structure prediction by ZEFSAII (Michael W. Deem and Ramdas Pophale) SiO2 
 PCOD8222407
Probable space group: P C C A
;
_chemical_formula_sum "Si O2"
_cell_formula_units_Z 52
_cell_length_a 14.732287
_cell_length_b 8.560261
_cell_length_c 21.865968
_cell_angle_alpha 90.000000
_cell_angle_beta 90.000000
_cell_angle_gamma 90.000000
_cell_volume 2757.565807
_symmetry_space_group_name_H-M "P C C A"
_symmetry_group_IT_number 54
_symmetry_cell_setting 'orthorhombic'
loop_
_space_group_symop_operation_xyz
x,y,z
1/2-x,-y,z
1/2+x,-y,1/2-z
-x,y,1/2-z
-x,-y,-z
1/2+x,y,-z
1/2-x,y,1/2+z
x,-y,1/2+z
loop_
_atom_site_type_symbol
_atom_site_label
_atom_site_fract_x
_atom_site_fract_y
_atom_site_fract_z
Si Si1 0.324715 0.236261 0.281480
Si Si2 0.768843 0.682718 0.832321
Si Si3 0.129895 0.265552 0.428936
Si Si4 0.750000 0.500000 0.634119
Si Si5 0.750000 0.000000 0.132045
Si Si6 0.000000 0.405672 0.750000
Si Si7 0.333691 0.613513 0.555937
Si Si8 0.041784 0.604935 0.631163
O O1 0.253645 0.211319 0.226120
O O2 0.296980 0.376068 0.324036
O O3 0.418640 0.282188 0.250600
O O4 0.323982 0.084081 0.324393
O O5 0.750000 0.500000 0.816645
O O6 0.705378 0.725971 0.890344
O O7 0.874658 0.711259 0.845909
O O8 0.173929 0.427255 0.408604
O O9 0.129570 0.273258 0.502571
O O10 0.029350 0.272959 0.399346
O O11 0.189300 0.116034 0.408882
O O12 0.999934 0.513368 0.810557
O O13 0.250000 0.500000 0.535734
O O14 0.420463 0.515621 0.580215
#
# Coordination Sequence:
#
# PCOD8222407 Si02
#       8
#     8   8   8   4   4   4   8   8
#     4  11  19  39  54  84 117 150 195 242 295 354
#     4   9  17  34  59  88 118 140 188 257 311 345
#     4  11  20  38  55  85 117 156 200 239 288 368
#     4  10  18  30  60  78 104 148 192 242 290 316
#     4  10  28  38  52  82 128 168 188 232 306 368
#     4  12  18  32  64  92 108 142 200 264 288 344
#     4   9  18  34  60  91 115 148 193 258 305 344
#     4  10  20  31  61  99 111 144 201 263 304 336
#
# _framework density 18.857211
#
# number of rings (size 3 to 8) (size 9 to 14) (size 15 to 20)
#    0.000    2.154    6.154    0.462    2.154    0.000 
#    2.769    0.769    0.000    4.615    0.000    0.000 
#    0.000    0.000    0.000    0.000    0.000    0.000 
#
# Total GULP energy -644347.702261 kJ/mol
# GULP energy per Si atom -12391.301967 kJ/mol
# Density = 1.881429 g / cm^3
# Si number density = 18.857211 Si / 1000 Ang^3
#
#
#
# Elastic Constant Matrix: (Units=GPa)
#
#
# Indices 1 2 3 4 5 6 
#
# 1 99.0485 23.2220 41.0969 0.0000 0.0000 0.0000
# 2 23.2220 46.7340 49.2915 0.0000 0.0000 0.0000
# 3 41.0969 49.2915 129.0594 0.0000 0.0000 0.0000
# 4 0.0000 0.0000 0.0000 -9.1182 0.0000 0.0000
# 5 0.0000 0.0000 0.0000 0.0000 29.4379 0.0000
# 6 0.0000 0.0000 0.0000 0.0000 0.0000 17.4088
#
#
#
# Elastic Compliance Matrix: (Units=1/GPa)
#
#
# Indices 1 2 3 4 5 6 
#
# 1 0.011914 -0.003213 -0.002567 0.000000 0.000000 0.000000
# 2 -0.003213 0.036698 -0.012993 0.000000 0.000000 0.000000
# 3 -0.002567 -0.012993 0.013528 0.000000 0.000000 0.000000
# 4 0.000000 0.000000 0.000000 -0.109671 0.000000 0.000000
# 5 0.000000 0.000000 0.000000 0.000000 0.033970 0.000000
# 6 0.000000 0.000000 0.000000 0.000000 0.000000 0.057442
#
#
# Mechanical properties :
#
#
# Convention : Reuss Voigt Hill
#
# Bulk Modulus (GPa) = 40.65829 55.78475 48.22152
# Shear Modulus (GPa) = 55.78781 18.29448 37.04114
#
# Velocity S-wave (km/s) = 5.44505 3.11812 4.43685
# Velocity P-wave (km/s) = 7.81917 6.52767 7.20242
#
# Compressibility (1/GPa) = 0.02459523
#
# Stress axis : x y z
#
# Youngs Moduli (GPa) = 83.93237 27.24923 73.91990
#
# Poissons Ratio (x) = 0.08755 0.18974
# Poissons Ratio (y) = 0.26967 0.96044
# Poissons Ratio (z) = 0.21544 0.35405
#
# Static dielectric constant tensor:
#      x y z
#    x 4.201120 0.000000 0.000000 
#    y 0.000000 3.170230 0.000000 
#    z 0.000000 0.000000 3.690000 
# 
# 
# High freq. dielectric constant tensor:
#      x y z
#    x 1.737330 0.000000 0.000000 
#    y 0.000000 1.680190 0.000000 
#    z 0.000000 0.000000 1.749800 
# 
# From -- ./inp_files/24441.got.cif
#   From: 2010.03.12/outbox.cif.g09.slc.cpg/sg54_13_cif.got.tgz:24441.got - 2010.04.16 15:00:50.
