data_PCOD8222328
_publ_section_title
;
Structure prediction by ZEFSAII (Michael W. Deem and Ramdas Pophale) SiO2 
 PCOD8222328
Probable space group: P C C A
;
_chemical_formula_sum "Si O2"
_cell_formula_units_Z 56
_cell_length_a 17.226638
_cell_length_b 32.621042
_cell_length_c 5.155698
_cell_angle_alpha 90.000000
_cell_angle_beta 90.000000
_cell_angle_gamma 90.000000
_cell_volume 2897.249037
_symmetry_space_group_name_H-M "P C C A"
_symmetry_group_IT_number 54
_symmetry_cell_setting 'orthorhombic'
loop_
_space_group_symop_operation_xyz
x,y,z
1/2-x,-y,z
1/2+x,-y,1/2-z
-x,y,1/2-z
-x,-y,-z
1/2+x,y,-z
1/2-x,y,1/2+z
x,-y,1/2+z
loop_
_atom_site_type_symbol
_atom_site_label
_atom_site_fract_x
_atom_site_fract_y
_atom_site_fract_z
Si Si1 0.451342 0.165110 0.501730
Si Si2 0.451599 0.261269 0.500287
Si Si3 0.591397 0.475680 0.237494
Si Si4 0.800820 0.888696 0.036945
Si Si5 0.702024 0.594256 0.592009
Si Si6 0.701895 0.311100 0.093061
Si Si7 0.335865 0.017937 0.440375
O O1 0.500000 0.152355 0.250000
O O2 0.434195 0.213192 0.511380
O O3 0.368633 0.143596 0.502046
O O4 0.500000 0.150537 0.750000
O O5 0.500000 0.273732 0.250000
O O6 0.370546 0.284057 0.487136
O O7 0.500000 0.275854 0.750000
O O8 0.500000 0.469420 0.250000
O O9 0.619026 0.492059 0.517232
O O10 0.626712 0.431819 0.165863
O O11 0.763873 0.881683 0.318326
O O12 0.836221 0.933893 0.010167
O O13 0.732094 0.583717 0.304466
O O14 0.676765 0.641528 0.592661
O O15 0.731876 0.300693 0.381116
O O16 0.250000 0.000000 0.385408
O O17 0.379749 0.994221 0.673849
#
# Coordination Sequence:
#
# PCOD8222328 Si02
#       7
#     8   8   8   8   8   8   8
#     4  10  23  41  56  79 120 153 174 224 287 335
#     4  10  21  39  61  82 109 151 191 217 270 345
#     4  10  21  36  53  76 107 143 184 231 272 310
#     4  12  21  33  59  89 104 141 195 232 265 323
#     4  10  21  36  54  80 110 142 179 219 278 333
#     4  10  21  37  58  85 117 144 177 239 287 322
#     4  10  16  30  49  78 106 136 171 233 273 304
#
# _framework density 19.328679000000001
#
# number of rings (size 3 to 8) (size 9 to 14) (size 15 to 20)
#    0.000    1.714    2.857    2.571    0.000    3.429 
#    0.000    2.143    0.000    2.571    0.000    0.000 
#    0.000    0.000    0.000    0.000    0.000    0.000 
#
# Total GULP energy -694423.210931 kJ/mol
# GULP energy per Si atom -12400.414481 kJ/mol
# Density = 1.928469 g / cm^3
# Si number density = 19.328679 Si / 1000 Ang^3
#
#
#
# Elastic Constant Matrix: (Units=GPa)
#
#
# Indices 1 2 3 4 5 6 
#
# 1 65.3229 46.3354 27.9627 0.0000 0.0000 0.0000
# 2 46.3354 64.2763 27.9788 0.0000 0.0000 0.0000
# 3 27.9627 27.9788 137.4232 0.0000 0.0000 0.0000
# 4 0.0000 0.0000 0.0000 9.4720 0.0000 0.0000
# 5 0.0000 0.0000 0.0000 0.0000 18.6937 0.0000
# 6 0.0000 0.0000 0.0000 0.0000 0.0000 -0.1565
#
#
#
# Elastic Compliance Matrix: (Units=1/GPa)
#
#
# Indices 1 2 3 4 5 6 
#
# 1 0.031811 -0.022070 -0.001979 0.000000 0.000000 0.000000
# 2 -0.022070 0.032383 -0.002102 0.000000 0.000000 0.000000
# 3 -0.001979 -0.002102 0.008108 0.000000 0.000000 0.000000
# 4 0.000000 0.000000 0.000000 0.105574 0.000000 0.000000
# 5 0.000000 0.000000 0.000000 0.000000 0.053494 0.000000
# 6 0.000000 0.000000 0.000000 0.000000 0.000000 -6.391465
#
#
# Mechanical properties :
#
#
# Convention : Reuss Voigt Hill
#
# Bulk Modulus (GPa) = 50.00584 52.39735 51.20160
# Shear Modulus (GPa) = -0.81952 16.58487 7.88267
#
# Velocity S-wave (km/s) = -0.65185 2.93242 2.02165
# Velocity P-wave (km/s) = 5.03596 6.21554 5.65658
#
# Compressibility (1/GPa) = 0.01999766
#
# Stress axis : x y z
#
# Youngs Moduli (GPa) = 31.43576 30.88060 123.34153
#
# Poissons Ratio (x) = 0.68154 0.24415
# Poissons Ratio (y) = 0.69379 0.25929
# Poissons Ratio (z) = 0.06223 0.06492
#
# Static dielectric constant tensor:
#      x y z
#    x 3.175260 0.000000 0.000000 
#    y 0.000000 3.475370 0.000000 
#    z 0.000000 0.000000 4.399820 
# 
# 
# High freq. dielectric constant tensor:
#      x y z
#    x 1.725120 0.000000 0.000000 
#    y 0.000000 1.750390 0.000000 
#    z 0.000000 0.000000 1.784560 
# 
# From -- ./inp_files/758.got.cif
#   From: 2010.03.12/outbox.cif.g09.slc.cpg/sg54_1_cif.got.tgz:758.got - 2010.04.16 15:00:50.
