data_PCOD8222684
_publ_section_title
;
Structure prediction by ZEFSAII (Michael W. Deem and Ramdas Pophale) SiO2 
 PCOD8222684
Probable space group: P C C A
;
_chemical_formula_sum "Si O2"
_cell_formula_units_Z 40
_cell_length_a 9.064488
_cell_length_b 10.310816
_cell_length_c 21.739484
_cell_angle_alpha 90.000000
_cell_angle_beta 90.000000
_cell_angle_gamma 90.000000
_cell_volume 2031.821478
_symmetry_space_group_name_H-M "P C C A"
_symmetry_group_IT_number 54
_symmetry_cell_setting 'orthorhombic'
loop_
_space_group_symop_operation_xyz
x,y,z
1/2-x,-y,z
1/2+x,-y,1/2-z
-x,y,1/2-z
-x,-y,-z
1/2+x,y,-z
1/2-x,y,1/2+z
x,-y,1/2+z
loop_
_atom_site_type_symbol
_atom_site_label
_atom_site_fract_x
_atom_site_fract_y
_atom_site_fract_z
Si Si1 0.178964 0.293440 0.096607
Si Si2 0.372994 0.588650 0.971562
Si Si3 0.924127 0.970321 0.935335
Si Si4 0.501240 0.214231 0.373525
Si Si5 0.250000 0.500000 0.686870
Si Si6 0.000000 0.337124 0.750000
O O1 0.056683 0.177762 0.090054
O O2 0.325642 0.238134 0.126155
O O3 0.140507 0.412173 0.143070
O O4 0.210281 0.342575 0.028006
O O5 0.250000 0.500000 0.937826
O O6 0.424694 0.696229 0.924142
O O7 0.500000 0.500000 0.000000
O O8 0.750000 0.000000 0.941443
O O9 0.014467 0.061620 0.887841
O O10 0.000000 0.000000 0.000000
O O11 0.441423 0.246844 0.305729
O O12 0.360796 0.577627 0.730042
#
# Coordination Sequence:
#
# PCOD8222684 Si02
#       6
#     8   8   8   8   4   4
#     4  10  19  37  57  83 118 146 186 240 305 345
#     4  12  20  31  54  87 114 142 182 239 297 339
#     4  10  20  35  58  85 114 153 187 235 297 354
#     4  10  21  37  57  82 116 155 191 235 285 355
#     4  10  20  40  58  82 114 158 194 248 292 352
#     4  10  22  40  56  80 116 156 196 230 288 354
#
# _framework density 19.686769000000002
#
# number of rings (size 3 to 8) (size 9 to 14) (size 15 to 20)
#    0.000    1.600    5.000    1.200    1.400    0.000 
#    0.000    1.000    0.000    3.600    0.000    0.000 
#    0.000    0.000    0.000    0.000    0.000    0.000 
#
# Total GULP energy -495570.830112 kJ/mol
# GULP energy per Si atom -12389.270753 kJ/mol
# Density = 1.964196 g / cm^3
# Si number density = 19.686769 Si / 1000 Ang^3
#
#
#
# Elastic Constant Matrix: (Units=GPa)
#
#
# Indices 1 2 3 4 5 6 
#
# 1 50.4185 37.1967 30.7906 0.0000 0.0000 0.0000
# 2 37.1967 149.4240 71.9666 0.0000 0.0000 0.0000
# 3 30.7906 71.9666 149.0860 0.0000 0.0000 0.0000
# 4 0.0000 0.0000 0.0000 33.5575 0.0000 0.0000
# 5 0.0000 0.0000 0.0000 0.0000 29.4866 0.0000
# 6 0.0000 0.0000 0.0000 0.0000 0.0000 26.7356
#
#
#
# Elastic Compliance Matrix: (Units=1/GPa)
#
#
# Indices 1 2 3 4 5 6 
#
# 1 0.025182 -0.004904 -0.002834 0.000000 0.000000 0.000000
# 2 -0.004904 0.009675 -0.003657 0.000000 0.000000 0.000000
# 3 -0.002834 -0.003657 0.009058 0.000000 0.000000 0.000000
# 4 0.000000 0.000000 0.000000 0.029800 0.000000 0.000000
# 5 0.000000 0.000000 0.000000 0.000000 0.033914 0.000000
# 6 0.000000 0.000000 0.000000 0.000000 0.000000 0.037403
#
#
# Mechanical properties :
#
#
# Convention : Reuss Voigt Hill
#
# Bulk Modulus (GPa) = 47.33647 69.87070 58.60358
# Shear Modulus (GPa) = 28.59374 31.88760 30.24067
#
# Velocity S-wave (km/s) = 3.81522 4.02898 3.92355
# Velocity P-wave (km/s) = 6.59582 7.56385 7.09636
#
# Compressibility (1/GPa) = 0.02112536
#
# Stress axis : x y z
#
# Youngs Moduli (GPa) = 39.71019 103.36366 110.39708
#
# Poissons Ratio (x) = 0.50690 0.31283
# Poissons Ratio (y) = 0.19474 0.40375
# Poissons Ratio (z) = 0.11253 0.37803
#
# Static dielectric constant tensor:
#      x y z
#    x 4.030140 0.000000 0.000000 
#    y 0.000000 4.577340 0.000000 
#    z 0.000000 0.000000 3.701070 
# 
# 
# High freq. dielectric constant tensor:
#      x y z
#    x 1.740820 0.000000 0.000000 
#    y 0.000000 1.785760 0.000000 
#    z 0.000000 0.000000 1.757090 
# 
# From -- ./inp_files/20324.got.cif
#   From: 2010.03.12/outbox.cif.g09.slc.cpg/sg54_11_cif.got.tgz:20324.got - 2010.04.16 15:00:50.
