data_PCOD8222757
_publ_section_title
;
Structure prediction by ZEFSAII (Michael W. Deem and Ramdas Pophale) SiO2 
 PCOD8222757
Probable space group: P C C A
;
_chemical_formula_sum "Si O2"
_cell_formula_units_Z 64
_cell_length_a 5.256487
_cell_length_b 20.108315
_cell_length_c 28.918378
_cell_angle_alpha 90.000000
_cell_angle_beta 90.000000
_cell_angle_gamma 90.000000
_cell_volume 3056.646424
_symmetry_space_group_name_H-M "P C C A"
_symmetry_group_IT_number 54
_symmetry_cell_setting 'orthorhombic'
loop_
_space_group_symop_operation_xyz
x,y,z
1/2-x,-y,z
1/2+x,-y,1/2-z
-x,y,1/2-z
-x,-y,-z
1/2+x,y,-z
1/2-x,y,1/2+z
x,-y,1/2+z
loop_
_atom_site_type_symbol
_atom_site_label
_atom_site_fract_x
_atom_site_fract_y
_atom_site_fract_z
Si Si1 0.530328 0.044301 0.199344
Si Si2 0.818939 0.889327 0.868792
Si Si3 0.819331 0.701855 0.664456
Si Si4 0.380452 0.095507 0.525536
Si Si5 0.827394 0.833069 0.706261
Si Si6 0.634718 0.747197 0.477514
Si Si7 0.248925 0.574824 0.779741
Si Si8 0.829395 0.745971 0.379406
O O1 0.500000 0.008301 0.250000
O O2 0.288242 0.051306 0.164739
O O3 0.583469 0.121003 0.211218
O O4 0.750000 0.000000 0.173858
O O5 0.887825 0.920571 0.919133
O O6 0.629696 0.826079 0.876073
O O7 0.058642 0.856589 0.843229
O O8 0.746248 0.755518 0.704670
O O9 0.768506 0.626337 0.678534
O O10 0.612110 0.715124 0.624229
O O11 0.118787 0.715594 0.655619
O O12 0.627401 0.065019 0.498985
O O13 0.379033 0.173892 0.518203
O O14 0.000000 0.848328 0.750000
O O15 0.355777 0.718355 0.488901
O O16 0.712133 0.723118 0.427385
O O17 0.250000 0.500000 0.800123
O O18 0.500000 0.588629 0.750000
O O19 0.000000 0.586792 0.750000
#
# Coordination Sequence:
#
# PCOD8222757 Si02
#       8
#     8   8   8   8   8   8   8   8
#     4  12  25  40  58  80 113 149 199 241 290 348
#     4  10  22  37  57  82 114 151 187 240 296 346
#     4  11  21  34  55  82 114 148 186 237 286 334
#     4   9  19  33  56  84 111 143 185 231 288 351
#     4  11  22  37  56  81 113 150 191 239 294 351
#     4   9  16  28  47  73 110 147 176 220 282 340
#     4  10  21  37  55  78 111 153 196 233 276 333
#     4  10  20  33  52  83 115 145 187 234 284 343
#
# _framework density 20.937978000000001
#
# number of rings (size 3 to 8) (size 9 to 14) (size 15 to 20)
#    0.000    1.750    2.500    2.250    1.750    4.500 
#    0.000    0.000    0.000    0.750    0.000    0.000 
#    0.000   10.000    0.000    0.000    0.000    0.000 
#
# Total GULP energy -792863.144389 kJ/mol
# GULP energy per Si atom -12388.486631 kJ/mol
# Density = 2.089032 g / cm^3
# Si number density = 20.937978 Si / 1000 Ang^3
#
#
#
# Elastic Constant Matrix: (Units=GPa)
#
#
# Indices 1 2 3 4 5 6 
#
# 1 103.4357 4.9356 20.0568 0.0000 0.0000 0.0000
# 2 4.9356 68.0339 12.4282 0.0000 0.0000 0.0000
# 3 20.0568 12.4282 110.2709 0.0000 0.0000 0.0000
# 4 0.0000 0.0000 0.0000 26.2628 0.0000 0.0000
# 5 0.0000 0.0000 0.0000 0.0000 29.6384 0.0000
# 6 0.0000 0.0000 0.0000 0.0000 0.0000 26.7956
#
#
#
# Elastic Compliance Matrix: (Units=1/GPa)
#
#
# Indices 1 2 3 4 5 6 
#
# 1 0.010032 -0.000403 -0.001779 0.000000 0.000000 0.000000
# 2 -0.000403 0.015024 -0.001620 0.000000 0.000000 0.000000
# 3 -0.001779 -0.001620 0.009575 0.000000 0.000000 0.000000
# 4 0.000000 0.000000 0.000000 0.038077 0.000000 0.000000
# 5 0.000000 0.000000 0.000000 0.000000 0.033740 0.000000
# 6 0.000000 0.000000 0.000000 0.000000 0.000000 0.037320
#
#
# Mechanical properties :
#
#
# Convention : Reuss Voigt Hill
#
# Bulk Modulus (GPa) = 37.00080 39.62020 38.31050
# Shear Modulus (GPa) = 31.17598 32.82734 32.00166
#
# Velocity S-wave (km/s) = 3.86290 3.96389 3.91372
# Velocity P-wave (km/s) = 6.13237 6.31772 6.22574
#
# Compressibility (1/GPa) = 0.02702645
#
# Stress axis : x y z
#
# Youngs Moduli (GPa) = 99.68024 66.56143 104.44092
#
# Poissons Ratio (x) = 0.02681 0.18583
# Poissons Ratio (y) = 0.04015 0.16920
# Poissons Ratio (z) = 0.17736 0.10783
#
# Static dielectric constant tensor:
#      x y z
#    x 4.127250 0.000000 0.000000 
#    y 0.000000 3.583640 0.000000 
#    z 0.000000 0.000000 3.855520 
# 
# 
# High freq. dielectric constant tensor:
#      x y z
#    x 1.838360 0.000000 0.000000 
#    y 0.000000 1.774140 0.000000 
#    z 0.000000 0.000000 1.808080 
# 
# From -- ./inp_files/25538.got.cif
#   From: 2010.03.12/outbox.cif.g09.slc.cpg/sg54_13_cif.got.tgz:25538.got - 2010.04.16 15:00:50.
