data_PCOD8222663
_publ_section_title
;
Structure prediction by ZEFSAII (Michael W. Deem and Ramdas Pophale) SiO2 
 PCOD8222663
Probable space group: P C C A
;
_chemical_formula_sum "Si O2"
_cell_formula_units_Z 24
_cell_length_a 12.775988
_cell_length_b 5.277473
_cell_length_c 18.064965
_cell_angle_alpha 90.000000
_cell_angle_beta 90.000000
_cell_angle_gamma 90.000000
_cell_volume 1218.029032
_symmetry_space_group_name_H-M "P C C A"
_symmetry_group_IT_number 54
_symmetry_cell_setting 'orthorhombic'
loop_
_space_group_symop_operation_xyz
x,y,z
1/2-x,-y,z
1/2+x,-y,1/2-z
-x,y,1/2-z
-x,-y,-z
1/2+x,y,-z
1/2-x,y,1/2+z
x,-y,1/2+z
loop_
_atom_site_type_symbol
_atom_site_label
_atom_site_fract_x
_atom_site_fract_y
_atom_site_fract_z
Si Si1 0.064915 0.185922 0.408316
Si Si2 0.135586 0.919477 0.062241
Si Si3 0.520281 0.693027 0.663768
O O1 0.141224 0.195776 0.479309
O O2 0.080938 0.440327 0.361274
O O3 0.944169 0.160957 0.437795
O O4 0.090641 0.940780 0.356481
O O5 0.250000 0.000000 0.088944
O O6 0.090957 0.711789 0.120341
O O7 0.500000 0.679835 0.750000
#
# Coordination Sequence:
#
# PCOD8222663 Si02
#       3
#     8   8   8
#     4   9  20  36  57  80 107 150 184 226 269 327
#     4   9  20  36  60  81 110 144 193 224 272 323
#     4  10  19  36  58  78 114 148 177 227 286 326
#
# _framework density 19.703963999999999
#
# number of rings (size 3 to 8) (size 9 to 14) (size 15 to 20)
#    2.000    0.667    0.000    2.000    0.000    1.333 
#    0.000    1.667    7.333    0.000    0.000    0.000 
#    0.000    0.000    0.000    0.000    0.000    0.000 
#
# Total GULP energy -297348.930329 kJ/mol
# GULP energy per Si atom -12389.538764 kJ/mol
# Density = 1.965912 g / cm^3
# Si number density = 19.703964 Si / 1000 Ang^3
#
#
#
# Elastic Constant Matrix: (Units=GPa)
#
#
# Indices 1 2 3 4 5 6 
#
# 1 27.2856 3.4415 -9.5222 0.0000 0.0000 0.0000
# 2 3.4415 151.8649 62.2781 0.0000 0.0000 0.0000
# 3 -9.5222 62.2781 159.8932 0.0000 0.0000 0.0000
# 4 0.0000 0.0000 0.0000 20.6636 0.0000 0.0000
# 5 0.0000 0.0000 0.0000 0.0000 7.1000 0.0000
# 6 0.0000 0.0000 0.0000 0.0000 0.0000 7.1005
#
#
#
# Elastic Compliance Matrix: (Units=1/GPa)
#
#
# Indices 1 2 3 4 5 6 
#
# 1 0.037997 -0.002129 0.003092 0.000000 0.000000 0.000000
# 2 -0.002129 0.007956 -0.003226 0.000000 0.000000 0.000000
# 3 0.003092 -0.003226 0.007695 0.000000 0.000000 0.000000
# 4 0.000000 0.000000 0.000000 0.048394 0.000000 0.000000
# 5 0.000000 0.000000 0.000000 0.000000 0.140846 0.000000
# 6 0.000000 0.000000 0.000000 0.000000 0.000000 0.140834
#
#
# Mechanical properties :
#
#
# Convention : Reuss Voigt Hill
#
# Bulk Modulus (GPa) = 20.35731 50.15983 35.25857
# Shear Modulus (GPa) = 12.35723 25.82924 19.09324
#
# Velocity S-wave (km/s) = 2.50700 3.62452 3.11626
# Velocity P-wave (km/s) = 4.32829 6.55958 5.55708
#
# Compressibility (1/GPa) = 0.04912241
#
# Stress axis : x y z
#
# Youngs Moduli (GPa) = 26.31786 125.69407 129.95995
#
# Poissons Ratio (x) = 0.26762 -0.40186
# Poissons Ratio (y) = 0.05603 0.41920
# Poissons Ratio (z) = -0.08138 0.40544
#
# Static dielectric constant tensor:
#      x y z
#    x 3.009250 0.000000 0.000000 
#    y 0.000000 3.468190 0.000000 
#    z 0.000000 0.000000 3.412600 
# 
# 
# High freq. dielectric constant tensor:
#      x y z
#    x 1.714080 0.000000 0.000000 
#    y 0.000000 1.763120 0.000000 
#    z 0.000000 0.000000 1.768660 
# 
# From -- ./inp_files/12864.got.cif
#   From: 2010.03.12/outbox.cif.g09.slc.cpg/sg54_7_cif.got.tgz:12864.got - 2010.04.16 15:00:50.
