data_PCOD8222430
_publ_section_title
;
Structure prediction by ZEFSAII (Michael W. Deem and Ramdas Pophale) SiO2 
 PCOD8222430
Probable space group: P C C A
;
_chemical_formula_sum "Si O2"
_cell_formula_units_Z 48
_cell_length_a 14.804799
_cell_length_b 9.711968
_cell_length_c 16.741069
_cell_angle_alpha 90.000000
_cell_angle_beta 90.000000
_cell_angle_gamma 90.000000
_cell_volume 2407.093414
_symmetry_space_group_name_H-M "P C C A"
_symmetry_group_IT_number 54
_symmetry_cell_setting 'orthorhombic'
loop_
_space_group_symop_operation_xyz
x,y,z
1/2-x,-y,z
1/2+x,-y,1/2-z
-x,y,1/2-z
-x,-y,-z
1/2+x,y,-z
1/2-x,y,1/2+z
x,-y,1/2+z
loop_
_atom_site_type_symbol
_atom_site_label
_atom_site_fract_x
_atom_site_fract_y
_atom_site_fract_z
Si Si1 0.511366 0.525787 0.592621
Si Si2 0.999531 0.779207 0.844563
Si Si3 0.808682 0.369858 0.670499
Si Si4 0.345523 0.032318 0.666928
Si Si5 0.809972 0.878860 0.652167
Si Si6 0.083207 0.262007 0.691505
O O1 0.500000 0.500000 0.500000
O O2 0.498100 0.382627 0.638622
O O3 0.608056 0.593067 0.612840
O O4 0.433607 0.634358 0.617718
O O5 0.908017 0.853094 0.877643
O O6 0.000000 0.801498 0.750000
O O7 0.088423 0.854721 0.882268
O O8 0.750000 0.500000 0.689496
O O9 0.745597 0.257137 0.629239
O O10 0.831544 0.311587 0.757959
O O11 0.319783 0.087845 0.754324
O O12 0.250000 0.000000 0.621892
O O13 0.404891 0.894084 0.664172
O O14 0.750000 0.000000 0.611274
O O15 0.000000 0.272556 0.750000
#
# Coordination Sequence:
#
# PCOD8222430 Si02
#       6
#     8   8   8   8   8   8
#     4  11  25  41  56  84 128 174 206 242 308 380
#     4  10  20  36  62  90 121 151 203 262 308 359
#     4  11  20  36  64  93 118 152 208 261 306 367
#     4  10  19  33  57  96 122 144 192 263 323 365
#     4  10  18  32  61  96 120 142 194 260 320 360
#     4  10  20  35  61  88 117 152 201 255 309 355
#
# _framework density 19.941063
#
# number of rings (size 3 to 8) (size 9 to 14) (size 15 to 20)
#    0.000    1.667    5.000    3.000    4.667    0.000 
#    0.000    3.333    0.000    0.000    0.000    0.000 
#    0.000    0.000    0.000    0.000    0.000    0.000 
#
# Total GULP energy -594786.868304 kJ/mol
# GULP energy per Si atom -12391.393090 kJ/mol
# Density = 1.989568 g / cm^3
# Si number density = 19.941063 Si / 1000 Ang^3
#
#
#
# Elastic Constant Matrix: (Units=GPa)
#
#
# Indices 1 2 3 4 5 6 
#
# 1 108.4498 47.1758 11.7363 0.0000 0.0000 0.0000
# 2 47.1758 137.2965 6.1266 0.0000 0.0000 0.0000
# 3 11.7363 6.1266 39.9812 0.0000 0.0000 0.0000
# 4 0.0000 0.0000 0.0000 5.8653 0.0000 0.0000
# 5 0.0000 0.0000 0.0000 0.0000 -3.6336 0.0000
# 6 0.0000 0.0000 0.0000 0.0000 0.0000 54.2736
#
#
#
# Elastic Compliance Matrix: (Units=1/GPa)
#
#
# Indices 1 2 3 4 5 6 
#
# 1 0.011123 -0.003702 -0.002698 0.000000 0.000000 0.000000
# 2 -0.003702 0.008565 -0.000226 0.000000 0.000000 0.000000
# 3 -0.002698 -0.000226 0.025838 0.000000 0.000000 0.000000
# 4 0.000000 0.000000 0.000000 0.170495 0.000000 0.000000
# 5 0.000000 0.000000 0.000000 0.000000 -0.275206 0.000000
# 6 0.000000 0.000000 0.000000 0.000000 0.000000 0.018425
#
#
# Mechanical properties :
#
#
# Convention : Reuss Voigt Hill
#
# Bulk Modulus (GPa) = 30.98278 46.20054 38.59166
# Shear Modulus (GPa) = -298.50236 26.01364 -136.24436
#
# Velocity S-wave (km/s) = -12.24815 3.61574 -8.27477
# Velocity P-wave (km/s) = 13.58132 6.37576 8.47944
#
# Compressibility (1/GPa) = 0.03227600
#
# Stress axis : x y z
#
# Youngs Moduli (GPa) = 89.90393 116.74807 38.70217
#
# Poissons Ratio (x) = 0.43215 0.10441
# Poissons Ratio (y) = 0.33278 0.00875
# Poissons Ratio (z) = 0.24255 0.02638
#
# Static dielectric constant tensor:
#      x y z
#    x 4.356900 0.000000 0.000000 
#    y 0.000000 3.763080 0.000000 
#    z 0.000000 0.000000 3.087040 
# 
# 
# High freq. dielectric constant tensor:
#      x y z
#    x 1.799770 0.000000 0.000000 
#    y 0.000000 1.802480 0.000000 
#    z 0.000000 0.000000 1.700780 
# 
# From -- ./inp_files/21452.got.cif
#   From: 2010.03.12/outbox.cif.g09.slc.cpg/sg54_11_cif.got.tgz:21452.got - 2010.04.16 15:00:50.
