data_PCOD8222059
_publ_section_title
;
Structure prediction by ZEFSAII (Michael W. Deem and Ramdas Pophale) SiO2 
 PCOD8222059
Probable space group: P M N A
;
_chemical_formula_sum "Si O2"
_cell_formula_units_Z 40
_cell_length_a 25.363400
_cell_length_b 13.906887
_cell_length_c 4.954478
_cell_angle_alpha 90.000000
_cell_angle_beta 90.000000
_cell_angle_gamma 90.000000
_cell_volume 1747.572899
_symmetry_space_group_name_H-M "P M N A"
_symmetry_group_IT_number 53
_symmetry_cell_setting 'orthorhombic'
loop_
_space_group_symop_operation_xyz
x,y,z
1/2-x,-y,1/2+z
x,-y,-z
1/2-x,y,1/2-z
-x,-y,-z
1/2+x,y,1/2-z
-x,y,z
1/2+x,-y,1/2+z
loop_
_atom_site_type_symbol
_atom_site_label
_atom_site_fract_x
_atom_site_fract_y
_atom_site_fract_z
Si Si1 0.133042 0.396027 0.084955
Si Si2 0.902766 0.108083 0.559244
Si Si3 0.298985 0.635947 0.096232
Si Si4 0.781753 0.148009 0.499304
Si Si5 0.940225 0.220256 0.074296
O O1 0.173739 0.415910 0.336608
O O2 0.085680 0.323731 0.143028
O O3 0.110751 0.500000 0.000000
O O4 0.159069 0.344471 0.828962
O O5 0.841413 0.113370 0.486594
O O6 0.938665 0.170570 0.363141
O O7 0.921921 0.000000 0.500000
O O8 0.911380 0.149471 0.860905
O O9 0.250000 0.579924 0.250000
O O10 0.278231 0.736844 0.987176
O O11 0.750000 0.104740 0.250000
O O12 0.750000 0.105435 0.750000
O O13 0.000000 0.237767 0.980557
#
# Coordination Sequence:
#
# PCOD8222059 Si02
#       5
#     8   8   8   8   8
#     4  12  24  43  69  99 137 177 228 275 335 402
#     4  12  26  45  71 103 136 176 227 278 343 411
#     4  11  22  40  66  98 138 184 217 269 329 401
#     4  11  21  38  67  95 134 177 216 261 325 398
#     4  12  26  48  71  97 135 176 228 292 348 394
#
# _framework density 22.888887
#
# number of rings (size 3 to 8) (size 9 to 14) (size 15 to 20)
#    0.000    0.400    4.000    6.000    0.000    5.200 
#    0.000    1.000    0.000    4.800    0.000    0.000 
#    0.000    0.000    0.000    0.000    0.000    0.000 
#
# Total GULP energy -495786.685114 kJ/mol
# GULP energy per Si atom -12394.667128 kJ/mol
# Density = 2.283679 g / cm^3
# Si number density = 22.888887 Si / 1000 Ang^3
#
#
#
# Elastic Constant Matrix: (Units=GPa)
#
#
# Indices 1 2 3 4 5 6 
#
# 1 118.7733 37.2606 31.3624 0.0000 0.0000 0.0000
# 2 37.2606 130.2075 27.4983 0.0000 0.0000 0.0000
# 3 31.3624 27.4983 135.2174 0.0000 0.0000 0.0000
# 4 0.0000 0.0000 0.0000 29.6264 0.0000 0.0000
# 5 0.0000 0.0000 0.0000 0.0000 31.6153 0.0000
# 6 0.0000 0.0000 0.0000 0.0000 0.0000 13.4282
#
#
#
# Elastic Compliance Matrix: (Units=1/GPa)
#
#
# Indices 1 2 3 4 5 6 
#
# 1 0.009630 -0.002386 -0.001748 0.000000 0.000000 0.000000
# 2 -0.002386 0.008616 -0.001199 0.000000 0.000000 0.000000
# 3 -0.001748 -0.001199 0.008045 0.000000 0.000000 0.000000
# 4 0.000000 0.000000 0.000000 0.033754 0.000000 0.000000
# 5 0.000000 0.000000 0.000000 0.000000 0.031630 0.000000
# 6 0.000000 0.000000 0.000000 0.000000 0.000000 0.074470
#
#
# Mechanical properties :
#
#
# Convention : Reuss Voigt Hill
#
# Bulk Modulus (GPa) = 64.00470 64.04898 64.02684
# Shear Modulus (GPa) = 27.46959 34.13911 30.80435
#
# Velocity S-wave (km/s) = 3.46804 3.86620 3.67252
# Velocity P-wave (km/s) = 6.63780 6.92628 6.78357
#
# Compressibility (1/GPa) = 0.01562385
#
# Stress axis : x y z
#
# Youngs Moduli (GPa) = 103.84569 116.06164 124.30480
#
# Poissons Ratio (x) = 0.27698 0.21731
# Poissons Ratio (y) = 0.24782 0.14900
# Poissons Ratio (z) = 0.18154 0.13912
#
# Static dielectric constant tensor:
#      x y z
#    x 3.939890 0.000000 0.000000 
#    y 0.000000 3.954090 0.000000 
#    z 0.000000 0.000000 4.344250 
# 
# 
# High freq. dielectric constant tensor:
#      x y z
#    x 1.888840 0.000000 0.000000 
#    y 0.000000 1.901940 0.000000 
#    z 0.000000 0.000000 1.924010 
# 
# From -- ./inp_files/3621.got.cif
#   From: 2010.03.12/outbox.cif.g09.slc.cpg/sg53_2_cif.got.tgz:3621.got - 2010.04.16 14:36:59.
