data_PCOD8222834
_publ_section_title
;
Structure prediction by ZEFSAII (Michael W. Deem and Ramdas Pophale) SiO2 
 PCOD8222834
Probable space group: P C C A
;
_chemical_formula_sum "Si O2"
_cell_formula_units_Z 44
_cell_length_a 19.216037
_cell_length_b 11.884160
_cell_length_c 9.000633
_cell_angle_alpha 90.000000
_cell_angle_beta 90.000000
_cell_angle_gamma 90.000000
_cell_volume 2055.442680
_symmetry_space_group_name_H-M "P C C A"
_symmetry_group_IT_number 54
_symmetry_cell_setting 'orthorhombic'
loop_
_space_group_symop_operation_xyz
x,y,z
1/2-x,-y,z
1/2+x,-y,1/2-z
-x,y,1/2-z
-x,-y,-z
1/2+x,y,-z
1/2-x,y,1/2+z
x,-y,1/2+z
loop_
_atom_site_type_symbol
_atom_site_label
_atom_site_fract_x
_atom_site_fract_y
_atom_site_fract_z
Si Si1 0.385103 0.435629 0.458900
Si Si2 0.217004 0.154707 0.643007
Si Si3 0.105348 0.689046 0.030053
Si Si4 0.500000 0.651774 0.750000
Si Si5 0.343380 0.700492 0.208538
Si Si6 0.750000 0.000000 0.111337
Si Si7 0.750000 0.500000 0.688094
O O1 0.396072 0.554495 0.539741
O O2 0.439602 0.424698 0.324008
O O3 0.396670 0.333303 0.576717
O O4 0.304775 0.427559 0.407668
O O5 0.168210 0.263403 0.631076
O O6 0.297577 0.191678 0.663448
O O7 0.205627 0.083298 0.492803
O O8 0.198778 0.075077 0.783994
O O9 0.113081 0.727509 0.858758
O O10 0.034920 0.727220 0.117473
O O11 0.293743 0.591168 0.220674
#
# Coordination Sequence:
#
# PCOD8222834 Si02
#       7
#     8   8   8   4   8   4   4
#     4  11  23  38  61  94 137 174 214 257 308 391
#     4  11  21  42  63 101 120 163 202 278 339 390
#     4  11  23  38  59  88 129 171 212 250 315 389
#     4  12  26  40  58  90 138 182 216 254 304 390
#     4  11  20  35  62  91 127 161 210 257 320 385
#     4  10  24  38  68  96 130 148 210 282 348 372
#     4  10  20  36  58 100 126 166 200 270 304 384
#
# _framework density 21.406580000000002
#
# number of rings (size 3 to 8) (size 9 to 14) (size 15 to 20)
#    0.000    1.091    1.818    7.636    2.545    0.727 
#    0.000    0.000    0.000    1.091    0.000    0.000 
#    0.000    0.000    0.000    0.000    0.000    0.000 
#
# Total GULP energy -545191.408005 kJ/mol
# GULP energy per Si atom -12390.713818 kJ/mol
# Density = 2.135786 g / cm^3
# Si number density = 21.406580 Si / 1000 Ang^3
#
#
#
# Elastic Constant Matrix: (Units=GPa)
#
#
# Indices 1 2 3 4 5 6 
#
# 1 100.6298 20.8147 64.9166 0.0000 0.0000 0.0000
# 2 20.8147 59.0910 47.0351 0.0000 0.0000 0.0000
# 3 64.9166 47.0351 153.4640 0.0000 0.0000 0.0000
# 4 0.0000 0.0000 0.0000 30.8631 0.0000 0.0000
# 5 0.0000 0.0000 0.0000 0.0000 32.2304 0.0000
# 6 0.0000 0.0000 0.0000 0.0000 0.0000 8.6560
#
#
#
# Elastic Compliance Matrix: (Units=1/GPa)
#
#
# Indices 1 2 3 4 5 6 
#
# 1 0.013670 -0.000281 -0.005697 0.000000 0.000000 0.000000
# 2 -0.000281 0.022390 -0.006743 0.000000 0.000000 0.000000
# 3 -0.005697 -0.006743 0.010993 0.000000 0.000000 0.000000
# 4 0.000000 0.000000 0.000000 0.032401 0.000000 0.000000
# 5 0.000000 0.000000 0.000000 0.000000 0.031027 0.000000
# 6 0.000000 0.000000 0.000000 0.000000 0.000000 0.115527
#
#
# Mechanical properties :
#
#
# Convention : Reuss Voigt Hill
#
# Bulk Modulus (GPa) = 46.27314 64.30196 55.28755
# Shear Modulus (GPa) = 19.33092 26.37779 22.85436
#
# Velocity S-wave (km/s) = 3.00832 3.51412 3.27101
# Velocity P-wave (km/s) = 5.80774 6.82415 6.33636
#
# Compressibility (1/GPa) = 0.02161081
#
# Stress axis : x y z
#
# Youngs Moduli (GPa) = 73.15059 44.66372 90.97010
#
# Poissons Ratio (x) = 0.01255 0.51822
# Poissons Ratio (y) = 0.02056 0.61344
# Poissons Ratio (z) = 0.41671 0.30118
#
# Static dielectric constant tensor:
#      x y z
#    x 3.785930 0.000000 0.000000 
#    y 0.000000 3.651380 0.000000 
#    z 0.000000 0.000000 4.258940 
# 
# 
# High freq. dielectric constant tensor:
#      x y z
#    x 1.799990 0.000000 0.000000 
#    y 0.000000 1.805870 0.000000 
#    z 0.000000 0.000000 1.874000 
# 
# From -- ./inp_files/4147.got.cif
#   From: 2010.03.12/outbox.cif.g09.slc.cpg/sg54_3_cif.got.tgz:4147.got - 2010.04.16 15:00:50.
