data_PCOD8222829
_publ_section_title
;
Structure prediction by ZEFSAII (Michael W. Deem and Ramdas Pophale) SiO2 
 PCOD8222829
Probable space group: P C C A
;
_chemical_formula_sum "Si O2"
_cell_formula_units_Z 36
_cell_length_a 20.550496
_cell_length_b 6.414015
_cell_length_c 13.174331
_cell_angle_alpha 90.000000
_cell_angle_beta 90.000000
_cell_angle_gamma 90.000000
_cell_volume 1736.524241
_symmetry_space_group_name_H-M "P C C A"
_symmetry_group_IT_number 54
_symmetry_cell_setting 'orthorhombic'
loop_
_space_group_symop_operation_xyz
x,y,z
1/2-x,-y,z
1/2+x,-y,1/2-z
-x,y,1/2-z
-x,-y,-z
1/2+x,y,-z
1/2-x,y,1/2+z
x,-y,1/2+z
loop_
_atom_site_type_symbol
_atom_site_label
_atom_site_fract_x
_atom_site_fract_y
_atom_site_fract_z
Si Si1 0.040648 0.298767 0.469728
Si Si2 0.920654 0.054323 0.399380
Si Si3 0.360557 0.210754 0.805194
Si Si4 0.808929 0.126189 0.546244
Si Si5 0.750000 0.500000 0.660913
O O1 0.094513 0.343174 0.383339
O O2 0.000000 0.500000 0.500000
O O3 0.992514 0.137167 0.416993
O O4 0.075034 0.192714 0.569561
O O5 0.901088 0.107804 0.285359
O O6 0.868123 0.167579 0.470412
O O7 0.302316 0.369708 0.770713
O O8 0.329715 0.011763 0.858297
O O9 0.788084 0.349893 0.585119
O O10 0.750000 0.000000 0.490467
#
# Coordination Sequence:
#
# PCOD8222829 Si02
#       5
#     8   8   8   8   4
#     4  10  21  39  60  85 117 154 197 246 302 363
#     4  10  21  37  59  84 114 151 194 246 301 354
#     4  10  21  37  57  86 116 150 198 247 296 360
#     4   9  20  36  54  80 115 150 190 241 293 354
#     4  10  20  36  56  80 118 156 192 238 294 358
#
# _framework density 20.731065999999998
#
# number of rings (size 3 to 8) (size 9 to 14) (size 15 to 20)
#    0.000    2.222    0.000    2.000    0.000    5.333 
#    0.000    6.667    0.000    0.000    0.000    0.000 
#    0.000    0.000    0.000    0.000    0.000    0.000 
#
# Total GULP energy -446111.268263 kJ/mol
# GULP energy per Si atom -12391.979674 kJ/mol
# Density = 2.068388 g / cm^3
# Si number density = 20.731066 Si / 1000 Ang^3
#
#
#
# Elastic Constant Matrix: (Units=GPa)
#
#
# Indices 1 2 3 4 5 6 
#
# 1 102.6934 36.8013 39.5493 0.0000 0.0000 0.0000
# 2 36.8013 102.0033 49.3925 0.0000 0.0000 0.0000
# 3 39.5493 49.3925 88.8504 0.0000 0.0000 0.0000
# 4 0.0000 0.0000 0.0000 16.1731 0.0000 0.0000
# 5 0.0000 0.0000 0.0000 0.0000 25.9523 0.0000
# 6 0.0000 0.0000 0.0000 0.0000 0.0000 50.1175
#
#
#
# Elastic Compliance Matrix: (Units=1/GPa)
#
#
# Indices 1 2 3 4 5 6 
#
# 1 0.012174 -0.002419 -0.004074 0.000000 0.000000 0.000000
# 2 -0.002419 0.013895 -0.006648 0.000000 0.000000 0.000000
# 3 -0.004074 -0.006648 0.016764 0.000000 0.000000 0.000000
# 4 0.000000 0.000000 0.000000 0.061831 0.000000 0.000000
# 5 0.000000 0.000000 0.000000 0.000000 0.038532 0.000000
# 6 0.000000 0.000000 0.000000 0.000000 0.000000 0.019953
#
#
# Mechanical properties :
#
#
# Convention : Reuss Voigt Hill
#
# Bulk Modulus (GPa) = 60.41907 60.55926 60.48917
# Shear Modulus (GPa) = 25.64788 29.63552 27.64170
#
# Velocity S-wave (km/s) = 3.52116 3.78500 3.65546
# Velocity P-wave (km/s) = 6.76306 6.95535 6.85988
#
# Compressibility (1/GPa) = 0.01655107
#
# Stress axis : x y z
#
# Youngs Moduli (GPa) = 82.14462 71.96604 59.65281
#
# Poissons Ratio (x) = 0.17412 0.24301
# Poissons Ratio (y) = 0.19874 0.39655
# Poissons Ratio (z) = 0.33464 0.47840
#
# Static dielectric constant tensor:
#      x y z
#    x 4.300080 0.000000 0.000000 
#    y 0.000000 3.723060 0.000000 
#    z 0.000000 0.000000 3.411470 
# 
# 
# High freq. dielectric constant tensor:
#      x y z
#    x 1.842320 0.000000 0.000000 
#    y 0.000000 1.808990 0.000000 
#    z 0.000000 0.000000 1.776630 
# 
# From -- ./inp_files/9735.got.cif
#   From: 2010.03.12/outbox.cif.g09.slc.cpg/sg54_5_cif.got.tgz:9735.got - 2010.04.16 15:00:50.
