data_PCOD8222147
_publ_section_title
;
Structure prediction by ZEFSAII (Michael W. Deem and Ramdas Pophale) SiO2 
 PCOD8222147
Probable space group: P M N A
;
_chemical_formula_sum "Si O2"
_cell_formula_units_Z 48
_cell_length_a 8.921821
_cell_length_b 31.389962
_cell_length_c 9.127889
_cell_angle_alpha 90.000000
_cell_angle_beta 90.000000
_cell_angle_gamma 90.000000
_cell_volume 2556.316633
_symmetry_space_group_name_H-M "P M N A"
_symmetry_group_IT_number 53
_symmetry_cell_setting 'orthorhombic'
loop_
_space_group_symop_operation_xyz
x,y,z
1/2-x,-y,1/2+z
x,-y,-z
1/2-x,y,1/2-z
-x,-y,-z
1/2+x,y,1/2-z
-x,y,z
1/2+x,-y,1/2+z
loop_
_atom_site_type_symbol
_atom_site_label
_atom_site_fract_x
_atom_site_fract_y
_atom_site_fract_z
Si Si1 0.177746 0.884949 0.091994
Si Si2 0.674572 0.538349 0.905223
Si Si3 0.825458 0.631241 0.591936
Si Si4 0.175374 0.288614 0.091918
Si Si5 0.825575 0.194928 0.093985
Si Si6 0.826768 0.957963 0.595542
O O1 0.250000 0.890680 0.250000
O O2 0.000000 0.889636 0.106697
O O3 0.226732 0.839301 0.026011
O O4 0.239069 0.920300 0.983032
O O5 0.750000 0.536705 0.750000
O O6 0.500000 0.530660 0.880400
O O7 0.702251 0.584781 0.982568
O O8 0.744504 0.500000 0.000000
O O9 0.750000 0.628961 0.750000
O O10 0.749756 0.671248 0.503427
O O11 0.000000 0.640840 0.608628
O O12 0.250000 0.288517 0.250000
O O13 0.210658 0.241829 0.025126
O O14 0.000000 0.296910 0.103564
O O15 0.750000 0.186470 0.250000
O O16 0.000000 0.190379 0.126533
O O17 0.750000 0.967284 0.750000
O O18 0.000000 0.945047 0.617979
O O19 0.811683 0.000000 0.500000
#
# Coordination Sequence:
#
# PCOD8222147 Si02
#       6
#     8   8   8   8   8   8
#     4  11  23  39  58  81 110 144 183 223 264 310
#     4   9  18  31  46  66  93 123 157 199 244 293
#     4   9  15  24  40  63  90 119 153 194 241 290
#     4   9  15  25  42  66  95 123 155 197 245 294
#     4   9  19  33  51  76 104 133 166 208 255 304
#     4  11  24  41  62  88 117 148 182 221 265 312
#
# _framework density 18.777016
#
# number of rings (size 3 to 8) (size 9 to 14) (size 15 to 20)
#    0.000    2.333    0.000    4.000    0.000    7.000 
#    0.000    0.000    0.000    1.000    0.000    7.000 
#    0.000    0.000    0.000    0.000    0.000    0.000 
#
# Total GULP energy -594746.955194 kJ/mol
# GULP energy per Si atom -12390.561567 kJ/mol
# Density = 1.873428 g / cm^3
# Si number density = 18.777016 Si / 1000 Ang^3
#
#
#
# Elastic Constant Matrix: (Units=GPa)
#
#
# Indices 1 2 3 4 5 6 
#
# 1 93.4028 60.1133 32.9509 0.0000 0.0000 0.0000
# 2 60.1133 158.0302 40.7154 0.0000 0.0000 0.0000
# 3 32.9509 40.7154 71.7353 0.0000 0.0000 0.0000
# 4 0.0000 0.0000 0.0000 21.9070 0.0000 0.0000
# 5 0.0000 0.0000 0.0000 0.0000 18.6115 0.0000
# 6 0.0000 0.0000 0.0000 0.0000 0.0000 33.5027
#
#
#
# Elastic Compliance Matrix: (Units=1/GPa)
#
#
# Indices 1 2 3 4 5 6 
#
# 1 0.015254 -0.004682 -0.004349 0.000000 0.000000 0.000000
# 2 -0.004682 0.008849 -0.002872 0.000000 0.000000 0.000000
# 3 -0.004349 -0.002872 0.017568 0.000000 0.000000 0.000000
# 4 0.000000 0.000000 0.000000 0.045648 0.000000 0.000000
# 5 0.000000 0.000000 0.000000 0.000000 0.053730 0.000000
# 6 0.000000 0.000000 0.000000 0.000000 0.000000 0.029848
#
#
# Mechanical properties :
#
#
# Convention : Reuss Voigt Hill
#
# Bulk Modulus (GPa) = 55.97695 65.63641 60.80668
# Shear Modulus (GPa) = 24.91804 27.43013 26.17408
#
# Velocity S-wave (km/s) = 3.64682 3.82623 3.73760
# Velocity P-wave (km/s) = 6.89989 7.38591 7.14704
#
# Compressibility (1/GPa) = 0.01786450
#
# Stress axis : x y z
#
# Youngs Moduli (GPa) = 65.55686 113.01040 56.92175
#
# Poissons Ratio (x) = 0.52910 0.24758
# Poissons Ratio (y) = 0.30693 0.16347
# Poissons Ratio (z) = 0.28513 0.32454
#
# Static dielectric constant tensor:
#      x y z
#    x 3.597640 0.000000 0.000000 
#    y 0.000000 4.960620 0.000000 
#    z 0.000000 0.000000 2.904580 
# 
# 
# High freq. dielectric constant tensor:
#      x y z
#    x 1.740440 0.000000 0.000000 
#    y 0.000000 1.765220 0.000000 
#    z 0.000000 0.000000 1.674040 
# 
# From -- ./inp_files/6716.got.cif
#   From: 2010.03.12/outbox.cif.g09.slc.cpg/sg53_4_cif.got.tgz:6716.got - 2010.04.16 14:36:59.
