data_PCOD8222474
_publ_section_title
;
Structure prediction by ZEFSAII (Michael W. Deem and Ramdas Pophale) SiO2 
 PCOD8222474
Probable space group: P C C A
;
_chemical_formula_sum "Si O2"
_cell_formula_units_Z 40
_cell_length_a 18.152292
_cell_length_b 9.823691
_cell_length_c 9.832577
_cell_angle_alpha 90.000000
_cell_angle_beta 90.000000
_cell_angle_gamma 90.000000
_cell_volume 1753.369786
_symmetry_space_group_name_H-M "P C C A"
_symmetry_group_IT_number 54
_symmetry_cell_setting 'orthorhombic'
loop_
_space_group_symop_operation_xyz
x,y,z
1/2-x,-y,z
1/2+x,-y,1/2-z
-x,y,1/2-z
-x,-y,-z
1/2+x,y,-z
1/2-x,y,1/2+z
x,-y,1/2+z
loop_
_atom_site_type_symbol
_atom_site_label
_atom_site_fract_x
_atom_site_fract_y
_atom_site_fract_z
Si Si1 0.444265 0.150778 0.929253
Si Si2 0.584554 0.582426 0.218331
Si Si3 0.301298 0.373260 0.324144
Si Si4 0.092290 0.045049 0.151041
Si Si5 0.300843 0.737806 0.108750
O O1 0.411220 0.300574 0.899366
O O2 0.533450 0.149761 0.920681
O O3 0.421487 0.038531 0.813370
O O4 0.414332 0.101648 0.076593
O O5 0.500000 0.557433 0.250000
O O6 0.615621 0.433485 0.178079
O O7 0.634502 0.634172 0.343494
O O8 0.250000 0.500000 0.353910
O O9 0.275640 0.294337 0.187600
O O10 0.289124 0.271794 0.448439
O O11 0.173816 0.106917 0.132781
#
# Coordination Sequence:
#
# PCOD8222474 Si02
#       5
#     8   8   8   8   8
#     4   9  16  33  59  89 118 156 189 253 315 376
#     4  10  18  35  59  91 123 155 202 266 323 376
#     4  10  21  36  62  81 120 168 207 251 313 379
#     4   9  17  33  60  84 121 153 199 245 319 373
#     4  10  20  39  58  86 118 170 206 256 317 383
#
# _framework density 22.813213999999999
#
# number of rings (size 3 to 8) (size 9 to 14) (size 15 to 20)
#    0.000    2.400    4.000    1.800    0.000    0.800 
#    0.000   10.000    4.400   27.600    0.000    0.000 
#    0.000    0.000    0.000    0.000    0.000    0.000 
#
# Total GULP energy -495584.795640 kJ/mol
# GULP energy per Si atom -12389.619891 kJ/mol
# Density = 2.276129 g / cm^3
# Si number density = 22.813214 Si / 1000 Ang^3
#
#
#
# Elastic Constant Matrix: (Units=GPa)
#
#
# Indices 1 2 3 4 5 6 
#
# 1 95.3838 42.3252 31.4348 0.0000 0.0000 0.0000
# 2 42.3252 61.7237 32.7064 0.0000 0.0000 0.0000
# 3 31.4348 32.7064 98.7153 0.0000 0.0000 0.0000
# 4 0.0000 0.0000 0.0000 26.7931 0.0000 0.0000
# 5 0.0000 0.0000 0.0000 0.0000 17.0780 0.0000
# 6 0.0000 0.0000 0.0000 0.0000 0.0000 27.5473
#
#
#
# Elastic Compliance Matrix: (Units=1/GPa)
#
#
# Indices 1 2 3 4 5 6 
#
# 1 0.015299 -0.009594 -0.001693 0.000000 0.000000 0.000000
# 2 -0.009594 0.025667 -0.005449 0.000000 0.000000 0.000000
# 3 -0.001693 -0.005449 0.012475 0.000000 0.000000 0.000000
# 4 0.000000 0.000000 0.000000 0.037323 0.000000 0.000000
# 5 0.000000 0.000000 0.000000 0.000000 0.058555 0.000000
# 6 0.000000 0.000000 0.000000 0.000000 0.000000 0.036301
#
#
# Mechanical properties :
#
#
# Convention : Reuss Voigt Hill
#
# Bulk Modulus (GPa) = 50.07758 52.08398 51.08078
# Shear Modulus (GPa) = 22.14857 24.24078 23.19467
#
# Velocity S-wave (km/s) = 3.11925 3.26325 3.19207
# Velocity P-wave (km/s) = 5.91369 6.08922 6.00210
#
# Compressibility (1/GPa) = 0.01996902
#
# Stress axis : x y z
#
# Youngs Moduli (GPa) = 65.36361 38.96025 80.16205
#
# Poissons Ratio (x) = 0.37377 0.13573
# Poissons Ratio (y) = 0.62708 0.43681
# Poissons Ratio (z) = 0.11068 0.21230
#
# Static dielectric constant tensor:
#      x y z
#    x 4.336130 0.000000 0.000000 
#    y 0.000000 3.936900 0.000000 
#    z 0.000000 0.000000 3.965110 
# 
# 
# High freq. dielectric constant tensor:
#      x y z
#    x 1.897640 0.000000 0.000000 
#    y 0.000000 1.864670 0.000000 
#    z 0.000000 0.000000 1.884750 
# 
# From -- ./inp_files/3984.got.cif
#   From: 2010.03.12/outbox.cif.g09.slc.cpg/sg54_2_cif.got.tgz:3984.got - 2010.04.16 15:00:50.
