data_PCOD8222321
_publ_section_title
;
Structure prediction by ZEFSAII (Michael W. Deem and Ramdas Pophale) SiO2 
 PCOD8222321
Probable space group: P C C A
;
_chemical_formula_sum "Si O2"
_cell_formula_units_Z 44
_cell_length_a 19.371947
_cell_length_b 22.718536
_cell_length_c 5.253900
_cell_angle_alpha 90.000000
_cell_angle_beta 90.000000
_cell_angle_gamma 90.000000
_cell_volume 2312.253344
_symmetry_space_group_name_H-M "P C C A"
_symmetry_group_IT_number 54
_symmetry_cell_setting 'orthorhombic'
loop_
_space_group_symop_operation_xyz
x,y,z
1/2-x,-y,z
1/2+x,-y,1/2-z
-x,y,1/2-z
-x,-y,-z
1/2+x,y,-z
1/2-x,y,1/2+z
x,-y,1/2+z
loop_
_atom_site_type_symbol
_atom_site_label
_atom_site_fract_x
_atom_site_fract_y
_atom_site_fract_z
Si Si1 0.635672 0.843448 0.475208
Si Si2 0.173122 0.974791 0.524972
Si Si3 0.327410 0.525202 0.494776
Si Si4 0.000000 0.816451 0.750000
Si Si5 0.873045 0.774739 0.495057
Si Si6 0.793981 0.342079 0.007206
O O1 0.675542 0.904654 0.497686
O O2 0.553812 0.855477 0.416978
O O3 0.666527 0.806108 0.235276
O O4 0.646084 0.808265 0.736056
O O5 0.250000 0.000000 0.550277
O O6 0.134330 0.003716 0.282090
O O7 0.250000 0.500000 0.468470
O O8 0.365762 0.495868 0.736904
O O9 0.330416 0.595137 0.521005
O O10 0.044635 0.776202 0.945752
O O11 0.851775 0.707278 0.468930
O O12 0.762965 0.335364 0.288377
#
# Coordination Sequence:
#
# PCOD8222321 Si02
#       6
#     8   8   8   4   8   8
#     4  10  20  41  60  81 110 145 188 233 280 327
#     4  10  21  39  58  83 115 147 180 214 276 344
#     4  10  16  30  49  69 112 158 186 218 267 336
#     4   8  22  40  64  80 106 150 198 230 282 324
#     4  10  22  38  59  85 110 149 189 239 282 328
#     4  12  21  34  51  87 122 145 189 231 283 348
#
# _framework density 19.029057000000002
#
# number of rings (size 3 to 8) (size 9 to 14) (size 15 to 20)
#    1.091    0.727    3.636    2.727    0.000    0.000 
#   19.636    0.909    0.000    0.000    0.000    1.273 
#    0.000    0.000    0.000    0.000    0.000    0.000 
#
# Total GULP energy -545131.585290 kJ/mol
# GULP energy per Si atom -12389.354211 kJ/mol
# Density = 1.898575 g / cm^3
# Si number density = 19.029057 Si / 1000 Ang^3
#
#
#
# Elastic Constant Matrix: (Units=GPa)
#
#
# Indices 1 2 3 4 5 6 
#
# 1 35.3334 34.1455 3.9769 0.0000 0.0000 0.0000
# 2 34.1455 155.1062 40.5117 0.0000 0.0000 0.0000
# 3 3.9769 40.5117 163.4562 0.0000 0.0000 0.0000
# 4 0.0000 0.0000 0.0000 35.3718 0.0000 0.0000
# 5 0.0000 0.0000 0.0000 0.0000 5.4717 0.0000
# 6 0.0000 0.0000 0.0000 0.0000 0.0000 9.2529
#
#
#
# Elastic Compliance Matrix: (Units=1/GPa)
#
#
# Indices 1 2 3 4 5 6 
#
# 1 0.036158 -0.008265 0.001169 0.000000 0.000000 0.000000
# 2 -0.008265 0.008783 -0.001976 0.000000 0.000000 0.000000
# 3 0.001169 -0.001976 0.006579 0.000000 0.000000 0.000000
# 4 0.000000 0.000000 0.000000 0.028271 0.000000 0.000000
# 5 0.000000 0.000000 0.000000 0.000000 0.182758 0.000000
# 6 0.000000 0.000000 0.000000 0.000000 0.000000 0.108074
#
#
# Mechanical properties :
#
#
# Convention : Reuss Voigt Hill
#
# Bulk Modulus (GPa) = 29.96225 56.79598 43.37912
# Shear Modulus (GPa) = 12.50339 28.37006 20.43673
#
# Velocity S-wave (km/s) = 2.56612 3.86538 3.28071
# Velocity P-wave (km/s) = 4.95577 7.05927 6.09889
#
# Compressibility (1/GPa) = 0.03337533
#
# Stress axis : x y z
#
# Youngs Moduli (GPa) = 27.65677 113.86019 151.99718
#
# Poissons Ratio (x) = 0.94106 -0.17765
# Poissons Ratio (y) = 0.22858 0.30029
# Poissons Ratio (z) = -0.03232 0.22495
#
# Static dielectric constant tensor:
#      x y z
#    x 2.891470 0.000000 0.000000 
#    y 0.000000 3.408180 0.000000 
#    z 0.000000 0.000000 5.569080 
# 
# 
# High freq. dielectric constant tensor:
#      x y z
#    x 1.671210 0.000000 0.000000 
#    y 0.000000 1.737960 0.000000 
#    z 0.000000 0.000000 1.778070 
# 
# From -- ./inp_files/1319.got.cif
#   From: 2010.03.12/outbox.cif.g09.slc.cpg/sg54_1_cif.got.tgz:1319.got - 2010.04.16 15:00:50.
