data_PCOD8222777
_publ_section_title
;
Structure prediction by ZEFSAII (Michael W. Deem and Ramdas Pophale) SiO2 
 PCOD8222777
Probable space group: P C C A
;
_chemical_formula_sum "Si O2"
_cell_formula_units_Z 64
_cell_length_a 26.584391
_cell_length_b 13.817527
_cell_length_c 9.712246
_cell_angle_alpha 90.000000
_cell_angle_beta 90.000000
_cell_angle_gamma 90.000000
_cell_volume 3567.604572
_symmetry_space_group_name_H-M "P C C A"
_symmetry_group_IT_number 54
_symmetry_cell_setting 'orthorhombic'
loop_
_space_group_symop_operation_xyz
x,y,z
1/2-x,-y,z
1/2+x,-y,1/2-z
-x,y,1/2-z
-x,-y,-z
1/2+x,y,-z
1/2-x,y,1/2+z
x,-y,1/2+z
loop_
_atom_site_type_symbol
_atom_site_label
_atom_site_fract_x
_atom_site_fract_y
_atom_site_fract_z
Si Si1 0.698130 0.582948 0.008292
Si Si2 0.640822 0.859169 0.352290
Si Si3 0.647896 0.088309 0.340857
Si Si4 0.034691 0.104244 0.629977
Si Si5 0.195059 0.793917 0.388786
Si Si6 0.198365 0.585503 0.319079
Si Si7 0.471869 0.125731 0.618944
Si Si8 0.311792 0.207712 0.919853
O O1 0.704876 0.558775 0.844114
O O2 0.667904 0.498385 0.094299
O O3 0.750208 0.592197 0.092552
O O4 0.671709 0.686953 0.022781
O O5 0.680406 0.806855 0.452175
O O6 0.584095 0.831037 0.397553
O O7 0.649901 0.818927 0.200593
O O8 0.648535 0.973646 0.352304
O O9 0.592473 0.134893 0.354299
O O10 0.669739 0.117908 0.193013
O O11 0.683445 0.130156 0.458891
O O12 0.000000 0.144857 0.750000
O O13 0.009860 0.156286 0.500213
O O14 0.032819 0.989184 0.623978
O O15 0.173185 0.691318 0.332284
O O16 0.254752 0.797569 0.366803
O O17 0.500000 0.168825 0.750000
#
# Coordination Sequence:
#
# PCOD8222777 Si02
#       8
#     8   8   8   8   8   8   8   8
#     4  10  20  34  56  77 100 132 176 223 278 305
#     4  11  23  33  53  73 107 149 182 215 251 307
#     4  11  21  37  49  75 107 145 184 216 254 305
#     4   9  17  30  53  70  96 127 169 226 277 305
#     4  11  23  35  50  74 110 143 187 211 250 303
#     4  10  20  34  56  77 100 133 173 228 270 313
#     4   9  17  32  49  74  94 127 173 223 274 308
#     4  11  23  35  50  74 108 149 179 218 247 301
#
# _framework density 17.939208000000001
#
# number of rings (size 3 to 8) (size 9 to 14) (size 15 to 20)
#    0.000    1.750    1.250    4.500    7.000    7.000 
#    0.000    0.000    0.000    0.000    0.000    0.000 
#    0.000   20.000    0.000    0.000    0.000    0.000 
#
# Total GULP energy -793053.450097 kJ/mol
# GULP energy per Si atom -12391.460158 kJ/mol
# Density = 1.789838 g / cm^3
# Si number density = 17.939208 Si / 1000 Ang^3
#
#
#
# Elastic Constant Matrix: (Units=GPa)
#
#
# Indices 1 2 3 4 5 6 
#
# 1 65.8576 22.4870 16.4130 0.0000 0.0000 0.0000
# 2 22.4870 78.9700 34.5485 0.0000 0.0000 0.0000
# 3 16.4130 34.5485 129.5745 0.0000 0.0000 0.0000
# 4 0.0000 0.0000 0.0000 27.4789 0.0000 0.0000
# 5 0.0000 0.0000 0.0000 0.0000 26.4760 0.0000
# 6 0.0000 0.0000 0.0000 0.0000 0.0000 3.1885
#
#
#
# Elastic Compliance Matrix: (Units=1/GPa)
#
#
# Indices 1 2 3 4 5 6 
#
# 1 0.016927 -0.004395 -0.000972 0.000000 0.000000 0.000000
# 2 -0.004395 0.015476 -0.003570 0.000000 0.000000 0.000000
# 3 -0.000972 -0.003570 0.008793 0.000000 0.000000 0.000000
# 4 0.000000 0.000000 0.000000 0.036392 0.000000 0.000000
# 5 0.000000 0.000000 0.000000 0.000000 0.037770 0.000000
# 6 0.000000 0.000000 0.000000 0.000000 0.000000 0.313624
#
#
# Mechanical properties :
#
#
# Convention : Reuss Voigt Hill
#
# Bulk Modulus (GPa) = 42.87748 46.81100 44.84424
# Shear Modulus (GPa) = 10.99798 24.82559 17.91179
#
# Velocity S-wave (km/s) = 2.47871 3.72408 3.16329
# Velocity P-wave (km/s) = 5.66969 6.68151 6.19629
#
# Compressibility (1/GPa) = 0.02332227
#
# Stress axis : x y z
#
# Youngs Moduli (GPa) = 59.07666 64.61555 113.73272
#
# Poissons Ratio (x) = 0.28396 0.11059
# Poissons Ratio (y) = 0.25962 0.40600
# Poissons Ratio (z) = 0.05745 0.23066
#
# Static dielectric constant tensor:
#      x y z
#    x 3.159530 0.000000 0.000000 
#    y 0.000000 3.824690 0.000000 
#    z 0.000000 0.000000 3.505830 
# 
# 
# High freq. dielectric constant tensor:
#      x y z
#    x 1.662470 0.000000 0.000000 
#    y 0.000000 1.672430 0.000000 
#    z 0.000000 0.000000 1.717740 
# 
# From -- ./inp_files/6011.got.cif
#   From: 2010.03.12/outbox.cif.g09.slc.cpg/sg54_4_cif.got.tgz:6011.got - 2010.04.16 15:00:50.
