data_PCOD8222805
_publ_section_title
;
Structure prediction by ZEFSAII (Michael W. Deem and Ramdas Pophale) SiO2 
 PCOD8222805
Probable space group: P C C A
;
_chemical_formula_sum "Si O2"
_cell_formula_units_Z 40
_cell_length_a 15.958267
_cell_length_b 12.502994
_cell_length_c 8.587222
_cell_angle_alpha 90.000000
_cell_angle_beta 90.000000
_cell_angle_gamma 90.000000
_cell_volume 1713.375058
_symmetry_space_group_name_H-M "P C C A"
_symmetry_group_IT_number 54
_symmetry_cell_setting 'orthorhombic'
loop_
_space_group_symop_operation_xyz
x,y,z
1/2-x,-y,z
1/2+x,-y,1/2-z
-x,y,1/2-z
-x,-y,-z
1/2+x,y,-z
1/2-x,y,1/2+z
x,-y,1/2+z
loop_
_atom_site_type_symbol
_atom_site_label
_atom_site_fract_x
_atom_site_fract_y
_atom_site_fract_z
Si Si1 0.916861 0.135524 0.044140
Si Si2 0.280782 0.149175 0.497982
Si Si3 0.342309 0.377989 0.586493
Si Si4 0.500000 0.963355 0.750000
Si Si5 0.750000 0.500000 0.662341
Si Si6 0.250000 0.000000 0.249019
Si Si7 0.000000 0.688289 0.750000
O O1 0.952356 0.243073 0.120480
O O2 0.819128 0.156893 0.014943
O O3 0.958332 0.114364 0.877162
O O4 0.931847 0.037706 0.162504
O O5 0.326168 0.261192 0.514718
O O6 0.310204 0.080037 0.348506
O O7 0.309318 0.076016 0.644078
O O8 0.279008 0.401215 0.729791
O O9 0.327304 0.462078 0.446767
O O10 0.435876 0.386829 0.653409
#
# Coordination Sequence:
#
# PCOD8222805 Si02
#       7
#     8   8   8   4   4   4   4
#     4  10  20  35  56  83 123 170 208 251 307 359
#     4  11  21  38  60  89 125 164 209 252 296 368
#     4  11  24  44  67  93 125 158 209 266 320 382
#     4   9  20  34  52  85 128 170 216 257 294 357
#     4  10  24  46  72  92 114 162 210 264 328 382
#     4  10  22  32  58  92 122 164 208 246 292 348
#     4  11  24  40  60  91 126 160 198 261 332 385
#
# _framework density 23.345735000000001
#
# number of rings (size 3 to 8) (size 9 to 14) (size 15 to 20)
#    0.000    1.600    0.000    4.800    0.000   12.000 
#    0.000    0.000    0.000    0.000    0.000    0.000 
#    0.000    0.000    0.000    0.000    0.000    0.000 
#
# Total GULP energy -495784.286306 kJ/mol
# GULP energy per Si atom -12394.607158 kJ/mol
# Density = 2.329260 g / cm^3
# Si number density = 23.345735 Si / 1000 Ang^3
#
#
#
# Elastic Constant Matrix: (Units=GPa)
#
#
# Indices 1 2 3 4 5 6 
#
# 1 84.7584 -0.4986 8.1702 0.0000 0.0000 0.0000
# 2 -0.4986 79.8494 30.4125 0.0000 0.0000 0.0000
# 3 8.1702 30.4125 132.8489 0.0000 0.0000 0.0000
# 4 0.0000 0.0000 0.0000 16.3183 0.0000 0.0000
# 5 0.0000 0.0000 0.0000 0.0000 30.3165 0.0000
# 6 0.0000 0.0000 0.0000 0.0000 0.0000 27.2493
#
#
#
# Elastic Compliance Matrix: (Units=1/GPa)
#
#
# Indices 1 2 3 4 5 6 
#
# 1 0.011879 0.000386 -0.000819 0.000000 0.000000 0.000000
# 2 0.000386 0.013732 -0.003167 0.000000 0.000000 0.000000
# 3 -0.000819 -0.003167 0.008303 0.000000 0.000000 0.000000
# 4 0.000000 0.000000 0.000000 0.061281 0.000000 0.000000
# 5 0.000000 0.000000 0.000000 0.000000 0.032985 0.000000
# 6 0.000000 0.000000 0.000000 0.000000 0.000000 0.036698
#
#
# Mechanical properties :
#
#
# Convention : Reuss Voigt Hill
#
# Bulk Modulus (GPa) = 37.43349 41.51388 39.47368
# Shear Modulus (GPa) = 27.62667 32.06831 29.84749
#
# Velocity S-wave (km/s) = 3.44375 3.71027 3.57949
# Velocity P-wave (km/s) = 5.64639 6.01461 5.83341
#
# Compressibility (1/GPa) = 0.02671405
#
# Stress axis : x y z
#
# Youngs Moduli (GPa) = 84.17894 72.82060 120.44092
#
# Poissons Ratio (x) = -0.02812 0.09864
# Poissons Ratio (y) = -0.03250 0.38149
# Poissons Ratio (z) = 0.06894 0.23065
#
# Static dielectric constant tensor:
#      x y z
#    x 4.074450 0.000000 0.000000 
#    y 0.000000 4.069490 0.000000 
#    z 0.000000 0.000000 4.783230 
# 
# 
# High freq. dielectric constant tensor:
#      x y z
#    x 1.913890 0.000000 0.000000 
#    y 0.000000 1.901850 0.000000 
#    z 0.000000 0.000000 1.953370 
# 
# From -- ./inp_files/4027.got.cif
#   From: 2010.03.12/outbox.cif.g09.slc.cpg/sg54_3_cif.got.tgz:4027.got - 2010.04.16 15:00:50.
