data_PCOD8222341
_publ_section_title
;
Structure prediction by ZEFSAII (Michael W. Deem and Ramdas Pophale) SiO2 
 PCOD8222341
Probable space group: P C C A
;
_chemical_formula_sum "Si O2"
_cell_formula_units_Z 60
_cell_length_a 23.365769
_cell_length_b 24.619224
_cell_length_c 5.147483
_cell_angle_alpha 90.000000
_cell_angle_beta 90.000000
_cell_angle_gamma 90.000000
_cell_volume 2961.074673
_symmetry_space_group_name_H-M "P C C A"
_symmetry_group_IT_number 54
_symmetry_cell_setting 'orthorhombic'
loop_
_space_group_symop_operation_xyz
x,y,z
1/2-x,-y,z
1/2+x,-y,1/2-z
-x,y,1/2-z
-x,-y,-z
1/2+x,y,-z
1/2-x,y,1/2+z
x,-y,1/2+z
loop_
_atom_site_type_symbol
_atom_site_label
_atom_site_fract_x
_atom_site_fract_y
_atom_site_fract_z
Si Si1 0.500000 0.774566 0.250000
Si Si2 0.546411 0.871221 0.931786
Si Si3 0.893371 0.964948 0.653686
Si Si4 0.812729 0.523865 0.807153
Si Si5 0.282342 0.093906 0.047013
Si Si6 0.124362 0.257720 0.176267
Si Si7 0.848924 0.808273 0.320623
Si Si8 0.711527 0.648797 0.349465
O O1 0.478335 0.813942 0.474457
O O2 0.445504 0.738950 0.144400
O O3 0.500000 0.899756 0.750000
O O4 0.560606 0.915813 0.149927
O O5 0.604067 0.855798 0.777806
O O6 0.832207 0.940240 0.584728
O O7 0.902662 0.988427 0.939440
O O8 0.750000 0.500000 0.743753
O O9 0.845271 0.508032 0.539651
O O10 0.810374 0.587460 0.857266
O O11 0.230553 0.079128 0.848347
O O12 0.293743 0.159162 0.069247
O O13 0.135893 0.236027 0.463944
O O14 0.153179 0.316582 0.152082
O O15 0.155647 0.220155 0.960259
O O16 0.749866 0.662014 0.599918
#
# Coordination Sequence:
#
# PCOD8222341 Si02
#       8
#     4   8   8   8   8   8   8   8
#     4  10  22  42  64  84 112 158 204 228 288 362
#     4  10  21  39  66  79 106 144 183 225 283 357
#     4  11  26  41  57  88 117 131 178 242 285 331
#     4  10  16  31  53  74 112 158 197 233 273 346
#     4  11  23  39  63  80 107 157 191 211 273 359
#     4  11  23  37  59  85 119 153 189 250 289 335
#     4  10  22  39  56  85 110 143 193 233 275 335
#     4  12  22  34  53  88 124 153 194 239 299 340
#
# _framework density 20.262912
#
# number of rings (size 3 to 8) (size 9 to 14) (size 15 to 20)
#    0.000    1.333    4.000    2.400    1.867    7.467 
#    0.000    0.000    0.000    0.000    0.000    0.933 
#    0.000    0.000    0.000    0.000    0.000    0.000 
#
# Total GULP energy -743308.175553 kJ/mol
# GULP energy per Si atom -12388.469593 kJ/mol
# Density = 2.021679 g / cm^3
# Si number density = 20.262912 Si / 1000 Ang^3
#
#
#
# Elastic Constant Matrix: (Units=GPa)
#
#
# Indices 1 2 3 4 5 6 
#
# 1 55.4569 27.8069 11.3297 0.0000 0.0000 0.0000
# 2 27.8069 85.4156 1.0630 0.0000 0.0000 0.0000
# 3 11.3297 1.0630 96.0038 0.0000 0.0000 0.0000
# 4 0.0000 0.0000 0.0000 43.5947 0.0000 0.0000
# 5 0.0000 0.0000 0.0000 0.0000 21.5490 0.0000
# 6 0.0000 0.0000 0.0000 0.0000 0.0000 224.5997
#
#
#
# Elastic Compliance Matrix: (Units=1/GPa)
#
#
# Indices 1 2 3 4 5 6 
#
# 1 0.022150 -0.007179 -0.002534 0.000000 0.000000 0.000000
# 2 -0.007179 0.014036 0.000692 0.000000 0.000000 0.000000
# 3 -0.002534 0.000692 0.010708 0.000000 0.000000 0.000000
# 4 0.000000 0.000000 0.000000 0.022939 0.000000 0.000000
# 5 0.000000 0.000000 0.000000 0.000000 0.046406 0.000000
# 6 0.000000 0.000000 0.000000 0.000000 0.000000 0.004452
#
#
# Mechanical properties :
#
#
# Convention : Reuss Voigt Hill
#
# Bulk Modulus (GPa) = 34.66245 35.25279 34.95762
# Shear Modulus (GPa) = 33.70401 71.06046 52.38223
#
# Velocity S-wave (km/s) = 4.08283 5.92835 5.08993
# Velocity P-wave (km/s) = 6.27451 8.01847 7.19949
#
# Compressibility (1/GPa) = 0.02884966
#
# Stress axis : x y z
#
# Youngs Moduli (GPa) = 45.14765 71.24523 93.39079
#
# Poissons Ratio (x) = 0.51148 0.23669
# Poissons Ratio (y) = 0.32412 -0.06461
# Poissons Ratio (z) = 0.11442 -0.04929
#
# Static dielectric constant tensor:
#      x y z
#    x 3.837970 0.000000 0.000000 
#    y 0.000000 3.586290 0.000000 
#    z 0.000000 0.000000 3.945820 
# 
# 
# High freq. dielectric constant tensor:
#      x y z
#    x 1.766310 0.000000 0.000000 
#    y 0.000000 1.773590 0.000000 
#    z 0.000000 0.000000 1.811130 
# 
# From -- ./inp_files/1704.got.cif
#   From: 2010.03.12/outbox.cif.g09.slc.cpg/sg54_1_cif.got.tgz:1704.got - 2010.04.16 15:00:50.
