data_PCOD8222434
_publ_section_title
;
Structure prediction by ZEFSAII (Michael W. Deem and Ramdas Pophale) SiO2 
 PCOD8222434
Probable space group: P C C A
;
_chemical_formula_sum "Si O2"
_cell_formula_units_Z 44
_cell_length_a 16.521367
_cell_length_b 5.066817
_cell_length_c 27.242299
_cell_angle_alpha 90.000000
_cell_angle_beta 90.000000
_cell_angle_gamma 90.000000
_cell_volume 2280.473095
_symmetry_space_group_name_H-M "P C C A"
_symmetry_group_IT_number 54
_symmetry_cell_setting 'orthorhombic'
loop_
_space_group_symop_operation_xyz
x,y,z
1/2-x,-y,z
1/2+x,-y,1/2-z
-x,y,1/2-z
-x,-y,-z
1/2+x,y,-z
1/2-x,y,1/2+z
x,-y,1/2+z
loop_
_atom_site_type_symbol
_atom_site_label
_atom_site_fract_x
_atom_site_fract_y
_atom_site_fract_z
Si Si1 0.490779 0.876674 0.307418
Si Si2 0.671827 0.128682 0.645012
Si Si3 0.031053 0.385489 0.633376
Si Si4 0.250000 0.500000 0.999050
Si Si5 0.863446 0.621006 0.086494
Si Si6 0.204412 0.256049 0.593713
O O1 0.500000 0.847900 0.250000
O O2 0.395947 0.822536 0.314723
O O3 0.544008 0.661818 0.337620
O O4 0.509203 0.170582 0.325501
O O5 0.687630 0.407583 0.618394
O O6 0.750000 0.000000 0.671838
O O7 0.648668 0.921094 0.602712
O O8 0.109754 0.277807 0.605682
O O9 0.960028 0.432990 0.592758
O O10 0.171649 0.401849 0.968408
O O11 0.283108 0.266436 0.034537
O O12 0.250000 0.500000 0.619793
O O13 0.250000 0.000000 0.614913
#
# Coordination Sequence:
#
# PCOD8222434 Si02
#       6
#     8   8   8   4   8   8
#     4  10  21  37  61  86 111 146 192 236 284 354
#     4  10  18  33  54  82 114 141 179 235 296 334
#     4  10  21  40  58  82 116 154 184 237 299 341
#     4  10  22  34  58  84 114 150 200 238 270 338
#     4  10  20  32  58  82 112 149 185 236 289 325
#     4  10  23  38  56  81 117 156 196 232 281 340
#
# _framework density 19.294245
#
# number of rings (size 3 to 8) (size 9 to 14) (size 15 to 20)
#    0.545    1.455    1.818    1.636    2.545    0.727 
#    0.000    3.636    0.000    2.182    0.000    0.000 
#    0.000    0.000    0.000    0.000    0.000    0.000 
#
# Total GULP energy -545097.491414 kJ/mol
# GULP energy per Si atom -12388.579350 kJ/mol
# Density = 1.925033 g / cm^3
# Si number density = 19.294245 Si / 1000 Ang^3
#
#
#
# Elastic Constant Matrix: (Units=GPa)
#
#
# Indices 1 2 3 4 5 6 
#
# 1 123.9474 33.7487 47.9384 0.0000 0.0000 0.0000
# 2 33.7487 98.6990 19.2349 0.0000 0.0000 0.0000
# 3 47.9384 19.2349 81.4422 0.0000 0.0000 0.0000
# 4 0.0000 0.0000 0.0000 14.6215 0.0000 0.0000
# 5 0.0000 0.0000 0.0000 0.0000 26.4745 0.0000
# 6 0.0000 0.0000 0.0000 0.0000 0.0000 35.1601
#
#
#
# Elastic Compliance Matrix: (Units=1/GPa)
#
#
# Indices 1 2 3 4 5 6 
#
# 1 0.011063 -0.002635 -0.005890 0.000000 0.000000 0.000000
# 2 -0.002635 0.011248 -0.001106 0.000000 0.000000 0.000000
# 3 -0.005890 -0.001106 0.016007 0.000000 0.000000 0.000000
# 4 0.000000 0.000000 0.000000 0.068392 0.000000 0.000000
# 5 0.000000 0.000000 0.000000 0.000000 0.037772 0.000000
# 6 0.000000 0.000000 0.000000 0.000000 0.000000 0.028441
#
#
# Mechanical properties :
#
#
# Convention : Reuss Voigt Hill
#
# Bulk Modulus (GPa) = 52.47293 56.21473 54.34383
# Shear Modulus (GPa) = 25.18416 28.79567 26.98991
#
# Velocity S-wave (km/s) = 3.61677 3.86741 3.74419
# Velocity P-wave (km/s) = 6.68555 7.01008 6.84974
#
# Compressibility (1/GPa) = 0.01905745
#
# Stress axis : x y z
#
# Youngs Moduli (GPa) = 90.38822 88.90226 62.47436
#
# Poissons Ratio (x) = 0.23427 0.36796
# Poissons Ratio (y) = 0.23819 0.06907
# Poissons Ratio (z) = 0.53236 0.09828
#
# Static dielectric constant tensor:
#      x y z
#    x 3.680190 0.000000 0.000000 
#    y 0.000000 3.709930 0.000000 
#    z 0.000000 0.000000 3.066410 
# 
# 
# High freq. dielectric constant tensor:
#      x y z
#    x 1.756460 0.000000 0.000000 
#    y 0.000000 1.770590 0.000000 
#    z 0.000000 0.000000 1.708450 
# 
# From -- ./inp_files/28170.got.cif
#   From: 2010.03.12/outbox.cif.g09.slc.cpg/sg54_15_cif.got.tgz:28170.got - 2010.04.16 15:00:50.
