data_PCOD8222043
_publ_section_title
;
Structure prediction by ZEFSAII (Michael W. Deem and Ramdas Pophale) SiO2 
 PCOD8222043
Probable space group: P M N A
;
_chemical_formula_sum "Si O2"
_cell_formula_units_Z 56
_cell_length_a 8.514853
_cell_length_b 14.727748
_cell_length_c 22.607045
_cell_angle_alpha 90.000000
_cell_angle_beta 90.000000
_cell_angle_gamma 90.000000
_cell_volume 2835.027644
_symmetry_space_group_name_H-M "P M N A"
_symmetry_group_IT_number 53
_symmetry_cell_setting 'orthorhombic'
loop_
_space_group_symop_operation_xyz
x,y,z
1/2-x,-y,1/2+z
x,-y,-z
1/2-x,y,1/2-z
-x,-y,-z
1/2+x,y,1/2-z
-x,y,z
1/2+x,-y,1/2+z
loop_
_atom_site_type_symbol
_atom_site_label
_atom_site_fract_x
_atom_site_fract_y
_atom_site_fract_z
Si Si1 0.315596 0.695419 0.688591
Si Si2 0.815620 0.904084 0.519218
Si Si3 0.185830 0.617093 0.054882
Si Si4 0.182518 0.203854 0.594723
Si Si5 0.683727 0.930198 0.311386
Si Si6 0.685820 0.414397 0.423561
Si Si7 0.185083 0.120688 0.350542
O O1 0.250000 0.654164 0.750000
O O2 0.500000 0.683138 0.689034
O O3 0.242417 0.641607 0.631935
O O4 0.271323 0.801321 0.686130
O O5 0.773456 0.828953 0.471075
O O6 0.748266 0.873468 0.582458
O O7 0.000000 0.918748 0.526781
O O8 0.738842 0.000000 0.500000
O O9 0.271950 0.690533 0.096329
O O10 0.234989 0.519748 0.081598
O O11 0.000000 0.631948 0.058223
O O12 0.245688 0.624808 0.986651
O O13 0.284814 0.146775 0.640318
O O14 0.000000 0.188966 0.609480
O O15 0.750000 0.891158 0.250000
O O16 0.500000 0.950649 0.307859
O O17 0.775694 0.022633 0.324648
O O18 0.500000 0.406919 0.423250
O O19 0.000000 0.137332 0.346398
#
# Coordination Sequence:
#
# PCOD8222043 Si02
#       7
#     8   8   8   8   8   8   8
#     4  11  22  37  55  81 113 149 191 233 278 334
#     4   9  17  32  54  80 112 148 180 219 273 326
#     4   9  17  35  61  87 111 144 185 232 290 342
#     4  11  21  36  57  85 117 149 184 227 277 333
#     4  12  25  41  58  78 106 147 192 235 275 326
#     4   8  17  35  60  84 112 146 186 234 285 340
#     4  11  21  37  59  83 113 150 187 228 278 332
#
# _framework density 19.752893
#
# number of rings (size 3 to 8) (size 9 to 14) (size 15 to 20)
#    0.000    1.857    1.429    4.714    0.000    0.000 
#    0.000    7.143    0.000    1.714    0.000    0.000 
#    0.000    0.000    0.000    0.000    0.000    0.000 
#
# Total GULP energy -694429.298363 kJ/mol
# GULP energy per Si atom -12400.523185 kJ/mol
# Density = 1.970793 g / cm^3
# Si number density = 19.752893 Si / 1000 Ang^3
#
#
#
# Elastic Constant Matrix: (Units=GPa)
#
#
# Indices 1 2 3 4 5 6 
#
# 1 48.6530 10.7434 22.6312 0.0000 0.0000 0.0000
# 2 10.7434 106.7585 36.4225 0.0000 0.0000 0.0000
# 3 22.6312 36.4225 108.4676 0.0000 0.0000 0.0000
# 4 0.0000 0.0000 0.0000 25.1271 0.0000 0.0000
# 5 0.0000 0.0000 0.0000 0.0000 25.0722 0.0000
# 6 0.0000 0.0000 0.0000 0.0000 0.0000 21.4636
#
#
#
# Elastic Compliance Matrix: (Units=1/GPa)
#
#
# Indices 1 2 3 4 5 6 
#
# 1 0.022817 -0.000759 -0.004506 0.000000 0.000000 0.000000
# 2 -0.000759 0.010604 -0.003402 0.000000 0.000000 0.000000
# 3 -0.004506 -0.003402 0.011302 0.000000 0.000000 0.000000
# 4 0.000000 0.000000 0.000000 0.039798 0.000000 0.000000
# 5 0.000000 0.000000 0.000000 0.000000 0.039885 0.000000
# 6 0.000000 0.000000 0.000000 0.000000 0.000000 0.046590
#
#
# Mechanical properties :
#
#
# Convention : Reuss Voigt Hill
#
# Bulk Modulus (GPa) = 36.51111 44.83037 40.67074
# Shear Modulus (GPa) = 25.32155 27.27138 26.29646
#
# Velocity S-wave (km/s) = 3.58427 3.71971 3.65262
# Velocity P-wave (km/s) = 5.97104 6.41819 6.19865
#
# Compressibility (1/GPa) = 0.02738892
#
# Stress axis : x y z
#
# Youngs Moduli (GPa) = 43.82651 94.30309 88.48006
#
# Poissons Ratio (x) = 0.07157 0.39868
# Poissons Ratio (y) = 0.03326 0.30105
# Poissons Ratio (z) = 0.19748 0.32086
#
# Static dielectric constant tensor:
#      x y z
#    x 3.271820 0.000000 0.000000 
#    y 0.000000 3.559090 0.000000 
#    z 0.000000 0.000000 3.926160 
# 
# 
# High freq. dielectric constant tensor:
#      x y z
#    x 1.747450 0.000000 0.000000 
#    y 0.000000 1.767930 0.000000 
#    z 0.000000 0.000000 1.774290 
# 
# From -- ./inp_files/30873.got.cif
#   From: 2010.03.12/outbox.cif.g09.slc.cpg/sg53_16_cif.got.tgz:30873.got - 2010.04.16 14:36:59.
