data_PCOD8222631
_publ_section_title
;
Structure prediction by ZEFSAII (Michael W. Deem and Ramdas Pophale) SiO2 
 PCOD8222631
Probable space group: P C C A
;
_chemical_formula_sum "Si O2"
_cell_formula_units_Z 32
_cell_length_a 14.847771
_cell_length_b 9.112176
_cell_length_c 13.288185
_cell_angle_alpha 90.000000
_cell_angle_beta 90.000000
_cell_angle_gamma 90.000000
_cell_volume 1797.831668
_symmetry_space_group_name_H-M "P C C A"
_symmetry_group_IT_number 54
_symmetry_cell_setting 'orthorhombic'
loop_
_space_group_symop_operation_xyz
x,y,z
1/2-x,-y,z
1/2+x,-y,1/2-z
-x,y,1/2-z
-x,-y,-z
1/2+x,y,-z
1/2-x,y,1/2+z
x,-y,1/2+z
loop_
_atom_site_type_symbol
_atom_site_label
_atom_site_fract_x
_atom_site_fract_y
_atom_site_fract_z
Si Si1 0.260650 0.827539 0.909087
Si Si2 0.691375 0.638617 0.255721
Si Si3 0.896703 0.364460 0.055129
Si Si4 0.100161 0.675072 0.540066
O O1 0.255195 0.763555 0.795113
O O2 0.179339 0.755396 0.975209
O O3 0.355428 0.783066 0.958618
O O4 0.250000 0.000000 0.906682
O O5 0.750000 0.500000 0.289838
O O6 0.617379 0.588105 0.172095
O O7 0.640922 0.708507 0.350536
O O8 0.882042 0.505225 0.985279
O O9 0.994003 0.291786 0.039435
#
# Coordination Sequence:
#
# PCOD8222631 Si02
#       4
#     8   8   8   8
#     4  10  21  36  51  81 113 145 181 222 271 339
#     4  10  19  35  56  78 110 136 183 223 277 321
#     4   9  20  36  57  86 103 140 188 226 281 314
#     4  11  19  36  62  79 108 144 181 237 276 319
#
# _framework density 17.799219000000001
#
# number of rings (size 3 to 8) (size 9 to 14) (size 15 to 20)
#    1.500    0.500    2.500    3.000    0.000    2.000 
#    0.000    0.000    0.000    3.000    0.000    0.000 
#    0.000    0.000    0.000    0.000    0.000    0.000 
#
# Total GULP energy -396620.889477 kJ/mol
# GULP energy per Si atom -12394.402796 kJ/mol
# Density = 1.775871 g / cm^3
# Si number density = 17.799219 Si / 1000 Ang^3
#
#
#
# Elastic Constant Matrix: (Units=GPa)
#
#
# Indices 1 2 3 4 5 6 
#
# 1 77.0716 29.9816 17.8383 0.0000 0.0000 0.0000
# 2 29.9816 82.7871 0.4667 0.0000 0.0000 0.0000
# 3 17.8383 0.4667 72.5936 0.0000 0.0000 0.0000
# 4 0.0000 0.0000 0.0000 6.6407 0.0000 0.0000
# 5 0.0000 0.0000 0.0000 0.0000 20.6433 0.0000
# 6 0.0000 0.0000 0.0000 0.0000 0.0000 15.9650
#
#
#
# Elastic Compliance Matrix: (Units=1/GPa)
#
#
# Indices 1 2 3 4 5 6 
#
# 1 0.016152 -0.005827 -0.003931 0.000000 0.000000 0.000000
# 2 -0.005827 0.014182 0.001341 0.000000 0.000000 0.000000
# 3 -0.003931 0.001341 0.014733 0.000000 0.000000 0.000000
# 4 0.000000 0.000000 0.000000 0.150586 0.000000 0.000000
# 5 0.000000 0.000000 0.000000 0.000000 0.048442 0.000000
# 6 0.000000 0.000000 0.000000 0.000000 0.000000 0.062637
#
#
# Mechanical properties :
#
#
# Convention : Reuss Voigt Hill
#
# Bulk Modulus (GPa) = 35.42263 36.55839 35.99051
# Shear Modulus (GPa) = 15.01604 20.92752 17.97178
#
# Velocity S-wave (km/s) = 2.90769 3.43265 3.18102
# Velocity P-wave (km/s) = 5.58725 6.02451 5.80999
#
# Compressibility (1/GPa) = 0.02823054
#
# Stress axis : x y z
#
# Youngs Moduli (GPa) = 61.91282 70.51203 67.87594
#
# Poissons Ratio (x) = 0.41089 0.26685
# Poissons Ratio (y) = 0.36078 -0.09100
# Poissons Ratio (z) = 0.24341 -0.09454
#
# Static dielectric constant tensor:
#      x y z
#    x 3.348540 0.000000 0.000000 
#    y 0.000000 2.909610 0.000000 
#    z 0.000000 0.000000 3.134290 
# 
# 
# High freq. dielectric constant tensor:
#      x y z
#    x 1.690660 0.000000 0.000000 
#    y 0.000000 1.660510 0.000000 
#    z 0.000000 0.000000 1.681950 
# 
# From -- ./inp_files/8079.got.cif
#   From: 2010.03.12/outbox.cif.g09.slc.cpg/sg54_5_cif.got.tgz:8079.got - 2010.04.16 15:00:50.
