data_PCOD8222890
_publ_section_title
;
Structure prediction by ZEFSAII (Michael W. Deem and Ramdas Pophale) SiO2 
 PCOD8222890
Probable space group: P C C A
;
_chemical_formula_sum "Si O2"
_cell_formula_units_Z 52
_cell_length_a 8.123450
_cell_length_b 10.774674
_cell_length_c 29.541519
_cell_angle_alpha 90.000000
_cell_angle_beta 90.000000
_cell_angle_gamma 90.000000
_cell_volume 2585.696058
_symmetry_space_group_name_H-M "P C C A"
_symmetry_group_IT_number 54
_symmetry_cell_setting 'orthorhombic'
loop_
_space_group_symop_operation_xyz
x,y,z
1/2-x,-y,z
1/2+x,-y,1/2-z
-x,y,1/2-z
-x,-y,-z
1/2+x,y,-z
1/2-x,y,1/2+z
x,-y,1/2+z
loop_
_atom_site_type_symbol
_atom_site_label
_atom_site_fract_x
_atom_site_fract_y
_atom_site_fract_z
Si Si1 0.345989 0.701060 0.160507
Si Si2 0.250000 0.500000 0.303491
Si Si3 0.093518 0.912264 0.590045
Si Si4 0.246399 0.213057 0.005554
Si Si5 0.500000 0.664768 0.250000
Si Si6 0.250000 0.000000 0.935213
Si Si7 0.481462 0.387696 0.465847
Si Si8 0.975070 0.571672 0.361685
O O1 0.415970 0.805467 0.127494
O O2 0.405378 0.743793 0.210925
O O3 0.420573 0.566794 0.150491
O O4 0.149529 0.680700 0.154344
O O5 0.360987 0.579938 0.271034
O O6 0.354364 0.405492 0.335311
O O7 0.117725 0.845657 0.541401
O O8 0.250000 0.000000 0.599706
O O9 0.923332 0.994979 0.592977
O O10 0.196148 0.338363 0.979482
O O11 0.276864 0.117554 0.966188
O O12 0.409526 0.261328 0.030328
O O13 0.500000 0.500000 0.500000
O O14 0.497328 0.433130 0.415048
#
# Coordination Sequence:
#
# PCOD8222890 Si02
#       8
#     8   4   8   8   4   4   8   8
#     4  10  22  41  65  90 126 162 203 271 329 401
#     4  10  20  36  64  96 128 166 204 254 318 418
#     4  12  24  44  65  90 124 170 227 279 325 371
#     4  12  23  41  60  86 130 173 227 267 307 375
#     4  10  20  40  66  92 126 154 204 260 334 404
#     4  12  26  42  66  92 120 178 242 276 304 374
#     4  12  25  36  58  93 137 178 207 261 324 386
#     4  10  22  37  60  96 132 165 209 250 326 394
#
# _framework density 20.11064
#
# number of rings (size 3 to 8) (size 9 to 14) (size 15 to 20)
#    0.000    0.923    3.846    4.615    4.308    1.231 
#    0.000    0.000    1.692    0.000    0.000    0.000 
#    0.000    0.000    0.000    0.000    0.000    0.000 
#
# Total GULP energy -644213.746303 kJ/mol
# GULP energy per Si atom -12388.725890 kJ/mol
# Density = 2.006487 g / cm^3
# Si number density = 20.110640 Si / 1000 Ang^3
#
#
#
# Elastic Constant Matrix: (Units=GPa)
#
#
# Indices 1 2 3 4 5 6 
#
# 1 113.1274 20.6433 36.8282 0.0000 0.0000 0.0000
# 2 20.6433 62.4664 14.6869 0.0000 0.0000 0.0000
# 3 36.8282 14.6869 104.4167 0.0000 0.0000 0.0000
# 4 0.0000 0.0000 0.0000 -1.0097 0.0000 0.0000
# 5 0.0000 0.0000 0.0000 0.0000 26.3572 0.0000
# 6 0.0000 0.0000 0.0000 0.0000 0.0000 32.9900
#
#
#
# Elastic Compliance Matrix: (Units=1/GPa)
#
#
# Indices 1 2 3 4 5 6 
#
# 1 0.010397 -0.002662 -0.003293 0.000000 0.000000 0.000000
# 2 -0.002662 0.017238 -0.001486 0.000000 0.000000 0.000000
# 3 -0.003293 -0.001486 0.010947 0.000000 0.000000 0.000000
# 4 0.000000 0.000000 0.000000 -0.990346 0.000000 0.000000
# 5 0.000000 0.000000 0.000000 0.000000 0.037940 0.000000
# 6 0.000000 0.000000 0.000000 0.000000 0.000000 0.030312
#
#
# Mechanical properties :
#
#
# Convention : Reuss Voigt Hill
#
# Bulk Modulus (GPa) = 42.19128 47.14747 44.66938
# Shear Modulus (GPa) = -5.80902 25.52429 9.85763
#
# Velocity S-wave (km/s) = -1.70141 3.56644 2.21638
# Velocity P-wave (km/s) = 4.14311 6.36037 5.36748
#
# Compressibility (1/GPa) = 0.02370158
#
# Stress axis : x y z
#
# Youngs Moduli (GPa) = 96.17923 58.01278 91.34619
#
# Poissons Ratio (x) = 0.15442 0.30078
# Poissons Ratio (y) = 0.25601 0.13572
# Poissons Ratio (z) = 0.31669 0.08619
#
# Static dielectric constant tensor:
#      x y z
#    x 4.653910 0.000000 0.000000 
#    y 0.000000 3.415420 0.000000 
#    z 0.000000 0.000000 3.812590 
# 
# 
# High freq. dielectric constant tensor:
#      x y z
#    x 1.804150 0.000000 0.000000 
#    y 0.000000 1.764340 0.000000 
#    z 0.000000 0.000000 1.779550 
# 
# From -- ./inp_files/25913.got.cif
#   From: 2010.03.12/outbox.cif.g09.slc.cpg/sg54_13_cif.got.tgz:25913.got - 2010.04.16 15:00:50.
