data_PCOD8222260
_publ_section_title
;
Structure prediction by ZEFSAII (Michael W. Deem and Ramdas Pophale) SiO2 
 PCOD8222260
Probable space group: P M N A
;
_chemical_formula_sum "Si O2"
_cell_formula_units_Z 64
_cell_length_a 15.000000
_cell_length_b 24.000000
_cell_length_c 9.000000
_cell_angle_alpha 90.000000
_cell_angle_beta 90.000000
_cell_angle_gamma 90.000000
_cell_volume 3240.000000
_symmetry_space_group_name_H-M "P M N A"
_symmetry_group_IT_number 53
_symmetry_cell_setting 'orthorhombic'
loop_
_space_group_symop_operation_xyz
x,y,z
1/2-x,-y,1/2+z
x,-y,-z
1/2-x,y,1/2-z
-x,-y,-z
1/2+x,y,1/2-z
-x,y,z
1/2+x,-y,1/2+z
loop_
_atom_site_type_symbol
_atom_site_label
_atom_site_fract_x
_atom_site_fract_y
_atom_site_fract_z
Si Si1 0.400832 0.632758 0.542509
Si Si2 0.751711 0.439685 0.567970
Si Si3 0.656549 0.267026 0.664552
Si Si4 0.098607 0.868588 0.451030
Si Si5 0.902105 0.744235 0.478044
Si Si6 0.335016 0.643849 0.852606
Si Si7 0.259639 0.058927 0.573348
Si Si8 0.099546 0.852114 0.103492
O O1 0.500000 0.626036 0.479679
O O2 0.345011 0.579353 0.489569
O O3 0.356020 0.686437 0.462358
O O4 0.409854 0.635686 0.724294
O O5 0.770705 0.500000 0.500000
O O6 0.750000 0.438108 0.750000
O O7 0.828535 0.400909 0.489131
O O8 0.750000 0.272585 0.750000
O O9 0.646252 0.207921 0.580555
O O10 0.588002 0.270601 0.802240
O O11 0.131064 0.807490 0.505042
O O12 0.169094 0.915702 0.498873
O O13 0.093089 0.866576 0.275050
O O14 0.000000 0.882986 0.515407
O O15 0.837577 0.703761 0.568715
O O16 0.000000 0.736230 0.546140
O O17 0.250000 0.639876 0.750000
O O18 0.250000 0.052521 0.750000
O O19 0.339995 0.100360 0.527569
O O20 0.280098 0.000000 0.500000
O O21 0.000000 0.851992 0.032579
#
# Coordination Sequence:
#
# PCOD8222260 Si02
#       8
#     8   8   8   8   8   8   8   8
#     4  11  22  36  56  86 123 154 182 224 283 345
#     4  11  23  42  64  83 108 148 198 244 284 333
#     4  11  19  32  56  85 113 144 186 230 276 335
#     4   8  16  31  52  76 101 134 176 223 274 331
#     4  10  18  32  55  81 107 137 180 227 271 326
#     4  10  21  36  55  82 115 150 183 221 278 340
#     4  10  20  34  51  72  99 135 180 228 277 332
#     4   9  17  31  52  77 106 140 180 226 278 337
#
# _framework density 19.753086
#
# number of rings (size 3 to 8) (size 9 to 14) (size 15 to 20)
#    0.000    2.000    0.000    7.875    0.000    0.750 
#    0.000    2.500    0.000    4.125    0.000    0.000 
#    0.000    0.000    0.000    0.000    0.000    0.000 
#
# Total GULP energy -792847.060847 kJ/mol
# GULP energy per Si atom -12388.235326 kJ/mol
# Density = 1.970813 g / cm^3
# Si number density = 19.753086 Si / 1000 Ang^3
#
#
#
# Elastic Constant Matrix: (Units=GPa)
#
#
# Indices 1 2 3 4 5 6 
#
# 1 103.7236 44.1244 16.3678 0.0000 0.0000 0.0000
# 2 44.1244 130.3829 43.5755 0.0000 0.0000 0.0000
# 3 16.3678 43.5755 98.4244 0.0000 0.0000 0.0000
# 4 0.0000 0.0000 0.0000 39.5241 0.0000 0.0000
# 5 0.0000 0.0000 0.0000 0.0000 13.5515 0.0000
# 6 0.0000 0.0000 0.0000 0.0000 0.0000 20.2572
#
#
#
# Elastic Compliance Matrix: (Units=1/GPa)
#
#
# Indices 1 2 3 4 5 6 
#
# 1 0.011266 -0.003740 -0.000218 0.000000 0.000000 0.000000
# 2 -0.003740 0.010243 -0.003913 0.000000 0.000000 0.000000
# 3 -0.000218 -0.003913 0.011929 0.000000 0.000000 0.000000
# 4 0.000000 0.000000 0.000000 0.025301 0.000000 0.000000
# 5 0.000000 0.000000 0.000000 0.000000 0.073793 0.000000
# 6 0.000000 0.000000 0.000000 0.000000 0.000000 0.049365
#
#
# Mechanical properties :
#
#
# Convention : Reuss Voigt Hill
#
# Bulk Modulus (GPa) = 56.50770 60.07404 58.29087
# Shear Modulus (GPa) = 24.56548 29.89743 27.23145
#
# Velocity S-wave (km/s) = 3.53034 3.89467 3.71697
# Velocity P-wave (km/s) = 6.72955 7.12061 6.92784
#
# Compressibility (1/GPa) = 0.01769670
#
# Stress axis : x y z
#
# Youngs Moduli (GPa) = 88.75963 97.62585 83.83138
#
# Poissons Ratio (x) = 0.36512 0.01826
# Poissons Ratio (y) = 0.33196 0.32803
# Poissons Ratio (z) = 0.01933 0.38201
#
# Static dielectric constant tensor:
#      x y z
#    x 4.377580 0.000000 0.000000 
#    y 0.000000 3.609200 0.000000 
#    z 0.000000 0.000000 4.035210 
# 
# 
# High freq. dielectric constant tensor:
#      x y z
#    x 1.774250 0.000000 0.000000 
#    y 0.000000 1.768590 0.000000 
#    z 0.000000 0.000000 1.753360 
# 
# From -- ./inp_files/8959.got.cif
#   From: 2010.03.12/outbox.ucp.g09.slc.cvg/sg53_5_cif.got.tgz:8959.got - 2010.05.04 19:20:06.
