data_PCOD8222175
_publ_section_title
;
Structure prediction by ZEFSAII (Michael W. Deem and Ramdas Pophale) SiO2 
 PCOD8222175
Probable space group: P M N A
;
_chemical_formula_sum "Si O2"
_cell_formula_units_Z 28
_cell_length_a 10.026674
_cell_length_b 9.277691
_cell_length_c 14.383846
_cell_angle_alpha 90.000000
_cell_angle_beta 90.000000
_cell_angle_gamma 90.000000
_cell_volume 1338.048401
_symmetry_space_group_name_H-M "P M N A"
_symmetry_group_IT_number 53
_symmetry_cell_setting 'orthorhombic'
loop_
_space_group_symop_operation_xyz
x,y,z
1/2-x,-y,1/2+z
x,-y,-z
1/2-x,y,1/2-z
-x,-y,-z
1/2+x,y,1/2-z
-x,y,z
1/2+x,-y,1/2+z
loop_
_atom_site_type_symbol
_atom_site_label
_atom_site_fract_x
_atom_site_fract_y
_atom_site_fract_z
Si Si1 0.250000 0.337281 0.750000
Si Si2 0.850698 0.118616 0.610941
Si Si3 0.342027 0.193834 0.089578
Si Si4 0.348129 0.444671 0.397571
O O1 0.347812 0.230584 0.805178
O O2 0.162981 0.428322 0.822047
O O3 0.788780 0.186214 0.517339
O O4 0.000000 0.085943 0.580329
O O5 0.796637 0.958332 0.636952
O O6 0.500000 0.230869 0.101351
O O7 0.255071 0.321210 0.135346
O O8 0.308618 0.500000 0.500000
O O9 0.500000 0.386801 0.396868
#
# Coordination Sequence:
#
# PCOD8222175 Si02
#       4
#     4   8   8   8
#     4  12  22  38  62  90 126 168 204 248 306 374
#     4   9  19  37  62  90 115 154 210 259 301 358
#     4   9  19  40  66  88 117 158 207 256 305 363
#     4  11  24  41  60  93 133 165 203 254 308 365
#
# _framework density 20.925999000000001
#
# number of rings (size 3 to 8) (size 9 to 14) (size 15 to 20)
#    0.000    2.000    2.857    2.571    0.000    4.000 
#    0.000    8.571    0.000    0.000    0.000    0.000 
#    0.000    0.000    0.000    0.000    0.000    0.000 
#
# Total GULP energy -346949.061176 kJ/mol
# GULP energy per Si atom -12391.037899 kJ/mol
# Density = 2.087837 g / cm^3
# Si number density = 20.925999 Si / 1000 Ang^3
#
#
#
# Elastic Constant Matrix: (Units=GPa)
#
#
# Indices 1 2 3 4 5 6 
#
# 1 86.4755 58.4437 15.4073 0.0000 0.0000 0.0000
# 2 58.4437 161.2601 55.9225 0.0000 0.0000 0.0000
# 3 15.4073 55.9225 91.9942 0.0000 0.0000 0.0000
# 4 0.0000 0.0000 0.0000 46.2299 0.0000 0.0000
# 5 0.0000 0.0000 0.0000 0.0000 13.3013 0.0000
# 6 0.0000 0.0000 0.0000 0.0000 0.0000 27.4201
#
#
#
# Elastic Compliance Matrix: (Units=1/GPa)
#
#
# Indices 1 2 3 4 5 6 
#
# 1 0.015392 -0.005936 0.001030 0.000000 0.000000 0.000000
# 2 -0.005936 0.010147 -0.005174 0.000000 0.000000 0.000000
# 3 0.001030 -0.005174 0.013843 0.000000 0.000000 0.000000
# 4 0.000000 0.000000 0.000000 0.021631 0.000000 0.000000
# 5 0.000000 0.000000 0.000000 0.000000 0.075180 0.000000
# 6 0.000000 0.000000 0.000000 0.000000 0.000000 0.036470
#
#
# Mechanical properties :
#
#
# Convention : Reuss Voigt Hill
#
# Bulk Modulus (GPa) = 52.02102 66.58632 59.30367
# Shear Modulus (GPa) = 25.09682 31.38736 28.24209
#
# Velocity S-wave (km/s) = 3.46687 3.87708 3.67770
# Velocity P-wave (km/s) = 6.39836 7.20634 6.81434
#
# Compressibility (1/GPa) = 0.01922300
#
# Stress axis : x y z
#
# Youngs Moduli (GPa) = 64.96908 98.55543 72.23944
#
# Poissons Ratio (x) = 0.58499 -0.07443
# Poissons Ratio (y) = 0.38563 0.37376
# Poissons Ratio (z) = -0.06694 0.50992
#
# Static dielectric constant tensor:
#      x y z
#    x 3.364670 0.000000 0.000000 
#    y 0.000000 3.888710 0.000000 
#    z 0.000000 0.000000 3.635180 
# 
# 
# High freq. dielectric constant tensor:
#      x y z
#    x 1.788980 0.000000 0.000000 
#    y 0.000000 1.833780 0.000000 
#    z 0.000000 0.000000 1.815680 
# 
# From -- ./inp_files/21264.got.cif
#   From: 2010.03.12/outbox.cif.g09.slc.cpg/sg53_11_cif.got.tgz:21264.got - 2010.04.16 14:36:59.
