data_PCOD8222174
_publ_section_title
;
Structure prediction by ZEFSAII (Michael W. Deem and Ramdas Pophale) SiO2 
 PCOD8222174
Probable space group: P M N A
;
_chemical_formula_sum "Si O2"
_cell_formula_units_Z 28
_cell_length_a 21.133782
_cell_length_b 4.963559
_cell_length_c 11.246714
_cell_angle_alpha 90.000000
_cell_angle_beta 90.000000
_cell_angle_gamma 90.000000
_cell_volume 1179.766508
_symmetry_space_group_name_H-M "P M N A"
_symmetry_group_IT_number 53
_symmetry_cell_setting 'orthorhombic'
loop_
_space_group_symop_operation_xyz
x,y,z
1/2-x,-y,1/2+z
x,-y,-z
1/2-x,y,1/2-z
-x,-y,-z
1/2+x,y,1/2-z
-x,y,z
1/2+x,-y,1/2+z
loop_
_atom_site_type_symbol
_atom_site_label
_atom_site_fract_x
_atom_site_fract_y
_atom_site_fract_z
Si Si1 0.610583 0.000000 0.000000
Si Si2 0.678850 0.052955 0.241715
Si Si3 0.000000 0.245160 0.776662
Si Si4 0.500000 0.267312 0.115425
Si Si5 0.370484 0.563627 0.365704
O O1 0.656107 0.053481 0.887392
O O2 0.562925 0.756978 0.966313
O O3 0.750000 0.167185 0.250000
O O4 0.678746 0.790866 0.325086
O O5 0.633128 0.293433 0.286101
O O6 0.000000 0.430766 0.661257
O O7 0.060467 0.302175 0.858098
O O8 0.000000 0.941703 0.726543
O O9 0.353009 0.500000 0.500000
#
# Coordination Sequence:
#
# PCOD8222174 Si02
#       5
#     4   8   4   4   8
#     4  11  24  46  74 104 138 185 230 300 348 409
#     4  12  28  48  70 104 140 187 238 283 345 419
#     4  12  21  47  64 110 136 175 233 288 354 416
#     4  11  24  40  73 104 143 170 234 297 354 411
#     4  12  26  47  71 102 141 187 230 284 350 418
#
# _framework density 23.733509000000002
#
# number of rings (size 3 to 8) (size 9 to 14) (size 15 to 20)
#    0.000    0.286    5.714    2.143    4.000    5.714 
#    0.000    4.286    0.000    0.000    0.000    0.000 
#    0.000    0.000    0.000    0.000    0.000    0.000 
#
# Total GULP energy -347195.835458 kJ/mol
# GULP energy per Si atom -12399.851266 kJ/mol
# Density = 2.367949 g / cm^3
# Si number density = 23.733509 Si / 1000 Ang^3
#
#
#
# Elastic Constant Matrix: (Units=GPa)
#
#
# Indices 1 2 3 4 5 6 
#
# 1 120.9684 0.0276 42.0811 0.0000 0.0000 0.0000
# 2 0.0276 101.2445 37.3565 0.0000 0.0000 0.0000
# 3 42.0811 37.3565 129.0699 0.0000 0.0000 0.0000
# 4 0.0000 0.0000 0.0000 37.8333 0.0000 0.0000
# 5 0.0000 0.0000 0.0000 0.0000 25.3729 0.0000
# 6 0.0000 0.0000 0.0000 0.0000 0.0000 19.3151
#
#
#
# Elastic Compliance Matrix: (Units=1/GPa)
#
#
# Indices 1 2 3 4 5 6 
#
# 1 0.009468 0.001272 -0.003455 0.000000 0.000000 0.000000
# 2 0.001272 0.011229 -0.003665 0.000000 0.000000 0.000000
# 3 -0.003455 -0.003665 0.009935 0.000000 0.000000 0.000000
# 4 0.000000 0.000000 0.000000 0.026432 0.000000 0.000000
# 5 0.000000 0.000000 0.000000 0.000000 0.039412 0.000000
# 6 0.000000 0.000000 0.000000 0.000000 0.000000 0.051773
#
#
# Mechanical properties :
#
#
# Convention : Reuss Voigt Hill
#
# Bulk Modulus (GPa) = 52.80732 56.69037 54.74884
# Shear Modulus (GPa) = 30.07398 34.62542 32.34970
#
# Velocity S-wave (km/s) = 3.56357 3.82373 3.69594
# Velocity P-wave (km/s) = 6.26342 6.59034 6.42896
#
# Compressibility (1/GPa) = 0.01893677
#
# Stress axis : x y z
#
# Youngs Moduli (GPa) = 105.61564 89.05557 100.65476
#
# Poissons Ratio (x) = -0.11331 0.34778
# Poissons Ratio (y) = -0.13437 0.36888
# Poissons Ratio (z) = 0.36493 0.32637
#
# Static dielectric constant tensor:
#      x y z
#    x 4.234170 0.000000 0.000000 
#    y 0.000000 4.137630 0.000000 
#    z 0.000000 0.000000 4.177200 
# 
# 
# High freq. dielectric constant tensor:
#      x y z
#    x 1.941900 0.000000 0.000000 
#    y 0.000000 1.944930 0.000000 
#    z 0.000000 0.000000 1.942310 
# 
# From -- ./inp_files/17351.got.cif
#   From: 2010.03.12/outbox.cif.g09.slc.cpg/sg53_9_cif.got.tgz:17351.got - 2010.04.16 14:36:59.
