data_PCOD8222712
_publ_section_title
;
Structure prediction by ZEFSAII (Michael W. Deem and Ramdas Pophale) SiO2 
 PCOD8222712
Probable space group: P C C A
;
_chemical_formula_sum "Si O2"
_cell_formula_units_Z 64
_cell_length_a 15.178322
_cell_length_b 11.563170
_cell_length_c 17.602851
_cell_angle_alpha 90.000000
_cell_angle_beta 90.000000
_cell_angle_gamma 90.000000
_cell_volume 3089.467887
_symmetry_space_group_name_H-M "P C C A"
_symmetry_group_IT_number 54
_symmetry_cell_setting 'orthorhombic'
loop_
_space_group_symop_operation_xyz
x,y,z
1/2-x,-y,z
1/2+x,-y,1/2-z
-x,y,1/2-z
-x,-y,-z
1/2+x,y,-z
1/2-x,y,1/2+z
x,-y,1/2+z
loop_
_atom_site_type_symbol
_atom_site_label
_atom_site_fract_x
_atom_site_fract_y
_atom_site_fract_z
Si Si1 0.651387 0.002851 0.943742
Si Si2 0.570589 0.753927 0.459429
Si Si3 0.500333 0.845556 0.613207
Si Si4 0.439501 0.247779 0.824011
Si Si5 0.845024 0.461905 0.120103
Si Si6 0.903158 0.496786 0.467106
Si Si7 0.005699 0.396206 0.665224
Si Si8 0.649858 0.976518 0.119255
O O1 0.582998 0.932602 0.891285
O O2 0.750000 0.000000 0.910790
O O3 0.631302 0.138088 0.940551
O O4 0.644720 0.951534 0.028946
O O5 0.514433 0.779299 0.534334
O O6 0.501112 0.730390 0.394616
O O7 0.629447 0.637389 0.463751
O O8 0.482949 0.742765 0.672500
O O9 0.587502 0.914898 0.638516
O O10 0.500000 0.244638 0.750000
O O11 0.371858 0.354861 0.826126
O O12 0.384045 0.130619 0.831574
O O13 0.750000 0.500000 0.149605
O O14 0.912815 0.569189 0.127062
O O15 0.841982 0.433739 0.028227
O O16 0.909888 0.553477 0.382533
O O17 0.000000 0.500000 0.500000
O O18 0.000000 0.448641 0.750000
O O19 0.750000 0.000000 0.144304
#
# Coordination Sequence:
#
# PCOD8222712 Si02
#       8
#     8   8   8   8   8   8   8   8
#     4  10  21  36  62  96 125 164 213 273 323 382
#     4  11  18  39  61  88 121 158 222 262 322 388
#     4  11  19  38  64  88 126 171 205 271 328 379
#     4  12  23  39  65  91 124 177 218 266 336 397
#     4  11  24  40  65  94 125 161 220 277 322 390
#     4  10  19  38  64  89 116 163 208 265 313 388
#     4  11  23  40  63  91 128 169 212 253 334 405
#     4  10  22  37  64  94 121 160 221 268 319 396
#
# _framework density 20.715541000000002
#
# number of rings (size 3 to 8) (size 9 to 14) (size 15 to 20)
#    0.000    1.250    7.500    1.125    1.750    1.500 
#    0.000    2.500    0.000    0.000    0.000    0.000 
#    0.000    0.000    0.000    0.000    0.000    0.000 
#
# Total GULP energy -793227.666577 kJ/mol
# GULP energy per Si atom -12394.182290 kJ/mol
# Density = 2.066839 g / cm^3
# Si number density = 20.715541 Si / 1000 Ang^3
#
#
#
# Elastic Constant Matrix: (Units=GPa)
#
#
# Indices 1 2 3 4 5 6 
#
# 1 103.5636 49.8146 28.8226 0.0000 0.0000 0.0000
# 2 49.8146 143.2486 40.6624 0.0000 0.0000 0.0000
# 3 28.8226 40.6624 77.8058 0.0000 0.0000 0.0000
# 4 0.0000 0.0000 0.0000 23.5900 0.0000 0.0000
# 5 0.0000 0.0000 0.0000 0.0000 10.3274 0.0000
# 6 0.0000 0.0000 0.0000 0.0000 0.0000 72.4463
#
#
#
# Elastic Compliance Matrix: (Units=1/GPa)
#
#
# Indices 1 2 3 4 5 6 
#
# 1 0.012050 -0.003432 -0.002670 0.000000 0.000000 0.000000
# 2 -0.003432 0.009175 -0.003523 0.000000 0.000000 0.000000
# 3 -0.002670 -0.003523 0.015683 0.000000 0.000000 0.000000
# 4 0.000000 0.000000 0.000000 0.042391 0.000000 0.000000
# 5 0.000000 0.000000 0.000000 0.000000 0.096830 0.000000
# 6 0.000000 0.000000 0.000000 0.000000 0.000000 0.013803
#
#
# Mechanical properties :
#
#
# Convention : Reuss Voigt Hill
#
# Bulk Modulus (GPa) = 56.63765 62.57970 59.60867
# Shear Modulus (GPa) = 23.24842 34.96064 29.10453
#
# Velocity S-wave (km/s) = 3.35366 4.11256 3.75235
# Velocity P-wave (km/s) = 6.51123 7.26812 6.90006
#
# Compressibility (1/GPa) = 0.01765610
#
# Stress axis : x y z
#
# Youngs Moduli (GPa) = 82.98739 108.99634 63.76378
#
# Poissons Ratio (x) = 0.37413 0.17025
# Poissons Ratio (y) = 0.28485 0.22466
# Poissons Ratio (z) = 0.22157 0.38402
#
# Static dielectric constant tensor:
#      x y z
#    x 3.444720 0.000000 0.000000 
#    y 0.000000 4.177880 0.000000 
#    z 0.000000 0.000000 5.591360 
# 
# 
# High freq. dielectric constant tensor:
#      x y z
#    x 1.785990 0.000000 0.000000 
#    y 0.000000 1.823960 0.000000 
#    z 0.000000 0.000000 1.790730 
# 
# From -- ./inp_files/18229.got.cif
#   From: 2010.03.12/outbox.cif.g09.slc.cpg/sg54_10_cif.got.tgz:18229.got - 2010.04.16 15:00:50.
