data_PCOD8222745
_publ_section_title
;
Structure prediction by ZEFSAII (Michael W. Deem and Ramdas Pophale) SiO2 
 PCOD8222745
Probable space group: P C C A
;
_chemical_formula_sum "Si O2"
_cell_formula_units_Z 48
_cell_length_a 17.696274
_cell_length_b 11.538929
_cell_length_c 12.209083
_cell_angle_alpha 90.000000
_cell_angle_beta 90.000000
_cell_angle_gamma 90.000000
_cell_volume 2493.046514
_symmetry_space_group_name_H-M "P C C A"
_symmetry_group_IT_number 54
_symmetry_cell_setting 'orthorhombic'
loop_
_space_group_symop_operation_xyz
x,y,z
1/2-x,-y,z
1/2+x,-y,1/2-z
-x,y,1/2-z
-x,-y,-z
1/2+x,y,-z
1/2-x,y,1/2+z
x,-y,1/2+z
loop_
_atom_site_type_symbol
_atom_site_label
_atom_site_fract_x
_atom_site_fract_y
_atom_site_fract_z
Si Si1 0.321429 0.647893 0.057576
Si Si2 0.530399 0.223917 0.453428
Si Si3 0.562960 0.192012 0.836007
Si Si4 0.346415 0.381494 0.103829
Si Si5 0.884254 0.272071 0.669048
Si Si6 0.584319 0.055350 0.289209
O O1 0.374868 0.710030 0.145853
O O2 0.342148 0.514317 0.070084
O O3 0.235312 0.676321 0.086542
O O4 0.333012 0.692027 0.933523
O O5 0.484996 0.171832 0.554157
O O6 0.591176 0.325678 0.478348
O O7 0.472537 0.276881 0.363767
O O8 0.581312 0.120091 0.405545
O O9 0.500000 0.233615 0.750000
O O10 0.612296 0.077180 0.803653
O O11 0.369835 0.360427 0.230627
O O12 0.867493 0.137180 0.705859
O O13 0.500000 0.035741 0.250000
#
# Coordination Sequence:
#
# PCOD8222745 Si02
#       6
#     8   8   8   8   8   8
#     4  10  23  36  53  83 116 150 185 229 287 337
#     4   9  18  34  57  79 104 145 190 229 274 331
#     4  10  20  32  53  84 112 139 184 235 272 328
#     4  10  21  37  56  78 111 153 187 229 283 336
#     4   9  19  37  58  78 106 146 190 233 281 336
#     4   8  15  32  56  77 102 140 177 220 275 321
#
# _framework density 19.253551000000002
#
# number of rings (size 3 to 8) (size 9 to 14) (size 15 to 20)
#    0.000    2.667    0.000    2.000    0.000   10.667 
#    0.000    3.333    0.000   12.000    0.000    0.000 
#    0.000    0.000    0.000    0.000    0.000    0.000 
#
# Total GULP energy -594668.852286 kJ/mol
# GULP energy per Si atom -12388.934423 kJ/mol
# Density = 1.920973 g / cm^3
# Si number density = 19.253551 Si / 1000 Ang^3
#
#
#
# Elastic Constant Matrix: (Units=GPa)
#
#
# Indices 1 2 3 4 5 6 
#
# 1 83.9136 51.1019 29.2675 0.0000 0.0000 0.0000
# 2 51.1019 97.4017 44.5102 0.0000 0.0000 0.0000
# 3 29.2675 44.5102 94.2743 0.0000 0.0000 0.0000
# 4 0.0000 0.0000 0.0000 26.0076 0.0000 0.0000
# 5 0.0000 0.0000 0.0000 0.0000 24.4746 0.0000
# 6 0.0000 0.0000 0.0000 0.0000 0.0000 15.6325
#
#
#
# Elastic Compliance Matrix: (Units=1/GPa)
#
#
# Indices 1 2 3 4 5 6 
#
# 1 0.017659 -0.008619 -0.001413 0.000000 0.000000 0.000000
# 2 -0.008619 0.017298 -0.005491 0.000000 0.000000 0.000000
# 3 -0.001413 -0.005491 0.013639 0.000000 0.000000 0.000000
# 4 0.000000 0.000000 0.000000 0.038450 0.000000 0.000000
# 5 0.000000 0.000000 0.000000 0.000000 0.040859 0.000000
# 6 0.000000 0.000000 0.000000 0.000000 0.000000 0.063969
#
#
# Mechanical properties :
#
#
# Convention : Reuss Voigt Hill
#
# Bulk Modulus (GPa) = 56.98279 58.37209 57.67744
# Shear Modulus (GPa) = 21.85606 23.27026 22.56316
#
# Velocity S-wave (km/s) = 3.37288 3.48030 3.42701
# Velocity P-wave (km/s) = 6.69542 6.82153 6.75877
#
# Compressibility (1/GPa) = 0.01754916
#
# Stress axis : x y z
#
# Youngs Moduli (GPa) = 56.62975 57.80986 73.32152
#
# Poissons Ratio (x) = 0.49826 0.10359
# Poissons Ratio (y) = 0.48809 0.40263
# Poissons Ratio (z) = 0.08001 0.31745
#
# Static dielectric constant tensor:
#      x y z
#    x 3.491430 0.000000 0.000000 
#    y 0.000000 3.688170 0.000000 
#    z 0.000000 0.000000 3.692770 
# 
# 
# High freq. dielectric constant tensor:
#      x y z
#    x 1.730610 0.000000 0.000000 
#    y 0.000000 1.750050 0.000000 
#    z 0.000000 0.000000 1.747240 
# 
# From -- ./inp_files/8930.got.cif
#   From: 2010.03.12/outbox.cif.g09.slc.cpg/sg54_5_cif.got.tgz:8930.got - 2010.04.16 15:00:50.
