data_PCOD8222874
_publ_section_title
;
Structure prediction by ZEFSAII (Michael W. Deem and Ramdas Pophale) SiO2 
 PCOD8222874
Probable space group: P C C A
;
_chemical_formula_sum "Si O2"
_cell_formula_units_Z 64
_cell_length_a 17.417660
_cell_length_b 8.969942
_cell_length_c 21.541646
_cell_angle_alpha 90.000000
_cell_angle_beta 90.000000
_cell_angle_gamma 90.000000
_cell_volume 3365.567679
_symmetry_space_group_name_H-M "P C C A"
_symmetry_group_IT_number 54
_symmetry_cell_setting 'orthorhombic'
loop_
_space_group_symop_operation_xyz
x,y,z
1/2-x,-y,z
1/2+x,-y,1/2-z
-x,y,1/2-z
-x,-y,-z
1/2+x,y,-z
1/2-x,y,1/2+z
x,-y,1/2+z
loop_
_atom_site_type_symbol
_atom_site_label
_atom_site_fract_x
_atom_site_fract_y
_atom_site_fract_z
Si Si1 0.171838 0.585028 0.781294
Si Si2 0.824846 0.585214 0.987590
Si Si3 0.549217 0.624676 0.390605
Si Si4 0.168405 0.181730 0.177997
Si Si5 0.882029 0.362443 0.082893
Si Si6 0.670039 0.849351 0.863976
Si Si7 0.936698 0.378173 0.797249
Si Si8 0.718962 0.154053 0.500990
O O1 0.250000 0.500000 0.796339
O O2 0.175470 0.744619 0.746028
O O3 0.131502 0.629050 0.844487
O O4 0.127072 0.464932 0.740881
O O5 0.750000 0.500000 0.962632
O O6 0.854990 0.518719 0.052795
O O7 0.799103 0.755919 0.992977
O O8 0.892028 0.554277 0.939273
O O9 0.591897 0.760772 0.356433
O O10 0.472297 0.675487 0.426320
O O11 0.522889 0.496220 0.342878
O O12 0.247833 0.232134 0.145391
O O13 0.164841 0.002283 0.175736
O O14 0.835100 0.228278 0.052091
O O15 0.600118 0.750905 0.839170
O O16 0.668173 0.872862 0.938437
O O17 0.000000 0.310455 0.750000
O O18 0.750000 0.000000 0.527914
#
# Coordination Sequence:
#
# PCOD8222874 Si02
#       8
#     8   8   8   8   8   8   8   8
#     4  11  21  40  61  86 121 160 204 242 303 370
#     4  10  20  36  61  88 114 159 206 251 293 355
#     4  11  21  38  61  91 121 158 206 254 309 356
#     4  10  22  37  67  87 118 158 208 257 293 359
#     4  11  24  39  57  90 131 159 190 255 317 367
#     4  11  20  42  64  92 116 155 211 259 293 347
#     4  11  22  37  60  93 120 156 199 257 303 354
#     4  11  21  41  66  88 116 160 212 256 291 367
#
# _framework density 19.016109
#
# number of rings (size 3 to 8) (size 9 to 14) (size 15 to 20)
#    0.000    1.250    5.000    3.000    0.000    0.000 
#    4.500    3.750    0.000    0.000    0.000    0.000 
#    0.000    0.000    0.000    0.000    0.000    0.000 
#
# Total GULP energy -793280.432614 kJ/mol
# GULP energy per Si atom -12395.006760 kJ/mol
# Density = 1.897283 g / cm^3
# Si number density = 19.016109 Si / 1000 Ang^3
#
#
#
# Elastic Constant Matrix: (Units=GPa)
#
#
# Indices 1 2 3 4 5 6 
#
# 1 114.2571 35.7979 26.8267 0.0000 0.0000 0.0000
# 2 35.7979 100.5517 29.4250 0.0000 0.0000 0.0000
# 3 26.8267 29.4250 80.6982 0.0000 0.0000 0.0000
# 4 0.0000 0.0000 0.0000 23.8461 0.0000 0.0000
# 5 0.0000 0.0000 0.0000 0.0000 36.1219 0.0000
# 6 0.0000 0.0000 0.0000 0.0000 0.0000 16.1373
#
#
#
# Elastic Compliance Matrix: (Units=1/GPa)
#
#
# Indices 1 2 3 4 5 6 
#
# 1 0.010225 -0.002961 -0.002319 0.000000 0.000000 0.000000
# 2 -0.002961 0.011991 -0.003388 0.000000 0.000000 0.000000
# 3 -0.002319 -0.003388 0.014398 0.000000 0.000000 0.000000
# 4 0.000000 0.000000 0.000000 0.041936 0.000000 0.000000
# 5 0.000000 0.000000 0.000000 0.000000 0.027684 0.000000
# 6 0.000000 0.000000 0.000000 0.000000 0.000000 0.061968
#
#
# Mechanical properties :
#
#
# Convention : Reuss Voigt Hill
#
# Bulk Modulus (GPa) = 51.87578 53.28960 52.58269
# Shear Modulus (GPa) = 26.04661 28.78488 27.41574
#
# Velocity S-wave (km/s) = 3.70498 3.89486 3.80111
# Velocity P-wave (km/s) = 6.75586 6.95060 6.85392
#
# Compressibility (1/GPa) = 0.01927682
#
# Stress axis : x y z
#
# Youngs Moduli (GPa) = 97.80376 83.39713 69.45365
#
# Poissons Ratio (x) = 0.24697 0.16107
# Poissons Ratio (y) = 0.28964 0.23529
# Poissons Ratio (z) = 0.22682 0.28253
#
# Static dielectric constant tensor:
#      x y z
#    x 3.603320 0.000000 0.000000 
#    y 0.000000 3.458780 0.000000 
#    z 0.000000 0.000000 3.530030 
# 
# 
# High freq. dielectric constant tensor:
#      x y z
#    x 1.743490 0.000000 0.000000 
#    y 0.000000 1.727620 0.000000 
#    z 0.000000 0.000000 1.739840 
# 
# From -- ./inp_files/21970.got.cif
#   From: 2010.03.12/outbox.cif.g09.slc.cpg/sg54_11_cif.got.tgz:21970.got - 2010.04.16 15:00:50.
