data_PCOD8222568
_publ_section_title
;
Structure prediction by ZEFSAII (Michael W. Deem and Ramdas Pophale) SiO2 
 PCOD8222568
Probable space group: P C C A
;
_chemical_formula_sum "Si O2"
_cell_formula_units_Z 48
_cell_length_a 18.543735
_cell_length_b 8.869600
_cell_length_c 15.966199
_cell_angle_alpha 90.000000
_cell_angle_beta 90.000000
_cell_angle_gamma 90.000000
_cell_volume 2626.048755
_symmetry_space_group_name_H-M "P C C A"
_symmetry_group_IT_number 54
_symmetry_cell_setting 'orthorhombic'
loop_
_space_group_symop_operation_xyz
x,y,z
1/2-x,-y,z
1/2+x,-y,1/2-z
-x,y,1/2-z
-x,-y,-z
1/2+x,y,-z
1/2-x,y,1/2+z
x,-y,1/2+z
loop_
_atom_site_type_symbol
_atom_site_label
_atom_site_fract_x
_atom_site_fract_y
_atom_site_fract_z
Si Si1 0.330139 0.802518 0.254018
Si Si2 0.330088 0.157027 0.232936
Si Si3 0.926239 0.199426 0.091864
Si Si4 0.540398 0.889588 0.665482
Si Si5 0.082263 0.298471 0.592741
Si Si6 0.548804 0.610474 0.329805
O O1 0.245538 0.762463 0.254120
O O2 0.359554 0.769868 0.346560
O O3 0.378708 0.702251 0.192577
O O4 0.332713 0.976277 0.225975
O O5 0.386952 0.198366 0.306259
O O6 0.353332 0.223970 0.144367
O O7 0.999497 0.284464 0.113645
O O8 0.943806 0.022048 0.099403
O O9 0.899570 0.257589 0.002472
O O10 0.500000 0.952629 0.750000
O O11 0.494923 0.767639 0.616666
O O12 0.076921 0.474797 0.612690
O O13 0.500000 0.557786 0.250000
#
# Coordination Sequence:
#
# PCOD8222568 Si02
#       6
#     8   8   8   8   8   8
#     4   9  19  36  55  71  99 141 174 201 249 315
#     4   9  18  35  54  74  99 134 174 205 248 311
#     4  10  19  33  52  76 102 132 169 214 257 296
#     4   9  17  32  54  77 102 134 171 207 252 308
#     4  11  20  31  51  80 104 127 169 222 256 291
#     4  10  19  33  53  74 102 139 170 201 254 314
#
# _framework density 18.278410999999998
#
# number of rings (size 3 to 8) (size 9 to 14) (size 15 to 20)
#    0.000    2.333    0.000    6.000    0.000    0.667 
#    0.000    8.333    0.000    6.000    0.000    0.000 
#    0.000    0.000    0.000    0.000    0.000    0.000 
#
# Total GULP energy -594927.027911 kJ/mol
# GULP energy per Si atom -12394.313081 kJ/mol
# Density = 1.823681 g / cm^3
# Si number density = 18.278411 Si / 1000 Ang^3
#
#
#
# Elastic Constant Matrix: (Units=GPa)
#
#
# Indices 1 2 3 4 5 6 
#
# 1 157.6161 48.3375 66.6886 0.0000 0.0000 0.0000
# 2 48.3375 71.4440 62.8522 0.0000 0.0000 0.0000
# 3 66.6886 62.8522 109.5948 0.0000 0.0000 0.0000
# 4 0.0000 0.0000 0.0000 -5.1937 0.0000 0.0000
# 5 0.0000 0.0000 0.0000 0.0000 16.0043 0.0000
# 6 0.0000 0.0000 0.0000 0.0000 0.0000 13.1701
#
#
#
# Elastic Compliance Matrix: (Units=1/GPa)
#
#
# Indices 1 2 3 4 5 6 
#
# 1 0.008760 -0.002497 -0.003898 0.000000 0.000000 0.000000
# 2 -0.002497 0.028962 -0.015090 0.000000 0.000000 0.000000
# 3 -0.003898 -0.015090 0.020150 0.000000 0.000000 0.000000
# 4 0.000000 0.000000 0.000000 -0.192540 0.000000 0.000000
# 5 0.000000 0.000000 0.000000 0.000000 0.062483 0.000000
# 6 0.000000 0.000000 0.000000 0.000000 0.000000 0.075929
#
#
# Mechanical properties :
#
#
# Convention : Reuss Voigt Hill
#
# Bulk Modulus (GPa) = 67.10756 77.15681 72.13219
# Shear Modulus (GPa) = 96.74621 15.51459 56.13040
#
# Velocity S-wave (km/s) = 7.28314 2.91657 5.54754
# Velocity P-wave (km/s) = 10.36915 7.32430 8.97677
#
# Compressibility (1/GPa) = 0.01490145
#
# Stress axis : x y z
#
# Youngs Moduli (GPa) = 114.15892 34.52831 49.62666
#
# Poissons Ratio (x) = 0.08623 0.19345
# Poissons Ratio (y) = 0.28509 0.74886
# Poissons Ratio (z) = 0.44500 0.52103
#
# Static dielectric constant tensor:
#      x y z
#    x 3.813020 0.000000 0.000000 
#    y 0.000000 3.280630 0.000000 
#    z 0.000000 0.000000 3.296430 
# 
# 
# High freq. dielectric constant tensor:
#      x y z
#    x 1.711750 0.000000 0.000000 
#    y 0.000000 1.703800 0.000000 
#    z 0.000000 0.000000 1.692040 
# 
# From -- ./inp_files/18510.got.cif
#   From: 2010.03.12/outbox.cif.g09.slc.cpg/sg54_10_cif.got.tgz:18510.got - 2010.04.16 15:00:50.
