data_PCOD8222078
_publ_section_title
;
Structure prediction by ZEFSAII (Michael W. Deem and Ramdas Pophale) SiO2 
 PCOD8222078
Probable space group: P M N A
;
_chemical_formula_sum "Si O2"
_cell_formula_units_Z 44
_cell_length_a 15.525779
_cell_length_b 8.905242
_cell_length_c 14.957780
_cell_angle_alpha 90.000000
_cell_angle_beta 90.000000
_cell_angle_gamma 90.000000
_cell_volume 2068.074917
_symmetry_space_group_name_H-M "P M N A"
_symmetry_group_IT_number 53
_symmetry_cell_setting 'orthorhombic'
loop_
_space_group_symop_operation_xyz
x,y,z
1/2-x,-y,1/2+z
x,-y,-z
1/2-x,y,1/2-z
-x,-y,-z
1/2+x,y,1/2-z
-x,y,z
1/2+x,-y,1/2+z
loop_
_atom_site_type_symbol
_atom_site_label
_atom_site_fract_x
_atom_site_fract_y
_atom_site_fract_z
Si Si1 0.500000 0.487415 0.712732
Si Si2 0.136037 0.558587 0.358627
Si Si3 0.250000 0.749446 0.250000
Si Si4 0.402935 0.282463 0.035008
Si Si5 0.000000 0.194387 0.143663
Si Si6 0.713175 0.000000 0.000000
Si Si7 0.640372 0.945414 0.362455
Si Si8 0.500000 0.258351 0.556811
O O1 0.416536 0.433515 0.766406
O O2 0.500000 0.668239 0.712214
O O3 0.500000 0.411859 0.614076
O O4 0.225829 0.642281 0.334766
O O5 0.087094 0.643178 0.437853
O O6 0.148098 0.388083 0.393748
O O7 0.167902 0.855671 0.226894
O O8 0.500000 0.251072 0.070547
O O9 0.348728 0.134146 0.025787
O O10 0.085941 0.095090 0.160277
O O11 0.000000 0.281832 0.049022
O O12 0.771053 0.023386 0.913155
O O13 0.583984 0.839344 0.424638
#
# Coordination Sequence:
#
# PCOD8222078 Si02
#       8
#     4   8   4   8   4   4   8   4
#     4  12  23  41  68  97 130 176 223 277 342 400
#     4  11  23  43  66  95 135 174 223 278 332 397
#     4  12  24  42  68 104 136 182 228 280 344 400
#     4  11  23  44  71  96 133 179 228 280 335 410
#     4  11  25  43  70 101 136 175 227 283 336 416
#     4  12  23  41  68 100 132 178 226 279 347 398
#     4  11  23  43  67  96 137 175 220 280 339 402
#     4  11  21  45  72  92 133 181 224 271 340 415
#
# _framework density 21.275825000000001
#
# number of rings (size 3 to 8) (size 9 to 14) (size 15 to 20)
#    0.000    0.727    7.273    1.636    0.000    2.909 
#    0.000    0.000    0.000    0.000    0.000    0.000 
#    0.000    0.000    0.000    0.000    0.000    0.000 
#
# Total GULP energy -545491.955569 kJ/mol
# GULP energy per Si atom -12397.544445 kJ/mol
# Density = 2.122740 g / cm^3
# Si number density = 21.275825 Si / 1000 Ang^3
#
#
#
# Elastic Constant Matrix: (Units=GPa)
#
#
# Indices 1 2 3 4 5 6 
#
# 1 102.3042 68.3827 36.5690 0.0000 0.0000 0.0000
# 2 68.3827 152.9513 42.5247 0.0000 0.0000 0.0000
# 3 36.5690 42.5247 78.7633 0.0000 0.0000 0.0000
# 4 0.0000 0.0000 0.0000 34.4630 0.0000 0.0000
# 5 0.0000 0.0000 0.0000 0.0000 31.8879 0.0000
# 6 0.0000 0.0000 0.0000 0.0000 0.0000 16.3010
#
#
#
# Elastic Compliance Matrix: (Units=1/GPa)
#
#
# Indices 1 2 3 4 5 6 
#
# 1 0.014897 -0.005574 -0.003907 0.000000 0.000000 0.000000
# 2 -0.005574 0.009778 -0.002691 0.000000 0.000000 0.000000
# 3 -0.003907 -0.002691 0.015963 0.000000 0.000000 0.000000
# 4 0.000000 0.000000 0.000000 0.029017 0.000000 0.000000
# 5 0.000000 0.000000 0.000000 0.000000 0.031360 0.000000
# 6 0.000000 0.000000 0.000000 0.000000 0.000000 0.061346
#
#
# Mechanical properties :
#
#
# Convention : Reuss Voigt Hill
#
# Bulk Modulus (GPa) = 61.37319 69.88573 65.62946
# Shear Modulus (GPa) = 26.02296 28.96655 27.49476
#
# Velocity S-wave (km/s) = 3.50111 3.69382 3.59876
# Velocity P-wave (km/s) = 6.72702 7.14921 6.94133
#
# Compressibility (1/GPa) = 0.01629376
#
# Stress axis : x y z
#
# Youngs Moduli (GPa) = 67.12641 102.26594 62.64319
#
# Poissons Ratio (x) = 0.57004 0.24476
# Poissons Ratio (y) = 0.37417 0.16860
# Poissons Ratio (z) = 0.26227 0.27524
#
# Static dielectric constant tensor:
#      x y z
#    x 3.495860 0.000000 0.000000 
#    y 0.000000 3.923820 0.000000 
#    z 0.000000 0.000000 3.763730 
# 
# 
# High freq. dielectric constant tensor:
#      x y z
#    x 1.831750 0.000000 0.000000 
#    y 0.000000 1.840560 0.000000 
#    z 0.000000 0.000000 1.831270 
# 
# From -- ./inp_files/28221.got.cif
#   From: 2010.03.12/outbox.cif.g09.slc.cpg/sg53_15_cif.got.tgz:28221.got - 2010.04.16 14:36:59.
