data_PCOD8222737
_publ_section_title
;
Structure prediction by ZEFSAII (Michael W. Deem and Ramdas Pophale) SiO2 
 PCOD8222737
Probable space group: P C C A
;
_chemical_formula_sum "Si O2"
_cell_formula_units_Z 40
_cell_length_a 20.979612
_cell_length_b 10.267618
_cell_length_c 9.031923
_cell_angle_alpha 90.000000
_cell_angle_beta 90.000000
_cell_angle_gamma 90.000000
_cell_volume 1945.572330
_symmetry_space_group_name_H-M "P C C A"
_symmetry_group_IT_number 54
_symmetry_cell_setting 'orthorhombic'
loop_
_space_group_symop_operation_xyz
x,y,z
1/2-x,-y,z
1/2+x,-y,1/2-z
-x,y,1/2-z
-x,-y,-z
1/2+x,y,-z
1/2-x,y,1/2+z
x,-y,1/2+z
loop_
_atom_site_type_symbol
_atom_site_label
_atom_site_fract_x
_atom_site_fract_y
_atom_site_fract_z
Si Si1 0.500000 0.510956 0.250000
Si Si2 0.331716 0.612222 0.963960
Si Si3 0.750000 0.500000 0.783650
Si Si4 0.422593 0.858509 0.920862
Si Si5 0.076462 0.385293 0.506272
Si Si6 0.072331 0.882222 0.084162
O O1 0.478840 0.605564 0.382901
O O2 0.552863 0.416529 0.324874
O O3 0.288262 0.605391 0.816877
O O4 0.379437 0.736142 0.972239
O O5 0.291805 0.598434 0.115440
O O6 0.370889 0.481087 0.948874
O O7 0.498262 0.840376 0.943529
O O8 0.408479 0.894357 0.753243
O O9 0.402955 0.985177 0.013731
O O10 0.107663 0.241353 0.509939
#
# Coordination Sequence:
#
# PCOD8222737 Si02
#       6
#     4   8   4   8   8   8
#     4  10  20  30  54  94 124 152 192 228 294 388
#     4  11  22  40  62  84 113 152 200 257 299 331
#     4  10  24  40  62  86 108 152 220 262 286 328
#     4  10  21  37  57  84 124 159 185 231 293 357
#     4  11  20  34  57  85 120 153 188 242 300 359
#     4  10  21  35  56  91 123 152 187 221 290 387
#
# _framework density 20.559501999999998
#
# number of rings (size 3 to 8) (size 9 to 14) (size 15 to 20)
#    0.000    1.600    0.000    7.200    0.000    6.400 
#    0.000    0.000    0.000   20.400    0.000    0.000 
#    0.000    0.000    0.000    0.000    0.000    0.000 
#
# Total GULP energy -495674.757653 kJ/mol
# GULP energy per Si atom -12391.868941 kJ/mol
# Density = 2.051271 g / cm^3
# Si number density = 20.559502 Si / 1000 Ang^3
#
#
#
# Elastic Constant Matrix: (Units=GPa)
#
#
# Indices 1 2 3 4 5 6 
#
# 1 66.5258 44.7185 31.6555 0.0000 0.0000 0.0000
# 2 44.7185 166.4090 59.6438 0.0000 0.0000 0.0000
# 3 31.6555 59.6438 121.6518 0.0000 0.0000 0.0000
# 4 0.0000 0.0000 0.0000 23.8525 0.0000 0.0000
# 5 0.0000 0.0000 0.0000 0.0000 21.5866 0.0000
# 6 0.0000 0.0000 0.0000 0.0000 0.0000 25.2527
#
#
#
# Elastic Compliance Matrix: (Units=1/GPa)
#
#
# Indices 1 2 3 4 5 6 
#
# 1 0.019204 -0.004088 -0.002993 0.000000 0.000000 0.000000
# 2 -0.004088 0.008161 -0.002937 0.000000 0.000000 0.000000
# 3 -0.002993 -0.002937 0.010439 0.000000 0.000000 0.000000
# 4 0.000000 0.000000 0.000000 0.041924 0.000000 0.000000
# 5 0.000000 0.000000 0.000000 0.000000 0.046325 0.000000
# 6 0.000000 0.000000 0.000000 0.000000 0.000000 0.039600
#
#
# Mechanical properties :
#
#
# Convention : Reuss Voigt Hill
#
# Bulk Modulus (GPa) = 56.28296 69.62469 62.95382
# Shear Modulus (GPa) = 26.09457 28.70963 27.40210
#
# Velocity S-wave (km/s) = 3.56648 3.74092 3.65474
# Velocity P-wave (km/s) = 6.66294 7.25243 6.96393
#
# Compressibility (1/GPa) = 0.01776737
#
# Stress axis : x y z
#
# Youngs Moduli (GPa) = 52.07323 122.54043 95.79401
#
# Poissons Ratio (x) = 0.50093 0.28670
# Poissons Ratio (y) = 0.21287 0.28137
# Poissons Ratio (z) = 0.15585 0.35993
#
# Static dielectric constant tensor:
#      x y z
#    x 3.515900 0.000000 0.000000 
#    y 0.000000 3.894660 0.000000 
#    z 0.000000 0.000000 3.274590 
# 
# 
# High freq. dielectric constant tensor:
#      x y z
#    x 1.769650 0.000000 0.000000 
#    y 0.000000 1.799140 0.000000 
#    z 0.000000 0.000000 1.826580 
# 
# From -- ./inp_files/4675.got.cif
#   From: 2010.03.12/outbox.cif.g09.slc.cpg/sg54_3_cif.got.tgz:4675.got - 2010.04.16 15:00:50.
