data_PCOD8222626
_publ_section_title
;
Structure prediction by ZEFSAII (Michael W. Deem and Ramdas Pophale) SiO2 
 PCOD8222626
Probable space group: P C C A
;
_chemical_formula_sum "Si O2"
_cell_formula_units_Z 56
_cell_length_a 18.304163
_cell_length_b 15.410916
_cell_length_c 9.296265
_cell_angle_alpha 90.000000
_cell_angle_beta 90.000000
_cell_angle_gamma 90.000000
_cell_volume 2622.326858
_symmetry_space_group_name_H-M "P C C A"
_symmetry_group_IT_number 54
_symmetry_cell_setting 'orthorhombic'
loop_
_space_group_symop_operation_xyz
x,y,z
1/2-x,-y,z
1/2+x,-y,1/2-z
-x,y,1/2-z
-x,-y,-z
1/2+x,y,-z
1/2-x,y,1/2+z
x,-y,1/2+z
loop_
_atom_site_type_symbol
_atom_site_label
_atom_site_fract_x
_atom_site_fract_y
_atom_site_fract_z
Si Si1 0.500000 0.013187 0.750000
Si Si2 0.596029 0.928234 0.503515
Si Si3 0.276170 0.295072 0.853043
Si Si4 0.330150 0.539375 0.219153
Si Si5 0.573403 0.227026 0.175094
Si Si6 0.629409 0.392733 0.079599
Si Si7 0.793775 0.811056 0.373259
Si Si8 0.250000 0.000000 0.061604
O O1 0.439349 0.065135 0.655978
O O2 0.544300 0.960136 0.631999
O O3 0.600745 0.826097 0.534826
O O4 0.675971 0.972990 0.523832
O O5 0.328679 0.376999 0.824600
O O6 0.201421 0.334213 0.912180
O O7 0.269200 0.245307 0.701899
O O8 0.304501 0.222109 0.963725
O O9 0.250000 0.500000 0.180509
O O10 0.375660 0.466604 0.300438
O O11 0.374741 0.563022 0.076030
O O12 0.500000 0.194399 0.250000
O O13 0.564275 0.325934 0.117798
O O14 0.630582 0.211326 0.300856
O O15 0.773645 0.913078 0.352482
#
# Coordination Sequence:
#
# PCOD8222626 Si02
#       8
#     4   8   8   8   8   8   8   4
#     4  10  24  44  74  98 134 190 244 276 334 444
#     4  11  24  46  69 101 138 185 237 288 352 415
#     4  10  20  37  61  96 132 168 211 269 352 418
#     4  10  19  34  64  97 132 160 214 274 356 426
#     4  11  25  46  65  88 135 190 233 275 349 425
#     4  10  21  36  63  95 123 167 212 284 336 414
#     4  11  24  40  64  98 137 174 221 288 352 408
#     4  12  26  42  68 110 140 174 228 312 346 386
#
# _framework density 21.355080999999998
#
# number of rings (size 3 to 8) (size 9 to 14) (size 15 to 20)
#    0.000    1.429    2.143    3.857    6.000    5.143 
#    0.000    0.714    0.000    0.000    0.000    0.000 
#    0.000    0.000    0.000    0.000    0.000    0.000 
#
# Total GULP energy -693765.974534 kJ/mol
# GULP energy per Si atom -12388.678117 kJ/mol
# Density = 2.130648 g / cm^3
# Si number density = 21.355081 Si / 1000 Ang^3
#
#
#
# Elastic Constant Matrix: (Units=GPa)
#
#
# Indices 1 2 3 4 5 6 
#
# 1 76.4858 34.6630 32.2034 0.0000 0.0000 0.0000
# 2 34.6630 157.4197 55.0012 0.0000 0.0000 0.0000
# 3 32.2034 55.0012 124.8669 0.0000 0.0000 0.0000
# 4 0.0000 0.0000 0.0000 22.3238 0.0000 0.0000
# 5 0.0000 0.0000 0.0000 0.0000 18.3280 0.0000
# 6 0.0000 0.0000 0.0000 0.0000 0.0000 26.8394
#
#
#
# Elastic Compliance Matrix: (Units=1/GPa)
#
#
# Indices 1 2 3 4 5 6 
#
# 1 0.015377 -0.002364 -0.002924 0.000000 0.000000 0.000000
# 2 -0.002364 0.007871 -0.002857 0.000000 0.000000 0.000000
# 3 -0.002924 -0.002857 0.010021 0.000000 0.000000 0.000000
# 4 0.000000 0.000000 0.000000 0.044795 0.000000 0.000000
# 5 0.000000 0.000000 0.000000 0.000000 0.054561 0.000000
# 6 0.000000 0.000000 0.000000 0.000000 0.000000 0.037259
#
#
# Mechanical properties :
#
#
# Convention : Reuss Voigt Hill
#
# Bulk Modulus (GPa) = 58.90062 66.94529 62.92295
# Shear Modulus (GPa) = 26.06388 29.29189 27.67789
#
# Velocity S-wave (km/s) = 3.49736 3.70761 3.60402
# Velocity P-wave (km/s) = 6.62949 7.05303 6.84453
#
# Compressibility (1/GPa) = 0.01697775
#
# Stress axis : x y z
#
# Youngs Moduli (GPa) = 65.03205 127.04225 99.78658
#
# Poissons Ratio (x) = 0.30035 0.29182
# Poissons Ratio (y) = 0.15375 0.28514
# Poissons Ratio (z) = 0.19018 0.36302
#
# Static dielectric constant tensor:
#      x y z
#    x 3.698000 0.000000 0.000000 
#    y 0.000000 4.336570 0.000000 
#    z 0.000000 0.000000 3.831940 
# 
# 
# High freq. dielectric constant tensor:
#      x y z
#    x 1.801600 0.000000 0.000000 
#    y 0.000000 1.857920 0.000000 
#    z 0.000000 0.000000 1.838780 
# 
# From -- ./inp_files/4847.got.cif
#   From: 2010.03.12/outbox.cif.g09.slc.cpg/sg54_3_cif.got.tgz:4847.got - 2010.04.16 15:00:50.
