data_PCOD8222951
_publ_section_title
;
Structure prediction by ZEFSAII (Michael W. Deem and Ramdas Pophale) SiO2 
 PCOD8222951
Probable space group: P C C A
;
_chemical_formula_sum "Si O2"
_cell_formula_units_Z 64
_cell_length_a 16.609419
_cell_length_b 14.064747
_cell_length_c 13.201530
_cell_angle_alpha 90.000000
_cell_angle_beta 90.000000
_cell_angle_gamma 90.000000
_cell_volume 3083.973463
_symmetry_space_group_name_H-M "P C C A"
_symmetry_group_IT_number 54
_symmetry_cell_setting 'orthorhombic'
loop_
_space_group_symop_operation_xyz
x,y,z
1/2-x,-y,z
1/2+x,-y,1/2-z
-x,y,1/2-z
-x,-y,-z
1/2+x,y,-z
1/2-x,y,1/2+z
x,-y,1/2+z
loop_
_atom_site_type_symbol
_atom_site_label
_atom_site_fract_x
_atom_site_fract_y
_atom_site_fract_z
Si Si1 0.101967 0.252067 0.957300
Si Si2 0.371447 0.116523 0.857411
Si Si3 0.778994 0.243218 0.992601
Si Si4 0.079355 0.085320 0.816028
Si Si5 0.000667 0.261362 0.141442
Si Si6 0.970857 0.561652 0.135792
Si Si7 0.236729 0.107895 0.690987
Si Si8 0.599656 0.402336 0.518422
O O1 0.197703 0.253665 0.942972
O O2 0.061884 0.160969 0.904072
O O3 0.067723 0.339082 0.893401
O O4 0.084436 0.248630 0.079780
O O5 0.337469 0.166150 0.957113
O O6 0.456370 0.163790 0.827694
O O7 0.308310 0.129311 0.767907
O O8 0.390437 0.006809 0.877491
O O9 0.815613 0.352037 0.986677
O O10 0.758176 0.195380 0.886174
O O11 0.149887 0.119071 0.741982
O O12 0.000000 0.066197 0.750000
O O13 0.950267 0.313471 0.056353
O O14 0.000000 0.318320 0.250000
O O15 0.902773 0.481411 0.108452
O O16 0.000000 0.557013 0.250000
O O17 0.055158 0.546340 0.075433
O O18 0.250000 0.000000 0.646317
#
# Coordination Sequence:
#
# PCOD8222951 Si02
#       8
#     8   8   8   8   8   8   8   8
#     4  11  24  37  64  93 124 170 215 274 325 391
#     4  10  22  41  58  86 128 169 214 266 318 388
#     4  11  23  39  63  90 129 167 216 267 331 394
#     4  11  24  39  60  92 127 166 223 267 320 388
#     4  10  20  38  60  87 122 160 216 262 320 386
#     4  10  21  41  67  93 126 165 217 272 335 396
#     4  10  23  39  62  89 128 178 214 265 332 388
#     4   9  22  39  63  93 122 167 206 267 331 391
#
# _framework density 20.752447
#
# number of rings (size 3 to 8) (size 9 to 14) (size 15 to 20)
#    0.000    1.750    1.250    1.875    8.750    2.000 
#    0.000    0.000    0.000    4.500    0.000    0.000 
#    0.000    0.000    0.000    0.000    0.000    0.000 
#
# Total GULP energy -792866.999339 kJ/mol
# GULP energy per Si atom -12388.546865 kJ/mol
# Density = 2.070521 g / cm^3
# Si number density = 20.752447 Si / 1000 Ang^3
#
#
#
# Elastic Constant Matrix: (Units=GPa)
#
#
# Indices 1 2 3 4 5 6 
#
# 1 78.6977 40.1745 23.8499 0.0000 0.0000 0.0000
# 2 40.1745 118.8848 50.5100 0.0000 0.0000 0.0000
# 3 23.8499 50.5100 102.5622 0.0000 0.0000 0.0000
# 4 0.0000 0.0000 0.0000 31.6279 0.0000 0.0000
# 5 0.0000 0.0000 0.0000 0.0000 25.1014 0.0000
# 6 0.0000 0.0000 0.0000 0.0000 0.0000 31.6692
#
#
#
# Elastic Compliance Matrix: (Units=1/GPa)
#
#
# Indices 1 2 3 4 5 6 
#
# 1 0.015491 -0.004684 -0.001295 0.000000 0.000000 0.000000
# 2 -0.004684 0.012054 -0.004847 0.000000 0.000000 0.000000
# 3 -0.001295 -0.004847 0.012438 0.000000 0.000000 0.000000
# 4 0.000000 0.000000 0.000000 0.031618 0.000000 0.000000
# 5 0.000000 0.000000 0.000000 0.000000 0.039838 0.000000
# 6 0.000000 0.000000 0.000000 0.000000 0.000000 0.031576
#
#
# Mechanical properties :
#
#
# Convention : Reuss Voigt Hill
#
# Bulk Modulus (GPa) = 54.55625 58.80150 56.67887
# Shear Modulus (GPa) = 29.27766 30.05371 29.66569
#
# Velocity S-wave (km/s) = 3.76014 3.80965 3.78498
# Velocity P-wave (km/s) = 6.72292 6.90996 6.81708
#
# Compressibility (1/GPa) = 0.01832971
#
# Stress axis : x y z
#
# Youngs Moduli (GPa) = 64.55464 82.96128 80.39614
#
# Poissons Ratio (x) = 0.38863 0.10413
# Poissons Ratio (y) = 0.30240 0.38968
# Poissons Ratio (z) = 0.08361 0.40211
#
# Static dielectric constant tensor:
#      x y z
#    x 4.067230 0.000000 0.000000 
#    y 0.000000 3.868230 0.000000 
#    z 0.000000 0.000000 3.680710 
# 
# 
# High freq. dielectric constant tensor:
#      x y z
#    x 1.810130 0.000000 0.000000 
#    y 0.000000 1.814310 0.000000 
#    z 0.000000 0.000000 1.808220 
# 
# From -- ./inp_files/9068.got.cif
#   From: 2010.03.12/outbox.cif.g09.slc.cpg/sg54_5_cif.got.tgz:9068.got - 2010.04.16 15:00:50.
