data_PCOD8222006
_publ_section_title
;
Structure prediction by ZEFSAII (Michael W. Deem and Ramdas Pophale) SiO2 
 PCOD8222006
Probable space group: P M N A
;
_chemical_formula_sum "Si O2"
_cell_formula_units_Z 56
_cell_length_a 9.284730
_cell_length_b 19.082764
_cell_length_c 18.133349
_cell_angle_alpha 90.000000
_cell_angle_beta 90.000000
_cell_angle_gamma 90.000000
_cell_volume 3212.836156
_symmetry_space_group_name_H-M "P M N A"
_symmetry_group_IT_number 53
_symmetry_cell_setting 'orthorhombic'
loop_
_space_group_symop_operation_xyz
x,y,z
1/2-x,-y,1/2+z
x,-y,-z
1/2-x,y,1/2-z
-x,-y,-z
1/2+x,y,1/2-z
-x,y,z
1/2+x,-y,1/2+z
loop_
_atom_site_type_symbol
_atom_site_label
_atom_site_fract_x
_atom_site_fract_y
_atom_site_fract_z
Si Si1 0.670156 0.286192 0.957965
Si Si2 0.834342 0.084980 0.078256
Si Si3 0.667388 0.073060 0.591607
Si Si4 0.331631 0.641616 0.822769
Si Si5 0.671581 0.808941 0.174760
Si Si6 0.671440 0.574168 0.974332
Si Si7 0.168130 0.215000 0.395549
O O1 0.500000 0.286892 0.966183
O O2 0.717728 0.253818 0.880266
O O3 0.726388 0.366034 0.968255
O O4 0.729293 0.238397 0.024509
O O5 0.746408 0.142415 0.125381
O O6 0.000000 0.104676 0.085655
O O7 0.804837 0.008186 0.111589
O O8 0.787822 0.086567 0.992684
O O9 0.500000 0.092547 0.604804
O O10 0.770033 0.117435 0.644642
O O11 0.250000 0.615892 0.750000
O O12 0.500000 0.630729 0.809975
O O13 0.278277 0.594312 0.891662
O O14 0.296457 0.723474 0.837569
O O15 0.750000 0.789544 0.250000
O O16 0.500000 0.814074 0.185204
O O17 0.500000 0.570468 0.975572
O O18 0.738745 0.500000 0.000000
O O19 0.000000 0.199405 0.397936
#
# Coordination Sequence:
#
# PCOD8222006 Si02
#       7
#     8   8   8   8   8   8   8
#     4   8  15  28  46  69  94 121 160 203 237 278
#     4   9  17  29  48  72  96 121 154 204 252 291
#     4   9  18  32  47  68  97 125 159 201 248 299
#     4   9  18  31  49  74 103 131 161 200 243 290
#     4  11  21  33  49  68  95 131 167 209 252 291
#     4   8  14  28  52  77  99 128 166 201 234 281
#     4   9  16  29  48  70  95 124 163 204 236 283
#
# _framework density 17.430084000000001
#
# number of rings (size 3 to 8) (size 9 to 14) (size 15 to 20)
#    0.000    3.000    1.429    3.000    0.000    1.143 
#    0.000    2.857    0.000    2.143    0.000    0.000 
#    0.000    0.000    0.000    0.000    0.000    0.000 
#
# Total GULP energy -694087.550108 kJ/mol
# GULP energy per Si atom -12394.420538 kJ/mol
# Density = 1.739041 g / cm^3
# Si number density = 17.430084 Si / 1000 Ang^3
#
#
#
# Elastic Constant Matrix: (Units=GPa)
#
#
# Indices 1 2 3 4 5 6 
#
# 1 42.5523 36.6209 37.0565 0.0000 0.0000 0.0000
# 2 36.6209 130.3340 52.1771 0.0000 0.0000 0.0000
# 3 37.0565 52.1771 103.0218 0.0000 0.0000 0.0000
# 4 0.0000 0.0000 0.0000 20.4403 0.0000 0.0000
# 5 0.0000 0.0000 0.0000 0.0000 24.4188 0.0000
# 6 0.0000 0.0000 0.0000 0.0000 0.0000 13.6918
#
#
#
# Elastic Compliance Matrix: (Units=1/GPa)
#
#
# Indices 1 2 3 4 5 6 
#
# 1 0.038232 -0.006569 -0.010425 0.000000 0.000000 0.000000
# 2 -0.006569 0.010753 -0.003083 0.000000 0.000000 0.000000
# 3 -0.010425 -0.003083 0.015018 0.000000 0.000000 0.000000
# 4 0.000000 0.000000 0.000000 0.048923 0.000000 0.000000
# 5 0.000000 0.000000 0.000000 0.000000 0.040952 0.000000
# 6 0.000000 0.000000 0.000000 0.000000 0.000000 0.073036
#
#
# Mechanical properties :
#
#
# Convention : Reuss Voigt Hill
#
# Bulk Modulus (GPa) = 41.93063 58.62411 50.27737
# Shear Modulus (GPa) = 18.18065 21.71377 19.94721
#
# Velocity S-wave (km/s) = 3.23315 3.53337 3.38659
# Velocity P-wave (km/s) = 6.16817 7.09599 6.64829
#
# Compressibility (1/GPa) = 0.02384892
#
# Stress axis : x y z
#
# Youngs Moduli (GPa) = 26.15583 93.00127 66.58695
#
# Poissons Ratio (x) = 0.61092 0.69417
# Poissons Ratio (y) = 0.17182 0.20529
# Poissons Ratio (z) = 0.27268 0.28672
#
# Static dielectric constant tensor:
#      x y z
#    x 2.899920 0.000000 0.000000 
#    y 0.000000 3.480060 0.000000 
#    z 0.000000 0.000000 3.142730 
# 
# 
# High freq. dielectric constant tensor:
#      x y z
#    x 1.643960 0.000000 0.000000 
#    y 0.000000 1.674500 0.000000 
#    z 0.000000 0.000000 1.655490 
# 
# From -- ./inp_files/26709.got.cif
#   From: 2010.03.12/outbox.cif.g09.slc.cpg/sg53_14_cif.got.tgz:26709.got - 2010.04.16 14:36:59.
