data_PCOD8222991
_publ_section_title
;
Structure prediction by ZEFSAII (Michael W. Deem and Ramdas Pophale) SiO2 
 PCOD8222991
Probable space group: P C C A
;
_chemical_formula_sum "Si O2"
_cell_formula_units_Z 48
_cell_length_a 10.940879
_cell_length_b 22.334938
_cell_length_c 9.130530
_cell_angle_alpha 90.000000
_cell_angle_beta 90.000000
_cell_angle_gamma 90.000000
_cell_volume 2231.171501
_symmetry_space_group_name_H-M "P C C A"
_symmetry_group_IT_number 54
_symmetry_cell_setting 'orthorhombic'
loop_
_space_group_symop_operation_xyz
x,y,z
1/2-x,-y,z
1/2+x,-y,1/2-z
-x,y,1/2-z
-x,-y,-z
1/2+x,y,-z
1/2-x,y,1/2+z
x,-y,1/2+z
loop_
_atom_site_type_symbol
_atom_site_label
_atom_site_fract_x
_atom_site_fract_y
_atom_site_fract_z
Si Si1 0.750000 0.000000 0.369529
Si Si2 0.500000 0.049209 0.250000
Si Si3 0.862407 0.573368 0.293556
Si Si4 0.207676 0.775254 0.933996
Si Si5 0.861836 0.888926 0.002765
Si Si6 0.857965 0.292981 0.783031
Si Si7 0.750000 0.500000 0.541561
Si Si8 0.000000 0.173087 0.250000
O O1 0.623333 0.009722 0.277593
O O2 0.768070 0.057132 0.473371
O O3 0.471620 0.091166 0.389568
O O4 0.819322 0.640413 0.334984
O O5 0.849347 0.529480 0.432709
O O6 0.000000 0.574090 0.250000
O O7 0.795181 0.552705 0.146098
O O8 0.284741 0.721474 0.864348
O O9 0.080514 0.783169 0.849797
O O10 0.284830 0.836134 0.923715
O O11 0.179589 0.757025 0.099618
O O12 0.917204 0.869294 0.848864
O O13 0.000000 0.288432 0.750000
#
# Coordination Sequence:
#
# PCOD8222991 Si02
#       8
#     4   4   8   8   8   8   4   4
#     4  12  26  48  70 108 136 178 230 290 352 426
#     4  12  27  46  76 100 138 178 225 290 356 422
#     4  10  21  39  64  98 133 181 223 277 329 392
#     4  12  25  46  67  99 131 180 227 281 342 410
#     4  12  26  46  70 100 134 175 226 282 347 414
#     4  11  25  43  69  97 140 179 231 280 338 401
#     4  10  20  38  66  96 140 174 226 272 332 388
#     4  12  25  44  68  96 130 172 221 276 344 410
#
# _framework density 21.513362000000001
#
# number of rings (size 3 to 8) (size 9 to 14) (size 15 to 20)
#    0.000    0.667    1.667    6.000    3.500    0.000 
#    0.000    0.000    3.667    0.000    0.000    0.000 
#    0.000    0.000    0.000    0.000    0.000    0.000 
#
# Total GULP energy -595280.701838 kJ/mol
# GULP energy per Si atom -12401.681288 kJ/mol
# Density = 2.146440 g / cm^3
# Si number density = 21.513362 Si / 1000 Ang^3
#
#
#
# Elastic Constant Matrix: (Units=GPa)
#
#
# Indices 1 2 3 4 5 6 
#
# 1 100.9118 53.2056 31.8347 0.0000 0.0000 0.0000
# 2 53.2056 97.9755 33.0048 0.0000 0.0000 0.0000
# 3 31.8347 33.0048 104.9398 0.0000 0.0000 0.0000
# 4 0.0000 0.0000 0.0000 38.9162 0.0000 0.0000
# 5 0.0000 0.0000 0.0000 0.0000 34.3497 0.0000
# 6 0.0000 0.0000 0.0000 0.0000 0.0000 34.3392
#
#
#
# Elastic Compliance Matrix: (Units=1/GPa)
#
#
# Indices 1 2 3 4 5 6 
#
# 1 0.014295 -0.007049 -0.002120 0.000000 0.000000 0.000000
# 2 -0.007049 0.014892 -0.002545 0.000000 0.000000 0.000000
# 3 -0.002120 -0.002545 0.010973 0.000000 0.000000 0.000000
# 4 0.000000 0.000000 0.000000 0.025696 0.000000 0.000000
# 5 0.000000 0.000000 0.000000 0.000000 0.029112 0.000000
# 6 0.000000 0.000000 0.000000 0.000000 0.000000 0.029121
#
#
# Mechanical properties :
#
#
# Convention : Reuss Voigt Hill
#
# Bulk Modulus (GPa) = 59.76528 59.99081 59.87805
# Shear Modulus (GPa) = 32.65968 33.90648 33.28308
#
# Velocity S-wave (km/s) = 3.90052 3.97428 3.93757
# Velocity P-wave (km/s) = 6.93731 7.00041 6.96893
#
# Compressibility (1/GPa) = 0.01673212
#
# Stress axis : x y z
#
# Youngs Moduli (GPa) = 69.95578 67.15060 91.13435
#
# Poissons Ratio (x) = 0.47333 0.19317
# Poissons Ratio (y) = 0.49310 0.23197
# Poissons Ratio (z) = 0.14828 0.17092
#
# Static dielectric constant tensor:
#      x y z
#    x 3.708850 0.000000 0.000000 
#    y 0.000000 4.102900 0.000000 
#    z 0.000000 0.000000 4.049190 
# 
# 
# High freq. dielectric constant tensor:
#      x y z
#    x 1.849770 0.000000 0.000000 
#    y 0.000000 1.849760 0.000000 
#    z 0.000000 0.000000 1.856280 
# 
# From -- ./inp_files/3051.got.cif
#   From: 2010.03.12/outbox.cif.g09.slc.cpg/sg54_2_cif.got.tgz:3051.got - 2010.04.16 15:00:50.
