data_PCOD8222235
_publ_section_title
;
Structure prediction by ZEFSAII (Michael W. Deem and Ramdas Pophale) SiO2 
 PCOD8222235
Probable space group: P M N A
;
_chemical_formula_sum "Si O2"
_cell_formula_units_Z 48
_cell_length_a 10.080561
_cell_length_b 16.183874
_cell_length_c 18.741558
_cell_angle_alpha 90.000000
_cell_angle_beta 90.000000
_cell_angle_gamma 90.000000
_cell_volume 3057.545171
_symmetry_space_group_name_H-M "P M N A"
_symmetry_group_IT_number 53
_symmetry_cell_setting 'orthorhombic'
loop_
_space_group_symop_operation_xyz
x,y,z
1/2-x,-y,1/2+z
x,-y,-z
1/2-x,y,1/2-z
-x,-y,-z
1/2+x,y,1/2-z
-x,y,z
1/2+x,-y,1/2+z
loop_
_atom_site_type_symbol
_atom_site_label
_atom_site_fract_x
_atom_site_fract_y
_atom_site_fract_z
Si Si1 0.842338 0.583987 0.966812
Si Si2 0.352143 0.058523 0.104764
Si Si3 0.844982 0.637078 0.811989
Si Si4 0.648477 0.882410 0.057205
Si Si5 0.148184 0.244591 0.977911
Si Si6 0.854795 0.816849 0.861500
O O1 0.797547 0.592502 0.884713
O O2 0.000000 0.583926 0.968598
O O3 0.782265 0.500000 0.000000
O O4 0.794955 0.661999 0.014498
O O5 0.500000 0.068259 0.136557
O O6 0.252081 0.111163 0.154166
O O7 0.309884 0.962084 0.104320
O O8 0.349860 0.092991 0.025114
O O9 0.750000 0.601621 0.750000
O O10 0.819094 0.735022 0.817493
O O11 0.000000 0.618760 0.795507
O O12 0.500000 0.853230 0.078227
O O13 0.752197 0.808209 0.071965
O O14 0.000000 0.243683 0.943950
O O15 0.141381 0.204908 0.055546
O O16 0.000000 0.849783 0.838623
#
# Coordination Sequence:
#
# PCOD8222235 Si02
#       6
#     8   8   8   8   8   8
#     4   8  14  26  43  60  79 105 137 172 209 250
#     4   8  13  20  30  45  66  95 127 151 176 216
#     4   9  17  28  42  60  81 106 135 166 202 245
#     4   8  13  20  29  44  69  97 122 150 184 221
#     4   8  13  21  34  51  69  93 126 158 190 231
#     4   8  14  23  33  48  71  96 123 155 187 220
#
# _framework density 15.698867999999999
#
# number of rings (size 3 to 8) (size 9 to 14) (size 15 to 20)
#    0.000    3.833    0.000    3.000    0.000    1.333 
#    0.000    5.833    0.000    2.000    0.000    0.000 
#    0.000    1.333    0.000    9.333    0.000   13.667 
#
# Total GULP energy -594706.200685 kJ/mol
# GULP energy per Si atom -12389.712514 kJ/mol
# Density = 1.566314 g / cm^3
# Si number density = 15.698868 Si / 1000 Ang^3
#
#
#
# Elastic Constant Matrix: (Units=GPa)
#
#
# Indices 1 2 3 4 5 6 
#
# 1 79.5885 60.8909 27.5986 0.0000 0.0000 0.0000
# 2 60.8909 112.7437 29.0821 0.0000 0.0000 0.0000
# 3 27.5986 29.0821 30.8001 0.0000 0.0000 0.0000
# 4 0.0000 0.0000 0.0000 11.4633 0.0000 0.0000
# 5 0.0000 0.0000 0.0000 0.0000 14.4195 0.0000
# 6 0.0000 0.0000 0.0000 0.0000 0.0000 14.9188
#
#
#
# Elastic Compliance Matrix: (Units=1/GPa)
#
#
# Indices 1 2 3 4 5 6 
#
# 1 0.024611 -0.010052 -0.012562 0.000000 0.000000 0.000000
# 2 -0.010052 0.015831 -0.005941 0.000000 0.000000 0.000000
# 3 -0.012562 -0.005941 0.049333 0.000000 0.000000 0.000000
# 4 0.000000 0.000000 0.000000 0.087235 0.000000 0.000000
# 5 0.000000 0.000000 0.000000 0.000000 0.069351 0.000000
# 6 0.000000 0.000000 0.000000 0.000000 0.000000 0.067029
#
#
# Mechanical properties :
#
#
# Convention : Reuss Voigt Hill
#
# Bulk Modulus (GPa) = 30.61284 50.91952 40.76618
# Shear Modulus (GPa) = 13.11002 15.19769 14.15385
#
# Velocity S-wave (km/s) = 2.89293 3.11477 3.00590
# Velocity P-wave (km/s) = 5.54086 6.74101 6.17019
#
# Compressibility (1/GPa) = 0.03266603
#
# Stress axis : x y z
#
# Youngs Moduli (GPa) = 40.63256 63.16781 20.27033
#
# Poissons Ratio (x) = 0.63494 0.25463
# Poissons Ratio (y) = 0.40842 0.12043
# Poissons Ratio (z) = 0.51042 0.37528
#
# Static dielectric constant tensor:
#      x y z
#    x 3.193430 0.000000 0.000000 
#    y 0.000000 3.229600 0.000000 
#    z 0.000000 0.000000 2.515200 
# 
# 
# High freq. dielectric constant tensor:
#      x y z
#    x 1.595000 0.000000 0.000000 
#    y 0.000000 1.591350 0.000000 
#    z 0.000000 0.000000 1.542300 
# 
# From -- ./inp_files/30947.got.cif
#   From: 2010.03.12/outbox.cif.g09.slc.cpg/sg53_16_cif.got.tgz:30947.got - 2010.04.16 14:36:59.
