data_PCOD8222014
_publ_section_title
;
Structure prediction by ZEFSAII (Michael W. Deem and Ramdas Pophale) SiO2 
 PCOD8222014
Probable space group: P M N A
;
_chemical_formula_sum "Si O2"
_cell_formula_units_Z 64
_cell_length_a 8.844134
_cell_length_b 20.366369
_cell_length_c 19.111280
_cell_angle_alpha 90.000000
_cell_angle_beta 90.000000
_cell_angle_gamma 90.000000
_cell_volume 3442.379110
_symmetry_space_group_name_H-M "P M N A"
_symmetry_group_IT_number 53
_symmetry_cell_setting 'orthorhombic'
loop_
_space_group_symop_operation_xyz
x,y,z
1/2-x,-y,1/2+z
x,-y,-z
1/2-x,y,1/2-z
-x,-y,-z
1/2+x,y,1/2-z
-x,y,z
1/2+x,-y,1/2+z
loop_
_atom_site_type_symbol
_atom_site_label
_atom_site_fract_x
_atom_site_fract_y
_atom_site_fract_z
Si Si1 0.676892 0.629008 0.174837
Si Si2 0.822236 0.357789 0.173968
Si Si3 0.179622 0.742200 0.423889
Si Si4 0.673909 0.253631 0.079975
Si Si5 0.172603 0.101411 0.427844
Si Si6 0.322042 0.111545 0.911186
Si Si7 0.677863 0.001476 0.325280
Si Si8 0.176769 0.485028 0.325616
O O1 0.750000 0.636454 0.250000
O O2 0.500000 0.640525 0.184826
O O3 0.747379 0.684654 0.124557
O O4 0.706433 0.556855 0.140018
O O5 0.750000 0.352222 0.250000
O O6 0.780015 0.292628 0.132519
O O7 0.756920 0.423694 0.134869
O O8 0.000000 0.363712 0.180686
O O9 0.235887 0.730231 0.502653
O O10 0.231845 0.813697 0.396860
O O11 0.000000 0.741015 0.425325
O O12 0.500000 0.275645 0.089415
O O13 0.690693 0.176640 0.095148
O O14 0.218065 0.091512 0.509050
O O15 0.000000 0.078016 0.416966
O O16 0.280582 0.058947 0.379138
O O17 0.500000 0.103496 0.898443
O O18 0.233257 0.067610 0.856006
O O19 0.750000 0.015540 0.250000
O O20 0.500000 0.999250 0.315526
O O21 0.250000 0.488949 0.250000
O O22 0.000000 0.469953 0.319930
#
# Coordination Sequence:
#
# PCOD8222014 Si02
#       8
#     8   8   8   8   8   8   8   8
#     4   9  17  30  50  76 103 133 171 212 254 300
#     4  11  21  33  51  74 101 133 170 213 258 306
#     4   8  16  33  56  79 104 136 172 208 249 302
#     4   9  18  35  57  78 102 134 171 209 251 302
#     4   9  19  37  60  81 103 136 173 209 254 309
#     4   9  18  36  60  81 105 138 173 209 253 308
#     4  12  25  38  54  78 109 140 172 215 259 301
#     4   9  16  28  47  70  98 132 170 211 252 299
#
# _framework density 18.591792000000002
#
# number of rings (size 3 to 8) (size 9 to 14) (size 15 to 20)
#    0.000    2.500    0.000    5.250    0.000    4.000 
#    0.000    5.000    0.000    3.750    0.000    0.000 
#    0.000    0.000    0.000    0.000    0.000    0.000 
#
# Total GULP energy -793320.629870 kJ/mol
# GULP energy per Si atom -12395.634842 kJ/mol
# Density = 1.854948 g / cm^3
# Si number density = 18.591792 Si / 1000 Ang^3
#
#
#
# Elastic Constant Matrix: (Units=GPa)
#
#
# Indices 1 2 3 4 5 6 
#
# 1 90.6198 35.2436 29.2479 0.0000 0.0000 0.0000
# 2 35.2436 94.7540 35.6084 0.0000 0.0000 0.0000
# 3 29.2479 35.6084 56.9733 0.0000 0.0000 0.0000
# 4 0.0000 0.0000 0.0000 30.7566 0.0000 0.0000
# 5 0.0000 0.0000 0.0000 0.0000 24.2507 0.0000
# 6 0.0000 0.0000 0.0000 0.0000 0.0000 26.1403
#
#
#
# Elastic Compliance Matrix: (Units=1/GPa)
#
#
# Indices 1 2 3 4 5 6 
#
# 1 0.013960 -0.003266 -0.005125 0.000000 0.000000 0.000000
# 2 -0.003266 0.014558 -0.007422 0.000000 0.000000 0.000000
# 3 -0.005125 -0.007422 0.024822 0.000000 0.000000 0.000000
# 4 0.000000 0.000000 0.000000 0.032513 0.000000 0.000000
# 5 0.000000 0.000000 0.000000 0.000000 0.041236 0.000000
# 6 0.000000 0.000000 0.000000 0.000000 0.000000 0.038255
#
#
# Mechanical properties :
#
#
# Convention : Reuss Voigt Hill
#
# Bulk Modulus (GPa) = 46.05548 49.17189 47.61369
# Shear Modulus (GPa) = 24.48500 25.71264 25.09882
#
# Velocity S-wave (km/s) = 3.63296 3.72292 3.67821
# Velocity P-wave (km/s) = 6.51334 6.70714 6.61095
#
# Compressibility (1/GPa) = 0.02171294
#
# Stress axis : x y z
#
# Youngs Moduli (GPa) = 71.63579 68.69253 40.28752
#
# Poissons Ratio (x) = 0.22437 0.20647
# Poissons Ratio (y) = 0.23399 0.29900
# Poissons Ratio (z) = 0.36712 0.50982
#
# Static dielectric constant tensor:
#      x y z
#    x 3.245360 0.000000 0.000000 
#    y 0.000000 3.983690 0.000000 
#    z 0.000000 0.000000 3.291820 
# 
# 
# High freq. dielectric constant tensor:
#      x y z
#    x 1.707000 0.000000 0.000000 
#    y 0.000000 1.741840 0.000000 
#    z 0.000000 0.000000 1.698730 
# 
# From -- ./inp_files/26972.got.cif
#   From: 2010.03.12/outbox.cif.g09.slc.cpg/sg53_14_cif.got.tgz:26972.got - 2010.04.16 14:36:59.
