data_PCOD8222355
_publ_section_title
;
Structure prediction by ZEFSAII (Michael W. Deem and Ramdas Pophale) SiO2 
 PCOD8222355
Probable space group: P C C A
;
_chemical_formula_sum "Si O2"
_cell_formula_units_Z 48
_cell_length_a 17.783358
_cell_length_b 8.006920
_cell_length_c 17.043918
_cell_angle_alpha 90.000000
_cell_angle_beta 90.000000
_cell_angle_gamma 90.000000
_cell_volume 2426.882203
_symmetry_space_group_name_H-M "P C C A"
_symmetry_group_IT_number 54
_symmetry_cell_setting 'orthorhombic'
loop_
_space_group_symop_operation_xyz
x,y,z
1/2-x,-y,z
1/2+x,-y,1/2-z
-x,y,1/2-z
-x,-y,-z
1/2+x,y,-z
1/2-x,y,1/2+z
x,-y,1/2+z
loop_
_atom_site_type_symbol
_atom_site_label
_atom_site_fract_x
_atom_site_fract_y
_atom_site_fract_z
Si Si1 0.891460 0.671035 0.192285
Si Si2 0.140262 0.881783 0.157754
Si Si3 0.000000 0.605538 0.750000
Si Si4 0.943478 0.348874 0.410496
Si Si5 0.799627 0.756722 0.846673
Si Si6 0.250000 0.500000 0.778195
Si Si7 0.489260 0.728763 0.568380
O O1 0.888487 0.805779 0.261099
O O2 0.931157 0.508175 0.224804
O O3 0.807393 0.608602 0.168372
O O4 0.934474 0.751468 0.118766
O O5 0.214263 0.786521 0.123922
O O6 0.073860 0.864474 0.092936
O O7 0.160949 0.070555 0.178470
O O8 0.025835 0.715619 0.674620
O O9 0.853309 0.317783 0.415329
O O10 0.988036 0.247208 0.477594
O O11 0.955453 0.546012 0.417844
O O12 0.798497 0.627734 0.774753
#
# Coordination Sequence:
#
# PCOD8222355 Si02
#       7
#     8   8   4   8   8   4   8
#     4  10  17  34  55  78 111 147 183 235 280 333
#     4  10  19  34  55  79 110 151 186 226 283 344
#     4  10  16  34  56  80 106 144 190 240 270 328
#     4  10  19  35  56  80 107 144 190 232 280 336
#     4  10  20  33  57  79 106 148 192 224 280 344
#     4  10  18  34  58  80 110 146 194 238 276 338
#     4  10  20  35  55  83 114 146 184 237 290 336
#
# _framework density 19.778462999999999
#
# number of rings (size 3 to 8) (size 9 to 14) (size 15 to 20)
#    0.000    2.000    5.000    1.000    0.000    0.667 
#    3.000    5.833    0.000    4.000    0.000    0.000 
#    0.000    0.000    0.000    0.000    0.000    0.000 
#
# Total GULP energy -594816.263474 kJ/mol
# GULP energy per Si atom -12392.005489 kJ/mol
# Density = 1.973345 g / cm^3
# Si number density = 19.778463 Si / 1000 Ang^3
#
#
#
# Elastic Constant Matrix: (Units=GPa)
#
#
# Indices 1 2 3 4 5 6 
#
# 1 115.7440 26.7810 54.9091 0.0000 0.0000 0.0000
# 2 26.7810 44.4737 19.9138 0.0000 0.0000 0.0000
# 3 54.9091 19.9138 119.5447 0.0000 0.0000 0.0000
# 4 0.0000 0.0000 0.0000 20.5145 0.0000 0.0000
# 5 0.0000 0.0000 0.0000 0.0000 28.6749 0.0000
# 6 0.0000 0.0000 0.0000 0.0000 0.0000 24.8397
#
#
#
# Elastic Compliance Matrix: (Units=1/GPa)
#
#
# Indices 1 2 3 4 5 6 
#
# 1 0.012053 -0.005164 -0.004676 0.000000 0.000000 0.000000
# 2 -0.005164 0.026510 -0.002044 0.000000 0.000000 0.000000
# 3 -0.004676 -0.002044 0.010853 0.000000 0.000000 0.000000
# 4 0.000000 0.000000 0.000000 0.048746 0.000000 0.000000
# 5 0.000000 0.000000 0.000000 0.000000 0.034874 0.000000
# 6 0.000000 0.000000 0.000000 0.000000 0.000000 0.040258
#
#
# Mechanical properties :
#
#
# Convention : Reuss Voigt Hill
#
# Bulk Modulus (GPa) = 38.98928 53.66335 46.32632
# Shear Modulus (GPa) = 24.31764 26.68304 25.50034
#
# Velocity S-wave (km/s) = 3.51023 3.67699 3.59458
# Velocity P-wave (km/s) = 6.01537 6.72444 6.37977
#
# Compressibility (1/GPa) = 0.02564808
#
# Stress axis : x y z
#
# Youngs Moduli (GPa) = 82.96752 37.72126 92.13809
#
# Poissons Ratio (x) = 0.19480 0.43082
# Poissons Ratio (y) = 0.42847 0.18833
# Poissons Ratio (z) = 0.38794 0.07710
#
# Static dielectric constant tensor:
#      x y z
#    x 4.028030 0.000000 0.000000 
#    y 0.000000 3.492680 0.000000 
#    z 0.000000 0.000000 3.492790 
# 
# 
# High freq. dielectric constant tensor:
#      x y z
#    x 1.793690 0.000000 0.000000 
#    y 0.000000 1.756360 0.000000 
#    z 0.000000 0.000000 1.730890 
# 
# From -- ./inp_files/18542.got.cif
#   From: 2010.03.12/outbox.cif.g09.slc.cpg/sg54_10_cif.got.tgz:18542.got - 2010.04.16 15:00:50.
