data_PCOD8222492
_publ_section_title
;
Structure prediction by ZEFSAII (Michael W. Deem and Ramdas Pophale) SiO2 
 PCOD8222492
Probable space group: P C C A
;
_chemical_formula_sum "Si O2"
_cell_formula_units_Z 64
_cell_length_a 24.056293
_cell_length_b 11.658003
_cell_length_c 12.233921
_cell_angle_alpha 90.000000
_cell_angle_beta 90.000000
_cell_angle_gamma 90.000000
_cell_volume 3430.982787
_symmetry_space_group_name_H-M "P C C A"
_symmetry_group_IT_number 54
_symmetry_cell_setting 'orthorhombic'
loop_
_space_group_symop_operation_xyz
x,y,z
1/2-x,-y,z
1/2+x,-y,1/2-z
-x,y,1/2-z
-x,-y,-z
1/2+x,y,-z
1/2-x,y,1/2+z
x,-y,1/2+z
loop_
_atom_site_type_symbol
_atom_site_label
_atom_site_fract_x
_atom_site_fract_y
_atom_site_fract_z
Si Si1 0.318636 0.100721 0.410250
Si Si2 0.140357 0.854763 0.172907
Si Si3 0.495454 0.768400 0.437046
Si Si4 0.598634 0.093451 0.903476
Si Si5 0.047642 0.315036 0.660791
Si Si6 0.613159 0.749395 0.204195
Si Si7 0.947086 0.568671 0.824066
Si Si8 0.201161 0.163464 0.458192
O O1 0.328356 0.109525 0.281795
O O2 0.370099 0.136449 0.486751
O O3 0.266884 0.183970 0.441420
O O4 0.308300 0.968202 0.431425
O O5 0.100570 0.750953 0.208239
O O6 0.105435 0.958737 0.119376
O O7 0.185169 0.811013 0.083795
O O8 0.533369 0.881350 0.422309
O O9 0.471648 0.757560 0.557210
O O10 0.445192 0.782521 0.352423
O O11 0.535396 0.658358 0.417677
O O12 0.624351 0.160428 0.800339
O O13 0.067805 0.443717 0.626923
O O14 0.000000 0.316549 0.750000
O O15 0.604818 0.621221 0.254513
O O16 0.664439 0.753542 0.119983
O O17 0.000000 0.547674 0.750000
#
# Coordination Sequence:
#
# PCOD8222492 Si02
#       8
#     8   8   8   8   8   8   8   8
#     4  10  22  36  56  83 113 144 188 240 280 335
#     4  11  22  36  52  85 116 145 188 225 287 348
#     4  10  19  35  56  80 116 151 190 226 276 347
#     4  10  21  35  55  85 118 150 183 225 288 340
#     4  11  21  33  51  82 118 151 184 229 285 331
#     4  10  18  37  58  83 106 148 196 226 278 342
#     4   8  18  33  55  79 105 146 192 230 266 327
#     4  10  21  36  58  79 106 150 189 234 280 334
#
# _framework density 18.653549000000002
#
# number of rings (size 3 to 8) (size 9 to 14) (size 15 to 20)
#    0.000    2.000    2.500    2.250    1.750    2.500 
#    0.000    0.000    0.000    0.750    0.000    0.000 
#    0.000    0.000    0.000    0.000    0.000    0.000 
#
# Total GULP energy -793395.616381 kJ/mol
# GULP energy per Si atom -12396.806506 kJ/mol
# Density = 1.861109 g / cm^3
# Si number density = 18.653549 Si / 1000 Ang^3
#
#
#
# Elastic Constant Matrix: (Units=GPa)
#
#
# Indices 1 2 3 4 5 6 
#
# 1 83.9496 26.0427 18.1493 0.0000 0.0000 0.0000
# 2 26.0427 57.5451 4.0661 0.0000 0.0000 0.0000
# 3 18.1493 4.0661 92.4518 0.0000 0.0000 0.0000
# 4 0.0000 0.0000 0.0000 25.0367 0.0000 0.0000
# 5 0.0000 0.0000 0.0000 0.0000 21.1076 0.0000
# 6 0.0000 0.0000 0.0000 0.0000 0.0000 -11.2283
#
#
#
# Elastic Compliance Matrix: (Units=1/GPa)
#
#
# Indices 1 2 3 4 5 6 
#
# 1 0.014435 -0.006352 -0.002554 0.000000 0.000000 0.000000
# 2 -0.006352 0.020227 0.000357 0.000000 0.000000 0.000000
# 3 -0.002554 0.000357 0.011302 0.000000 0.000000 0.000000
# 4 0.000000 0.000000 0.000000 0.039941 0.000000 0.000000
# 5 0.000000 0.000000 0.000000 0.000000 0.047376 0.000000
# 6 0.000000 0.000000 0.000000 0.000000 0.000000 -0.089061
#
#
# Mechanical properties :
#
#
# Convention : Reuss Voigt Hill
#
# Bulk Modulus (GPa) = 34.64292 36.71808 35.68050
# Shear Modulus (GPa) = 70.48112 19.36243 44.92177
#
# Velocity S-wave (km/s) = 6.15356 3.22530 4.91268
# Velocity P-wave (km/s) = 8.31267 5.79630 7.16581
#
# Compressibility (1/GPa) = 0.02886593
#
# Stress axis : x y z
#
# Youngs Moduli (GPa) = 69.27762 49.43850 88.47861
#
# Poissons Ratio (x) = 0.31404 0.22600
# Poissons Ratio (y) = 0.44006 -0.03162
# Poissons Ratio (z) = 0.17696 -0.01767
#
# Static dielectric constant tensor:
#      x y z
#    x 3.526200 0.000000 0.000000 
#    y 0.000000 3.428350 0.000000 
#    z 0.000000 0.000000 3.861850 
# 
# 
# High freq. dielectric constant tensor:
#      x y z
#    x 1.709090 0.000000 0.000000 
#    y 0.000000 1.700800 0.000000 
#    z 0.000000 0.000000 1.735470 
# 
# From -- ./inp_files/10068.got.cif
#   From: 2010.03.12/outbox.cif.g09.slc.cpg/sg54_6_cif.got.tgz:10068.got - 2010.04.16 15:00:50.
