data_PCOD8222828
_publ_section_title
;
Structure prediction by ZEFSAII (Michael W. Deem and Ramdas Pophale) SiO2 
 PCOD8222828
Probable space group: P C C A
;
_chemical_formula_sum "Si O2"
_cell_formula_units_Z 48
_cell_length_a 15.419714
_cell_length_b 9.066499
_cell_length_c 18.041358
_cell_angle_alpha 90.000000
_cell_angle_beta 90.000000
_cell_angle_gamma 90.000000
_cell_volume 2522.232753
_symmetry_space_group_name_H-M "P C C A"
_symmetry_group_IT_number 54
_symmetry_cell_setting 'orthorhombic'
loop_
_space_group_symop_operation_xyz
x,y,z
1/2-x,-y,z
1/2+x,-y,1/2-z
-x,y,1/2-z
-x,-y,-z
1/2+x,y,-z
1/2-x,y,1/2+z
x,-y,1/2+z
loop_
_atom_site_type_symbol
_atom_site_label
_atom_site_fract_x
_atom_site_fract_y
_atom_site_fract_z
Si Si1 0.505078 0.241252 0.501375
Si Si2 0.813919 0.287137 0.768512
Si Si3 0.000000 0.844266 0.250000
Si Si4 0.750000 0.500000 0.894969
Si Si5 0.750000 0.000000 0.331352
Si Si6 0.750000 0.500000 0.149119
Si Si7 0.120709 0.473989 0.975913
Si Si8 0.061843 0.996415 0.608041
O O1 0.558591 0.387297 0.516834
O O2 0.421748 0.313105 0.460325
O O3 0.556961 0.130090 0.449831
O O4 0.478907 0.154486 0.576506
O O5 0.797064 0.377494 0.844275
O O6 0.765977 0.358779 0.699547
O O7 0.916180 0.263552 0.751331
O O8 0.765873 0.133468 0.776116
O O9 0.992807 0.955066 0.319834
O O10 0.824358 0.559430 0.949683
O O11 0.835728 0.028634 0.380165
O O12 0.830692 0.472501 0.096795
#
# Coordination Sequence:
#
# PCOD8222828 Si02
#       8
#     8   8   4   4   4   4   8   8
#     4  10  21  36  56  82 111 144 182 224 271 323
#     4  10  21  37  57  81 109 143 183 226 273 324
#     4  10  20  36  58  82 112 146 182 228 274 322
#     4  10  20  36  58  82 110 148 184 216 270 338
#     4  10  20  36  58  78 108 148 184 220 270 332
#     4  10  22  36  54  82 110 138 180 230 274 316
#     4  10  20  36  56  80 112 145 179 223 272 324
#     4  10  21  37  57  82 110 144 185 225 270 323
#
# _framework density 19.030756
#
# number of rings (size 3 to 8) (size 9 to 14) (size 15 to 20)
#    0.000    2.000    0.000    4.000    0.000    5.333 
#    0.000    0.000    0.000    6.000    0.000    0.000 
#    0.000    0.000    0.000    0.000    0.000    0.000 
#
# Total GULP energy -594721.181288 kJ/mol
# GULP energy per Si atom -12390.024610 kJ/mol
# Density = 1.898744 g / cm^3
# Si number density = 19.030756 Si / 1000 Ang^3
#
#
#
# Elastic Constant Matrix: (Units=GPa)
#
#
# Indices 1 2 3 4 5 6 
#
# 1 125.1626 57.0429 55.9662 0.0000 0.0000 0.0000
# 2 57.0429 103.4357 44.2041 0.0000 0.0000 0.0000
# 3 55.9662 44.2041 117.9849 0.0000 0.0000 0.0000
# 4 0.0000 0.0000 0.0000 26.5539 0.0000 0.0000
# 5 0.0000 0.0000 0.0000 0.0000 31.6386 0.0000
# 6 0.0000 0.0000 0.0000 0.0000 0.0000 32.9677
#
#
#
# Elastic Compliance Matrix: (Units=1/GPa)
#
#
# Indices 1 2 3 4 5 6 
#
# 1 0.011957 -0.004965 -0.003811 0.000000 0.000000 0.000000
# 2 -0.004965 0.013573 -0.002730 0.000000 0.000000 0.000000
# 3 -0.003811 -0.002730 0.011306 0.000000 0.000000 0.000000
# 4 0.000000 0.000000 0.000000 0.037659 0.000000 0.000000
# 5 0.000000 0.000000 0.000000 0.000000 0.031607 0.000000
# 6 0.000000 0.000000 0.000000 0.000000 0.000000 0.030333
#
#
# Mechanical properties :
#
#
# Convention : Reuss Voigt Hill
#
# Bulk Modulus (GPa) = 72.34389 73.44551 72.89470
# Shear Modulus (GPa) = 30.47754 30.85671 30.66713
#
# Velocity S-wave (km/s) = 4.00620 4.03105 4.01864
# Velocity P-wave (km/s) = 7.71338 7.76805 7.74076
#
# Compressibility (1/GPa) = 0.01382287
#
# Stress axis : x y z
#
# Youngs Moduli (GPa) = 83.63497 73.67774 88.44518
#
# Poissons Ratio (x) = 0.36581 0.33711
# Poissons Ratio (y) = 0.41525 0.24145
# Poissons Ratio (z) = 0.31877 0.20114
#
# Static dielectric constant tensor:
#      x y z
#    x 4.494520 0.000000 0.000000 
#    y 0.000000 3.658530 0.000000 
#    z 0.000000 0.000000 3.614390 
# 
# 
# High freq. dielectric constant tensor:
#      x y z
#    x 1.749110 0.000000 0.000000 
#    y 0.000000 1.746760 0.000000 
#    z 0.000000 0.000000 1.742360 
# 
# From -- ./inp_files/18565.got.cif
#   From: 2010.03.12/outbox.cif.g09.slc.cpg/sg54_10_cif.got.tgz:18565.got - 2010.04.16 15:00:50.
