data_PCOD8222943
_publ_section_title
;
Structure prediction by ZEFSAII (Michael W. Deem and Ramdas Pophale) SiO2 
 PCOD8222943
Probable space group: P C C A
;
_chemical_formula_sum "Si O2"
_cell_formula_units_Z 32
_cell_length_a 8.413435
_cell_length_b 5.343536
_cell_length_c 33.231020
_cell_angle_alpha 90.000000
_cell_angle_beta 90.000000
_cell_angle_gamma 90.000000
_cell_volume 1493.983343
_symmetry_space_group_name_H-M "P C C A"
_symmetry_group_IT_number 54
_symmetry_cell_setting 'orthorhombic'
loop_
_space_group_symop_operation_xyz
x,y,z
1/2-x,-y,z
1/2+x,-y,1/2-z
-x,y,1/2-z
-x,-y,-z
1/2+x,y,-z
1/2-x,y,1/2+z
x,-y,1/2+z
loop_
_atom_site_type_symbol
_atom_site_label
_atom_site_fract_x
_atom_site_fract_y
_atom_site_fract_z
Si Si1 0.561008 0.005006 0.585997
Si Si2 0.937905 0.509238 0.455102
Si Si3 0.574240 0.108447 0.174533
Si Si4 0.500000 0.838811 0.250000
Si Si5 0.750000 0.500000 0.713957
O O1 0.492494 0.779417 0.560113
O O2 0.497899 0.951791 0.631297
O O3 0.750000 0.000000 0.583825
O O4 0.503780 0.276649 0.570915
O O5 0.750000 0.500000 0.454318
O O6 0.000000 0.500000 0.500000
O O7 0.607633 0.400105 0.184646
O O8 0.750000 0.000000 0.176875
O O9 0.464335 0.002015 0.210095
O O10 0.335721 0.691346 0.256109
#
# Coordination Sequence:
#
# PCOD8222943 Si02
#       5
#     8   8   8   4   4
#     4  11  24  43  73 102 133 180 228 280 336 406
#     4  12  26  47  70 102 139 176 220 278 343 410
#     4   9  21  37  62  91 127 170 228 265 330 392
#     4  10  20  38  58  96 122 176 216 274 316 396
#     4  10  20  38  64  86 130 168 228 268 330 388
#
# _framework density 21.419249000000001
#
# number of rings (size 3 to 8) (size 9 to 14) (size 15 to 20)
#    0.000    1.500    0.000    4.500   10.500    0.000 
#    2.250    7.500    0.000    0.000    0.000    0.000 
#    0.000    0.000    0.000    0.000    0.000    0.000 
#
# Total GULP energy -396506.223557 kJ/mol
# GULP energy per Si atom -12390.819486 kJ/mol
# Density = 2.137050 g / cm^3
# Si number density = 21.419249 Si / 1000 Ang^3
#
#
#
# Elastic Constant Matrix: (Units=GPa)
#
#
# Indices 1 2 3 4 5 6 
#
# 1 86.5254 19.9118 29.8560 0.0000 0.0000 0.0000
# 2 19.9118 98.3176 28.5836 0.0000 0.0000 0.0000
# 3 29.8560 28.5836 156.8599 0.0000 0.0000 0.0000
# 4 0.0000 0.0000 0.0000 9.1812 0.0000 0.0000
# 5 0.0000 0.0000 0.0000 0.0000 33.6772 0.0000
# 6 0.0000 0.0000 0.0000 0.0000 0.0000 38.6591
#
#
#
# Elastic Compliance Matrix: (Units=1/GPa)
#
#
# Indices 1 2 3 4 5 6 
#
# 1 0.012724 -0.001978 -0.002061 0.000000 0.000000 0.000000
# 2 -0.001978 0.011047 -0.001637 0.000000 0.000000 0.000000
# 3 -0.002061 -0.001637 0.007066 0.000000 0.000000 0.000000
# 4 0.000000 0.000000 0.000000 0.108918 0.000000 0.000000
# 5 0.000000 0.000000 0.000000 0.000000 0.029694 0.000000
# 6 0.000000 0.000000 0.000000 0.000000 0.000000 0.025867
#
#
# Mechanical properties :
#
#
# Convention : Reuss Voigt Hill
#
# Bulk Modulus (GPa) = 51.32019 55.37841 53.34930
# Shear Modulus (GPa) = 23.45629 33.86027 28.65828
#
# Velocity S-wave (km/s) = 3.31282 3.98028 3.66179
# Velocity P-wave (km/s) = 6.21651 6.85815 6.54519
#
# Compressibility (1/GPa) = 0.01948551
#
# Stress axis : x y z
#
# Youngs Moduli (GPa) = 78.59352 90.51859 141.52828
#
# Poissons Ratio (x) = 0.17901 0.29175
# Poissons Ratio (y) = 0.15542 0.23164
# Poissons Ratio (z) = 0.16201 0.14815
#
# Static dielectric constant tensor:
#      x y z
#    x 3.994870 0.000000 0.000000 
#    y 0.000000 5.399110 0.000000 
#    z 0.000000 0.000000 4.391550 
# 
# 
# High freq. dielectric constant tensor:
#      x y z
#    x 1.826800 0.000000 0.000000 
#    y 0.000000 1.859700 0.000000 
#    z 0.000000 0.000000 1.852640 
# 
# From -- ./inp_files/27412.got.cif
#   From: 2010.03.12/outbox.cif.g09.slc.cpg/sg54_14_cif.got.tgz:27412.got - 2010.04.16 15:00:50.
