data_PCOD8222797
_publ_section_title
;
Structure prediction by ZEFSAII (Michael W. Deem and Ramdas Pophale) SiO2 
 PCOD8222797
Probable space group: P C C A
;
_chemical_formula_sum "Si O2"
_cell_formula_units_Z 60
_cell_length_a 26.650001
_cell_length_b 13.610569
_cell_length_c 9.196281
_cell_angle_alpha 90.000000
_cell_angle_beta 90.000000
_cell_angle_gamma 90.000000
_cell_volume 3335.690471
_symmetry_space_group_name_H-M "P C C A"
_symmetry_group_IT_number 54
_symmetry_cell_setting 'orthorhombic'
loop_
_space_group_symop_operation_xyz
x,y,z
1/2-x,-y,z
1/2+x,-y,1/2-z
-x,y,1/2-z
-x,-y,-z
1/2+x,y,-z
1/2-x,y,1/2+z
x,-y,1/2+z
loop_
_atom_site_type_symbol
_atom_site_label
_atom_site_fract_x
_atom_site_fract_y
_atom_site_fract_z
Si Si1 0.626176 0.776983 0.557726
Si Si2 0.250000 0.500000 0.694317
Si Si3 0.023252 0.145379 0.905116
Si Si4 0.707155 0.627029 0.555102
Si Si5 0.351247 0.883672 0.234658
Si Si6 0.309790 0.099269 0.248583
Si Si7 0.229769 0.177208 0.447250
Si Si8 0.956551 0.930348 0.635822
O O1 0.565381 0.773001 0.554042
O O2 0.650033 0.668038 0.559655
O O3 0.650291 0.831317 0.419516
O O4 0.642432 0.835263 0.704058
O O5 0.286492 0.436915 0.590485
O O6 0.214756 0.434232 0.797250
O O7 0.000000 0.168955 0.750000
O O8 0.052516 0.040630 0.925131
O O9 0.975633 0.145832 0.013354
O O10 0.747552 0.714254 0.552441
O O11 0.320492 0.820343 0.351025
O O12 0.407546 0.886718 0.292775
O O13 0.327842 0.990720 0.212736
O O14 0.269231 0.099930 0.378705
O O15 0.282762 0.145492 0.109727
O O16 0.000000 0.944602 0.750000
#
# Coordination Sequence:
#
# PCOD8222797 Si02
#       8
#     8   4   8   8   8   8   8   8
#     4  11  21  36  55  81 113 142 191 236 268 313
#     4  10  20  40  64  80 108 134 168 220 306 368
#     4  10  21  33  53  74 110 150 194 239 259 299
#     4  10  21  38  59  84 108 136 171 229 285 352
#     4  12  22  33  52  74 113 162 196 222 264 306
#     4  11  23  35  48  74 111 162 194 221 260 311
#     4  11  23  36  52  77 116 142 190 231 268 326
#     4  10  20  35  49  73 107 157 204 226 260 295
#
# _framework density 17.987279000000001
#
# number of rings (size 3 to 8) (size 9 to 14) (size 15 to 20)
#    0.000    1.333    2.667    5.200    1.867    2.133 
#    0.000    0.000    0.000    0.000    0.000    0.933 
#    0.000    0.000    0.000    0.000    0.000    0.000 
#
# Total GULP energy -744026.809118 kJ/mol
# GULP energy per Si atom -12400.446819 kJ/mol
# Density = 1.794634 g / cm^3
# Si number density = 17.987279 Si / 1000 Ang^3
#
#
#
# Elastic Constant Matrix: (Units=GPa)
#
#
# Indices 1 2 3 4 5 6 
#
# 1 96.0706 39.7454 24.1583 0.0000 0.0000 0.0000
# 2 39.7454 84.9810 37.1871 0.0000 0.0000 0.0000
# 3 24.1583 37.1871 96.8945 0.0000 0.0000 0.0000
# 4 0.0000 0.0000 0.0000 42.6708 0.0000 0.0000
# 5 0.0000 0.0000 0.0000 0.0000 32.5304 0.0000
# 6 0.0000 0.0000 0.0000 0.0000 0.0000 20.1908
#
#
#
# Elastic Compliance Matrix: (Units=1/GPa)
#
#
# Indices 1 2 3 4 5 6 
#
# 1 0.013002 -0.005603 -0.001091 0.000000 0.000000 0.000000
# 2 -0.005603 0.016557 -0.004957 0.000000 0.000000 0.000000
# 3 -0.001091 -0.004957 0.012495 0.000000 0.000000 0.000000
# 4 0.000000 0.000000 0.000000 0.023435 0.000000 0.000000
# 5 0.000000 0.000000 0.000000 0.000000 0.030740 0.000000
# 6 0.000000 0.000000 0.000000 0.000000 0.000000 0.049527
#
#
# Mechanical properties :
#
#
# Convention : Reuss Voigt Hill
#
# Bulk Modulus (GPa) = 53.33274 53.34754 53.34014
# Shear Modulus (GPa) = 28.52071 30.86875 29.69473
#
# Velocity S-wave (km/s) = 3.98628 4.14713 4.06750
# Velocity P-wave (km/s) = 7.13456 7.25634 7.19571
#
# Compressibility (1/GPa) = 0.01875021
#
# Stress axis : x y z
#
# Youngs Moduli (GPa) = 76.91392 60.39608 80.03084
#
# Poissons Ratio (x) = 0.33842 0.08732
# Poissons Ratio (y) = 0.43097 0.39675
# Poissons Ratio (z) = 0.08392 0.29941
#
# Static dielectric constant tensor:
#      x y z
#    x 9.388860 0.000000 0.000000 
#    y 0.000000 3.130970 0.000000 
#    z 0.000000 0.000000 3.503480 
# 
# 
# High freq. dielectric constant tensor:
#      x y z
#    x 1.695980 0.000000 0.000000 
#    y 0.000000 1.651630 0.000000 
#    z 0.000000 0.000000 1.720520 
# 
# From -- ./inp_files/5955.got.cif
#   From: 2010.03.12/outbox.cif.g09.slc.cpg/sg54_3_cif.got.tgz:5955.got - 2010.04.16 15:00:50.
