data_PCOD8222136
_publ_section_title
;
Structure prediction by ZEFSAII (Michael W. Deem and Ramdas Pophale) SiO2 
 PCOD8222136
Probable space group: P M N A
;
_chemical_formula_sum "Si O2"
_cell_formula_units_Z 40
_cell_length_a 31.247526
_cell_length_b 5.010263
_cell_length_c 12.665217
_cell_angle_alpha 90.000000
_cell_angle_beta 90.000000
_cell_angle_gamma 90.000000
_cell_volume 1982.845139
_symmetry_space_group_name_H-M "P M N A"
_symmetry_group_IT_number 53
_symmetry_cell_setting 'orthorhombic'
loop_
_space_group_symop_operation_xyz
x,y,z
1/2-x,-y,1/2+z
x,-y,-z
1/2-x,y,1/2-z
-x,-y,-z
1/2+x,y,1/2-z
-x,y,z
1/2+x,-y,1/2+z
loop_
_atom_site_type_symbol
_atom_site_label
_atom_site_fract_x
_atom_site_fract_y
_atom_site_fract_z
Si Si1 0.218456 0.552244 0.160036
Si Si2 0.159240 0.000000 0.500000
Si Si3 0.161469 0.959114 0.876372
Si Si4 0.286342 0.500000 0.000000
Si Si5 0.949766 0.534520 0.622104
Si Si6 0.598208 0.043548 0.806896
O O1 0.250000 0.448642 0.250000
O O2 0.190018 0.813065 0.179301
O O3 0.253885 0.645626 0.077773
O O4 0.186292 0.318959 0.127476
O O5 0.185344 0.743834 0.542936
O O6 0.133229 0.087027 0.602388
O O7 0.118324 0.958039 0.805968
O O8 0.149929 0.000000 0.000000
O O9 0.935788 0.500000 0.500000
O O10 0.936462 0.826739 0.658643
O O11 0.000000 0.498174 0.635268
O O12 0.926509 0.324274 0.699469
#
# Coordination Sequence:
#
# PCOD8222136 Si02
#       6
#     8   4   8   4   8   8
#     4  12  23  41  60  83 116 164 218 267 309 352
#     4  12  22  36  55  94 120 158 198 264 309 344
#     4  12  24  43  62  88 124 169 215 255 307 370
#     4  12  22  36  56  80 119 154 205 258 302 350
#     4  11  22  41  67  98 130 158 191 250 321 388
#     4  12  23  40  64  94 131 158 207 253 306 383
#
# _framework density 20.173034999999999
#
# number of rings (size 3 to 8) (size 9 to 14) (size 15 to 20)
#    0.000    0.200    4.000    7.200    0.000    1.600 
#    0.000    0.000    0.000    3.600    0.000    0.000 
#    0.000    0.000    0.000    0.000    0.000    0.000 
#
# Total GULP energy -495784.116198 kJ/mol
# GULP energy per Si atom -12394.602905 kJ/mol
# Density = 2.012712 g / cm^3
# Si number density = 20.173035 Si / 1000 Ang^3
#
#
#
# Elastic Constant Matrix: (Units=GPa)
#
#
# Indices 1 2 3 4 5 6 
#
# 1 88.9587 28.7637 32.9285 0.0000 0.0000 0.0000
# 2 28.7637 105.8208 -8.4518 0.0000 0.0000 0.0000
# 3 32.9285 -8.4518 90.0003 0.0000 0.0000 0.0000
# 4 0.0000 0.0000 0.0000 22.5342 0.0000 0.0000
# 5 0.0000 0.0000 0.0000 0.0000 -19.8105 0.0000
# 6 0.0000 0.0000 0.0000 0.0000 0.0000 31.8231
#
#
#
# Elastic Compliance Matrix: (Units=1/GPa)
#
#
# Indices 1 2 3 4 5 6 
#
# 1 0.014870 -0.004510 -0.005864 0.000000 0.000000 0.000000
# 2 -0.004510 0.010889 0.002673 0.000000 0.000000 0.000000
# 3 -0.005864 0.002673 0.013508 0.000000 0.000000 0.000000
# 4 0.000000 0.000000 0.000000 0.044377 0.000000 0.000000
# 5 0.000000 0.000000 0.000000 0.000000 -0.050478 0.000000
# 6 0.000000 0.000000 0.000000 0.000000 0.000000 0.031424
#
#
# Mechanical properties :
#
#
# Convention : Reuss Voigt Hill
#
# Bulk Modulus (GPa) = 41.90433 43.47339 42.68886
# Shear Modulus (GPa) = 56.85221 22.34532 39.59877
#
# Velocity S-wave (km/s) = 5.31446 3.33180 4.43533
# Velocity P-wave (km/s) = 7.64693 6.03309 6.88744
#
# Compressibility (1/GPa) = 0.02386388
#
# Stress axis : x y z
#
# Youngs Moduli (GPa) = 67.24894 91.83264 74.03258
#
# Poissons Ratio (x) = 0.41419 0.43413
# Poissons Ratio (y) = 0.30331 -0.19787
# Poissons Ratio (z) = 0.39435 -0.24545
#
# Static dielectric constant tensor:
#      x y z
#    x 3.682030 0.000000 0.000000 
#    y 0.000000 3.653310 0.000000 
#    z 0.000000 0.000000 3.573920 
# 
# 
# High freq. dielectric constant tensor:
#      x y z
#    x 1.787360 0.000000 0.000000 
#    y 0.000000 1.806770 0.000000 
#    z 0.000000 0.000000 1.772420 
# 
# From -- ./inp_files/18952.got.cif
#   From: 2010.03.12/outbox.cif.g09.slc.cpg/sg53_10_cif.got.tgz:18952.got - 2010.04.16 14:36:59.
