data_PCOD8222402
_publ_section_title
;
Structure prediction by ZEFSAII (Michael W. Deem and Ramdas Pophale) SiO2 
 PCOD8222402
Probable space group: P C C A
;
_chemical_formula_sum "Si O2"
_cell_formula_units_Z 64
_cell_length_a 9.840629
_cell_length_b 17.175615
_cell_length_c 19.763562
_cell_angle_alpha 90.000000
_cell_angle_beta 90.000000
_cell_angle_gamma 90.000000
_cell_volume 3340.414621
_symmetry_space_group_name_H-M "P C C A"
_symmetry_group_IT_number 54
_symmetry_cell_setting 'orthorhombic'
loop_
_space_group_symop_operation_xyz
x,y,z
1/2-x,-y,z
1/2+x,-y,1/2-z
-x,y,1/2-z
-x,-y,-z
1/2+x,y,-z
1/2-x,y,1/2+z
x,-y,1/2+z
loop_
_atom_site_type_symbol
_atom_site_label
_atom_site_fract_x
_atom_site_fract_y
_atom_site_fract_z
Si Si1 0.133843 0.446243 0.508713
Si Si2 0.346406 0.570581 0.264439
Si Si3 0.236259 0.810855 0.077813
Si Si4 0.529321 0.910920 0.579256
Si Si5 0.035310 0.923817 0.572517
Si Si6 0.280446 0.822116 0.426231
Si Si7 0.912972 0.665776 0.606367
Si Si8 0.772346 0.645625 0.874118
O O1 0.250000 0.500000 0.478812
O O2 0.137858 0.369499 0.463739
O O3 0.177786 0.416515 0.584308
O O4 0.000000 0.500000 0.500000
O O5 0.250000 0.500000 0.283903
O O6 0.500000 0.541403 0.250000
O O7 0.349389 0.625712 0.328727
O O8 0.277192 0.616520 0.202656
O O9 0.356671 0.865654 0.108830
O O10 0.213393 0.732722 0.121533
O O11 0.095217 0.853711 0.081039
O O12 0.270297 0.790255 0.999472
O O13 0.586589 0.934659 0.504780
O O14 0.652792 0.861703 0.613964
O O15 0.479817 0.993200 0.612241
O O16 0.885948 0.890844 0.567190
O O17 0.356946 0.753200 0.386543
O O18 0.074256 0.655036 0.599351
#
# Coordination Sequence:
#
# PCOD8222402 Si02
#       8
#     8   8   8   8   8   8   8   8
#     4  12  24  37  62  90 117 150 192 248 310 364
#     4  10  24  45  65  83 115 156 203 247 294 359
#     4  10  18  30  51  78 112 150 188 237 291 344
#     4   9  18  27  45  80 112 151 187 233 284 345
#     4   9  16  29  47  72 116 153 188 226 287 347
#     4  10  18  30  51  78 116 149 190 236 289 344
#     4  11  22  39  60  87 116 157 196 243 295 360
#     4  11  22  39  61  86 118 155 195 245 300 352
#
# _framework density 19.159299000000001
#
# number of rings (size 3 to 8) (size 9 to 14) (size 15 to 20)
#    0.000    1.750    3.750    1.500    1.750    4.000 
#    2.250    0.000    0.000    0.000    0.000    5.250 
#    0.000    0.000    0.000    0.000    0.000    0.000 
#
# Total GULP energy -792871.395599 kJ/mol
# GULP energy per Si atom -12388.615556 kJ/mol
# Density = 1.911569 g / cm^3
# Si number density = 19.159299 Si / 1000 Ang^3
#
#
#
# Elastic Constant Matrix: (Units=GPa)
#
#
# Indices 1 2 3 4 5 6 
#
# 1 110.9387 52.8700 24.1112 0.0000 0.0000 0.0000
# 2 52.8700 126.7286 28.2237 0.0000 0.0000 0.0000
# 3 24.1112 28.2237 63.5076 0.0000 0.0000 0.0000
# 4 0.0000 0.0000 0.0000 12.8204 0.0000 0.0000
# 5 0.0000 0.0000 0.0000 0.0000 19.4475 0.0000
# 6 0.0000 0.0000 0.0000 0.0000 0.0000 41.1227
#
#
#
# Elastic Compliance Matrix: (Units=1/GPa)
#
#
# Indices 1 2 3 4 5 6 
#
# 1 0.011598 -0.004282 -0.002500 0.000000 0.000000 0.000000
# 2 -0.004282 0.010338 -0.002969 0.000000 0.000000 0.000000
# 3 -0.002500 -0.002969 0.018015 0.000000 0.000000 0.000000
# 4 0.000000 0.000000 0.000000 0.078001 0.000000 0.000000
# 5 0.000000 0.000000 0.000000 0.000000 0.051420 0.000000
# 6 0.000000 0.000000 0.000000 0.000000 0.000000 0.024317
#
#
# Mechanical properties :
#
#
# Convention : Reuss Voigt Hill
#
# Bulk Modulus (GPa) = 48.90186 56.84273 52.87230
# Shear Modulus (GPa) = 22.72643 27.74279 25.23461
#
# Velocity S-wave (km/s) = 3.44784 3.80940 3.63312
# Velocity P-wave (km/s) = 6.43656 7.00582 6.72722
#
# Compressibility (1/GPa) = 0.02044912
#
# Stress axis : x y z
#
# Youngs Moduli (GPa) = 86.22217 96.72698 55.50961
#
# Poissons Ratio (x) = 0.41415 0.13880
# Poissons Ratio (y) = 0.36918 0.16481
# Poissons Ratio (z) = 0.21559 0.28718
#
# Static dielectric constant tensor:
#      x y z
#    x 3.553370 0.000000 0.000000 
#    y 0.000000 4.129630 0.000000 
#    z 0.000000 0.000000 3.054650 
# 
# 
# High freq. dielectric constant tensor:
#      x y z
#    x 1.759930 0.000000 0.000000 
#    y 0.000000 1.766040 0.000000 
#    z 0.000000 0.000000 1.677880 
# 
# From -- ./inp_files/20666.got.cif
#   From: 2010.03.12/outbox.cif.g09.slc.cpg/sg54_11_cif.got.tgz:20666.got - 2010.04.16 15:00:50.
