data_PCOD8222288
_publ_section_title
;
Structure prediction by ZEFSAII (Michael W. Deem and Ramdas Pophale) SiO2 
 PCOD8222288
Probable space group: P C C A
;
_chemical_formula_sum "Si O2"
_cell_formula_units_Z 56
_cell_length_a 13.509276
_cell_length_b 33.166744
_cell_length_c 5.290287
_cell_angle_alpha 90.000000
_cell_angle_beta 90.000000
_cell_angle_gamma 90.000000
_cell_volume 2370.359109
_symmetry_space_group_name_H-M "P C C A"
_symmetry_group_IT_number 54
_symmetry_cell_setting 'orthorhombic'
loop_
_space_group_symop_operation_xyz
x,y,z
1/2-x,-y,z
1/2+x,-y,1/2-z
-x,y,1/2-z
-x,-y,-z
1/2+x,y,-z
1/2-x,y,1/2+z
x,-y,1/2+z
loop_
_atom_site_type_symbol
_atom_site_label
_atom_site_fract_x
_atom_site_fract_y
_atom_site_fract_z
Si Si1 0.813772 0.397951 0.500029
Si Si2 0.890221 0.482753 0.488604
Si Si3 0.359237 0.808599 0.600674
Si Si4 0.311510 0.899202 0.586312
Si Si5 0.390131 0.017145 0.012495
Si Si6 0.311544 0.311742 0.589816
Si Si7 0.634617 0.224697 0.899473
O O1 0.769074 0.401261 0.781575
O O2 0.892100 0.434182 0.471567
O O3 0.868201 0.354403 0.460912
O O4 0.835084 0.498427 0.742739
O O5 0.000000 0.500000 0.500000
O O6 0.362479 0.856120 0.551244
O O7 0.249004 0.789864 0.635163
O O8 0.416772 0.787291 0.366841
O O9 0.415057 0.798787 0.864722
O O10 0.227923 0.903378 0.371694
O O11 0.391517 0.934484 0.541858
O O12 0.335244 0.003734 0.752934
O O13 0.500000 0.000000 0.000000
O O14 0.225098 0.310063 0.379483
O O15 0.379309 0.272469 0.551507
#
# Coordination Sequence:
#
# PCOD8222288 Si02
#       7
#     8   8   8   8   8   8   8
#     4  10  21  32  48  78 108 135 176 219 263 304
#     4  10  21  37  55  72  98 137 183 220 265 318
#     4  10  16  25  41  69 103 138 161 198 250 300
#     4  12  21  32  53  83 110 133 172 227 264 292
#     4  10  23  42  57  71 101 143 184 211 261 323
#     4  10  16  25  41  64  98 143 162 195 243 299
#     4  10  14  25  41  61 102 148 159 184 254 307
#
# _framework density 23.625111
#
# number of rings (size 3 to 8) (size 9 to 14) (size 15 to 20)
#    0.000    1.714    5.714    1.714    0.000    3.429 
#    0.000    0.000    0.000    0.000    0.000    0.000 
#    0.000   27.429    0.000    0.000    0.000    0.000 
#
# Total GULP energy -693820.092925 kJ/mol
# GULP energy per Si atom -12389.644517 kJ/mol
# Density = 2.357134 g / cm^3
# Si number density = 23.625111 Si / 1000 Ang^3
#
#
#
# Elastic Constant Matrix: (Units=GPa)
#
#
# Indices 1 2 3 4 5 6 
#
# 1 22.6664 23.5528 0.9996 0.0000 0.0000 0.0000
# 2 23.5528 263.3132 52.9319 0.0000 0.0000 0.0000
# 3 0.9996 52.9319 221.9526 0.0000 0.0000 0.0000
# 4 0.0000 0.0000 0.0000 41.3640 0.0000 0.0000
# 5 0.0000 0.0000 0.0000 0.0000 -0.8148 0.0000
# 6 0.0000 0.0000 0.0000 0.0000 0.0000 14.4348
#
#
#
# Elastic Compliance Matrix: (Units=1/GPa)
#
#
# Indices 1 2 3 4 5 6 
#
# 1 0.048796 -0.004538 0.000862 0.000000 0.000000 0.000000
# 2 -0.004538 0.004411 -0.001032 0.000000 0.000000 0.000000
# 3 0.000862 -0.001032 0.004748 0.000000 0.000000 0.000000
# 4 0.000000 0.000000 0.000000 0.024176 0.000000 0.000000
# 5 0.000000 0.000000 0.000000 0.000000 -1.227310 0.000000
# 6 0.000000 0.000000 0.000000 0.000000 0.000000 0.069277
#
#
# Mechanical properties :
#
#
# Convention : Reuss Voigt Hill
#
# Bulk Modulus (GPa) = 20.60154 73.65566 47.12860
# Shear Modulus (GPa) = -4.76051 39.69333 17.46641
#
# Velocity S-wave (km/s) = -1.42105 4.10339 2.72199
# Velocity P-wave (km/s) = 2.45898 7.32768 5.46542
#
# Compressibility (1/GPa) = 0.04854006
#
# Stress axis : x y z
#
# Youngs Moduli (GPa) = 20.49365 226.70412 210.63357
#
# Poissons Ratio (x) = 1.02879 -0.18167
# Poissons Ratio (y) = 0.09300 0.21727
# Poissons Ratio (z) = -0.01768 0.23385
#
# Static dielectric constant tensor:
#      x y z
#    x 3.073810 0.000000 0.000000 
#    y 0.000000 4.666000 0.000000 
#    z 0.000000 0.000000 19.223470 
# 
# 
# High freq. dielectric constant tensor:
#      x y z
#    x 1.866210 0.000000 0.000000 
#    y 0.000000 1.952420 0.000000 
#    z 0.000000 0.000000 1.983860 
# 
# From -- ./inp_files/716.got.cif
#   From: 2010.03.12/outbox.cif.g09.slc.cpg/sg54_1_cif.got.tgz:716.got - 2010.04.16 15:00:50.
