data_PCOD8222627
_publ_section_title
;
Structure prediction by ZEFSAII (Michael W. Deem and Ramdas Pophale) SiO2 
 PCOD8222627
Probable space group: P C C A
;
_chemical_formula_sum "Si O2"
_cell_formula_units_Z 60
_cell_length_a 5.508048
_cell_length_b 19.692290
_cell_length_c 27.007120
_cell_angle_alpha 90.000000
_cell_angle_beta 90.000000
_cell_angle_gamma 90.000000
_cell_volume 2929.356399
_symmetry_space_group_name_H-M "P C C A"
_symmetry_group_IT_number 54
_symmetry_cell_setting 'orthorhombic'
loop_
_space_group_symop_operation_xyz
x,y,z
1/2-x,-y,z
1/2+x,-y,1/2-z
-x,y,1/2-z
-x,-y,-z
1/2+x,y,-z
1/2-x,y,1/2+z
x,-y,1/2+z
loop_
_atom_site_type_symbol
_atom_site_label
_atom_site_fract_x
_atom_site_fract_y
_atom_site_fract_z
Si Si1 0.147277 0.277692 0.125920
Si Si2 0.786923 0.883034 0.516096
Si Si3 0.133939 0.642835 0.802902
Si Si4 0.321862 0.730551 0.522018
Si Si5 0.250000 0.500000 0.780100
Si Si6 0.998253 0.040342 0.306649
Si Si7 0.522916 0.772624 0.695741
Si Si8 0.841866 0.848524 0.624575
O O1 0.331890 0.289335 0.080470
O O2 0.260951 0.244422 0.174768
O O3 0.032011 0.346737 0.147928
O O4 0.954996 0.222689 0.106060
O O5 0.546952 0.920798 0.493925
O O6 0.821232 0.811069 0.487754
O O7 0.739816 0.881584 0.574703
O O8 0.257570 0.569388 0.812051
O O9 0.326994 0.703057 0.802440
O O10 0.000000 0.643422 0.750000
O O11 0.571025 0.698418 0.499960
O O12 0.500000 0.499794 0.750000
O O13 0.000000 0.066805 0.250000
O O14 0.977559 0.102303 0.345499
O O15 0.750000 0.000000 0.316399
O O16 0.250000 0.000000 0.317850
O O17 0.500000 0.804565 0.750000
O O18 0.625429 0.832388 0.661984
#
# Coordination Sequence:
#
# PCOD8222627 Si02
#       8
#     8   8   8   8   4   8   8   8
#     4  11  22  34  57  89 123 154 192 245 308 356
#     4  10  19  35  56  85 114 145 189 238 293 355
#     4  10  21  37  52  86 124 165 200 246 289 353
#     4  10  19  35  53  81 117 151 191 235 294 354
#     4  10  22  38  62  78 114 178 218 238 284 346
#     4  10  25  45  62  82 114 155 204 245 282 355
#     4  11  22  33  54  87 128 152 188 250 304 367
#     4  11  24  35  62  87 112 158 196 243 306 358
#
# _framework density 20.482316999999998
#
# number of rings (size 3 to 8) (size 9 to 14) (size 15 to 20)
#    0.000    1.600    4.000    2.000    7.467    0.533 
#    0.000    0.000    0.000    2.400    0.000    0.933 
#    0.000    0.000    0.000    0.000    0.000    0.000 
#
# Total GULP energy -743404.161121 kJ/mol
# GULP energy per Si atom -12390.069352 kJ/mol
# Density = 2.043570 g / cm^3
# Si number density = 20.482317 Si / 1000 Ang^3
#
#
#
# Elastic Constant Matrix: (Units=GPa)
#
#
# Indices 1 2 3 4 5 6 
#
# 1 126.0236 10.1930 20.9545 0.0000 0.0000 0.0000
# 2 10.1930 59.6851 15.2216 0.0000 0.0000 0.0000
# 3 20.9545 15.2216 108.5471 0.0000 0.0000 0.0000
# 4 0.0000 0.0000 0.0000 10.6234 0.0000 0.0000
# 5 0.0000 0.0000 0.0000 0.0000 30.3496 0.0000
# 6 0.0000 0.0000 0.0000 0.0000 0.0000 4.2109
#
#
#
# Elastic Compliance Matrix: (Units=1/GPa)
#
#
# Indices 1 2 3 4 5 6 
#
# 1 0.008260 -0.001041 -0.001449 0.000000 0.000000 0.000000
# 2 -0.001041 0.017507 -0.002254 0.000000 0.000000 0.000000
# 3 -0.001449 -0.002254 0.009808 0.000000 0.000000 0.000000
# 4 0.000000 0.000000 0.000000 0.094132 0.000000 0.000000
# 5 0.000000 0.000000 0.000000 0.000000 0.032949 0.000000
# 6 0.000000 0.000000 0.000000 0.000000 0.000000 0.237478
#
#
# Mechanical properties :
#
#
# Convention : Reuss Voigt Hill
#
# Bulk Modulus (GPa) = 38.33175 42.99930 40.66553
# Shear Modulus (GPa) = 11.95260 25.56255 18.75757
#
# Velocity S-wave (km/s) = 2.41831 3.53658 3.02949
# Velocity P-wave (km/s) = 5.15294 6.14129 5.66870
#
# Compressibility (1/GPa) = 0.02608803
#
# Stress axis : x y z
#
# Youngs Moduli (GPa) = 121.06394 57.11908 101.95429
#
# Poissons Ratio (x) = 0.05947 0.14769
# Poissons Ratio (y) = 0.12606 0.22981
# Poissons Ratio (z) = 0.17537 0.12875
#
# Static dielectric constant tensor:
#      x y z
#    x 4.215230 0.000000 0.000000 
#    y 0.000000 3.582910 0.000000 
#    z 0.000000 0.000000 3.829240 
# 
# 
# High freq. dielectric constant tensor:
#      x y z
#    x 1.820180 0.000000 0.000000 
#    y 0.000000 1.744330 0.000000 
#    z 0.000000 0.000000 1.803180 
# 
# From -- ./inp_files/23025.got.cif
#   From: 2010.03.12/outbox.cif.g09.slc.cpg/sg54_12_cif.got.tgz:23025.got - 2010.04.16 15:00:50.
