data_PCOD8222583
_publ_section_title
;
Structure prediction by ZEFSAII (Michael W. Deem and Ramdas Pophale) SiO2 
 PCOD8222583
Probable space group: P C C A
;
_chemical_formula_sum "Si O2"
_cell_formula_units_Z 64
_cell_length_a 27.169967
_cell_length_b 14.786461
_cell_length_c 9.022964
_cell_angle_alpha 90.000000
_cell_angle_beta 90.000000
_cell_angle_gamma 90.000000
_cell_volume 3624.954650
_symmetry_space_group_name_H-M "P C C A"
_symmetry_group_IT_number 54
_symmetry_cell_setting 'orthorhombic'
loop_
_space_group_symop_operation_xyz
x,y,z
1/2-x,-y,z
1/2+x,-y,1/2-z
-x,y,1/2-z
-x,-y,-z
1/2+x,y,-z
1/2-x,y,1/2+z
x,-y,1/2+z
loop_
_atom_site_type_symbol
_atom_site_label
_atom_site_fract_x
_atom_site_fract_y
_atom_site_fract_z
Si Si1 0.028735 0.195765 0.097651
Si Si2 0.933805 0.874894 0.459879
Si Si3 0.301988 0.591251 0.120506
Si Si4 0.535898 0.462911 0.377399
Si Si5 0.293582 0.600559 0.469792
Si Si6 0.908659 0.646152 0.843085
Si Si7 0.894310 0.688603 0.510147
Si Si8 0.941766 0.967547 0.757696
O O1 0.057771 0.288253 0.052732
O O2 0.068164 0.114580 0.125126
O O3 0.000000 0.216889 0.250000
O O4 0.989893 0.164176 0.971771
O O5 0.898602 0.789116 0.445597
O O6 0.919941 0.940013 0.598576
O O7 0.922728 0.935525 0.314743
O O8 0.289995 0.584338 0.294421
O O9 0.257475 0.642159 0.034116
O O10 0.305798 0.492305 0.051818
O O11 0.353399 0.642727 0.091297
O O12 0.500000 0.426709 0.250000
O O13 0.500000 0.500000 0.500000
O O14 0.570637 0.545170 0.325789
O O15 0.570175 0.380720 0.426107
O O16 0.337320 0.667186 0.511947
O O17 0.909045 0.690766 0.681641
O O18 0.000000 0.975927 0.750000
#
# Coordination Sequence:
#
# PCOD8222583 Si02
#       8
#     8   8   8   8   8   8   8   8
#     4   9  15  29  51  77 103 137 183 208 254 322
#     4  10  19  33  55  76 110 140 177 226 264 324
#     4  10  20  34  58  75 104 140 179 231 263 318
#     4  12  23  34  50  74 114 156 185 211 248 312
#     4  10  20  36  56  78 104 137 185 224 276 307
#     4  11  19  35  54  78 102 153 186 211 266 325
#     4  11  21  36  55  78 110 146 186 222 267 320
#     4   9  17  31  54  75 102 140 179 218 272 307
#
# _framework density 17.655394000000001
#
# number of rings (size 3 to 8) (size 9 to 14) (size 15 to 20)
#    0.000    2.000    5.000    4.125    0.000    0.500 
#    2.250    1.250    0.000    0.000    0.000    0.875 
#    0.000    0.000    0.000    0.000    0.000    0.000 
#
# Total GULP energy -793099.342620 kJ/mol
# GULP energy per Si atom -12392.177228 kJ/mol
# Density = 1.761521 g / cm^3
# Si number density = 17.655394 Si / 1000 Ang^3
#
#
#
# Elastic Constant Matrix: (Units=GPa)
#
#
# Indices 1 2 3 4 5 6 
#
# 1 97.4216 49.4370 31.8750 0.0000 0.0000 0.0000
# 2 49.4370 118.1645 31.8797 0.0000 0.0000 0.0000
# 3 31.8750 31.8797 57.3910 0.0000 0.0000 0.0000
# 4 0.0000 0.0000 0.0000 22.5190 0.0000 0.0000
# 5 0.0000 0.0000 0.0000 0.0000 20.9974 0.0000
# 6 0.0000 0.0000 0.0000 0.0000 0.0000 15.2942
#
#
#
# Elastic Compliance Matrix: (Units=1/GPa)
#
#
# Indices 1 2 3 4 5 6 
#
# 1 0.014348 -0.004532 -0.005451 0.000000 0.000000 0.000000
# 2 -0.004532 0.011386 -0.003808 0.000000 0.000000 0.000000
# 3 -0.005451 -0.003808 0.022567 0.000000 0.000000 0.000000
# 4 0.000000 0.000000 0.000000 0.044407 0.000000 0.000000
# 5 0.000000 0.000000 0.000000 0.000000 0.047625 0.000000
# 6 0.000000 0.000000 0.000000 0.000000 0.000000 0.065384
#
#
# Mechanical properties :
#
#
# Convention : Reuss Voigt Hill
#
# Bulk Modulus (GPa) = 48.26494 55.48452 51.87473
# Shear Modulus (GPa) = 20.81543 22.41449 21.61496
#
# Velocity S-wave (km/s) = 3.43736 3.56695 3.50275
# Velocity P-wave (km/s) = 6.56890 6.96123 6.76791
#
# Compressibility (1/GPa) = 0.02071897
#
# Stress axis : x y z
#
# Youngs Moduli (GPa) = 69.69529 87.82566 44.31215
#
# Poissons Ratio (x) = 0.39804 0.24157
# Poissons Ratio (y) = 0.31587 0.16873
# Poissons Ratio (z) = 0.37994 0.33441
#
# Static dielectric constant tensor:
#      x y z
#    x 3.412320 0.000000 0.000000 
#    y 0.000000 3.521630 0.000000 
#    z 0.000000 0.000000 3.016270 
# 
# 
# High freq. dielectric constant tensor:
#      x y z
#    x 1.655300 0.000000 0.000000 
#    y 0.000000 1.675010 0.000000 
#    z 0.000000 0.000000 1.673390 
# 
# From -- ./inp_files/6008.got.cif
#   From: 2010.03.12/outbox.cif.g09.slc.cpg/sg54_4_cif.got.tgz:6008.got - 2010.04.16 15:00:50.
