data_PCOD8222542
_publ_section_title
;
Structure prediction by ZEFSAII (Michael W. Deem and Ramdas Pophale) SiO2 
 PCOD8222542
Probable space group: P C C A
;
_chemical_formula_sum "Si O2"
_cell_formula_units_Z 64
_cell_length_a 35.951555
_cell_length_b 15.975453
_cell_length_c 5.196095
_cell_angle_alpha 90.000000
_cell_angle_beta 90.000000
_cell_angle_gamma 90.000000
_cell_volume 2984.337554
_symmetry_space_group_name_H-M "P C C A"
_symmetry_group_IT_number 54
_symmetry_cell_setting 'orthorhombic'
loop_
_space_group_symop_operation_xyz
x,y,z
1/2-x,-y,z
1/2+x,-y,1/2-z
-x,y,1/2-z
-x,-y,-z
1/2+x,y,-z
1/2-x,y,1/2+z
x,-y,1/2+z
loop_
_atom_site_type_symbol
_atom_site_label
_atom_site_fract_x
_atom_site_fract_y
_atom_site_fract_z
Si Si1 0.397078 0.323384 0.408165
Si Si2 0.271502 0.879597 0.423041
Si Si3 0.043325 0.550135 0.261112
Si Si4 0.355430 0.122504 0.921472
Si Si5 0.271023 0.679919 0.407859
Si Si6 0.600906 0.875017 0.575022
Si Si7 0.983501 0.092699 0.502175
Si Si8 0.145734 0.678639 0.910287
O O1 0.436602 0.364296 0.342868
O O2 0.403090 0.224555 0.417508
O O3 0.380058 0.355256 0.678320
O O4 0.369097 0.352880 0.184190
O O5 0.252222 0.913949 0.163976
O O6 0.313689 0.913575 0.447175
O O7 0.271555 0.779794 0.415436
O O8 0.054591 0.481555 0.477192
O O9 0.000000 0.571003 0.250000
O O10 0.372868 0.091325 0.653609
O O11 0.353897 0.221849 0.912961
O O12 0.381087 0.091694 0.159230
O O13 0.246703 0.645714 0.171077
O O14 0.312582 0.644210 0.375130
O O15 0.560723 0.913665 0.519474
O O16 0.000000 0.141438 0.750000
O O17 0.000000 0.000000 0.500000
O O18 0.000000 0.140028 0.250000
#
# Coordination Sequence:
#
# PCOD8222542 Si02
#       8
#     8   8   8   8   8   8   8   8
#     4  10  19  32  50  72  99 129 163 206 249 301
#     4   9  15  23  37  59  91 135 173 197 235 294
#     4  10  21  37  54  72  96 125 158 203 256 306
#     4   9  17  28  43  67 100 136 170 206 247 298
#     4   9  15  23  37  59  91 129 164 196 236 292
#     4  10  19  32  50  73 101 135 170 205 253 301
#     4  10  21  37  55  75 101 135 168 210 253 291
#     4   9  17  28  43  67  99 129 163 206 247 290
#
# _framework density 21.445295999999999
#
# number of rings (size 3 to 8) (size 9 to 14) (size 15 to 20)
#    0.000    2.500    0.000    3.000    0.000    6.500 
#    0.000    1.875    0.000    0.000    0.000    0.000 
#    0.000   35.000    0.000  157.500    0.000   70.000 
#
# Total GULP energy -793424.621161 kJ/mol
# GULP energy per Si atom -12397.259706 kJ/mol
# Density = 2.139649 g / cm^3
# Si number density = 21.445296 Si / 1000 Ang^3
#
#
#
# Elastic Constant Matrix: (Units=GPa)
#
#
# Indices 1 2 3 4 5 6 
#
# 1 175.7031 25.8164 79.2332 0.0000 0.0000 0.0000
# 2 25.8164 24.6375 10.6869 0.0000 0.0000 0.0000
# 3 79.2332 10.6869 198.7028 0.0000 0.0000 0.0000
# 4 0.0000 0.0000 0.0000 381.1984 0.0000 0.0000
# 5 0.0000 0.0000 0.0000 0.0000 47.4723 0.0000
# 6 0.0000 0.0000 0.0000 0.0000 0.0000 12.3584
#
#
#
# Elastic Compliance Matrix: (Units=1/GPa)
#
#
# Indices 1 2 3 4 5 6 
#
# 1 0.008013 -0.007178 -0.002809 0.000000 0.000000 0.000000
# 2 -0.007178 0.047988 0.000281 0.000000 0.000000 0.000000
# 3 -0.002809 0.000281 0.006138 0.000000 0.000000 0.000000
# 4 0.000000 0.000000 0.000000 0.002623 0.000000 0.000000
# 5 0.000000 0.000000 0.000000 0.000000 0.021065 0.000000
# 6 0.000000 0.000000 0.000000 0.000000 0.000000 0.080917
#
#
# Mechanical properties :
#
#
# Convention : Reuss Voigt Hill
#
# Bulk Modulus (GPa) = 23.40440 70.05739 46.73090
# Shear Modulus (GPa) = 24.95047 107.09294 66.02170
#
# Velocity S-wave (km/s) = 3.41463 7.07433 5.55454
# Velocity P-wave (km/s) = 5.14622 9.97332 7.93570
#
# Compressibility (1/GPa) = 0.04272700
#
# Stress axis : x y z
#
# Youngs Moduli (GPa) = 124.80003 20.83862 162.92889
#
# Poissons Ratio (x) = 0.14957 0.45768
# Poissons Ratio (y) = 0.89578 -0.04582
# Poissons Ratio (z) = 0.35057 -0.00586
#
# Static dielectric constant tensor:
#      x y z
#    x 3.972230 0.000000 0.000000 
#    y 0.000000 3.241380 0.000000 
#    z 0.000000 0.000000 3.229820 
# 
# 
# High freq. dielectric constant tensor:
#      x y z
#    x 1.852310 0.000000 0.000000 
#    y 0.000000 1.778750 0.000000 
#    z 0.000000 0.000000 1.866930 
# 
# From -- ./inp_files/2245.got.cif
#   From: 2010.03.12/outbox.cif.g09.slc.cpg/sg54_2_cif.got.tgz:2245.got - 2010.04.16 15:00:50.
