data_PCOD8222004
_publ_section_title
;
Structure prediction by ZEFSAII (Michael W. Deem and Ramdas Pophale) SiO2 
 PCOD8222004
Probable space group: P M N A
;
_chemical_formula_sum "Si O2"
_cell_formula_units_Z 64
_cell_length_a 9.398337
_cell_length_b 20.138098
_cell_length_c 21.839035
_cell_angle_alpha 90.000000
_cell_angle_beta 90.000000
_cell_angle_gamma 90.000000
_cell_volume 4133.356913
_symmetry_space_group_name_H-M "P M N A"
_symmetry_group_IT_number 53
_symmetry_cell_setting 'orthorhombic'
loop_
_space_group_symop_operation_xyz
x,y,z
1/2-x,-y,1/2+z
x,-y,-z
1/2-x,y,1/2-z
-x,-y,-z
1/2+x,y,1/2-z
-x,y,z
1/2+x,-y,1/2+z
loop_
_atom_site_type_symbol
_atom_site_label
_atom_site_fract_x
_atom_site_fract_y
_atom_site_fract_z
Si Si1 0.330302 0.626558 0.313381
Si Si2 0.341923 0.133568 0.447133
Si Si3 0.837425 0.402531 0.459031
Si Si4 0.832032 0.749244 0.106155
Si Si5 0.335694 0.542459 0.091829
Si Si6 0.159790 0.986597 0.572073
Si Si7 0.659228 0.107568 0.591156
Si Si8 0.332490 0.278681 0.471671
O O1 0.250000 0.618844 0.250000
O O2 0.500000 0.619077 0.305533
O O3 0.287541 0.698528 0.340677
O O4 0.272795 0.569166 0.357577
O O5 0.500000 0.121472 0.420534
O O6 0.234975 0.083560 0.412976
O O7 0.344129 0.119555 0.518980
O O8 0.294971 0.210030 0.436430
O O9 0.811511 0.463340 0.412580
O O10 0.795649 0.424556 0.527379
O O11 0.742452 0.340200 0.437725
O O12 0.000000 0.379793 0.456875
O O13 0.779873 0.824376 0.122129
O O14 0.000000 0.753339 0.097800
O O15 0.770247 0.724619 0.041041
O O16 0.500000 0.557935 0.109226
O O17 0.000000 0.983036 0.597216
O O18 0.162950 0.000000 0.500000
O O19 0.239433 0.045967 0.607884
O O20 0.500000 0.090896 0.614566
O O21 0.500000 0.291277 0.471416
#
# Coordination Sequence:
#
# PCOD8222004 Si02
#       8
#     8   8   8   8   8   8   8   8
#     4  11  21  33  48  64  84 110 142 180 219 258
#     4   8  14  22  33  48  70 101 133 163 195 234
#     4   9  17  28  44  63  86 110 135 173 217 257
#     4   8  15  27  41  57  76 101 136 174 207 247
#     4   9  18  32  45  62  85 110 139 171 212 262
#     4   9  15  21  29  46  71  96 127 164 197 230
#     4   8  13  23  37  48  64  95 132 165 197 232
#     4   9  15  25  40  59  80 104 139 176 206 245
#
# _framework density 15.483782
#
# number of rings (size 3 to 8) (size 9 to 14) (size 15 to 20)
#    0.000    3.125    1.250    3.000    0.000    2.500 
#    0.000    4.375    0.000    0.000    0.000    0.000 
#    0.000    0.000    0.000    1.125    0.000   19.375 
#
# Total GULP energy -793180.305400 kJ/mol
# GULP energy per Si atom -12393.442272 kJ/mol
# Density = 1.544854 g / cm^3
# Si number density = 15.483782 Si / 1000 Ang^3
#
#
#
# Elastic Constant Matrix: (Units=GPa)
#
#
# Indices 1 2 3 4 5 6 
#
# 1 85.7097 70.5202 24.5953 0.0000 0.0000 0.0000
# 2 70.5202 139.1674 27.5266 0.0000 0.0000 0.0000
# 3 24.5953 27.5266 37.2445 0.0000 0.0000 0.0000
# 4 0.0000 0.0000 0.0000 10.7243 0.0000 0.0000
# 5 0.0000 0.0000 0.0000 0.0000 10.9382 0.0000
# 6 0.0000 0.0000 0.0000 0.0000 0.0000 26.7469
#
#
#
# Elastic Compliance Matrix: (Units=1/GPa)
#
#
# Indices 1 2 3 4 5 6 
#
# 1 0.021547 -0.009492 -0.007214 0.000000 0.000000 0.000000
# 2 -0.009492 0.012597 -0.003042 0.000000 0.000000 0.000000
# 3 -0.007214 -0.003042 0.033862 0.000000 0.000000 0.000000
# 4 0.000000 0.000000 0.000000 0.093246 0.000000 0.000000
# 5 0.000000 0.000000 0.000000 0.000000 0.091423 0.000000
# 6 0.000000 0.000000 0.000000 0.000000 0.000000 0.037388
#
#
# Mechanical properties :
#
#
# Convention : Reuss Voigt Hill
#
# Bulk Modulus (GPa) = 35.07496 56.37840 45.72668
# Shear Modulus (GPa) = 14.74661 18.98051 16.86356
#
# Velocity S-wave (km/s) = 3.08943 3.50499 3.30375
# Velocity P-wave (km/s) = 5.95214 7.27119 6.64448
#
# Compressibility (1/GPa) = 0.02851037
#
# Stress axis : x y z
#
# Youngs Moduli (GPa) = 46.41052 79.38435 29.53165
#
# Poissons Ratio (x) = 0.75348 0.21304
# Poissons Ratio (y) = 0.44051 0.08984
# Poissons Ratio (z) = 0.33481 0.24150
#
# Static dielectric constant tensor:
#      x y z
#    x 2.939720 0.000000 0.000000 
#    y 0.000000 3.264260 0.000000 
#    z 0.000000 0.000000 2.399320 
# 
# 
# High freq. dielectric constant tensor:
#      x y z
#    x 1.589960 0.000000 0.000000 
#    y 0.000000 1.609820 0.000000 
#    z 0.000000 0.000000 1.514210 
# 
# From -- ./inp_files/34579.got.cif
#   From: 2010.03.12/outbox.cif.g09.slc.cpg/sg53_18_cif.got.tgz:34579.got - 2010.04.16 14:36:59.
