data_PCOD8222049
_publ_section_title
;
Structure prediction by ZEFSAII (Michael W. Deem and Ramdas Pophale) SiO2 
 PCOD8222049
Probable space group: P M N A
;
_chemical_formula_sum "Si O2"
_cell_formula_units_Z 40
_cell_length_a 8.503936
_cell_length_b 18.319576
_cell_length_c 13.458591
_cell_angle_alpha 90.000000
_cell_angle_beta 90.000000
_cell_angle_gamma 90.000000
_cell_volume 2096.693729
_symmetry_space_group_name_H-M "P M N A"
_symmetry_group_IT_number 53
_symmetry_cell_setting 'orthorhombic'
loop_
_space_group_symop_operation_xyz
x,y,z
1/2-x,-y,1/2+z
x,-y,-z
1/2-x,y,1/2-z
-x,-y,-z
1/2+x,y,1/2-z
-x,y,z
1/2+x,-y,1/2+z
loop_
_atom_site_type_symbol
_atom_site_label
_atom_site_fract_x
_atom_site_fract_y
_atom_site_fract_z
Si Si1 0.815483 0.026424 0.646010
Si Si2 0.183850 0.893338 0.964253
Si Si3 0.183865 0.243050 0.359513
Si Si4 0.813984 0.609958 0.941644
Si Si5 0.815818 0.542683 0.145189
O O1 0.750000 0.056018 0.750000
O O2 0.778194 0.087384 0.564043
O O3 0.000000 0.012275 0.650903
O O4 0.730055 0.950042 0.621991
O O5 0.228065 0.812048 0.932814
O O6 0.000000 0.898946 0.986513
O O7 0.250000 0.232894 0.250000
O O8 0.214537 0.323952 0.398636
O O9 0.000000 0.226070 0.358949
O O10 0.756769 0.538675 0.881132
O O11 0.000000 0.624033 0.928502
O O12 0.768885 0.598888 0.057696
O O13 0.750000 0.570665 0.250000
O O14 0.000000 0.539337 0.153021
#
# Coordination Sequence:
#
# PCOD8222049 Si02
#       5
#     8   8   8   8   8
#     4  11  21  37  59  85 114 146 183 225 270 322
#     4  11  22  38  58  83 112 145 184 228 272 321
#     4  12  24  38  56  81 110 143 179 223 274 327
#     4   9  19  36  54  78 109 143 179 222 269 321
#     4   9  18  33  55  79 108 141 179 222 269 319
#
# _framework density 19.077655
#
# number of rings (size 3 to 8) (size 9 to 14) (size 15 to 20)
#    0.000    1.600    0.000    9.000    0.000    3.200 
#    0.000    3.000    0.000    2.400    0.000    0.000 
#    0.000    0.000    0.000    0.000    0.000    0.000 
#
# Total GULP energy -496132.700894 kJ/mol
# GULP energy per Si atom -12403.317522 kJ/mol
# Density = 1.903423 g / cm^3
# Si number density = 19.077655 Si / 1000 Ang^3
#
#
#
# Elastic Constant Matrix: (Units=GPa)
#
#
# Indices 1 2 3 4 5 6 
#
# 1 76.7751 12.4313 15.5790 0.0000 0.0000 0.0000
# 2 12.4313 59.1431 7.8723 0.0000 0.0000 0.0000
# 3 15.5790 7.8723 100.7079 0.0000 0.0000 0.0000
# 4 0.0000 0.0000 0.0000 26.8664 0.0000 0.0000
# 5 0.0000 0.0000 0.0000 0.0000 35.2325 0.0000
# 6 0.0000 0.0000 0.0000 0.0000 0.0000 12.4192
#
#
#
# Elastic Compliance Matrix: (Units=1/GPa)
#
#
# Indices 1 2 3 4 5 6 
#
# 1 0.013847 -0.002653 -0.001935 0.000000 0.000000 0.000000
# 2 -0.002653 0.017594 -0.000965 0.000000 0.000000 0.000000
# 3 -0.001935 -0.000965 0.010304 0.000000 0.000000 0.000000
# 4 0.000000 0.000000 0.000000 0.037221 0.000000 0.000000
# 5 0.000000 0.000000 0.000000 0.000000 0.028383 0.000000
# 6 0.000000 0.000000 0.000000 0.000000 0.000000 0.080521
#
#
# Mechanical properties :
#
#
# Convention : Reuss Voigt Hill
#
# Bulk Modulus (GPa) = 32.63652 34.26572 33.45112
# Shear Modulus (GPa) = 23.90178 28.28652 26.09415
#
# Velocity S-wave (km/s) = 3.54343 3.85477 3.70237
# Velocity P-wave (km/s) = 5.82113 6.14919 5.98740
#
# Compressibility (1/GPa) = 0.03064052
#
# Stress axis : x y z
#
# Youngs Moduli (GPa) = 72.21672 56.83689 97.04572
#
# Poissons Ratio (x) = 0.15079 0.18775
# Poissons Ratio (y) = 0.19159 0.09364
# Poissons Ratio (z) = 0.13972 0.05484
#
# Static dielectric constant tensor:
#      x y z
#    x 3.494830 0.000000 0.000000 
#    y 0.000000 3.362760 0.000000 
#    z 0.000000 0.000000 3.363460 
# 
# 
# High freq. dielectric constant tensor:
#      x y z
#    x 1.749390 0.000000 0.000000 
#    y 0.000000 1.726950 0.000000 
#    z 0.000000 0.000000 1.751460 
# 
# From -- ./inp_files/13900.got.cif
#   From: 2010.03.12/outbox.cif.g09.slc.cpg/sg53_7_cif.got.tgz:13900.got - 2010.04.16 14:36:59.
