data_PCOD8222233
_publ_section_title
;
Structure prediction by ZEFSAII (Michael W. Deem and Ramdas Pophale) SiO2 
 PCOD8222233
Probable space group: P M N A
;
_chemical_formula_sum "Si O2"
_cell_formula_units_Z 64
_cell_length_a 9.288323
_cell_length_b 18.527088
_cell_length_c 26.521200
_cell_angle_alpha 90.000000
_cell_angle_beta 90.000000
_cell_angle_gamma 90.000000
_cell_volume 4563.916020
_symmetry_space_group_name_H-M "P M N A"
_symmetry_group_IT_number 53
_symmetry_cell_setting 'orthorhombic'
loop_
_space_group_symop_operation_xyz
x,y,z
1/2-x,-y,1/2+z
x,-y,-z
1/2-x,y,1/2-z
-x,-y,-z
1/2+x,y,1/2-z
-x,y,z
1/2+x,-y,1/2+z
loop_
_atom_site_type_symbol
_atom_site_label
_atom_site_fract_x
_atom_site_fract_y
_atom_site_fract_z
Si Si1 0.167943 0.079997 0.400120
Si Si2 0.327469 0.595174 0.898748
Si Si3 0.668635 0.162138 0.997758
Si Si4 0.331193 0.328048 0.200782
Si Si5 0.842051 0.457624 0.552124
Si Si6 0.662589 0.958027 0.447762
Si Si7 0.167982 0.838253 0.700495
Si Si8 0.327670 0.675377 0.996809
O O1 0.201771 0.134685 0.445805
O O2 0.218078 0.116779 0.348184
O O3 0.000000 0.060274 0.399367
O O4 0.256833 0.005982 0.405852
O O5 0.500000 0.592972 0.900168
O O6 0.271656 0.624332 0.845433
O O7 0.265220 0.513337 0.908639
O O8 0.271815 0.649801 0.942011
O O9 0.500000 0.155780 0.985859
O O10 0.726558 0.243854 0.992931
O O11 0.753561 0.116983 0.955498
O O12 0.250000 0.356529 0.250000
O O13 0.500000 0.338712 0.208854
O O14 0.293059 0.244884 0.189811
O O15 0.857394 0.500000 0.500000
O O16 0.765845 0.380201 0.540041
O O17 0.000000 0.440199 0.573922
O O18 0.500000 0.942532 0.429708
O O19 0.664726 0.000000 0.500000
O O20 0.250000 0.867085 0.750000
O O21 0.000000 0.848212 0.710558
O O22 0.500000 0.672690 0.997327
#
# Coordination Sequence:
#
# PCOD8222233 Si02
#       8
#     8   8   8   8   8   8   8   8
#     4   9  16  26  39  53  70  95 125 151 177 212
#     4   8  12  19  32  49  71  98 123 147 178 212
#     4   9  15  23  37  55  74  96 121 149 180 214
#     4   9  16  25  36  51  72  97 124 152 179 206
#     4   7  10  16  27  47  73  94 113 143 180 212
#     4   9  17  27  37  51  72  96 121 149 180 215
#     4   9  17  27  38  53  73  96 123 154 182 209
#     4   8  12  18  31  52  74  94 118 148 180 213
#
# _framework density 14.023045
#
# number of rings (size 3 to 8) (size 9 to 14) (size 15 to 20)
#    0.000    3.500    0.000    2.625    0.000    5.000 
#    0.000    0.000    0.000    2.250    0.000    0.875 
#    0.000    4.000    0.000    4.250    0.000    2.000 
#
# Total GULP energy -792936.224078 kJ/mol
# GULP energy per Si atom -12389.628501 kJ/mol
# Density = 1.399113 g / cm^3
# Si number density = 14.023045 Si / 1000 Ang^3
#
#
#
# Elastic Constant Matrix: (Units=GPa)
#
#
# Indices 1 2 3 4 5 6 
#
# 1 31.5196 33.2136 28.4943 0.0000 0.0000 0.0000
# 2 33.2136 121.5665 62.3559 0.0000 0.0000 0.0000
# 3 28.4943 62.3559 88.5001 0.0000 0.0000 0.0000
# 4 0.0000 0.0000 0.0000 25.9652 0.0000 0.0000
# 5 0.0000 0.0000 0.0000 0.0000 16.8348 0.0000
# 6 0.0000 0.0000 0.0000 0.0000 0.0000 7.9981
#
#
#
# Elastic Compliance Matrix: (Units=1/GPa)
#
#
# Indices 1 2 3 4 5 6 
#
# 1 0.049696 -0.008410 -0.010075 0.000000 0.000000 0.000000
# 2 -0.008410 0.014304 -0.007371 0.000000 0.000000 0.000000
# 3 -0.010075 -0.007371 0.019737 0.000000 0.000000 0.000000
# 4 0.000000 0.000000 0.000000 0.038513 0.000000 0.000000
# 5 0.000000 0.000000 0.000000 0.000000 0.059401 0.000000
# 6 0.000000 0.000000 0.000000 0.000000 0.000000 0.125030
#
#
# Mechanical properties :
#
#
# Convention : Reuss Voigt Hill
#
# Bulk Modulus (GPa) = 31.22515 54.41264 42.81889
# Shear Modulus (GPa) = 13.54762 17.99444 15.77103
#
# Velocity S-wave (km/s) = 3.11158 3.58607 3.35722
# Velocity P-wave (km/s) = 5.93503 7.48552 6.75491
#
# Compressibility (1/GPa) = 0.03202547
#
# Stress axis : x y z
#
# Youngs Moduli (GPa) = 20.12228 69.90817 50.66644
#
# Poissons Ratio (x) = 0.58790 0.51048
# Poissons Ratio (y) = 0.16922 0.37347
# Poissons Ratio (z) = 0.20274 0.51530
#
# Static dielectric constant tensor:
#      x y z
#    x 2.487500 0.000000 0.000000 
#    y 0.000000 2.969940 0.000000 
#    z 0.000000 0.000000 2.677090 
# 
# 
# High freq. dielectric constant tensor:
#      x y z
#    x 1.501840 0.000000 0.000000 
#    y 0.000000 1.530930 0.000000 
#    z 0.000000 0.000000 1.505690 
# 
# From -- ./inp_files/36477.got.cif
#   From: 2010.03.12/outbox.cif.g09.slc.cpg/sg53_19_cif.got.tgz:36477.got - 2010.04.16 14:36:59.
