data_PCOD8222657
_publ_section_title
;
Structure prediction by ZEFSAII (Michael W. Deem and Ramdas Pophale) SiO2 
 PCOD8222657
Probable space group: P C C A
;
_chemical_formula_sum "Si O2"
_cell_formula_units_Z 24
_cell_length_a 5.045872
_cell_length_b 8.326447
_cell_length_c 25.123508
_cell_angle_alpha 90.000000
_cell_angle_beta 90.000000
_cell_angle_gamma 90.000000
_cell_volume 1055.543732
_symmetry_space_group_name_H-M "P C C A"
_symmetry_group_IT_number 54
_symmetry_cell_setting 'orthorhombic'
loop_
_space_group_symop_operation_xyz
x,y,z
1/2-x,-y,z
1/2+x,-y,1/2-z
-x,y,1/2-z
-x,-y,-z
1/2+x,y,-z
1/2-x,y,1/2+z
x,-y,1/2+z
loop_
_atom_site_type_symbol
_atom_site_label
_atom_site_fract_x
_atom_site_fract_y
_atom_site_fract_z
Si Si1 0.018554 0.678226 0.524344
Si Si2 0.361481 0.327950 0.647426
Si Si3 0.130450 0.824526 0.307326
O O1 0.758250 0.771839 0.504539
O O2 0.000000 0.500000 0.500000
O O3 0.037697 0.672614 0.587350
O O4 0.250000 0.500000 0.665087
O O5 0.618349 0.292860 0.684095
O O6 0.115757 0.203220 0.652414
O O7 0.000000 0.797740 0.250000
O O8 0.250000 0.000000 0.315548
#
# Coordination Sequence:
#
# PCOD8222657 Si02
#       3
#     8   8   8
#     4  10  19  35  64 102 136 180 209 269 345 425
#     4  12  24  41  76 111 132 174 240 295 329 401
#     4  12  27  49  70  93 141 196 228 274 359 424
#
# _framework density 22.737100000000002
#
# number of rings (size 3 to 8) (size 9 to 14) (size 15 to 20)
#    0.000    0.667    3.333    7.000    4.667    2.667 
#    0.000    1.667    0.000   20.000    0.000    0.000 
#    0.000    0.000    0.000    0.000    0.000    0.000 
#
# Total GULP energy -297407.520995 kJ/mol
# GULP energy per Si atom -12391.980041 kJ/mol
# Density = 2.268535 g / cm^3
# Si number density = 22.737100 Si / 1000 Ang^3
#
#
#
# Elastic Constant Matrix: (Units=GPa)
#
#
# Indices 1 2 3 4 5 6 
#
# 1 243.7604 60.4898 67.7702 0.0000 0.0000 0.0000
# 2 60.4898 72.4998 67.8998 0.0000 0.0000 0.0000
# 3 67.7702 67.8998 111.1919 0.0000 0.0000 0.0000
# 4 0.0000 0.0000 0.0000 4.7783 0.0000 0.0000
# 5 0.0000 0.0000 0.0000 0.0000 55.6301 0.0000
# 6 0.0000 0.0000 0.0000 0.0000 0.0000 43.7239
#
#
#
# Elastic Compliance Matrix: (Units=1/GPa)
#
#
# Indices 1 2 3 4 5 6 
#
# 1 0.005244 -0.003228 -0.001225 0.000000 0.000000 0.000000
# 2 -0.003228 0.034207 -0.018921 0.000000 0.000000 0.000000
# 3 -0.001225 -0.018921 0.021294 0.000000 0.000000 0.000000
# 4 0.000000 0.000000 0.000000 0.209281 0.000000 0.000000
# 5 0.000000 0.000000 0.000000 0.000000 0.017976 0.000000
# 6 0.000000 0.000000 0.000000 0.000000 0.000000 0.022871
#
#
# Mechanical properties :
#
#
# Convention : Reuss Voigt Hill
#
# Bulk Modulus (GPa) = 71.44374 91.08574 81.26474
# Shear Modulus (GPa) = 13.80117 36.24594 25.02356
#
# Velocity S-wave (km/s) = 2.46639 3.99699 3.32107
# Velocity P-wave (km/s) = 6.29290 7.83892 7.10807
#
# Compressibility (1/GPa) = 0.01399703
#
# Stress axis : x y z
#
# Youngs Moduli (GPa) = 190.69412 29.23343 46.96058
#
# Poissons Ratio (x) = 0.09437 0.05752
# Poissons Ratio (y) = 0.61559 0.88856
# Poissons Ratio (z) = 0.23358 0.55314
#
# Static dielectric constant tensor:
#      x y z
#    x 3.507980 0.000000 0.000000 
#    y 0.000000 3.789620 0.000000 
#    z 0.000000 0.000000 4.042780 
# 
# 
# High freq. dielectric constant tensor:
#      x y z
#    x 1.949860 0.000000 0.000000 
#    y 0.000000 1.852990 0.000000 
#    z 0.000000 0.000000 1.898920 
# 
# From -- ./inp_files/24986.got.cif
#   From: 2010.03.12/outbox.cif.g09.slc.cpg/sg54_13_cif.got.tgz:24986.got - 2010.04.16 15:00:50.
