data_PCOD8222332
_publ_section_title
;
Structure prediction by ZEFSAII (Michael W. Deem and Ramdas Pophale) SiO2 
 PCOD8222332
Probable space group: P C C A
;
_chemical_formula_sum "Si O2"
_cell_formula_units_Z 48
_cell_length_a 5.207193
_cell_length_b 16.468084
_cell_length_c 27.554335
_cell_angle_alpha 90.000000
_cell_angle_beta 90.000000
_cell_angle_gamma 90.000000
_cell_volume 2362.852884
_symmetry_space_group_name_H-M "P C C A"
_symmetry_group_IT_number 54
_symmetry_cell_setting 'orthorhombic'
loop_
_space_group_symop_operation_xyz
x,y,z
1/2-x,-y,z
1/2+x,-y,1/2-z
-x,y,1/2-z
-x,-y,-z
1/2+x,y,-z
1/2-x,y,1/2+z
x,-y,1/2+z
loop_
_atom_site_type_symbol
_atom_site_label
_atom_site_fract_x
_atom_site_fract_y
_atom_site_fract_z
Si Si1 0.864669 0.297372 0.628470
Si Si2 0.147076 0.847333 0.519441
Si Si3 0.002672 0.949868 0.693141
Si Si4 0.094528 0.665504 0.478072
Si Si5 0.363274 0.196011 0.626478
Si Si6 0.247256 0.404893 0.780067
O O1 0.951641 0.343076 0.579557
O O2 0.605629 0.251389 0.613785
O O3 0.774584 0.360006 0.669094
O O4 0.107482 0.242375 0.646170
O O5 0.380123 0.893829 0.492014
O O6 0.098455 0.759035 0.495353
O O7 0.212933 0.847636 0.576442
O O8 0.025632 0.864142 0.666904
O O9 0.000000 0.931266 0.750000
O O10 0.250000 0.000000 0.677324
O O11 0.750000 0.000000 0.677222
O O12 0.354657 0.621409 0.495520
O O13 0.250000 0.500000 0.791165
O O14 0.500000 0.378036 0.750000
O O15 0.000000 0.378862 0.750000
#
# Coordination Sequence:
#
# PCOD8222332 Si02
#       6
#     8   8   8   8   8   8
#     4  12  21  33  60  93 111 145 197 245 278 331
#     4  10  16  30  49  80 113 149 172 220 284 352
#     4  10  23  43  59  75 110 156 188 227 296 356
#     4  10  16  30  49  80 115 150 174 221 284 352
#     4  12  21  33  61  92 110 143 196 245 278 331
#     4  10  23  43  60  79 119 165 193 232 300 359
#
# _framework density 20.314427999999999
#
# number of rings (size 3 to 8) (size 9 to 14) (size 15 to 20)
#    0.000    1.333    6.667    2.000    0.000    2.000 
#    0.000    0.000    0.000    4.000    0.000    0.000 
#    0.000    0.000    0.000    0.000    0.000    0.000 
#
# Total GULP energy -594933.323758 kJ/mol
# GULP energy per Si atom -12394.444245 kJ/mol
# Density = 2.026819 g / cm^3
# Si number density = 20.314428 Si / 1000 Ang^3
#
#
#
# Elastic Constant Matrix: (Units=GPa)
#
#
# Indices 1 2 3 4 5 6 
#
# 1 193.2483 27.4866 45.2608 0.0000 0.0000 0.0000
# 2 27.4866 29.8919 39.7664 0.0000 0.0000 0.0000
# 3 45.2608 39.7664 120.4649 0.0000 0.0000 0.0000
# 4 0.0000 0.0000 0.0000 1.9667 0.0000 0.0000
# 5 0.0000 0.0000 0.0000 0.0000 18.6576 0.0000
# 6 0.0000 0.0000 0.0000 0.0000 0.0000 2.6231
#
#
#
# Elastic Compliance Matrix: (Units=1/GPa)
#
#
# Indices 1 2 3 4 5 6 
#
# 1 0.005993 -0.004485 -0.000771 0.000000 0.000000 0.000000
# 2 -0.004485 0.063005 -0.019113 0.000000 0.000000 0.000000
# 3 -0.000771 -0.019113 0.014900 0.000000 0.000000 0.000000
# 4 0.000000 0.000000 0.000000 0.508469 0.000000 0.000000
# 5 0.000000 0.000000 0.000000 0.000000 0.053598 0.000000
# 6 0.000000 0.000000 0.000000 0.000000 0.000000 0.381225
#
#
# Mechanical properties :
#
#
# Convention : Reuss Voigt Hill
#
# Bulk Modulus (GPa) = 28.44171 63.18141 45.81156
# Shear Modulus (GPa) = 4.59707 20.05556 12.32632
#
# Velocity S-wave (km/s) = 1.50595 3.14547 2.46596
# Velocity P-wave (km/s) = 4.12977 6.66043 5.54149
#
# Compressibility (1/GPa) = 0.03515963
#
# Stress axis : x y z
#
# Youngs Moduli (GPa) = 166.85467 15.87169 67.11205
#
# Poissons Ratio (x) = 0.07118 0.05176
# Poissons Ratio (y) = 0.74834 1.28274
# Poissons Ratio (z) = 0.12869 0.30336
#
# Static dielectric constant tensor:
#      x y z
#    x -0.454860 0.000000 0.000000 
#    y 0.000000 3.115410 0.000000 
#    z 0.000000 0.000000 3.661960 
# 
# 
# High freq. dielectric constant tensor:
#      x y z
#    x 1.834040 0.000000 0.000000 
#    y 0.000000 1.726960 0.000000 
#    z 0.000000 0.000000 1.801200 
# 
# From -- ./inp_files/22916.got.cif
#   From: 2010.03.12/outbox.cif.g09.slc.cpg/sg54_12_cif.got.tgz:22916.got - 2010.04.16 15:00:50.
