data_PCOD8222428
_publ_section_title
;
Structure prediction by ZEFSAII (Michael W. Deem and Ramdas Pophale) SiO2 
 PCOD8222428
Probable space group: P C C A
;
_chemical_formula_sum "Si O2"
_cell_formula_units_Z 36
_cell_length_a 15.238950
_cell_length_b 7.128932
_cell_length_c 18.011338
_cell_angle_alpha 90.000000
_cell_angle_beta 90.000000
_cell_angle_gamma 90.000000
_cell_volume 1956.705621
_symmetry_space_group_name_H-M "P C C A"
_symmetry_group_IT_number 54
_symmetry_cell_setting 'orthorhombic'
loop_
_space_group_symop_operation_xyz
x,y,z
1/2-x,-y,z
1/2+x,-y,1/2-z
-x,y,1/2-z
-x,-y,-z
1/2+x,y,-z
1/2-x,y,1/2+z
x,-y,1/2+z
loop_
_atom_site_type_symbol
_atom_site_label
_atom_site_fract_x
_atom_site_fract_y
_atom_site_fract_z
Si Si1 0.958837 0.233534 0.556200
Si Si2 0.091926 0.656543 0.937821
Si Si3 0.502583 0.076977 0.837497
Si Si4 0.750000 0.500000 0.485086
Si Si5 0.331292 0.143452 0.566042
O O1 0.941964 0.447650 0.575864
O O2 0.879808 0.124993 0.513709
O O3 0.043699 0.228493 0.503258
O O4 0.976959 0.128046 0.632680
O O5 0.193229 0.637420 0.961332
O O6 0.071135 0.771658 0.863089
O O7 0.500000 0.071321 0.750000
O O8 0.600720 0.122600 0.866183
O O9 0.697146 0.637627 0.430529
O O10 0.250000 0.000000 0.573306
#
# Coordination Sequence:
#
# PCOD8222428 Si02
#       5
#     8   8   8   4   8
#     4   9  18  34  56  77  99 133 179 221 257 303
#     4   9  18  34  56  78  99 132 177 221 259 300
#     4  11  22  35  51  77 114 147 170 204 265 332
#     4  10  18  32  58  82  98 126 182 236 262 292
#     4  10  19  34  57  78 100 133 179 228 264 306
#
# _framework density 18.398271000000001
#
# number of rings (size 3 to 8) (size 9 to 14) (size 15 to 20)
#    0.000    2.222    0.000    6.667    0.000    0.889 
#    0.000    6.667    0.000    0.000    0.000    0.000 
#    0.000    0.000    0.000    0.000    0.000    0.000 
#
# Total GULP energy -446162.903759 kJ/mol
# GULP energy per Si atom -12393.413993 kJ/mol
# Density = 1.835640 g / cm^3
# Si number density = 18.398271 Si / 1000 Ang^3
#
#
#
# Elastic Constant Matrix: (Units=GPa)
#
#
# Indices 1 2 3 4 5 6 
#
# 1 100.8181 36.7479 34.1567 0.0000 0.0000 0.0000
# 2 36.7479 96.2468 59.1149 0.0000 0.0000 0.0000
# 3 34.1567 59.1149 138.1106 0.0000 0.0000 0.0000
# 4 0.0000 0.0000 0.0000 17.7120 0.0000 0.0000
# 5 0.0000 0.0000 0.0000 0.0000 12.3493 0.0000
# 6 0.0000 0.0000 0.0000 0.0000 0.0000 39.4193
#
#
#
# Elastic Compliance Matrix: (Units=1/GPa)
#
#
# Indices 1 2 3 4 5 6 
#
# 1 0.011700 -0.003649 -0.001332 0.000000 0.000000 0.000000
# 2 -0.003649 0.015234 -0.005618 0.000000 0.000000 0.000000
# 3 -0.001332 -0.005618 0.009975 0.000000 0.000000 0.000000
# 4 0.000000 0.000000 0.000000 0.056459 0.000000 0.000000
# 5 0.000000 0.000000 0.000000 0.000000 0.080976 0.000000
# 6 0.000000 0.000000 0.000000 0.000000 0.000000 0.025368
#
#
# Mechanical properties :
#
#
# Convention : Reuss Voigt Hill
#
# Bulk Modulus (GPa) = 63.65069 66.13494 64.89281
# Shear Modulus (GPa) = 22.10954 27.57319 24.84137
#
# Velocity S-wave (km/s) = 3.47034 3.87548 3.67849
# Velocity P-wave (km/s) = 7.12242 7.48666 7.30681
#
# Compressibility (1/GPa) = 0.01571075
#
# Stress axis : x y z
#
# Youngs Moduli (GPa) = 85.46884 65.64320 100.25544
#
# Poissons Ratio (x) = 0.23956 0.13350
# Poissons Ratio (y) = 0.31191 0.56323
# Poissons Ratio (z) = 0.11381 0.36878
#
# Static dielectric constant tensor:
#      x y z
#    x 3.649170 0.000000 0.000000 
#    y 0.000000 3.565760 0.000000 
#    z 0.000000 0.000000 2.919240 
# 
# 
# High freq. dielectric constant tensor:
#      x y z
#    x 1.720020 0.000000 0.000000 
#    y 0.000000 1.741190 0.000000 
#    z 0.000000 0.000000 1.661120 
# 
# From -- ./inp_files/17744.got.cif
#   From: 2010.03.12/outbox.cif.g09.slc.cpg/sg54_9_cif.got.tgz:17744.got - 2010.04.16 15:00:50.
