data_PCOD8222573
_publ_section_title
;
Structure prediction by ZEFSAII (Michael W. Deem and Ramdas Pophale) SiO2 
 PCOD8222573
Probable space group: P C C A
;
_chemical_formula_sum "Si O2"
_cell_formula_units_Z 48
_cell_length_a 10.188703
_cell_length_b 10.327188
_cell_length_c 24.502065
_cell_angle_alpha 90.000000
_cell_angle_beta 90.000000
_cell_angle_gamma 90.000000
_cell_volume 2578.123239
_symmetry_space_group_name_H-M "P C C A"
_symmetry_group_IT_number 54
_symmetry_cell_setting 'orthorhombic'
loop_
_space_group_symop_operation_xyz
x,y,z
1/2-x,-y,z
1/2+x,-y,1/2-z
-x,y,1/2-z
-x,-y,-z
1/2+x,y,-z
1/2-x,y,1/2+z
x,-y,1/2+z
loop_
_atom_site_type_symbol
_atom_site_label
_atom_site_fract_x
_atom_site_fract_y
_atom_site_fract_z
Si Si1 0.566181 0.214390 0.616257
Si Si2 0.643322 0.888609 0.228472
Si Si3 0.448059 0.441216 0.556296
Si Si4 0.818864 0.306625 0.929349
Si Si5 0.708091 0.146591 0.841646
Si Si6 0.873313 0.084971 0.009487
O O1 0.636285 0.204378 0.675318
O O2 0.555126 0.362136 0.592614
O O3 0.422701 0.154136 0.622557
O O4 0.642916 0.125953 0.572610
O O5 0.500000 0.943717 0.250000
O O6 0.692839 0.801171 0.279543
O O7 0.750000 0.000000 0.215424
O O8 0.500000 0.500000 0.500000
O O9 0.404046 0.569376 0.588427
O O10 0.322803 0.348224 0.546154
O O11 0.815997 0.230866 0.872257
O O12 0.887637 0.216539 0.974589
O O13 0.750000 0.000000 0.837970
O O14 0.750000 0.000000 0.990141
O O15 0.000000 0.000000 0.000000
#
# Coordination Sequence:
#
# PCOD8222573 Si02
#       6
#     8   8   8   8   8   8
#     4  10  19  33  52  83 108 147 191 232 283 333
#     4   9  18  33  57  84 113 147 185 235 290 346
#     4  10  19  35  54  78 111 154 196 229 278 338
#     4  10  20  33  54  81 110 153 194 228 281 346
#     4   9  17  33  54  83 112 145 187 232 287 345
#     4  12  23  34  53  84 120 145 180 237 291 342
#
# _framework density 18.618193000000002
#
# number of rings (size 3 to 8) (size 9 to 14) (size 15 to 20)
#    0.000    2.000    1.667    4.000    0.000    0.000 
#    0.000    0.000    0.000    0.000   39.000    2.333 
#    0.000    0.000    0.000    0.000    0.000    0.000 
#
# Total GULP energy -594689.336573 kJ/mol
# GULP energy per Si atom -12389.361179 kJ/mol
# Density = 1.857582 g / cm^3
# Si number density = 18.618193 Si / 1000 Ang^3
#
#
#
# Elastic Constant Matrix: (Units=GPa)
#
#
# Indices 1 2 3 4 5 6 
#
# 1 58.4244 37.2254 36.0274 0.0000 0.0000 0.0000
# 2 37.2254 105.9306 63.8922 0.0000 0.0000 0.0000
# 3 36.0274 63.8922 149.6056 0.0000 0.0000 0.0000
# 4 0.0000 0.0000 0.0000 26.7604 0.0000 0.0000
# 5 0.0000 0.0000 0.0000 0.0000 26.2041 0.0000
# 6 0.0000 0.0000 0.0000 0.0000 0.0000 26.0746
#
#
#
# Elastic Compliance Matrix: (Units=1/GPa)
#
#
# Indices 1 2 3 4 5 6 
#
# 1 0.022892 -0.006357 -0.002798 0.000000 0.000000 0.000000
# 2 -0.006357 0.014481 -0.004653 0.000000 0.000000 0.000000
# 3 -0.002798 -0.004653 0.009345 0.000000 0.000000 0.000000
# 4 0.000000 0.000000 0.000000 0.037369 0.000000 0.000000
# 5 0.000000 0.000000 0.000000 0.000000 0.038162 0.000000
# 6 0.000000 0.000000 0.000000 0.000000 0.000000 0.038351
#
#
# Mechanical properties :
#
#
# Convention : Reuss Voigt Hill
#
# Bulk Modulus (GPa) = 52.35209 65.36119 58.85664
# Shear Modulus (GPa) = 25.69589 27.59554 26.64571
#
# Velocity S-wave (km/s) = 3.71907 3.85409 3.78718
# Velocity P-wave (km/s) = 6.82801 7.41536 7.12774
#
# Compressibility (1/GPa) = 0.01910143
#
# Stress axis : x y z
#
# Youngs Moduli (GPa) = 43.68376 69.05691 107.00476
#
# Poissons Ratio (x) = 0.43899 0.29938
# Poissons Ratio (y) = 0.27770 0.49794
# Poissons Ratio (z) = 0.12222 0.32135
#
# Static dielectric constant tensor:
#      x y z
#    x 3.271330 0.000000 0.000000 
#    y 0.000000 3.399410 0.000000 
#    z 0.000000 0.000000 3.751710 
# 
# 
# High freq. dielectric constant tensor:
#      x y z
#    x 1.709880 0.000000 0.000000 
#    y 0.000000 1.712190 0.000000 
#    z 0.000000 0.000000 1.728280 
# 
# From -- ./inp_files/24035.got.cif
#   From: 2010.03.12/outbox.cif.g09.slc.cpg/sg54_13_cif.got.tgz:24035.got - 2010.04.16 15:00:50.
