data_PCOD8222126
_publ_section_title
;
Structure prediction by ZEFSAII (Michael W. Deem and Ramdas Pophale) SiO2 
 PCOD8222126
Probable space group: P M N A
;
_chemical_formula_sum "Si O2"
_cell_formula_units_Z 40
_cell_length_a 16.095741
_cell_length_b 22.073124
_cell_length_c 5.015621
_cell_angle_alpha 90.000000
_cell_angle_beta 90.000000
_cell_angle_gamma 90.000000
_cell_volume 1781.966315
_symmetry_space_group_name_H-M "P M N A"
_symmetry_group_IT_number 53
_symmetry_cell_setting 'orthorhombic'
loop_
_space_group_symop_operation_xyz
x,y,z
1/2-x,-y,1/2+z
x,-y,-z
1/2-x,y,1/2-z
-x,-y,-z
1/2+x,y,1/2-z
-x,y,z
1/2+x,-y,1/2+z
loop_
_atom_site_type_symbol
_atom_site_label
_atom_site_fract_x
_atom_site_fract_y
_atom_site_fract_z
Si Si1 0.846931 0.826081 0.687133
Si Si2 0.158439 0.625488 0.150846
Si Si3 0.594098 0.438297 0.127773
Si Si4 0.651224 0.964078 0.753417
Si Si5 0.405233 0.243134 0.672614
O O1 0.750000 0.819013 0.750000
O O2 0.877669 0.895052 0.714515
O O3 0.861871 0.798711 0.394430
O O4 0.904477 0.791448 0.894383
O O5 0.250000 0.609878 0.250000
O O6 0.094817 0.609712 0.387903
O O7 0.147084 0.696618 0.107150
O O8 0.144459 0.586369 0.882526
O O9 0.500000 0.449258 0.224607
O O10 0.632412 0.500000 0.000000
O O11 0.750000 0.966331 0.750000
O O12 0.614816 0.000000 0.500000
O O13 0.613543 0.000000 0.000000
O O14 0.500000 0.258193 0.752072
#
# Coordination Sequence:
#
# PCOD8222126 Si02
#       5
#     8   8   8   8   8
#     4  11  22  39  64  93 124 162 214 268 316 374
#     4  12  25  43  67  97 130 166 214 266 314 367
#     4  11  24  44  69  97 132 172 211 253 311 380
#     4   9  17  31  55  87 119 154 202 260 316 371
#     4  12  25  42  63  90 129 171 211 258 321 387
#
# _framework density 22.447112000000001
#
# number of rings (size 3 to 8) (size 9 to 14) (size 15 to 20)
#    0.000    1.000    0.000    7.800    0.000    6.400 
#    0.000    0.000    0.000   12.000    0.000    0.000 
#    0.000    0.000    0.000    0.000    0.000    0.000 
#
# Total GULP energy -496003.184178 kJ/mol
# GULP energy per Si atom -12400.079604 kJ/mol
# Density = 2.239602 g / cm^3
# Si number density = 22.447112 Si / 1000 Ang^3
#
#
#
# Elastic Constant Matrix: (Units=GPa)
#
#
# Indices 1 2 3 4 5 6 
#
# 1 60.6273 42.8891 23.3943 0.0000 0.0000 0.0000
# 2 42.8891 173.0838 84.6271 0.0000 0.0000 0.0000
# 3 23.3943 84.6271 168.8569 0.0000 0.0000 0.0000
# 4 0.0000 0.0000 0.0000 41.9474 0.0000 0.0000
# 5 0.0000 0.0000 0.0000 0.0000 27.2335 0.0000
# 6 0.0000 0.0000 0.0000 0.0000 0.0000 36.8192
#
#
#
# Elastic Compliance Matrix: (Units=1/GPa)
#
#
# Indices 1 2 3 4 5 6 
#
# 1 0.020019 -0.004774 -0.000381 0.000000 0.000000 0.000000
# 2 -0.004774 0.008791 -0.003745 0.000000 0.000000 0.000000
# 3 -0.000381 -0.003745 0.007852 0.000000 0.000000 0.000000
# 4 0.000000 0.000000 0.000000 0.023839 0.000000 0.000000
# 5 0.000000 0.000000 0.000000 0.000000 0.036719 0.000000
# 6 0.000000 0.000000 0.000000 0.000000 0.000000 0.027160
#
#
# Mechanical properties :
#
#
# Convention : Reuss Voigt Hill
#
# Bulk Modulus (GPa) = 53.01555 78.26544 65.64049
# Shear Modulus (GPa) = 33.67751 37.97720 35.82735
#
# Velocity S-wave (km/s) = 3.87758 4.11768 3.99943
# Velocity P-wave (km/s) = 6.61186 7.58612 7.11569
#
# Compressibility (1/GPa) = 0.01886239
#
# Stress axis : x y z
#
# Youngs Moduli (GPa) = 49.95359 113.74641 127.36199
#
# Poissons Ratio (x) = 0.54306 0.04848
# Poissons Ratio (y) = 0.23850 0.47692
# Poissons Ratio (z) = 0.01902 0.42594
#
# Static dielectric constant tensor:
#      x y z
#    x 3.723390 0.000000 0.000000 
#    y 0.000000 4.270530 0.000000 
#    z 0.000000 0.000000 4.267170 
# 
# 
# High freq. dielectric constant tensor:
#      x y z
#    x 1.866510 0.000000 0.000000 
#    y 0.000000 1.900750 0.000000 
#    z 0.000000 0.000000 1.900520 
# 
# From -- ./inp_files/2184.got.cif
#   From: 2010.03.12/outbox.cif.g09.slc.cpg/sg53_2_cif.got.tgz:2184.got - 2010.04.16 14:36:59.
