data_PCOD8222732
_publ_section_title
;
Structure prediction by ZEFSAII (Michael W. Deem and Ramdas Pophale) SiO2 
 PCOD8222732
Probable space group: P C C A
;
_chemical_formula_sum "Si O2"
_cell_formula_units_Z 56
_cell_length_a 13.976758
_cell_length_b 15.153096
_cell_length_c 12.942953
_cell_angle_alpha 90.000000
_cell_angle_beta 90.000000
_cell_angle_gamma 90.000000
_cell_volume 2741.202975
_symmetry_space_group_name_H-M "P C C A"
_symmetry_group_IT_number 54
_symmetry_cell_setting 'orthorhombic'
loop_
_space_group_symop_operation_xyz
x,y,z
1/2-x,-y,z
1/2+x,-y,1/2-z
-x,y,1/2-z
-x,-y,-z
1/2+x,y,-z
1/2-x,y,1/2+z
x,-y,1/2+z
loop_
_atom_site_type_symbol
_atom_site_label
_atom_site_fract_x
_atom_site_fract_y
_atom_site_fract_z
Si Si1 0.946264 0.526356 0.152303
Si Si2 0.604473 0.711020 0.700862
Si Si3 0.791433 0.755541 0.400752
Si Si4 0.348588 0.947666 0.526041
Si Si5 0.583950 0.761780 0.472314
Si Si6 0.925940 0.622312 0.508420
Si Si7 0.994252 0.934787 0.870153
O O1 0.874348 0.606883 0.179962
O O2 0.890645 0.446336 0.096229
O O3 0.000000 0.484942 0.250000
O O4 0.032198 0.565980 0.084709
O O5 0.500000 0.721617 0.750000
O O6 0.682012 0.749585 0.779847
O O7 0.609104 0.765658 0.594440
O O8 0.827900 0.846610 0.448234
O O9 0.678249 0.744048 0.405738
O O10 0.836217 0.677128 0.468186
O O11 0.400657 0.958740 0.414586
O O12 0.250000 0.000000 0.521957
O O13 0.419024 0.985393 0.615083
O O14 0.508186 0.685708 0.446087
O O15 0.541591 0.854791 0.440261
O O16 0.000000 0.910003 0.750000
#
# Coordination Sequence:
#
# PCOD8222732 Si02
#       7
#     8   8   8   8   8   8   8
#     4   9  17  37  67  89 124 177 219 268 339 399
#     4  10  19  42  72  90 126 184 226 267 338 419
#     4  12  22  41  71  95 134 177 228 277 337 408
#     4  11  24  45  66  98 134 179 229 277 332 410
#     4  11  23  41  65 103 130 173 231 279 332 407
#     4  10  20  39  65  93 130 171 221 282 329 400
#     4  11  25  44  67  98 137 175 221 284 344 392
#
# _framework density 20.428988
#
# number of rings (size 3 to 8) (size 9 to 14) (size 15 to 20)
#    0.000    1.429    7.143    0.000    0.000    5.143 
#    2.571    6.429    3.143    0.000    0.000    0.000 
#    0.000    0.000    0.000    0.000    0.000    0.000 
#
# Total GULP energy -694382.278917 kJ/mol
# GULP energy per Si atom -12399.683552 kJ/mol
# Density = 2.038249 g / cm^3
# Si number density = 20.428988 Si / 1000 Ang^3
#
#
#
# Elastic Constant Matrix: (Units=GPa)
#
#
# Indices 1 2 3 4 5 6 
#
# 1 73.9759 5.1510 11.0794 0.0000 0.0000 0.0000
# 2 5.1510 82.7962 29.9815 0.0000 0.0000 0.0000
# 3 11.0794 29.9815 107.4857 0.0000 0.0000 0.0000
# 4 0.0000 0.0000 0.0000 26.6353 0.0000 0.0000
# 5 0.0000 0.0000 0.0000 0.0000 25.8598 0.0000
# 6 0.0000 0.0000 0.0000 0.0000 0.0000 26.4331
#
#
#
# Elastic Compliance Matrix: (Units=1/GPa)
#
#
# Indices 1 2 3 4 5 6 
#
# 1 0.013741 -0.000380 -0.001310 0.000000 0.000000 0.000000
# 2 -0.000380 0.013445 -0.003711 0.000000 0.000000 0.000000
# 3 -0.001310 -0.003711 0.010474 0.000000 0.000000 0.000000
# 4 0.000000 0.000000 0.000000 0.037544 0.000000 0.000000
# 5 0.000000 0.000000 0.000000 0.000000 0.038670 0.000000
# 6 0.000000 0.000000 0.000000 0.000000 0.000000 0.037831
#
#
# Mechanical properties :
#
#
# Convention : Reuss Voigt Hill
#
# Bulk Modulus (GPa) = 37.23538 39.63129 38.43333
# Shear Modulus (GPa) = 29.16114 30.32203 29.74158
#
# Velocity S-wave (km/s) = 3.78225 3.85680 3.81970
# Velocity P-wave (km/s) = 6.11066 6.26696 6.18930
#
# Compressibility (1/GPa) = 0.02685618
#
# Stress axis : x y z
#
# Youngs Moduli (GPa) = 72.77684 74.37496 95.47637
#
# Poissons Ratio (x) = 0.02829 0.12510
# Poissons Ratio (y) = 0.02768 0.35433
# Poissons Ratio (z) = 0.09536 0.27602
#
# Static dielectric constant tensor:
#      x y z
#    x 3.663200 0.000000 0.000000 
#    y 0.000000 4.041670 0.000000 
#    z 0.000000 0.000000 3.936250 
# 
# 
# High freq. dielectric constant tensor:
#      x y z
#    x 1.782370 0.000000 0.000000 
#    y 0.000000 1.808840 0.000000 
#    z 0.000000 0.000000 1.797880 
# 
# From -- ./inp_files/8413.got.cif
#   From: 2010.03.12/outbox.cif.g09.slc.cpg/sg54_5_cif.got.tgz:8413.got - 2010.04.16 15:00:50.
