data_PCOD8222102
_publ_section_title
;
Structure prediction by ZEFSAII (Michael W. Deem and Ramdas Pophale) SiO2 
 PCOD8222102
Probable space group: P M N A
;
_chemical_formula_sum "Si O2"
_cell_formula_units_Z 40
_cell_length_a 10.049201
_cell_length_b 22.392068
_cell_length_c 10.125614
_cell_angle_alpha 90.000000
_cell_angle_beta 90.000000
_cell_angle_gamma 90.000000
_cell_volume 2278.489884
_symmetry_space_group_name_H-M "P M N A"
_symmetry_group_IT_number 53
_symmetry_cell_setting 'orthorhombic'
loop_
_space_group_symop_operation_xyz
x,y,z
1/2-x,-y,1/2+z
x,-y,-z
1/2-x,y,1/2-z
-x,-y,-z
1/2+x,y,1/2-z
-x,y,z
1/2+x,-y,1/2+z
loop_
_atom_site_type_symbol
_atom_site_label
_atom_site_fract_x
_atom_site_fract_y
_atom_site_fract_z
Si Si1 0.750000 0.144108 0.750000
Si Si2 0.500000 0.066920 0.343455
Si Si3 0.850399 0.673711 0.636105
Si Si4 0.346949 0.207555 0.004390
Si Si5 0.000000 0.073577 0.850060
Si Si6 0.250000 0.135583 0.250000
Si Si7 0.345586 0.537888 0.872283
O O1 0.779261 0.188237 0.630278
O O2 0.628048 0.101242 0.718811
O O3 0.500000 0.087483 0.495046
O O4 0.373299 0.092322 0.269402
O O5 0.500000 0.996439 0.324923
O O6 0.750000 0.692655 0.750000
O O7 0.833057 0.720452 0.516063
O O8 0.822028 0.606719 0.586288
O O9 0.000000 0.678373 0.694220
O O10 0.500000 0.187316 0.007087
O O11 0.269545 0.177214 0.124115
O O12 0.250000 0.520225 0.750000
O O13 0.500000 0.526054 0.832939
O O14 0.303895 0.500000 0.000000
#
# Coordination Sequence:
#
# PCOD8222102 Si02
#       7
#     4   4   8   8   4   4   8
#     4  12  23  42  58  80 111 150 176 226 284 334
#     4  11  24  39  59  87 109 141 184 229 271 330
#     4   9  18  34  56  83 111 144 188 231 271 320
#     4  11  22  37  59  83 113 143 182 230 277 329
#     4  11  24  41  59  81 115 143 180 225 280 331
#     4  12  21  38  60  86 107 140 184 228 272 328
#     4   9  18  34  56  81 114 152 188 229 275 321
#
# _framework density 17.555486999999999
#
# number of rings (size 3 to 8) (size 9 to 14) (size 15 to 20)
#    0.000    1.600    5.000    0.600    0.000    0.400 
#    3.600    1.000    0.000    0.000    0.000    0.000 
#    0.000    0.000    0.000    0.000    0.000    0.000 
#
# Total GULP energy -496040.334531 kJ/mol
# GULP energy per Si atom -12401.008363 kJ/mol
# Density = 1.751553 g / cm^3
# Si number density = 17.555487 Si / 1000 Ang^3
#
#
#
# Elastic Constant Matrix: (Units=GPa)
#
#
# Indices 1 2 3 4 5 6 
#
# 1 119.3948 55.5532 59.7456 0.0000 0.0000 0.0000
# 2 55.5532 100.5056 70.6434 0.0000 0.0000 0.0000
# 3 59.7456 70.6434 130.8306 0.0000 0.0000 0.0000
# 4 0.0000 0.0000 0.0000 153.4906 0.0000 0.0000
# 5 0.0000 0.0000 0.0000 0.0000 10.6343 0.0000
# 6 0.0000 0.0000 0.0000 0.0000 0.0000 16.1405
#
#
#
# Elastic Compliance Matrix: (Units=1/GPa)
#
#
# Indices 1 2 3 4 5 6 
#
# 1 0.011989 -0.004478 -0.003057 0.000000 0.000000 0.000000
# 2 -0.004478 0.017708 -0.007517 0.000000 0.000000 0.000000
# 3 -0.003057 -0.007517 0.013098 0.000000 0.000000 0.000000
# 4 0.000000 0.000000 0.000000 0.006515 0.000000 0.000000
# 5 0.000000 0.000000 0.000000 0.000000 0.094036 0.000000
# 6 0.000000 0.000000 0.000000 0.000000 0.000000 0.061956
#
#
# Mechanical properties :
#
#
# Convention : Reuss Voigt Hill
#
# Bulk Modulus (GPa) = 78.79079 80.29059 79.54069
# Shear Modulus (GPa) = 20.86496 47.03899 33.95197
#
# Velocity S-wave (km/s) = 3.45122 5.18195 4.40248
# Velocity P-wave (km/s) = 7.80126 9.03538 8.44091
#
# Compressibility (1/GPa) = 0.01269184
#
# Stress axis : x y z
#
# Youngs Moduli (GPa) = 83.41080 56.47057 76.34606
#
# Poissons Ratio (x) = 0.25288 0.23338
# Poissons Ratio (y) = 0.37352 0.57388
# Poissons Ratio (z) = 0.25498 0.42448
#
# Static dielectric constant tensor:
#      x y z
#    x 3.418910 0.000000 0.000000 
#    y 0.000000 3.358690 0.000000 
#    z 0.000000 0.000000 3.174480 
# 
# 
# High freq. dielectric constant tensor:
#      x y z
#    x 1.692550 0.000000 0.000000 
#    y 0.000000 1.688340 0.000000 
#    z 0.000000 0.000000 1.665710 
# 
# From -- ./inp_files/7480.got.cif
#   From: 2010.03.12/outbox.cif.g09.slc.cpg/sg53_4_cif.got.tgz:7480.got - 2010.04.16 14:36:59.
