data_PCOD8222289
_publ_section_title
;
Structure prediction by ZEFSAII (Michael W. Deem and Ramdas Pophale) SiO2 
 PCOD8222289
Probable space group: P C C A
;
_chemical_formula_sum "Si O2"
_cell_formula_units_Z 52
_cell_length_a 15.588235
_cell_length_b 9.617620
_cell_length_c 17.651820
_cell_angle_alpha 90.000000
_cell_angle_beta 90.000000
_cell_angle_gamma 90.000000
_cell_volume 2646.391228
_symmetry_space_group_name_H-M "P C C A"
_symmetry_group_IT_number 54
_symmetry_cell_setting 'orthorhombic'
loop_
_space_group_symop_operation_xyz
x,y,z
1/2-x,-y,z
1/2+x,-y,1/2-z
-x,y,1/2-z
-x,-y,-z
1/2+x,y,-z
1/2-x,y,1/2+z
x,-y,1/2+z
loop_
_atom_site_type_symbol
_atom_site_label
_atom_site_fract_x
_atom_site_fract_y
_atom_site_fract_z
Si Si1 0.750000 0.000000 0.065270
Si Si2 0.834195 0.570777 0.034244
Si Si3 0.619246 0.895708 0.949706
Si Si4 0.739806 0.840467 0.816867
Si Si5 0.755376 0.251443 0.653284
Si Si6 0.599714 0.791223 0.417081
Si Si7 0.422225 0.300635 0.926694
O O1 0.701837 0.109955 0.119761
O O2 0.804337 0.093979 0.009321
O O3 0.750000 0.500000 0.994319
O O4 0.866953 0.703822 0.988806
O O5 0.804266 0.617937 0.118065
O O6 0.909237 0.458862 0.046167
O O7 0.657227 0.828858 0.872317
O O8 0.578041 0.047704 0.937775
O O9 0.559628 0.786726 0.994504
O O10 0.728127 0.744945 0.743044
O O11 0.826394 0.785635 0.854987
O O12 0.750000 0.000000 0.792120
O O13 0.654006 0.251662 0.629571
O O14 0.513225 0.719847 0.383589
#
# Coordination Sequence:
#
# PCOD8222289 Si02
#       7
#     4   8   8   8   8   8   8
#     4  10  14  30  56  78 102 136 182 228 266 306
#     4  10  20  37  56  79 106 149 196 227 266 331
#     4  10  18  35  56  87 106 141 188 228 271 327
#     4  10  19  32  57  84 110 138 187 230 275 330
#     4  10  19  33  54  79 111 147 184 228 274 332
#     4  11  19  35  58  84 113 142 179 240 279 326
#     4  10  22  34  55  84 115 145 184 227 283 334
#
# _framework density 19.6494
#
# number of rings (size 3 to 8) (size 9 to 14) (size 15 to 20)
#    0.000    1.846    4.615    2.769    0.000    0.615 
#    0.000    6.923    0.000    4.615    0.000    0.000 
#    0.000    0.000    0.000    0.000    0.000    0.000 
#
# Total GULP energy -644207.621194 kJ/mol
# GULP energy per Si atom -12388.608100 kJ/mol
# Density = 1.960468 g / cm^3
# Si number density = 19.649400 Si / 1000 Ang^3
#
#
#
# Elastic Constant Matrix: (Units=GPa)
#
#
# Indices 1 2 3 4 5 6 
#
# 1 80.4485 37.2167 29.8897 0.0000 0.0000 0.0000
# 2 37.2167 92.6194 41.3411 0.0000 0.0000 0.0000
# 3 29.8897 41.3411 104.0328 0.0000 0.0000 0.0000
# 4 0.0000 0.0000 0.0000 23.2701 0.0000 0.0000
# 5 0.0000 0.0000 0.0000 0.0000 12.9931 0.0000
# 6 0.0000 0.0000 0.0000 0.0000 0.0000 30.0361
#
#
#
# Elastic Compliance Matrix: (Units=1/GPa)
#
#
# Indices 1 2 3 4 5 6 
#
# 1 0.015764 -0.005243 -0.002446 0.000000 0.000000 0.000000
# 2 -0.005243 0.014869 -0.004402 0.000000 0.000000 0.000000
# 3 -0.002446 -0.004402 0.012064 0.000000 0.000000 0.000000
# 4 0.000000 0.000000 0.000000 0.042974 0.000000 0.000000
# 5 0.000000 0.000000 0.000000 0.000000 0.076964 0.000000
# 6 0.000000 0.000000 0.000000 0.000000 0.000000 0.033293
#
#
# Mechanical properties :
#
#
# Convention : Reuss Voigt Hill
#
# Bulk Modulus (GPa) = 54.00844 54.88840 54.44842
# Shear Modulus (GPa) = 22.09633 24.50340 23.29986
#
# Velocity S-wave (km/s) = 3.35704 3.53516 3.44725
# Velocity P-wave (km/s) = 6.52472 6.68264 6.60415
#
# Compressibility (1/GPa) = 0.01851562
#
# Stress axis : x y z
#
# Youngs Moduli (GPa) = 63.43384 67.25627 82.88813
#
# Poissons Ratio (x) = 0.35261 0.20273
# Poissons Ratio (y) = 0.33257 0.36489
# Poissons Ratio (z) = 0.15515 0.29608
#
# Static dielectric constant tensor:
#      x y z
#    x 4.330690 0.000000 0.000000 
#    y 0.000000 4.366840 0.000000 
#    z 0.000000 0.000000 3.355660 
# 
# 
# High freq. dielectric constant tensor:
#      x y z
#    x 1.742720 0.000000 0.000000 
#    y 0.000000 1.775030 0.000000 
#    z 0.000000 0.000000 1.741560 
# 
# From -- ./inp_files/18155.got.cif
#   From: 2010.03.12/outbox.cif.g09.slc.cpg/sg54_10_cif.got.tgz:18155.got - 2010.04.16 15:00:50.
