data_PCOD8222547
_publ_section_title
;
Structure prediction by ZEFSAII (Michael W. Deem and Ramdas Pophale) SiO2 
 PCOD8222547
Probable space group: P C C A
;
_chemical_formula_sum "Si O2"
_cell_formula_units_Z 40
_cell_length_a 5.054122
_cell_length_b 24.747719
_cell_length_c 17.360258
_cell_angle_alpha 90.000000
_cell_angle_beta 90.000000
_cell_angle_gamma 90.000000
_cell_volume 2171.386195
_symmetry_space_group_name_H-M "P C C A"
_symmetry_group_IT_number 54
_symmetry_cell_setting 'orthorhombic'
loop_
_space_group_symop_operation_xyz
x,y,z
1/2-x,-y,z
1/2+x,-y,1/2-z
-x,y,1/2-z
-x,-y,-z
1/2+x,y,-z
1/2-x,y,1/2+z
x,-y,1/2+z
loop_
_atom_site_type_symbol
_atom_site_label
_atom_site_fract_x
_atom_site_fract_y
_atom_site_fract_z
Si Si1 0.400246 0.867641 0.051316
Si Si2 0.998075 0.034641 0.340341
Si Si3 0.547764 0.250599 0.952040
Si Si4 0.251846 0.563354 0.200426
Si Si5 0.831317 0.635002 0.946574
O O1 0.479907 0.907967 0.118772
O O2 0.407116 0.807251 0.089174
O O3 0.605439 0.876244 0.981083
O O4 0.000000 0.046446 0.250000
O O5 0.750000 0.000000 0.366766
O O6 0.250000 0.000000 0.366920
O O7 0.647095 0.304650 0.907153
O O8 0.235664 0.252469 0.971567
O O9 0.250000 0.500000 0.182615
O O10 0.500000 0.581304 0.250000
O O11 0.267968 0.592330 0.118935
O O12 0.000000 0.581527 0.250000
O O13 0.609337 0.626408 0.011190
#
# Coordination Sequence:
#
# PCOD8222547 Si02
#       5
#     8   8   8   8   8
#     4  10  19  32  52  74  96 124 162 202 239 289
#     4  10  21  35  49  68  98 130 157 195 247 291
#     4   8  16  30  48  72  99 125 155 201 253 286
#     4  10  21  36  52  74 108 142 169 209 265 309
#     4  10  19  33  55  78 101 133 175 214 249 302
#
# _framework density 18.421413999999999
#
# number of rings (size 3 to 8) (size 9 to 14) (size 15 to 20)
#    0.000    2.400    0.000    2.400    0.000    3.200 
#    0.000    1.000    0.000    3.600    0.000    0.000 
#    0.000    0.000    0.000    0.000    0.000    0.000 
#
# Total GULP energy -495588.964726 kJ/mol
# GULP energy per Si atom -12389.724118 kJ/mol
# Density = 1.837949 g / cm^3
# Si number density = 18.421414 Si / 1000 Ang^3
#
#
#
# Elastic Constant Matrix: (Units=GPa)
#
#
# Indices 1 2 3 4 5 6 
#
# 1 106.8094 28.0958 19.2994 0.0000 0.0000 0.0000
# 2 28.0958 107.9127 55.5157 0.0000 0.0000 0.0000
# 3 19.2994 55.5157 61.2098 0.0000 0.0000 0.0000
# 4 0.0000 0.0000 0.0000 4.2780 0.0000 0.0000
# 5 0.0000 0.0000 0.0000 0.0000 36.8180 0.0000
# 6 0.0000 0.0000 0.0000 0.0000 0.0000 28.0062
#
#
#
# Elastic Compliance Matrix: (Units=1/GPa)
#
#
# Indices 1 2 3 4 5 6 
#
# 1 0.010124 -0.001863 -0.001502 0.000000 0.000000 0.000000
# 2 -0.001863 0.017716 -0.015480 0.000000 0.000000 0.000000
# 3 -0.001502 -0.015480 0.030851 0.000000 0.000000 0.000000
# 4 0.000000 0.000000 0.000000 0.233754 0.000000 0.000000
# 5 0.000000 0.000000 0.000000 0.000000 0.027161 0.000000
# 6 0.000000 0.000000 0.000000 0.000000 0.000000 0.035706
#
#
# Mechanical properties :
#
#
# Convention : Reuss Voigt Hill
#
# Bulk Modulus (GPa) = 47.62011 53.52817 50.57414
# Shear Modulus (GPa) = 12.49992 25.35517 18.92755
#
# Velocity S-wave (km/s) = 2.60773 3.71401 3.20890
# Velocity P-wave (km/s) = 5.91384 6.89293 6.42207
#
# Compressibility (1/GPa) = 0.02099953
#
# Stress axis : x y z
#
# Youngs Moduli (GPa) = 98.77532 56.44755 32.41375
#
# Poissons Ratio (x) = 0.10516 0.04870
# Poissons Ratio (y) = 0.18401 0.50177
# Poissons Ratio (z) = 0.14841 0.87382
#
# Static dielectric constant tensor:
#      x y z
#    x 3.703170 0.000000 0.000000 
#    y 0.000000 3.690820 0.000000 
#    z 0.000000 0.000000 2.857560 
# 
# 
# High freq. dielectric constant tensor:
#      x y z
#    x 1.742700 0.000000 0.000000 
#    y 0.000000 1.731740 0.000000 
#    z 0.000000 0.000000 1.661030 
# 
# From -- ./inp_files/10838.got.cif
#   From: 2010.03.12/outbox.cif.g09.slc.cpg/sg54_6_cif.got.tgz:10838.got - 2010.04.16 15:00:50.
