data_PCOD8222628
_publ_section_title
;
Structure prediction by ZEFSAII (Michael W. Deem and Ramdas Pophale) SiO2 
 PCOD8222628
Probable space group: P C C A
;
_chemical_formula_sum "Si O2"
_cell_formula_units_Z 64
_cell_length_a 8.582549
_cell_length_b 17.769478
_cell_length_c 21.510919
_cell_angle_alpha 90.000000
_cell_angle_beta 90.000000
_cell_angle_gamma 90.000000
_cell_volume 3280.574665
_symmetry_space_group_name_H-M "P C C A"
_symmetry_group_IT_number 54
_symmetry_cell_setting 'orthorhombic'
loop_
_space_group_symop_operation_xyz
x,y,z
1/2-x,-y,z
1/2+x,-y,1/2-z
-x,y,1/2-z
-x,-y,-z
1/2+x,y,-z
1/2-x,y,1/2+z
x,-y,1/2+z
loop_
_atom_site_type_symbol
_atom_site_label
_atom_site_fract_x
_atom_site_fract_y
_atom_site_fract_z
Si Si1 0.164426 0.258004 0.607517
Si Si2 0.831197 0.076642 0.223200
Si Si3 0.229903 0.414593 0.923279
Si Si4 0.819605 0.146550 0.090969
Si Si5 0.620215 0.182022 0.980241
Si Si6 0.166589 0.278771 0.845732
Si Si7 0.179449 0.764815 0.730300
Si Si8 0.025442 0.345873 0.506728
O O1 0.224839 0.190881 0.562573
O O2 0.297139 0.265940 0.660537
O O3 0.145860 0.333211 0.564846
O O4 0.999829 0.238778 0.640630
O O5 0.817955 0.088027 0.148243
O O6 0.762088 0.148899 0.259859
O O7 0.000000 0.065681 0.250000
O O8 0.750000 0.000000 0.242463
O O9 0.250000 0.500000 0.901476
O O10 0.166351 0.365282 0.866527
O O11 0.390570 0.376994 0.946005
O O12 0.101598 0.409735 0.977733
O O13 0.801010 0.230599 0.119205
O O14 0.985890 0.137775 0.056553
O O15 0.678187 0.135280 0.041081
O O16 0.559325 0.265188 0.998769
O O17 0.206296 0.284283 0.773229
O O18 0.000000 0.755977 0.750000
#
# Coordination Sequence:
#
# PCOD8222628 Si02
#       8
#     8   8   8   8   8   8   8   8
#     4  11  19  32  58  85 115 148 185 250 295 336
#     4  10  23  43  60  86 118 155 193 239 289 351
#     4  11  21  33  52  80 119 159 194 241 295 353
#     4  11  20  35  61  86 119 153 194 241 297 350
#     4  12  17  34  57  88 119 148 191 245 295 345
#     4  10  19  35  53  83 115 150 201 245 286 345
#     4  10  22  37  61  92 110 148 201 244 295 344
#     4  11  19  33  52  83 115 150 195 238 296 345
#
# _framework density 19.508776999999998
#
# number of rings (size 3 to 8) (size 9 to 14) (size 15 to 20)
#    0.000    1.250    6.250    3.000    0.000    2.000 
#    0.000    0.625    0.000    4.500    0.000    0.000 
#    0.000    0.000    0.000    0.000    0.000    0.000 
#
# Total GULP energy -792975.441348 kJ/mol
# GULP energy per Si atom -12390.241271 kJ/mol
# Density = 1.946437 g / cm^3
# Si number density = 19.508777 Si / 1000 Ang^3
#
#
#
# Elastic Constant Matrix: (Units=GPa)
#
#
# Indices 1 2 3 4 5 6 
#
# 1 76.2004 29.8035 28.3233 0.0000 0.0000 0.0000
# 2 29.8035 66.5588 17.2581 0.0000 0.0000 0.0000
# 3 28.3233 17.2581 87.0166 0.0000 0.0000 0.0000
# 4 0.0000 0.0000 0.0000 17.2294 0.0000 0.0000
# 5 0.0000 0.0000 0.0000 0.0000 41.0873 0.0000
# 6 0.0000 0.0000 0.0000 0.0000 0.0000 13.8600
#
#
#
# Elastic Compliance Matrix: (Units=1/GPa)
#
#
# Indices 1 2 3 4 5 6 
#
# 1 0.017326 -0.006637 -0.004323 0.000000 0.000000 0.000000
# 2 -0.006637 0.018381 -0.001485 0.000000 0.000000 0.000000
# 3 -0.004323 -0.001485 0.013194 0.000000 0.000000 0.000000
# 4 0.000000 0.000000 0.000000 0.058040 0.000000 0.000000
# 5 0.000000 0.000000 0.000000 0.000000 0.024338 0.000000
# 6 0.000000 0.000000 0.000000 0.000000 0.000000 0.072150
#
#
# Mechanical properties :
#
#
# Convention : Reuss Voigt Hill
#
# Bulk Modulus (GPa) = 41.64928 42.28286 41.96607
# Shear Modulus (GPa) = 21.15729 24.72806 22.94268
#
# Velocity S-wave (km/s) = 3.29675 3.56411 3.43303
# Velocity P-wave (km/s) = 5.99056 6.21755 6.10511
#
# Compressibility (1/GPa) = 0.02401002
#
# Stress axis : x y z
#
# Youngs Moduli (GPa) = 57.71613 54.40271 75.79330
#
# Poissons Ratio (x) = 0.36109 0.32767
# Poissons Ratio (y) = 0.38308 0.11257
# Poissons Ratio (z) = 0.24952 0.08080
#
# Static dielectric constant tensor:
#      x y z
#    x 3.784050 0.000000 0.000000 
#    y 0.000000 3.285280 0.000000 
#    z 0.000000 0.000000 3.777260 
# 
# 
# High freq. dielectric constant tensor:
#      x y z
#    x 1.774260 0.000000 0.000000 
#    y 0.000000 1.701380 0.000000 
#    z 0.000000 0.000000 1.765100 
# 
# From -- ./inp_files/20671.got.cif
#   From: 2010.03.12/outbox.cif.g09.slc.cpg/sg54_11_cif.got.tgz:20671.got - 2010.04.16 15:00:50.
