data_PCOD8222167
_publ_section_title
;
Structure prediction by ZEFSAII (Michael W. Deem and Ramdas Pophale) SiO2 
 PCOD8222167
Probable space group: P M N A
;
_chemical_formula_sum "Si O2"
_cell_formula_units_Z 48
_cell_length_a 15.972843
_cell_length_b 14.828938
_cell_length_c 9.209335
_cell_angle_alpha 90.000000
_cell_angle_beta 90.000000
_cell_angle_gamma 90.000000
_cell_volume 2181.325837
_symmetry_space_group_name_H-M "P M N A"
_symmetry_group_IT_number 53
_symmetry_cell_setting 'orthorhombic'
loop_
_space_group_symop_operation_xyz
x,y,z
1/2-x,-y,1/2+z
x,-y,-z
1/2-x,y,1/2-z
-x,-y,-z
1/2+x,y,1/2-z
-x,y,z
1/2+x,-y,1/2+z
loop_
_atom_site_type_symbol
_atom_site_label
_atom_site_fract_x
_atom_site_fract_y
_atom_site_fract_z
Si Si1 0.594387 0.583524 0.106395
Si Si2 0.500000 0.973687 0.267686
Si Si3 0.168275 0.468628 0.158106
Si Si4 0.500000 0.851598 0.537763
Si Si5 0.863642 0.727632 0.845213
Si Si6 0.677723 0.935661 0.128615
Si Si7 0.820012 0.249498 0.467432
O O1 0.500000 0.620690 0.105782
O O2 0.617533 0.550206 0.267959
O O3 0.605826 0.500000 0.000000
O O4 0.655639 0.662911 0.059271
O O5 0.500000 0.889935 0.376580
O O6 0.585665 0.968638 0.176573
O O7 0.500000 0.069104 0.346252
O O8 0.250000 0.442430 0.250000
O O9 0.111387 0.378363 0.150576
O O10 0.197014 0.500000 0.000000
O O11 0.579681 0.788083 0.552762
O O12 0.773299 0.739374 0.913084
O O13 0.875066 0.761684 0.678886
O O14 0.750000 0.942324 0.250000
O O15 0.668559 0.834366 0.072987
O O16 0.709670 0.000000 0.000000
#
# Coordination Sequence:
#
# PCOD8222167 Si02
#       7
#     8   4   8   4   8   8   8
#     4  11  24  44  72 104 144 191 242 300 356 427
#     4  11  27  52  72 112 146 191 241 309 376 437
#     4  12  24  43  70 100 146 192 245 297 359 426
#     4  11  26  44  79 101 153 180 241 301 375 436
#     4  11  23  43  70 107 139 194 239 295 363 439
#     4  12  29  48  80 110 149 190 246 303 376 445
#     4  11  24  44  72 101 148 189 247 290 365 436
#
# _framework density 22.004964999999999
#
# number of rings (size 3 to 8) (size 9 to 14) (size 15 to 20)
#    0.000    0.667    3.333    3.750   10.500    3.667 
#    0.000    0.000    0.000    0.000    0.000    0.000 
#    0.000    0.000    0.000    0.000    0.000    0.000 
#
# Total GULP energy -595361.416616 kJ/mol
# GULP energy per Si atom -12403.362846 kJ/mol
# Density = 2.195488 g / cm^3
# Si number density = 22.004965 Si / 1000 Ang^3
#
#
#
# Elastic Constant Matrix: (Units=GPa)
#
#
# Indices 1 2 3 4 5 6 
#
# 1 83.6788 35.6762 38.1379 0.0000 0.0000 0.0000
# 2 35.6762 121.9003 50.4370 0.0000 0.0000 0.0000
# 3 38.1379 50.4370 128.0379 0.0000 0.0000 0.0000
# 4 0.0000 0.0000 0.0000 40.4075 0.0000 0.0000
# 5 0.0000 0.0000 0.0000 0.0000 20.7959 0.0000
# 6 0.0000 0.0000 0.0000 0.0000 0.0000 8.2819
#
#
#
# Elastic Compliance Matrix: (Units=1/GPa)
#
#
# Indices 1 2 3 4 5 6 
#
# 1 0.014676 -0.002971 -0.003201 0.000000 0.000000 0.000000
# 2 -0.002971 0.010402 -0.003213 0.000000 0.000000 0.000000
# 3 -0.003201 -0.003213 0.010029 0.000000 0.000000 0.000000
# 4 0.000000 0.000000 0.000000 0.024748 0.000000 0.000000
# 5 0.000000 0.000000 0.000000 0.000000 0.048086 0.000000
# 6 0.000000 0.000000 0.000000 0.000000 0.000000 0.120745
#
#
# Mechanical properties :
#
#
# Convention : Reuss Voigt Hill
#
# Bulk Modulus (GPa) = 61.20666 64.67992 62.94329
# Shear Modulus (GPa) = 19.77047 27.85477 23.81262
#
# Velocity S-wave (km/s) = 3.00068 3.56172 3.29317
# Velocity P-wave (km/s) = 6.31512 6.80967 6.56705
#
# Compressibility (1/GPa) = 0.01633809
#
# Stress axis : x y z
#
# Youngs Moduli (GPa) = 68.13843 96.13397 99.70763
#
# Poissons Ratio (x) = 0.28558 0.31919
# Poissons Ratio (y) = 0.20241 0.32034
# Poissons Ratio (z) = 0.21813 0.30886
#
# Static dielectric constant tensor:
#      x y z
#    x 4.018020 0.000000 0.000000 
#    y 0.000000 4.134880 0.000000 
#    z 0.000000 0.000000 4.298040 
# 
# 
# High freq. dielectric constant tensor:
#      x y z
#    x 1.864850 0.000000 0.000000 
#    y 0.000000 1.878580 0.000000 
#    z 0.000000 0.000000 1.874340 
# 
# From -- ./inp_files/10033.got.cif
#   From: 2010.03.12/outbox.cif.g09.slc.cpg/sg53_6_cif.got.tgz:10033.got - 2010.04.16 14:36:59.
