data_PCOD8222545
_publ_section_title
;
Structure prediction by ZEFSAII (Michael W. Deem and Ramdas Pophale) SiO2 
 PCOD8222545
Probable space group: P C C A
;
_chemical_formula_sum "Si O2"
_cell_formula_units_Z 64
_cell_length_a 5.228923
_cell_length_b 31.361179
_cell_length_c 18.296176
_cell_angle_alpha 90.000000
_cell_angle_beta 90.000000
_cell_angle_gamma 90.000000
_cell_volume 3000.301901
_symmetry_space_group_name_H-M "P C C A"
_symmetry_group_IT_number 54
_symmetry_cell_setting 'orthorhombic'
loop_
_space_group_symop_operation_xyz
x,y,z
1/2-x,-y,z
1/2+x,-y,1/2-z
-x,y,1/2-z
-x,-y,-z
1/2+x,y,-z
1/2-x,y,1/2+z
x,-y,1/2+z
loop_
_atom_site_type_symbol
_atom_site_label
_atom_site_fract_x
_atom_site_fract_y
_atom_site_fract_z
Si Si1 0.002304 0.670585 0.663662
Si Si2 0.253949 0.868452 0.703853
Si Si3 0.998951 0.380163 0.836312
Si Si4 0.134367 0.268175 0.041131
Si Si5 0.608387 0.960108 0.324523
Si Si6 0.501301 0.475688 0.162749
Si Si7 0.937468 0.047655 0.028702
Si Si8 0.683514 0.832745 0.457524
O O1 0.229871 0.639352 0.639076
O O2 0.056014 0.714647 0.621286
O O3 0.000000 0.680765 0.750000
O O4 0.737357 0.648860 0.637901
O O5 0.500000 0.852271 0.750000
O O6 0.282586 0.919318 0.692334
O O7 0.234152 0.846724 0.625429
O O8 0.000000 0.858032 0.750000
O O9 0.014490 0.427738 0.869283
O O10 0.000000 0.383517 0.750000
O O11 0.155309 0.217744 0.045150
O O12 0.412007 0.284538 0.014279
O O13 0.500000 0.978934 0.250000
O O14 0.387625 0.949067 0.384147
O O15 0.750000 0.000000 0.362358
O O16 0.250000 0.500000 0.133387
O O17 0.500000 0.474911 0.250000
O O18 0.750000 0.500000 0.132965
O O19 0.705494 0.071947 0.988121
O O20 0.000000 0.000000 0.000000
O O21 0.415993 0.849748 0.491129
#
# Coordination Sequence:
#
# PCOD8222545 Si02
#       8
#     8   8   8   8   8   8   8   8
#     4  10  19  32  51  78 112 148 181 226 293 350
#     4  11  25  44  64  95 127 162 205 251 299 357
#     4   9  17  28  43  69 109 146 184 236 289 344
#     4  10  21  38  60  86 117 147 188 232 283 351
#     4  11  24  39  63  89 123 163 196 240 295 347
#     4   9  15  23  37  59  93 142 190 229 281 341
#     4  10  21  38  55  82 113 145 193 240 280 330
#     4  10  22  43  68  93 120 161 199 245 302 356
#
# _framework density 21.331187
#
# number of rings (size 3 to 8) (size 9 to 14) (size 15 to 20)
#    0.000    2.000    1.250    2.625    1.750    6.500 
#    0.000    1.875    0.000    0.000    0.000    0.000 
#    0.000   35.000    0.000    0.000    0.000    0.000 
#
# Total GULP energy -793145.729615 kJ/mol
# GULP energy per Si atom -12392.902025 kJ/mol
# Density = 2.128264 g / cm^3
# Si number density = 21.331187 Si / 1000 Ang^3
#
#
#
# Elastic Constant Matrix: (Units=GPa)
#
#
# Indices 1 2 3 4 5 6 
#
# 1 182.5258 35.3327 52.6296 0.0000 0.0000 0.0000
# 2 35.3327 29.3280 23.1444 0.0000 0.0000 0.0000
# 3 52.6296 23.1444 122.3828 0.0000 0.0000 0.0000
# 4 0.0000 0.0000 0.0000 10.1575 0.0000 0.0000
# 5 0.0000 0.0000 0.0000 0.0000 29.1932 0.0000
# 6 0.0000 0.0000 0.0000 0.0000 0.0000 27.0408
#
#
#
# Elastic Compliance Matrix: (Units=1/GPa)
#
#
# Indices 1 2 3 4 5 6 
#
# 1 0.007458 -0.007587 -0.001773 0.000000 0.000000 0.000000
# 2 -0.007587 0.047795 -0.005776 0.000000 0.000000 0.000000
# 3 -0.001773 -0.005776 0.010026 0.000000 0.000000 0.000000
# 4 0.000000 0.000000 0.000000 0.098449 0.000000 0.000000
# 5 0.000000 0.000000 0.000000 0.000000 0.034255 0.000000
# 6 0.000000 0.000000 0.000000 0.000000 0.000000 0.036981
#
#
# Mechanical properties :
#
#
# Convention : Reuss Voigt Hill
#
# Bulk Modulus (GPa) = 28.56449 61.82778 45.19613
# Shear Modulus (GPa) = 18.05674 28.15363 23.10519
#
# Velocity S-wave (km/s) = 2.91262 3.63689 3.29472
# Velocity P-wave (km/s) = 4.97304 6.83254 5.97556
#
# Compressibility (1/GPa) = 0.03500850
#
# Stress axis : x y z
#
# Youngs Moduli (GPa) = 134.07724 20.92258 99.74275
#
# Poissons Ratio (x) = 0.15873 0.17681
# Poissons Ratio (y) = 1.01718 0.57614
# Poissons Ratio (z) = 0.23768 0.12085
#
# Static dielectric constant tensor:
#      x y z
#    x 1.495730 0.000000 0.000000 
#    y 0.000000 3.770750 0.000000 
#    z 0.000000 0.000000 3.664020 
# 
# 
# High freq. dielectric constant tensor:
#      x y z
#    x 1.854020 0.000000 0.000000 
#    y 0.000000 1.825770 0.000000 
#    z 0.000000 0.000000 1.815070 
# 
# From -- ./inp_files/16007.got.cif
#   From: 2010.03.12/outbox.cif.g09.slc.cpg/sg54_9_cif.got.tgz:16007.got - 2010.04.16 15:00:50.
