data_PCOD8222443
_publ_section_title
;
Structure prediction by ZEFSAII (Michael W. Deem and Ramdas Pophale) SiO2 
 PCOD8222443
Probable space group: P C C A
;
_chemical_formula_sum "Si O2"
_cell_formula_units_Z 52
_cell_length_a 14.538110
_cell_length_b 7.779770
_cell_length_c 21.979398
_cell_angle_alpha 90.000000
_cell_angle_beta 90.000000
_cell_angle_gamma 90.000000
_cell_volume 2485.939194
_symmetry_space_group_name_H-M "P C C A"
_symmetry_group_IT_number 54
_symmetry_cell_setting 'orthorhombic'
loop_
_space_group_symop_operation_xyz
x,y,z
1/2-x,-y,z
1/2+x,-y,1/2-z
-x,y,1/2-z
-x,-y,-z
1/2+x,y,-z
1/2-x,y,1/2+z
x,-y,1/2+z
loop_
_atom_site_type_symbol
_atom_site_label
_atom_site_fract_x
_atom_site_fract_y
_atom_site_fract_z
Si Si1 0.554203 0.929748 0.689781
Si Si2 0.731508 0.736744 0.552615
Si Si3 0.842292 0.927224 0.941154
Si Si4 0.415261 0.253705 0.008312
Si Si5 0.050167 0.387720 0.899176
Si Si6 0.750000 0.000000 0.654409
Si Si7 0.993172 0.753546 0.883012
O O1 0.500000 0.874251 0.750000
O O2 0.536168 0.778955 0.641664
O O3 0.664132 0.953544 0.698091
O O4 0.516873 0.114501 0.669952
O O5 0.673421 0.866293 0.510535
O O6 0.814721 0.664459 0.509873
O O7 0.656898 0.595884 0.577217
O O8 0.773410 0.837599 0.610782
O O9 0.884025 0.779045 0.897504
O O10 0.750000 0.000000 0.910056
O O11 0.909569 0.090526 0.947177
O O12 0.480242 0.389159 0.043336
O O13 0.459693 0.191995 0.945821
O O14 0.023083 0.561496 0.862669
#
# Coordination Sequence:
#
# PCOD8222443 Si02
#       7
#     8   8   8   8   8   4   8
#     4  11  25  46  67  87 121 170 221 276 318 365
#     4  10  18  33  59  95 132 165 203 252 312 387
#     4  10  19  33  57  90 131 174 202 239 307 391
#     4  11  18  35  59  93 136 163 192 252 318 390
#     4  11  24  38  63  97 132 166 210 262 322 389
#     4  10  18  40  64  92 112 160 222 264 314 370
#     4  12  22  39  63  95 130 166 209 260 323 383
#
# _framework density 20.917646999999999
#
# number of rings (size 3 to 8) (size 9 to 14) (size 15 to 20)
#    0.000    1.231    6.923    1.846    0.000    1.231 
#    4.154    0.000    0.000    0.000    0.000    0.000 
#    0.000    0.000    0.000    0.000    0.000    0.000 
#
# Total GULP energy -644271.094775 kJ/mol
# GULP energy per Si atom -12389.828746 kJ/mol
# Density = 2.087004 g / cm^3
# Si number density = 20.917647 Si / 1000 Ang^3
#
#
#
# Elastic Constant Matrix: (Units=GPa)
#
#
# Indices 1 2 3 4 5 6 
#
# 1 125.3580 30.3193 43.6134 0.0000 0.0000 0.0000
# 2 30.3193 99.9230 16.2379 0.0000 0.0000 0.0000
# 3 43.6134 16.2379 60.1795 0.0000 0.0000 0.0000
# 4 0.0000 0.0000 0.0000 19.0758 0.0000 0.0000
# 5 0.0000 0.0000 0.0000 0.0000 33.9168 0.0000
# 6 0.0000 0.0000 0.0000 0.0000 0.0000 14.5668
#
#
#
# Elastic Compliance Matrix: (Units=1/GPa)
#
#
# Indices 1 2 3 4 5 6 
#
# 1 0.011093 -0.002154 -0.007458 0.000000 0.000000 0.000000
# 2 -0.002154 0.010885 -0.001376 0.000000 0.000000 0.000000
# 3 -0.007458 -0.001376 0.022393 0.000000 0.000000 0.000000
# 4 0.000000 0.000000 0.000000 0.052422 0.000000 0.000000
# 5 0.000000 0.000000 0.000000 0.000000 0.029484 0.000000
# 6 0.000000 0.000000 0.000000 0.000000 0.000000 0.068649
#
#
# Mechanical properties :
#
#
# Convention : Reuss Voigt Hill
#
# Bulk Modulus (GPa) = 44.65280 51.75575 48.20428
# Shear Modulus (GPa) = 22.28485 26.53119 24.40802
#
# Velocity S-wave (km/s) = 3.26753 3.56527 3.41964
# Velocity P-wave (km/s) = 5.96900 6.46100 6.21987
#
# Compressibility (1/GPa) = 0.02239501
#
# Stress axis : x y z
#
# Youngs Moduli (GPa) = 90.14824 91.87063 44.65629
#
# Poissons Ratio (x) = 0.19788 0.33305
# Poissons Ratio (y) = 0.19417 0.06145
# Poissons Ratio (z) = 0.67233 0.12642
#
# Static dielectric constant tensor:
#      x y z
#    x 4.255900 0.000000 0.000000 
#    y 0.000000 3.635210 0.000000 
#    z 0.000000 0.000000 3.182020 
# 
# 
# High freq. dielectric constant tensor:
#      x y z
#    x 1.839410 0.000000 0.000000 
#    y 0.000000 1.820620 0.000000 
#    z 0.000000 0.000000 1.756400 
# 
# From -- ./inp_files/21527.got.cif
#   From: 2010.03.12/outbox.cif.g09.slc.cpg/sg54_11_cif.got.tgz:21527.got - 2010.04.16 15:00:50.
