data_PCOD8222323
_publ_section_title
;
Structure prediction by ZEFSAII (Michael W. Deem and Ramdas Pophale) SiO2 
 PCOD8222323
Probable space group: P C C A
;
_chemical_formula_sum "Si O2"
_cell_formula_units_Z 36
_cell_length_a 5.213978
_cell_length_b 15.946759
_cell_length_c 26.034137
_cell_angle_alpha 90.000000
_cell_angle_beta 90.000000
_cell_angle_gamma 90.000000
_cell_volume 2164.635672
_symmetry_space_group_name_H-M "P C C A"
_symmetry_group_IT_number 54
_symmetry_cell_setting 'orthorhombic'
loop_
_space_group_symop_operation_xyz
x,y,z
1/2-x,-y,z
1/2+x,-y,1/2-z
-x,y,1/2-z
-x,-y,-z
1/2+x,y,-z
1/2-x,y,1/2+z
x,-y,1/2+z
loop_
_atom_site_type_symbol
_atom_site_label
_atom_site_fract_x
_atom_site_fract_y
_atom_site_fract_z
Si Si1 0.481495 0.727314 0.533117
Si Si2 0.984186 0.837304 0.368745
Si Si3 0.499943 0.463373 0.442537
Si Si4 0.250000 0.000000 0.657113
Si Si5 0.995461 0.842350 0.808112
O O1 0.701022 0.739219 0.490803
O O2 0.523604 0.796968 0.576039
O O3 0.504086 0.636424 0.558737
O O4 0.236233 0.821927 0.334940
O O5 0.738339 0.796782 0.338991
O O6 0.926877 0.937136 0.377161
O O7 0.250000 0.500000 0.413544
O O8 0.500000 0.500000 0.500000
O O9 0.750000 0.500000 0.413577
O O10 0.062576 0.942743 0.692268
O O11 0.000000 0.808695 0.750000
#
# Coordination Sequence:
#
# PCOD8222323 Si02
#       5
#     8   8   8   4   8
#     4  12  21  34  52  71 108 144 166 200 253 289
#     4  10  22  33  49  78 103 131 174 209 243 311
#     4  10  16  30  49  75  93 127 160 214 243 295
#     4   8  22  32  54  72 104 124 172 218 252 304
#     4  10  20  34  57  75  98 129 165 218 271 294
#
# _framework density 16.630973000000001
#
# number of rings (size 3 to 8) (size 9 to 14) (size 15 to 20)
#    1.333    0.444    4.444    2.667    3.111    0.000 
#    0.000    1.111    0.000    0.000    0.000    0.000 
#    0.000   17.778    0.000    0.000    0.000    0.000 
#
# Total GULP energy -445998.090152 kJ/mol
# GULP energy per Si atom -12388.835838 kJ/mol
# Density = 1.659312 g / cm^3
# Si number density = 16.630973 Si / 1000 Ang^3
#
#
#
# Elastic Constant Matrix: (Units=GPa)
#
#
# Indices 1 2 3 4 5 6 
#
# 1 144.3530 19.3155 28.4766 0.0000 0.0000 0.0000
# 2 19.3155 41.8321 29.6770 0.0000 0.0000 0.0000
# 3 28.4766 29.6770 57.2425 0.0000 0.0000 0.0000
# 4 0.0000 0.0000 0.0000 -0.1344 0.0000 0.0000
# 5 0.0000 0.0000 0.0000 0.0000 7.6082 0.0000
# 6 0.0000 0.0000 0.0000 0.0000 0.0000 19.2108
#
#
#
# Elastic Compliance Matrix: (Units=1/GPa)
#
#
# Indices 1 2 3 4 5 6 
#
# 1 0.007728 -0.001330 -0.003155 0.000000 0.000000 0.000000
# 2 -0.001330 0.038041 -0.019061 0.000000 0.000000 0.000000
# 3 -0.003155 -0.019061 0.028921 0.000000 0.000000 0.000000
# 4 0.000000 0.000000 0.000000 -7.437838 0.000000 0.000000
# 5 0.000000 0.000000 0.000000 0.000000 0.131437 0.000000
# 6 0.000000 0.000000 0.000000 0.000000 0.000000 0.052054
#
#
# Mechanical properties :
#
#
# Convention : Reuss Voigt Hill
#
# Bulk Modulus (GPa) = 36.23322 44.26288 40.24805
# Shear Modulus (GPa) = -0.70192 16.40082 7.84945
#
# Velocity S-wave (km/s) = -0.65036 3.14373 2.17486
# Velocity P-wave (km/s) = 4.61193 6.31268 5.52810
#
# Compressibility (1/GPa) = 0.02759898
#
# Stress axis : x y z
#
# Youngs Moduli (GPa) = 129.40312 26.28713 34.57720
#
# Poissons Ratio (x) = 0.03497 0.10908
# Poissons Ratio (y) = 0.17212 0.65906
# Poissons Ratio (z) = 0.40824 0.50105
#
# Static dielectric constant tensor:
#      x y z
#    x 2.123900 0.000000 0.000000 
#    y 0.000000 2.937990 0.000000 
#    z 0.000000 0.000000 2.824970 
# 
# 
# High freq. dielectric constant tensor:
#      x y z
#    x 1.673810 0.000000 0.000000 
#    y 0.000000 1.615670 0.000000 
#    z 0.000000 0.000000 1.588230 
# 
# From -- ./inp_files/25275.got.cif
#   From: 2010.03.12/outbox.cif.g09.slc.cpg/sg54_13_cif.got.tgz:25275.got - 2010.04.16 15:00:50.
