data_PCOD8222369
_publ_section_title
;
Structure prediction by ZEFSAII (Michael W. Deem and Ramdas Pophale) SiO2 
 PCOD8222369
Probable space group: P C C A
;
_chemical_formula_sum "Si O2"
_cell_formula_units_Z 40
_cell_length_a 9.211599
_cell_length_b 8.574163
_cell_length_c 27.262927
_cell_angle_alpha 90.000000
_cell_angle_beta 90.000000
_cell_angle_gamma 90.000000
_cell_volume 2153.273720
_symmetry_space_group_name_H-M "P C C A"
_symmetry_group_IT_number 54
_symmetry_cell_setting 'orthorhombic'
loop_
_space_group_symop_operation_xyz
x,y,z
1/2-x,-y,z
1/2+x,-y,1/2-z
-x,y,1/2-z
-x,-y,-z
1/2+x,y,-z
1/2-x,y,1/2+z
x,-y,1/2+z
loop_
_atom_site_type_symbol
_atom_site_label
_atom_site_fract_x
_atom_site_fract_y
_atom_site_fract_z
Si Si1 0.209211 0.827175 0.542100
Si Si2 0.602761 0.917898 0.704511
Si Si3 0.972057 0.096990 0.110781
Si Si4 0.469517 0.783332 0.948546
Si Si5 0.286470 0.326484 0.367190
O O1 0.360873 0.736318 0.547564
O O2 0.104865 0.754722 0.500983
O O3 0.124391 0.824924 0.594517
O O4 0.250000 0.000000 0.525244
O O5 0.500000 0.885183 0.750000
O O6 0.644639 0.753584 0.680492
O O7 0.750000 0.000000 0.722673
O O8 0.517001 0.024639 0.665093
O O9 0.846571 0.226289 0.110600
O O10 0.939450 0.959733 0.071231
O O11 0.403996 0.660164 0.910412
O O12 0.250000 0.500000 0.350306
#
# Coordination Sequence:
#
# PCOD8222369 Si02
#       5
#     8   8   8   8   8
#     4  10  17  28  51  79 103 132 175 222 260 301
#     4   9  19  35  58  80  99 126 166 215 264 312
#     4   9  18  33  52  75 102 132 170 214 261 304
#     4  10  18  30  51  76 101 137 177 217 256 302
#     4  10  20  36  52  72 106 143 172 208 254 305
#
# _framework density 18.576364999999999
#
# number of rings (size 3 to 8) (size 9 to 14) (size 15 to 20)
#    0.000    2.400    0.000    6.600    0.000    4.000 
#    0.000    9.000    0.000    0.000    0.000    0.000 
#    0.000    0.000    0.000    0.000    0.000    0.000 
#
# Total GULP energy -495857.169722 kJ/mol
# GULP energy per Si atom -12396.429243 kJ/mol
# Density = 1.853408 g / cm^3
# Si number density = 18.576365 Si / 1000 Ang^3
#
#
#
# Elastic Constant Matrix: (Units=GPa)
#
#
# Indices 1 2 3 4 5 6 
#
# 1 154.9936 41.7493 88.1938 0.0000 0.0000 0.0000
# 2 41.7493 67.3324 41.3242 0.0000 0.0000 0.0000
# 3 88.1938 41.3242 114.4172 0.0000 0.0000 0.0000
# 4 0.0000 0.0000 0.0000 8.8594 0.0000 0.0000
# 5 0.0000 0.0000 0.0000 0.0000 47.2752 0.0000
# 6 0.0000 0.0000 0.0000 0.0000 0.0000 14.1221
#
#
#
# Elastic Compliance Matrix: (Units=1/GPa)
#
#
# Indices 1 2 3 4 5 6 
#
# 1 0.011745 -0.002218 -0.008252 0.000000 0.000000 0.000000
# 2 -0.002218 0.019500 -0.005333 0.000000 0.000000 0.000000
# 3 -0.008252 -0.005333 0.017027 0.000000 0.000000 0.000000
# 4 0.000000 0.000000 0.000000 0.112874 0.000000 0.000000
# 5 0.000000 0.000000 0.000000 0.000000 0.021153 0.000000
# 6 0.000000 0.000000 0.000000 0.000000 0.000000 0.070811
#
#
# Mechanical properties :
#
#
# Convention : Reuss Voigt Hill
#
# Bulk Modulus (GPa) = 60.00425 75.47531 67.73978
# Shear Modulus (GPa) = 17.22527 25.08307 21.15417
#
# Velocity S-wave (km/s) = 3.04841 3.67859 3.37822
# Velocity P-wave (km/s) = 6.69044 7.66555 7.19453
#
# Compressibility (1/GPa) = 0.01666549
#
# Stress axis : x y z
#
# Youngs Moduli (GPa) = 85.14432 51.28173 58.73054
#
# Poissons Ratio (x) = 0.11373 0.48464
# Poissons Ratio (y) = 0.18883 0.31323
# Poissons Ratio (z) = 0.70261 0.27351
#
# Static dielectric constant tensor:
#      x y z
#    x 3.807260 0.000000 0.000000 
#    y 0.000000 2.969040 0.000000 
#    z 0.000000 0.000000 3.261130 
# 
# 
# High freq. dielectric constant tensor:
#      x y z
#    x 1.733370 0.000000 0.000000 
#    y 0.000000 1.675980 0.000000 
#    z 0.000000 0.000000 1.712020 
# 
# From -- ./inp_files/23257.got.cif
#   From: 2010.03.12/outbox.cif.g09.slc.cpg/sg54_12_cif.got.tgz:23257.got - 2010.04.16 15:00:50.
