data_PCOD8222209
_publ_section_title
;
Structure prediction by ZEFSAII (Michael W. Deem and Ramdas Pophale) SiO2 
 PCOD8222209
Probable space group: P M N A
;
_chemical_formula_sum "Si O2"
_cell_formula_units_Z 48
_cell_length_a 14.940155
_cell_length_b 10.299510
_cell_length_c 16.756594
_cell_angle_alpha 90.000000
_cell_angle_beta 90.000000
_cell_angle_gamma 90.000000
_cell_volume 2578.442280
_symmetry_space_group_name_H-M "P M N A"
_symmetry_group_IT_number 53
_symmetry_cell_setting 'orthorhombic'
loop_
_space_group_symop_operation_xyz
x,y,z
1/2-x,-y,1/2+z
x,-y,-z
1/2-x,y,1/2-z
-x,-y,-z
1/2+x,y,1/2-z
-x,y,z
1/2+x,-y,1/2+z
loop_
_atom_site_type_symbol
_atom_site_label
_atom_site_fract_x
_atom_site_fract_y
_atom_site_fract_z
Si Si1 0.103152 0.275974 0.821824
Si Si2 0.729203 0.882361 0.555374
Si Si3 0.100995 0.018302 0.366202
Si Si4 0.602188 0.283671 0.861278
Si Si5 0.101998 0.977196 0.817436
Si Si6 0.732876 0.369580 0.547980
O O1 0.119041 0.320347 0.730857
O O2 0.163383 0.363924 0.878935
O O3 0.000000 0.294621 0.845747
O O4 0.131622 0.125936 0.830835
O O5 0.833374 0.897792 0.578883
O O6 0.666917 0.883000 0.633614
O O7 0.714693 0.747309 0.512168
O O8 0.696631 0.000000 0.500000
O O9 0.112134 0.060854 0.274804
O O10 0.000000 0.045332 0.395515
O O11 0.125256 0.867126 0.375367
O O12 0.500000 0.313837 0.884997
O O13 0.666605 0.368272 0.917087
O O14 0.000000 0.956904 0.845629
O O15 0.716441 0.500000 0.500000
#
# Coordination Sequence:
#
# PCOD8222209 Si02
#       6
#     8   8   8   8   8   8
#     4   9  18  36  61  82 103 141 189 227 264 322
#     4  12  21  33  55  83 110 143 174 221 278 329
#     4   9  18  34  58  85 109 137 181 232 273 318
#     4   9  18  36  61  82 103 141 189 227 264 322
#     4   9  18  34  58  85 109 137 181 232 273 318
#     4  12  25  37  51  81 120 148 178 223 275 319
#
# _framework density 18.61589
#
# number of rings (size 3 to 8) (size 9 to 14) (size 15 to 20)
#    0.000    2.000    3.333    3.000    0.000    5.333 
#    0.000    3.333    0.000    4.000    0.000    0.000 
#    0.000    0.000    0.000    0.000    0.000    0.000 
#
# Total GULP energy -595329.186621 kJ/mol
# GULP energy per Si atom -12402.691388 kJ/mol
# Density = 1.857352 g / cm^3
# Si number density = 18.615890 Si / 1000 Ang^3
#
#
#
# Elastic Constant Matrix: (Units=GPa)
#
#
# Indices 1 2 3 4 5 6 
#
# 1 58.5408 11.8026 10.2186 0.0000 0.0000 0.0000
# 2 11.8026 71.5386 24.4040 0.0000 0.0000 0.0000
# 3 10.2186 24.4040 46.8711 0.0000 0.0000 0.0000
# 4 0.0000 0.0000 0.0000 22.8968 0.0000 0.0000
# 5 0.0000 0.0000 0.0000 0.0000 26.4555 0.0000
# 6 0.0000 0.0000 0.0000 0.0000 0.0000 14.9429
#
#
#
# Elastic Compliance Matrix: (Units=1/GPa)
#
#
# Indices 1 2 3 4 5 6 
#
# 1 0.017986 -0.001982 -0.002889 0.000000 0.000000 0.000000
# 2 -0.001982 0.017216 -0.008532 0.000000 0.000000 0.000000
# 3 -0.002889 -0.008532 0.026407 0.000000 0.000000 0.000000
# 4 0.000000 0.000000 0.000000 0.043674 0.000000 0.000000
# 5 0.000000 0.000000 0.000000 0.000000 0.037799 0.000000
# 6 0.000000 0.000000 0.000000 0.000000 0.000000 0.066922
#
#
# Mechanical properties :
#
#
# Convention : Reuss Voigt Hill
#
# Bulk Modulus (GPa) = 28.73272 29.97788 29.35530
# Shear Modulus (GPa) = 20.12795 21.56071 20.84433
#
# Velocity S-wave (km/s) = 3.29176 3.40691 3.34983
# Velocity P-wave (km/s) = 5.46952 5.62267 5.54662
#
# Compressibility (1/GPa) = 0.03480352
#
# Stress axis : x y z
#
# Youngs Moduli (GPa) = 55.59875 58.08619 37.86856
#
# Poissons Ratio (x) = 0.11511 0.10942
# Poissons Ratio (y) = 0.11018 0.32308
# Poissons Ratio (z) = 0.16065 0.49557
#
# Static dielectric constant tensor:
#      x y z
#    x 3.522810 0.000000 0.000000 
#    y 0.000000 2.955300 0.000000 
#    z 0.000000 0.000000 3.478270 
# 
# 
# High freq. dielectric constant tensor:
#      x y z
#    x 1.737900 0.000000 0.000000 
#    y 0.000000 1.664450 0.000000 
#    z 0.000000 0.000000 1.735010 
# 
# From -- ./inp_files/22645.got.cif
#   From: 2010.03.12/outbox.cif.g09.slc.cpg/sg53_12_cif.got.tgz:22645.got - 2010.04.16 14:36:59.
