data_PCOD8222877
_publ_section_title
;
Structure prediction by ZEFSAII (Michael W. Deem and Ramdas Pophale) SiO2 
 PCOD8222877
Probable space group: P C C A
;
_chemical_formula_sum "Si O2"
_cell_formula_units_Z 56
_cell_length_a 14.734635
_cell_length_b 20.011927
_cell_length_c 8.792634
_cell_angle_alpha 90.000000
_cell_angle_beta 90.000000
_cell_angle_gamma 90.000000
_cell_volume 2592.670271
_symmetry_space_group_name_H-M "P C C A"
_symmetry_group_IT_number 54
_symmetry_cell_setting 'orthorhombic'
loop_
_space_group_symop_operation_xyz
x,y,z
1/2-x,-y,z
1/2+x,-y,1/2-z
-x,y,1/2-z
-x,-y,-z
1/2+x,y,-z
1/2-x,y,1/2+z
x,-y,1/2+z
loop_
_atom_site_type_symbol
_atom_site_label
_atom_site_fract_x
_atom_site_fract_y
_atom_site_fract_z
Si Si1 0.591323 0.048953 0.337245
Si Si2 0.905233 0.089200 0.190079
Si Si3 0.597063 0.592415 0.775858
Si Si4 0.237050 0.745589 0.517328
Si Si5 0.287574 0.346050 0.765698
Si Si6 0.280480 0.160131 0.270700
Si Si7 0.152565 0.473137 0.419336
O O1 0.500000 0.069101 0.250000
O O2 0.584288 0.061509 0.517706
O O3 0.669606 0.091633 0.258378
O O4 0.616736 0.972181 0.304334
O O5 0.826505 0.144343 0.202649
O O6 0.000000 0.121352 0.250000
O O7 0.500000 0.629061 0.750000
O O8 0.678412 0.644457 0.752069
O O9 0.596883 0.533414 0.651271
O O10 0.600402 0.559530 0.941730
O O11 0.176166 0.691964 0.613550
O O12 0.304000 0.702809 0.408780
O O13 0.180733 0.800111 0.418676
O O14 0.297267 0.788668 0.633404
O O15 0.335597 0.417031 0.786592
O O16 0.250000 0.500000 0.476922
#
# Coordination Sequence:
#
# PCOD8222877 Si02
#       7
#     8   8   8   8   8   8   8
#     4  11  24  40  65  94 125 161 199 258 315 368
#     4  11  24  40  64  94 127 159 202 256 314 369
#     4  11  22  36  58  92 120 144 188 253 305 346
#     4  10  22  39  63  87 113 165 206 247 280 359
#     4  10  20  40  63  81 118 157 206 233 291 364
#     4  11  23  41  66  91 122 161 211 251 305 356
#     4  10  20  36  62  85 112 157 194 237 296 362
#
# _framework density 21.599352
#
# number of rings (size 3 to 8) (size 9 to 14) (size 15 to 20)
#    0.000    1.429    2.857    3.857    6.000    1.143 
#    0.000    4.286    0.000    0.000    0.000    0.000 
#    0.000    0.000    0.000    0.000    0.000    0.000 
#
# Total GULP energy -694045.913704 kJ/mol
# GULP energy per Si atom -12393.677030 kJ/mol
# Density = 2.155019 g / cm^3
# Si number density = 21.599352 Si / 1000 Ang^3
#
#
#
# Elastic Constant Matrix: (Units=GPa)
#
#
# Indices 1 2 3 4 5 6 
#
# 1 81.7281 28.8570 19.6215 0.0000 0.0000 0.0000
# 2 28.8570 76.5282 25.6146 0.0000 0.0000 0.0000
# 3 19.6215 25.6146 128.7133 0.0000 0.0000 0.0000
# 4 0.0000 0.0000 0.0000 38.5665 0.0000 0.0000
# 5 0.0000 0.0000 0.0000 0.0000 18.5592 0.0000
# 6 0.0000 0.0000 0.0000 0.0000 0.0000 10.2624
#
#
#
# Elastic Compliance Matrix: (Units=1/GPa)
#
#
# Indices 1 2 3 4 5 6 
#
# 1 0.014282 -0.004989 -0.001184 0.000000 0.000000 0.000000
# 2 -0.004989 0.015742 -0.002372 0.000000 0.000000 0.000000
# 3 -0.001184 -0.002372 0.008422 0.000000 0.000000 0.000000
# 4 0.000000 0.000000 0.000000 0.025929 0.000000 0.000000
# 5 0.000000 0.000000 0.000000 0.000000 0.053882 0.000000
# 6 0.000000 0.000000 0.000000 0.000000 0.000000 0.097443
#
#
# Mechanical properties :
#
#
# Convention : Reuss Voigt Hill
#
# Bulk Modulus (GPa) = 46.82793 48.35064 47.58928
# Shear Modulus (GPa) = 20.84130 27.66940 24.25535
#
# Velocity S-wave (km/s) = 3.10966 3.58303 3.35470
# Velocity P-wave (km/s) = 5.88393 6.28898 6.08982
#
# Compressibility (1/GPa) = 0.02135478
#
# Stress axis : x y z
#
# Youngs Moduli (GPa) = 70.02065 63.52331 118.73887
#
# Poissons Ratio (x) = 0.31691 0.14062
# Poissons Ratio (y) = 0.34932 0.28168
# Poissons Ratio (z) = 0.08293 0.15070
#
# Static dielectric constant tensor:
#      x y z
#    x 3.522230 0.000000 0.000000 
#    y 0.000000 4.005620 0.000000 
#    z 0.000000 0.000000 4.225990 
# 
# 
# High freq. dielectric constant tensor:
#      x y z
#    x 1.797050 0.000000 0.000000 
#    y 0.000000 1.855800 0.000000 
#    z 0.000000 0.000000 1.874040 
# 
# From -- ./inp_files/3683.got.cif
#   From: 2010.03.12/outbox.cif.g09.slc.cpg/sg54_2_cif.got.tgz:3683.got - 2010.04.16 15:00:50.
