data_PCOD8222030
_publ_section_title
;
Structure prediction by ZEFSAII (Michael W. Deem and Ramdas Pophale) SiO2 
 PCOD8222030
Probable space group: P M N A
;
_chemical_formula_sum "Si O2"
_cell_formula_units_Z 40
_cell_length_a 8.469646
_cell_length_b 18.544190
_cell_length_c 13.492818
_cell_angle_alpha 90.000000
_cell_angle_beta 90.000000
_cell_angle_gamma 90.000000
_cell_volume 2119.218758
_symmetry_space_group_name_H-M "P M N A"
_symmetry_group_IT_number 53
_symmetry_cell_setting 'orthorhombic'
loop_
_space_group_symop_operation_xyz
x,y,z
1/2-x,-y,1/2+z
x,-y,-z
1/2-x,y,1/2-z
-x,-y,-z
1/2+x,y,1/2-z
-x,y,z
1/2+x,-y,1/2+z
loop_
_atom_site_type_symbol
_atom_site_label
_atom_site_fract_x
_atom_site_fract_y
_atom_site_fract_z
Si Si1 0.685438 0.525810 0.354327
Si Si2 0.185460 0.393418 0.464158
Si Si3 0.687452 0.894558 0.557390
Si Si4 0.313503 0.042741 0.645269
Si Si5 0.312112 0.743591 0.640788
O O1 0.750000 0.554409 0.250000
O O2 0.500000 0.511756 0.350648
O O3 0.724194 0.586434 0.435173
O O4 0.771505 0.450589 0.378913
O O5 0.240766 0.314572 0.433500
O O6 0.000000 0.395015 0.483863
O O7 0.500000 0.893838 0.559657
O O8 0.744503 0.904339 0.443196
O O9 0.753811 0.820746 0.603390
O O10 0.750045 0.961797 0.622851
O O11 0.250000 0.071322 0.750000
O O12 0.500000 0.041976 0.649079
O O13 0.250000 0.727901 0.750000
O O14 0.500000 0.739533 0.639385
#
# Coordination Sequence:
#
# PCOD8222030 Si02
#       5
#     8   8   8   8   8
#     4  11  21  37  59  83 108 139 175 216 261 310
#     4  11  22  37  55  80 109 140 177 218 258 309
#     4   8  17  32  51  72 102 137 171 207 257 315
#     4   9  16  31  52  75  99 132 171 212 257 307
#     4  11  21  35  53  76 104 138 173 215 265 315
#
# _framework density 18.874879
#
# number of rings (size 3 to 8) (size 9 to 14) (size 15 to 20)
#    0.000    2.000    0.000    7.800    0.000    0.000 
#    0.000    6.000    0.000    2.400    0.000    0.000 
#    0.000    0.000    0.000    0.000    0.000    0.000 
#
# Total GULP energy -496025.792700 kJ/mol
# GULP energy per Si atom -12400.644818 kJ/mol
# Density = 1.883192 g / cm^3
# Si number density = 18.874879 Si / 1000 Ang^3
#
#
#
# Elastic Constant Matrix: (Units=GPa)
#
#
# Indices 1 2 3 4 5 6 
#
# 1 60.9540 11.6574 11.3755 0.0000 0.0000 0.0000
# 2 11.6574 86.6898 23.4968 0.0000 0.0000 0.0000
# 3 11.3755 23.4968 112.1589 0.0000 0.0000 0.0000
# 4 0.0000 0.0000 0.0000 21.5301 0.0000 0.0000
# 5 0.0000 0.0000 0.0000 0.0000 33.8573 0.0000
# 6 0.0000 0.0000 0.0000 0.0000 0.0000 -7.0438
#
#
#
# Elastic Compliance Matrix: (Units=1/GPa)
#
#
# Indices 1 2 3 4 5 6 
#
# 1 0.017022 -0.001931 -0.001322 0.000000 0.000000 0.000000
# 2 -0.001931 0.012449 -0.002412 0.000000 0.000000 0.000000
# 3 -0.001322 -0.002412 0.009555 0.000000 0.000000 0.000000
# 4 0.000000 0.000000 0.000000 0.046447 0.000000 0.000000
# 5 0.000000 0.000000 0.000000 0.000000 0.029536 0.000000
# 6 0.000000 0.000000 0.000000 0.000000 0.000000 -0.141968
#
#
# Mechanical properties :
#
#
# Convention : Reuss Voigt Hill
#
# Bulk Modulus (GPa) = 36.10580 39.20691 37.65635
# Shear Modulus (GPa) = -781.41438 23.88692 -378.76373
#
# Velocity S-wave (km/s) = -20.36899 3.56130 -14.18120
# Velocity P-wave (km/s) = 23.10896 6.14228 15.75272
#
# Compressibility (1/GPa) = 0.02769638
#
# Stress axis : x y z
#
# Youngs Moduli (GPa) = 58.74836 80.32904 104.65362
#
# Poissons Ratio (x) = 0.15509 0.13835
# Poissons Ratio (y) = 0.11342 0.25244
# Poissons Ratio (z) = 0.07766 0.19377
#
# Static dielectric constant tensor:
#      x y z
#    x 3.321720 0.000000 0.000000 
#    y 0.000000 3.569080 0.000000 
#    z 0.000000 0.000000 3.844080 
# 
# 
# High freq. dielectric constant tensor:
#      x y z
#    x 1.726310 0.000000 0.000000 
#    y 0.000000 1.720580 0.000000 
#    z 0.000000 0.000000 1.742890 
# 
# From -- ./inp_files/13994.got.cif
#   From: 2010.03.12/outbox.cif.g09.slc.cpg/sg53_7_cif.got.tgz:13994.got - 2010.04.16 14:36:59.
