data_PCOD8222205
_publ_section_title
;
Structure prediction by ZEFSAII (Michael W. Deem and Ramdas Pophale) SiO2 
 PCOD8222205
Probable space group: P M N A
;
_chemical_formula_sum "Si O2"
_cell_formula_units_Z 32
_cell_length_a 30.748515
_cell_length_b 5.067873
_cell_length_c 8.344923
_cell_angle_alpha 90.000000
_cell_angle_beta 90.000000
_cell_angle_gamma 90.000000
_cell_volume 1300.385754
_symmetry_space_group_name_H-M "P M N A"
_symmetry_group_IT_number 53
_symmetry_cell_setting 'orthorhombic'
loop_
_space_group_symop_operation_xyz
x,y,z
1/2-x,-y,1/2+z
x,-y,-z
1/2-x,y,1/2-z
-x,-y,-z
1/2+x,y,1/2-z
-x,y,z
1/2+x,-y,1/2+z
loop_
_atom_site_type_symbol
_atom_site_label
_atom_site_fract_x
_atom_site_fract_y
_atom_site_fract_z
Si Si1 0.363705 0.928767 0.179097
Si Si2 0.952411 0.382409 0.673105
Si Si3 0.091574 0.260456 0.102119
Si Si4 0.787075 0.748892 0.116126
O O1 0.413178 0.822382 0.190810
O O2 0.330872 0.742705 0.275504
O O3 0.368212 0.201207 0.277591
O O4 0.347877 0.000000 0.000000
O O5 0.947490 0.500000 0.500000
O O6 0.949604 0.621132 0.801684
O O7 0.000000 0.246613 0.694545
O O8 0.111319 0.500000 0.000000
O O9 0.077836 0.000000 0.000000
O O10 0.750000 0.753375 0.250000
O O11 0.783214 0.500000 0.000000
O O12 0.784291 0.000000 0.000000
#
# Coordination Sequence:
#
# PCOD8222205 Si02
#       4
#     8   8   8   8
#     4  12  27  48  81 114 159 210 265 320 392 461
#     4  11  26  47  74 111 157 216 274 324 385 459
#     4  12  26  46  72 110 153 201 259 329 390 449
#     4  12  30  54  86 121 159 200 253 320 392 476
#
# _framework density 24.608083000000001
#
# number of rings (size 3 to 8) (size 9 to 14) (size 15 to 20)
#    0.000    0.250    5.000    2.250    7.000    3.500 
#    0.000    0.000    0.000    0.000    0.000    0.000 
#    0.000    0.000    0.000    0.000    0.000    0.000 
#
# Total GULP energy -396438.727554 kJ/mol
# GULP energy per Si atom -12388.710236 kJ/mol
# Density = 2.455207 g / cm^3
# Si number density = 24.608083 Si / 1000 Ang^3
#
#
#
# Elastic Constant Matrix: (Units=GPa)
#
#
# Indices 1 2 3 4 5 6 
#
# 1 152.9401 40.4260 62.7171 0.0000 0.0000 0.0000
# 2 40.4260 149.9995 80.2372 0.0000 0.0000 0.0000
# 3 62.7171 80.2372 214.5344 0.0000 0.0000 0.0000
# 4 0.0000 0.0000 0.0000 36.9579 0.0000 0.0000
# 5 0.0000 0.0000 0.0000 0.0000 34.6610 0.0000
# 6 0.0000 0.0000 0.0000 0.0000 0.0000 32.4034
#
#
#
# Elastic Compliance Matrix: (Units=1/GPa)
#
#
# Indices 1 2 3 4 5 6 
#
# 1 0.007564 -0.001070 -0.001811 0.000000 0.000000 0.000000
# 2 -0.001070 0.008485 -0.002861 0.000000 0.000000 0.000000
# 3 -0.001811 -0.002861 0.006261 0.000000 0.000000 0.000000
# 4 0.000000 0.000000 0.000000 0.027058 0.000000 0.000000
# 5 0.000000 0.000000 0.000000 0.000000 0.028851 0.000000
# 6 0.000000 0.000000 0.000000 0.000000 0.000000 0.030861
#
#
# Mechanical properties :
#
#
# Convention : Reuss Voigt Hill
#
# Bulk Modulus (GPa) = 92.36577 98.24831 95.30704
# Shear Modulus (GPa) = 40.26673 43.07736 41.67205
#
# Velocity S-wave (km/s) = 4.04954 4.18848 4.11959
# Velocity P-wave (km/s) = 7.71241 7.96260 7.83850
#
# Compressibility (1/GPa) = 0.01082652
#
# Stress axis : x y z
#
# Youngs Moduli (GPa) = 132.20550 117.85102 159.72650
#
# Poissons Ratio (x) = 0.12607 0.28929
# Poissons Ratio (y) = 0.14142 0.45695
# Poissons Ratio (z) = 0.23945 0.33715
#
# Static dielectric constant tensor:
#      x y z
#    x 4.581090 0.000000 0.000000 
#    y 0.000000 4.491480 0.000000 
#    z 0.000000 0.000000 5.432190 
# 
# 
# High freq. dielectric constant tensor:
#      x y z
#    x 1.964680 0.000000 0.000000 
#    y 0.000000 1.980580 0.000000 
#    z 0.000000 0.000000 2.022060 
# 
# From -- ./inp_files/12757.got.cif
#   From: 2010.03.12/outbox.cif.g09.slc.cpg/sg53_7_cif.got.tgz:12757.got - 2010.04.16 14:36:59.
