data_PCOD8222384
_publ_section_title
;
Structure prediction by ZEFSAII (Michael W. Deem and Ramdas Pophale) SiO2 
 PCOD8222384
Probable space group: P C C A
;
_chemical_formula_sum "Si O2"
_cell_formula_units_Z 48
_cell_length_a 17.065633
_cell_length_b 9.116303
_cell_length_c 13.095687
_cell_angle_alpha 90.000000
_cell_angle_beta 90.000000
_cell_angle_gamma 90.000000
_cell_volume 2037.367808
_symmetry_space_group_name_H-M "P C C A"
_symmetry_group_IT_number 54
_symmetry_cell_setting 'orthorhombic'
loop_
_space_group_symop_operation_xyz
x,y,z
1/2-x,-y,z
1/2+x,-y,1/2-z
-x,y,1/2-z
-x,-y,-z
1/2+x,y,-z
1/2-x,y,1/2+z
x,-y,1/2+z
loop_
_atom_site_type_symbol
_atom_site_label
_atom_site_fract_x
_atom_site_fract_y
_atom_site_fract_z
Si Si1 0.890567 0.745661 0.281797
Si Si2 0.606710 0.746236 0.015991
Si Si3 0.277159 0.156441 0.508640
Si Si4 0.704465 0.757234 0.279586
Si Si5 0.624324 0.998251 0.652119
Si Si6 0.424122 0.557084 0.305656
O O1 0.921393 0.739318 0.398919
O O2 0.797101 0.733149 0.278993
O O3 0.926755 0.616739 0.212815
O O4 0.923401 0.899123 0.233641
O O5 0.701497 0.748896 0.025383
O O6 0.575151 0.894253 0.075944
O O7 0.573970 0.601915 0.074306
O O8 0.323149 0.231023 0.601962
O O9 0.250000 0.000000 0.553792
O O10 0.331468 0.129630 0.411343
O O11 0.684969 0.901607 0.214754
O O12 0.656997 0.617808 0.239644
O O13 0.500000 0.628538 0.250000
#
# Coordination Sequence:
#
# PCOD8222384 Si02
#       6
#     8   8   8   8   8   8
#     4  11  21  37  63  91 119 151 196 250 301 355
#     4   9  20  37  58  87 119 151 195 240 292 359
#     4   9  16  29  58  95 119 143 189 253 311 354
#     4  10  19  35  60  89 117 152 197 247 300 355
#     4  10  17  32  61  93 121 145 185 251 311 356
#     4  11  25  42  58  81 124 171 205 243 293 352
#
# _framework density 23.559809000000001
#
# number of rings (size 3 to 8) (size 9 to 14) (size 15 to 20)
#    0.000    2.000    0.000    8.000    0.000    2.000 
#    0.000   10.000    0.000   18.000    0.000    0.000 
#    0.000    0.000    0.000    0.000    0.000    0.000 
#
# Total GULP energy -594695.767065 kJ/mol
# GULP energy per Si atom -12389.495147 kJ/mol
# Density = 2.350619 g / cm^3
# Si number density = 23.559809 Si / 1000 Ang^3
#
#
#
# Elastic Constant Matrix: (Units=GPa)
#
#
# Indices 1 2 3 4 5 6 
#
# 1 41.4921 9.6321 9.6095 0.0000 0.0000 0.0000
# 2 9.6321 113.5840 70.0673 0.0000 0.0000 0.0000
# 3 9.6095 70.0673 152.4337 0.0000 0.0000 0.0000
# 4 0.0000 0.0000 0.0000 35.0275 0.0000 0.0000
# 5 0.0000 0.0000 0.0000 0.0000 13.3210 0.0000
# 6 0.0000 0.0000 0.0000 0.0000 0.0000 -1.7029
#
#
#
# Elastic Compliance Matrix: (Units=1/GPa)
#
#
# Indices 1 2 3 4 5 6 
#
# 1 0.024660 -0.001580 -0.000828 0.000000 0.000000 0.000000
# 2 -0.001580 0.012390 -0.005595 0.000000 0.000000 0.000000
# 3 -0.000828 -0.005595 0.009184 0.000000 0.000000 0.000000
# 4 0.000000 0.000000 0.000000 0.028549 0.000000 0.000000
# 5 0.000000 0.000000 0.000000 0.000000 0.075070 0.000000
# 6 0.000000 0.000000 0.000000 0.000000 0.000000 -0.587230
#
#
# Mechanical properties :
#
#
# Convention : Reuss Voigt Hill
#
# Bulk Modulus (GPa) = 33.08404 54.01418 43.54911
# Shear Modulus (GPa) = -12.15676 23.87583 5.85954
#
# Velocity S-wave (km/s) = -2.27402 3.18687 1.57876
# Velocity P-wave (km/s) = 2.67921 6.04299 4.67418
#
# Compressibility (1/GPa) = 0.03022605
#
# Stress axis : x y z
#
# Youngs Moduli (GPa) = 40.55206 80.71180 108.88011
#
# Poissons Ratio (x) = 0.12755 0.09017
# Poissons Ratio (y) = 0.06409 0.60923
# Poissons Ratio (z) = 0.03358 0.45162
#
# Static dielectric constant tensor:
#      x y z
#    x 3.749220 0.000000 0.000000 
#    y 0.000000 4.134730 0.000000 
#    z 0.000000 0.000000 4.729300 
# 
# 
# High freq. dielectric constant tensor:
#      x y z
#    x 1.891760 0.000000 0.000000 
#    y 0.000000 1.914960 0.000000 
#    z 0.000000 0.000000 1.958010 
# 
# From -- ./inp_files/14156.got.cif
#   From: 2010.03.12/outbox.cif.g09.slc.cpg/sg54_8_cif.got.tgz:14156.got - 2010.04.16 15:00:50.
