data_PCOD8222127
_publ_section_title
;
Structure prediction by ZEFSAII (Michael W. Deem and Ramdas Pophale) SiO2 
 PCOD8222127
Probable space group: P M N A
;
_chemical_formula_sum "Si O2"
_cell_formula_units_Z 48
_cell_length_a 8.667974
_cell_length_b 16.858323
_cell_length_c 15.769035
_cell_angle_alpha 90.000000
_cell_angle_beta 90.000000
_cell_angle_gamma 90.000000
_cell_volume 2304.289748
_symmetry_space_group_name_H-M "P M N A"
_symmetry_group_IT_number 53
_symmetry_cell_setting 'orthorhombic'
loop_
_space_group_symop_operation_xyz
x,y,z
1/2-x,-y,1/2+z
x,-y,-z
1/2-x,y,1/2-z
-x,-y,-z
1/2+x,y,1/2-z
-x,y,z
1/2+x,-y,1/2+z
loop_
_atom_site_type_symbol
_atom_site_label
_atom_site_fract_x
_atom_site_fract_y
_atom_site_fract_z
Si Si1 0.681921 0.818034 0.336652
Si Si2 0.316730 0.188989 0.338024
Si Si3 0.183629 0.089496 0.000781
Si Si4 0.676438 0.661871 0.103400
Si Si5 0.676954 0.656400 0.908876
Si Si6 0.182084 0.502173 0.841795
O O1 0.750000 0.854982 0.250000
O O2 0.500000 0.823944 0.333172
O O3 0.748190 0.866675 0.416985
O O4 0.732200 0.726632 0.342551
O O5 0.250000 0.154342 0.250000
O O6 0.500000 0.191288 0.334498
O O7 0.256540 0.133306 0.414494
O O8 0.253164 0.277650 0.349458
O O9 0.000000 0.090563 0.999593
O O10 0.247702 0.000000 0.000000
O O11 0.500000 0.660271 0.134336
O O12 0.750075 0.576974 0.118509
O O13 0.689432 0.685318 0.005277
O O14 0.500000 0.643222 0.881177
O O15 0.769967 0.574734 0.901597
O O16 0.250000 0.519127 0.750000
O O17 0.000000 0.494713 0.837137
#
# Coordination Sequence:
#
# PCOD8222127 Si02
#       6
#     8   8   8   8   8   8
#     4  11  22  39  64  93 126 165 210 255 309 370
#     4  11  22  39  64  93 126 165 210 255 309 370
#     4   9  20  40  65  92 125 164 205 253 310 375
#     4  11  23  40  62  88 122 161 206 257 310 364
#     4  11  23  40  62  88 122 161 206 257 310 364
#     4  12  25  40  59  85 121 161 209 257 306 363
#
# _framework density 20.830712999999999
#
# number of rings (size 3 to 8) (size 9 to 14) (size 15 to 20)
#    0.000    1.167    1.667    5.000    0.000    4.667 
#    0.000    0.000    0.000    7.000    0.000    0.000 
#    0.000    0.000    0.000    0.000    0.000    0.000 
#
# Total GULP energy -595481.399439 kJ/mol
# GULP energy per Si atom -12405.862488 kJ/mol
# Density = 2.078330 g / cm^3
# Si number density = 20.830713 Si / 1000 Ang^3
#
#
#
# Elastic Constant Matrix: (Units=GPa)
#
#
# Indices 1 2 3 4 5 6 
#
# 1 59.8506 8.2970 35.0124 0.0000 0.0000 0.0000
# 2 8.2970 124.8204 53.0258 0.0000 0.0000 0.0000
# 3 35.0124 53.0258 145.4950 0.0000 0.0000 0.0000
# 4 0.0000 0.0000 0.0000 26.9020 0.0000 0.0000
# 5 0.0000 0.0000 0.0000 0.0000 34.6608 0.0000
# 6 0.0000 0.0000 0.0000 0.0000 0.0000 17.6071
#
#
#
# Elastic Compliance Matrix: (Units=1/GPa)
#
#
# Indices 1 2 3 4 5 6 
#
# 1 0.019517 0.000826 -0.004998 0.000000 0.000000 0.000000
# 2 0.000826 0.009514 -0.003666 0.000000 0.000000 0.000000
# 3 -0.004998 -0.003666 0.009412 0.000000 0.000000 0.000000
# 4 0.000000 0.000000 0.000000 0.037172 0.000000 0.000000
# 5 0.000000 0.000000 0.000000 0.000000 0.028851 0.000000
# 6 0.000000 0.000000 0.000000 0.000000 0.000000 0.056795
#
#
# Mechanical properties :
#
#
# Convention : Reuss Voigt Hill
#
# Bulk Modulus (GPa) = 43.92277 58.09296 51.00786
# Shear Modulus (GPa) = 27.09634 31.42270 29.25952
#
# Velocity S-wave (km/s) = 3.61056 3.88813 3.75191
# Velocity P-wave (km/s) = 6.20587 6.93580 6.58097
#
# Compressibility (1/GPa) = 0.02276723
#
# Stress axis : x y z
#
# Youngs Moduli (GPa) = 51.23627 105.10764 106.24878
#
# Poissons Ratio (x) = -0.08679 0.53100
# Poissons Ratio (y) = -0.04231 0.38952
# Poissons Ratio (z) = 0.25606 0.38534
#
# Static dielectric constant tensor:
#      x y z
#    x 3.689000 0.000000 0.000000 
#    y 0.000000 3.741050 0.000000 
#    z 0.000000 0.000000 4.041460 
# 
# 
# High freq. dielectric constant tensor:
#      x y z
#    x 1.809820 0.000000 0.000000 
#    y 0.000000 1.811930 0.000000 
#    z 0.000000 0.000000 1.833070 
# 
# From -- ./inp_files/20165.got.cif
#   From: 2010.03.12/outbox.cif.g09.slc.cpg/sg53_11_cif.got.tgz:20165.got - 2010.04.16 14:36:59.
