data_PCOD8222379
_publ_section_title
;
Structure prediction by ZEFSAII (Michael W. Deem and Ramdas Pophale) SiO2 
 PCOD8222379
Probable space group: P C C A
;
_chemical_formula_sum "Si O2"
_cell_formula_units_Z 44
_cell_length_a 20.112282
_cell_length_b 12.392805
_cell_length_c 9.304894
_cell_angle_alpha 90.000000
_cell_angle_beta 90.000000
_cell_angle_gamma 90.000000
_cell_volume 2319.222395
_symmetry_space_group_name_H-M "P C C A"
_symmetry_group_IT_number 54
_symmetry_cell_setting 'orthorhombic'
loop_
_space_group_symop_operation_xyz
x,y,z
1/2-x,-y,z
1/2+x,-y,1/2-z
-x,y,1/2-z
-x,-y,-z
1/2+x,y,-z
1/2-x,y,1/2+z
x,-y,1/2+z
loop_
_atom_site_type_symbol
_atom_site_label
_atom_site_fract_x
_atom_site_fract_y
_atom_site_fract_z
Si Si1 0.750000 0.500000 0.642485
Si Si2 0.953739 0.449255 0.883233
Si Si3 0.331128 0.600512 0.113113
Si Si4 0.945064 0.235180 0.031609
Si Si5 0.950418 0.969821 0.378826
Si Si6 0.589430 0.799390 0.353956
O O1 0.802498 0.440314 0.539032
O O2 0.717961 0.411315 0.750287
O O3 0.896059 0.532361 0.841823
O O4 0.000000 0.419344 0.750000
O O5 0.921603 0.341093 0.947626
O O6 0.000000 0.500000 0.000000
O O7 0.349451 0.727217 0.087199
O O8 0.915410 0.236595 0.189461
O O9 0.025027 0.228107 0.049447
O O10 0.914002 0.138659 0.933106
O O11 0.000000 0.945262 0.250000
O O12 0.899133 0.070114 0.354121
O O13 0.000000 0.000000 0.500000
#
# Coordination Sequence:
#
# PCOD8222379 Si02
#       6
#     4   8   8   8   8   8
#     4  10  24  42  56  76 108 154 210 240 268 340
#     4  12  22  33  55  89 122 146 177 234 300 360
#     4  11  22  39  59  80 110 151 193 238 289 332
#     4  10  19  31  49  85 127 146 175 214 283 369
#     4  10  17  31  48  76 122 154 176 206 270 363
#     4  10  18  32  54  78 111 153 179 226 280 336
#
# _framework density 18.971875000000001
#
# number of rings (size 3 to 8) (size 9 to 14) (size 15 to 20)
#    0.000    1.455    5.455    3.818    0.000    0.000 
#    0.000    0.000    0.000    0.000    0.000   21.636 
#    0.000    0.000    0.000    0.000    0.000    0.000 
#
# Total GULP energy -545150.210240 kJ/mol
# GULP energy per Si atom -12389.777505 kJ/mol
# Density = 1.892869 g / cm^3
# Si number density = 18.971875 Si / 1000 Ang^3
#
#
#
# Elastic Constant Matrix: (Units=GPa)
#
#
# Indices 1 2 3 4 5 6 
#
# 1 45.7436 20.8124 13.5024 0.0000 0.0000 0.0000
# 2 20.8124 134.4925 26.4449 0.0000 0.0000 0.0000
# 3 13.5024 26.4449 101.3292 0.0000 0.0000 0.0000
# 4 0.0000 0.0000 0.0000 32.0528 0.0000 0.0000
# 5 0.0000 0.0000 0.0000 0.0000 21.7264 0.0000
# 6 0.0000 0.0000 0.0000 0.0000 0.0000 17.3961
#
#
#
# Elastic Compliance Matrix: (Units=1/GPa)
#
#
# Indices 1 2 3 4 5 6 
#
# 1 0.024037 -0.003257 -0.002353 0.000000 0.000000 0.000000
# 2 -0.003257 0.008279 -0.001727 0.000000 0.000000 0.000000
# 3 -0.002353 -0.001727 0.010633 0.000000 0.000000 0.000000
# 4 0.000000 0.000000 0.000000 0.031199 0.000000 0.000000
# 5 0.000000 0.000000 0.000000 0.000000 0.046027 0.000000
# 6 0.000000 0.000000 0.000000 0.000000 0.000000 0.057484
#
#
# Mechanical properties :
#
#
# Convention : Reuss Voigt Hill
#
# Bulk Modulus (GPa) = 35.36583 44.78718 40.07651
# Shear Modulus (GPa) = 24.78223 28.95545 26.86884
#
# Velocity S-wave (km/s) = 3.61815 3.91094 3.76739
# Velocity P-wave (km/s) = 6.01135 6.63719 6.33201
#
# Compressibility (1/GPa) = 0.02827588
#
# Stress axis : x y z
#
# Youngs Moduli (GPa) = 41.60181 120.78932 94.04696
#
# Poissons Ratio (x) = 0.39342 0.22130
# Poissons Ratio (y) = 0.13550 0.16238
# Poissons Ratio (z) = 0.09789 0.20856
#
# Static dielectric constant tensor:
#      x y z
#    x 7.875900 0.000000 0.000000 
#    y 0.000000 3.565790 0.000000 
#    z 0.000000 0.000000 3.960320 
# 
# 
# High freq. dielectric constant tensor:
#      x y z
#    x 1.676590 0.000000 0.000000 
#    y 0.000000 1.747860 0.000000 
#    z 0.000000 0.000000 1.758820 
# 
# From -- ./inp_files/5117.got.cif
#   From: 2010.03.12/outbox.cif.g09.slc.cpg/sg54_3_cif.got.tgz:5117.got - 2010.04.16 15:00:50.
