data_PCOD8222629
_publ_section_title
;
Structure prediction by ZEFSAII (Michael W. Deem and Ramdas Pophale) SiO2 
 PCOD8222629
Probable space group: P C C A
;
_chemical_formula_sum "Si O2"
_cell_formula_units_Z 48
_cell_length_a 5.170742
_cell_length_b 17.344949
_cell_length_c 25.096282
_cell_angle_alpha 90.000000
_cell_angle_beta 90.000000
_cell_angle_gamma 90.000000
_cell_volume 2250.791579
_symmetry_space_group_name_H-M "P C C A"
_symmetry_group_IT_number 54
_symmetry_cell_setting 'orthorhombic'
loop_
_space_group_symop_operation_xyz
x,y,z
1/2-x,-y,z
1/2+x,-y,1/2-z
-x,y,1/2-z
-x,-y,-z
1/2+x,y,-z
1/2-x,y,1/2+z
x,-y,1/2+z
loop_
_atom_site_type_symbol
_atom_site_label
_atom_site_fract_x
_atom_site_fract_y
_atom_site_fract_z
Si Si1 0.996851 0.386088 0.525468
Si Si2 0.080642 0.700286 0.309049
Si Si3 0.098548 0.774351 0.645177
Si Si4 0.746458 0.087654 0.785246
Si Si5 0.020188 0.784907 0.521304
Si Si6 0.998005 0.449824 0.638804
O O1 0.726887 0.425616 0.508557
O O2 0.976579 0.295819 0.511144
O O3 0.061058 0.398012 0.587227
O O4 0.353002 0.741612 0.321884
O O5 0.093879 0.607331 0.313617
O O6 0.000000 0.726290 0.250000
O O7 0.847085 0.720316 0.349074
O O8 0.205109 0.857698 0.663932
O O9 0.010182 0.775868 0.584384
O O10 0.500000 0.102728 0.750000
O O11 0.000000 0.107586 0.750000
O O12 0.750000 0.000000 0.806369
O O13 0.270798 0.831411 0.500286
O O14 0.750000 0.500000 0.625102
O O15 0.250000 0.500000 0.655159
#
# Coordination Sequence:
#
# PCOD8222629 Si02
#       6
#     8   8   8   8   8   8
#     4  10  19  35  54  77 106 139 187 245 306 363
#     4  12  25  41  63  89 119 160 210 260 311 375
#     4  12  22  40  66  93 126 162 207 255 307 371
#     4  10  21  38  63  98 136 169 204 250 307 369
#     4  10  20  35  58  85 118 155 197 250 305 361
#     4  12  26  41  58  81 113 155 203 258 319 377
#
# _framework density 21.325831999999998
#
# number of rings (size 3 to 8) (size 9 to 14) (size 15 to 20)
#    0.000    1.000    0.000   10.000    0.000    2.667 
#    0.000    0.000    0.000    1.000    0.000    0.000 
#    0.000    0.000    0.000    0.000    0.000    0.000 
#
# Total GULP energy -594861.112880 kJ/mol
# GULP energy per Si atom -12392.939852 kJ/mol
# Density = 2.127729 g / cm^3
# Si number density = 21.325832 Si / 1000 Ang^3
#
#
#
# Elastic Constant Matrix: (Units=GPa)
#
#
# Indices 1 2 3 4 5 6 
#
# 1 182.5921 31.5913 20.8807 0.0000 0.0000 0.0000
# 2 31.5913 85.9199 35.6687 0.0000 0.0000 0.0000
# 3 20.8807 35.6687 81.3633 0.0000 0.0000 0.0000
# 4 0.0000 0.0000 0.0000 20.7287 0.0000 0.0000
# 5 0.0000 0.0000 0.0000 0.0000 28.5251 0.0000
# 6 0.0000 0.0000 0.0000 0.0000 0.0000 25.9266
#
#
#
# Elastic Compliance Matrix: (Units=1/GPa)
#
#
# Indices 1 2 3 4 5 6 
#
# 1 0.005880 -0.001877 -0.000686 0.000000 0.000000 0.000000
# 2 -0.001877 0.014827 -0.006018 0.000000 0.000000 0.000000
# 3 -0.000686 -0.006018 0.015105 0.000000 0.000000 0.000000
# 4 0.000000 0.000000 0.000000 0.048242 0.000000 0.000000
# 5 0.000000 0.000000 0.000000 0.000000 0.035057 0.000000
# 6 0.000000 0.000000 0.000000 0.000000 0.000000 0.038570
#
#
# Mechanical properties :
#
#
# Convention : Reuss Voigt Hill
#
# Bulk Modulus (GPa) = 53.62191 58.46186 56.04188
# Shear Modulus (GPa) = 27.61490 32.48505 30.04997
#
# Velocity S-wave (km/s) = 3.60238 3.90715 3.75785
# Velocity P-wave (km/s) = 6.51932 6.91575 6.72046
#
# Compressibility (1/GPa) = 0.01864909
#
# Stress axis : x y z
#
# Youngs Moduli (GPa) = 170.07041 67.44258 66.20303
#
# Poissons Ratio (x) = 0.12660 0.04542
# Poissons Ratio (y) = 0.31924 0.39844
# Poissons Ratio (z) = 0.11668 0.40590
#
# Static dielectric constant tensor:
#      x y z
#    x 8.791640 0.000000 0.000000 
#    y 0.000000 3.982870 0.000000 
#    z 0.000000 0.000000 3.617960 
# 
# 
# High freq. dielectric constant tensor:
#      x y z
#    x 1.873510 0.000000 0.000000 
#    y 0.000000 1.804050 0.000000 
#    z 0.000000 0.000000 1.825760 
# 
# From -- ./inp_files/22915.got.cif
#   From: 2010.03.12/outbox.cif.g09.slc.cpg/sg54_12_cif.got.tgz:22915.got - 2010.04.16 15:00:50.
