data_PCOD8222673
_publ_section_title
;
Structure prediction by ZEFSAII (Michael W. Deem and Ramdas Pophale) SiO2 
 PCOD8222673
Probable space group: P C C A
;
_chemical_formula_sum "Si O2"
_cell_formula_units_Z 60
_cell_length_a 9.396200
_cell_length_b 17.831711
_cell_length_c 17.797056
_cell_angle_alpha 90.000000
_cell_angle_beta 90.000000
_cell_angle_gamma 90.000000
_cell_volume 2981.902479
_symmetry_space_group_name_H-M "P C C A"
_symmetry_group_IT_number 54
_symmetry_cell_setting 'orthorhombic'
loop_
_space_group_symop_operation_xyz
x,y,z
1/2-x,-y,z
1/2+x,-y,1/2-z
-x,y,1/2-z
-x,-y,-z
1/2+x,y,-z
1/2-x,y,1/2+z
x,-y,1/2+z
loop_
_atom_site_type_symbol
_atom_site_label
_atom_site_fract_x
_atom_site_fract_y
_atom_site_fract_z
Si Si1 0.515069 0.288310 0.057230
Si Si2 0.527096 0.401183 0.837662
Si Si3 0.407068 0.234509 0.676926
Si Si4 0.303978 0.625771 0.459731
Si Si5 0.156684 0.074753 0.558066
Si Si6 0.061616 0.148209 0.033141
Si Si7 0.750000 0.500000 0.923261
Si Si8 0.406313 0.811150 0.678081
O O1 0.642174 0.349329 0.058468
O O2 0.454921 0.268066 0.139572
O O3 0.392306 0.307875 0.997769
O O4 0.564872 0.207126 0.033082
O O5 0.500000 0.417516 0.750000
O O6 0.602748 0.320771 0.851428
O O7 0.376415 0.401634 0.882106
O O8 0.627092 0.466350 0.870371
O O9 0.500000 0.230635 0.750000
O O10 0.482519 0.182868 0.613641
O O11 0.255800 0.202519 0.701231
O O12 0.315505 0.561813 0.522286
O O13 0.271936 0.134113 0.532813
O O14 0.083029 0.109870 0.632061
O O15 0.037670 0.075852 0.490200
O O16 0.250000 0.000000 0.572509
O O17 0.500000 0.826325 0.750000
#
# Coordination Sequence:
#
# PCOD8222673 Si02
#       8
#     8   8   8   8   8   8   4   8
#     4  11  22  38  65  92 120 155 216 267 319 366
#     4  11  25  41  64  91 129 168 213 272 327 392
#     4  10  21  39  62  88 123 157 206 263 323 372
#     4  12  23  42  66  90 123 169 213 269 319 393
#     4  10  21  37  59  89 127 163 202 248 301 373
#     4  10  19  36  61  89 119 157 204 256 304 359
#     4  12  24  46  62  90 128 170 220 254 322 406
#     4  10  23  38  60  94 124 163 208 268 317 377
#
# _framework density 20.121382000000001
#
# number of rings (size 3 to 8) (size 9 to 14) (size 15 to 20)
#    0.000    1.333    2.667    4.000    3.733    1.600 
#    0.000    3.333    0.000    4.000    0.000    0.000 
#    0.000    0.000    0.000    0.000    0.000    0.000 
#
# Total GULP energy -743421.890024 kJ/mol
# GULP energy per Si atom -12390.364834 kJ/mol
# Density = 2.007559 g / cm^3
# Si number density = 20.121382 Si / 1000 Ang^3
#
#
#
# Elastic Constant Matrix: (Units=GPa)
#
#
# Indices 1 2 3 4 5 6 
#
# 1 78.1684 31.0690 54.8842 0.0000 0.0000 0.0000
# 2 31.0690 73.4955 42.6067 0.0000 0.0000 0.0000
# 3 54.8842 42.6067 122.9521 0.0000 0.0000 0.0000
# 4 0.0000 0.0000 0.0000 4.7140 0.0000 0.0000
# 5 0.0000 0.0000 0.0000 0.0000 35.0176 0.0000
# 6 0.0000 0.0000 0.0000 0.0000 0.0000 30.5867
#
#
#
# Elastic Compliance Matrix: (Units=1/GPa)
#
#
# Indices 1 2 3 4 5 6 
#
# 1 0.019533 -0.004008 -0.007330 0.000000 0.000000 0.000000
# 2 -0.004008 0.017849 -0.004396 0.000000 0.000000 0.000000
# 3 -0.007330 -0.004396 0.012929 0.000000 0.000000 0.000000
# 4 0.000000 0.000000 0.000000 0.212136 0.000000 0.000000
# 5 0.000000 0.000000 0.000000 0.000000 0.028557 0.000000
# 6 0.000000 0.000000 0.000000 0.000000 0.000000 0.032694
#
#
# Mechanical properties :
#
#
# Convention : Reuss Voigt Hill
#
# Bulk Modulus (GPa) = 53.07275 59.08176 56.07726
# Shear Modulus (GPa) = 13.83331 23.80074 18.81702
#
# Velocity S-wave (km/s) = 2.62485 3.44300 3.06138
# Velocity P-wave (km/s) = 5.96825 6.72548 6.35815
#
# Compressibility (1/GPa) = 0.01884206
#
# Stress axis : x y z
#
# Youngs Moduli (GPa) = 51.19650 56.02547 77.34625
#
# Poissons Ratio (x) = 0.22452 0.56698
# Poissons Ratio (y) = 0.20517 0.34004
# Poissons Ratio (z) = 0.37529 0.24631
#
# Static dielectric constant tensor:
#      x y z
#    x 4.017390 0.000000 0.000000 
#    y 0.000000 3.861950 0.000000 
#    z 0.000000 0.000000 3.697190 
# 
# 
# High freq. dielectric constant tensor:
#      x y z
#    x 1.794690 0.000000 0.000000 
#    y 0.000000 1.780000 0.000000 
#    z 0.000000 0.000000 1.783000 
# 
# From -- ./inp_files/16818.got.cif
#   From: 2010.03.12/outbox.cif.g09.slc.cpg/sg54_9_cif.got.tgz:16818.got - 2010.04.16 15:00:50.
