data_PCOD8222710
_publ_section_title
;
Structure prediction by ZEFSAII (Michael W. Deem and Ramdas Pophale) SiO2 
 PCOD8222710
Probable space group: P C C A
;
_chemical_formula_sum "Si O2"
_cell_formula_units_Z 44
_cell_length_a 14.557797
_cell_length_b 16.924467
_cell_length_c 8.873128
_cell_angle_alpha 90.000000
_cell_angle_beta 90.000000
_cell_angle_gamma 90.000000
_cell_volume 2186.187496
_symmetry_space_group_name_H-M "P C C A"
_symmetry_group_IT_number 54
_symmetry_cell_setting 'orthorhombic'
loop_
_space_group_symop_operation_xyz
x,y,z
1/2-x,-y,z
1/2+x,-y,1/2-z
-x,y,1/2-z
-x,-y,-z
1/2+x,y,-z
1/2-x,y,1/2+z
x,-y,1/2+z
loop_
_atom_site_type_symbol
_atom_site_label
_atom_site_fract_x
_atom_site_fract_y
_atom_site_fract_z
Si Si1 0.500000 0.662964 0.250000
Si Si2 0.661461 0.399645 0.897018
Si Si3 0.000000 0.010248 0.750000
Si Si4 0.286723 0.220894 0.605853
Si Si5 0.750000 0.500000 0.643608
Si Si6 0.557657 0.892719 0.477846
Si Si7 0.379610 0.207045 0.907637
O O1 0.447004 0.607662 0.131954
O O2 0.570100 0.713008 0.146551
O O3 0.701413 0.313278 0.928083
O O4 0.705293 0.432768 0.744240
O O5 0.674880 0.457553 0.037864
O O6 0.941532 0.065628 0.639293
O O7 0.073097 0.957930 0.653408
O O8 0.363200 0.172873 0.510538
O O9 0.304176 0.191202 0.776524
O O10 0.180598 0.206749 0.560274
O O11 0.457911 0.857453 0.432842
#
# Coordination Sequence:
#
# PCOD8222710 Si02
#       7
#     4   8   4   8   4   8   8
#     4  10  19  38  64  85 130 166 208 266 321 364
#     4  10  20  39  61  89 126 170 202 265 313 380
#     4  10  23  40  70  87 138 172 204 270 335 382
#     4  11  22  39  67  93 123 171 225 260 315 386
#     4  10  22  38  62  92 132 160 210 258 330 374
#     4  11  21  45  64  93 129 174 211 264 331 381
#     4  11  21  40  64  95 125 164 220 270 313 378
#
# _framework density 20.126362
#
# number of rings (size 3 to 8) (size 9 to 14) (size 15 to 20)
#    0.000    1.455    5.455    2.182    2.545    0.727 
#    0.000    5.455    0.000    0.000    0.000    0.000 
#    0.000    0.000    0.000    0.000    0.000    0.000 
#
# Total GULP energy -545190.784992 kJ/mol
# GULP energy per Si atom -12390.699659 kJ/mol
# Density = 2.008055 g / cm^3
# Si number density = 20.126362 Si / 1000 Ang^3
#
#
#
# Elastic Constant Matrix: (Units=GPa)
#
#
# Indices 1 2 3 4 5 6 
#
# 1 112.1856 43.1286 44.7365 0.0000 0.0000 0.0000
# 2 43.1286 118.2285 55.2675 0.0000 0.0000 0.0000
# 3 44.7365 55.2675 104.6210 0.0000 0.0000 0.0000
# 4 0.0000 0.0000 0.0000 19.4396 0.0000 0.0000
# 5 0.0000 0.0000 0.0000 0.0000 31.6555 0.0000
# 6 0.0000 0.0000 0.0000 0.0000 0.0000 14.2190
#
#
#
# Elastic Compliance Matrix: (Units=1/GPa)
#
#
# Indices 1 2 3 4 5 6 
#
# 1 0.011263 -0.002466 -0.003513 0.000000 0.000000 0.000000
# 2 -0.002466 0.011772 -0.005164 0.000000 0.000000 0.000000
# 3 -0.003513 -0.005164 0.013789 0.000000 0.000000 0.000000
# 4 0.000000 0.000000 0.000000 0.051441 0.000000 0.000000
# 5 0.000000 0.000000 0.000000 0.000000 0.031590 0.000000
# 6 0.000000 0.000000 0.000000 0.000000 0.000000 0.070328
#
#
# Mechanical properties :
#
#
# Convention : Reuss Voigt Hill
#
# Bulk Modulus (GPa) = 68.79374 69.03337 68.91356
# Shear Modulus (GPa) = 23.00800 25.85633 24.43216
#
# Velocity S-wave (km/s) = 3.38476 3.58816 3.48794
# Velocity P-wave (km/s) = 7.03780 7.17920 7.10885
#
# Compressibility (1/GPa) = 0.01453621
#
# Stress axis : x y z
#
# Youngs Moduli (GPa) = 88.78691 84.94809 72.52379
#
# Poissons Ratio (x) = 0.20951 0.25479
# Poissons Ratio (y) = 0.21897 0.37452
# Poissons Ratio (z) = 0.31193 0.43868
#
# Static dielectric constant tensor:
#      x y z
#    x 3.589160 0.000000 0.000000 
#    y 0.000000 3.748310 0.000000 
#    z 0.000000 0.000000 3.732030 
# 
# 
# High freq. dielectric constant tensor:
#      x y z
#    x 1.769180 0.000000 0.000000 
#    y 0.000000 1.792830 0.000000 
#    z 0.000000 0.000000 1.788760 
# 
# From -- ./inp_files/3544.got.cif
#   From: 2010.03.12/outbox.cif.g09.slc.cpg/sg54_2_cif.got.tgz:3544.got - 2010.04.16 15:00:50.
