data_PCOD8222976
_publ_section_title
;
Structure prediction by ZEFSAII (Michael W. Deem and Ramdas Pophale) SiO2 
 PCOD8222976
Probable space group: P C C A
;
_chemical_formula_sum "Si O2"
_cell_formula_units_Z 36
_cell_length_a 13.067083
_cell_length_b 10.348772
_cell_length_c 13.046512
_cell_angle_alpha 90.000000
_cell_angle_beta 90.000000
_cell_angle_gamma 90.000000
_cell_volume 1764.257152
_symmetry_space_group_name_H-M "P C C A"
_symmetry_group_IT_number 54
_symmetry_cell_setting 'orthorhombic'
loop_
_space_group_symop_operation_xyz
x,y,z
1/2-x,-y,z
1/2+x,-y,1/2-z
-x,y,1/2-z
-x,-y,-z
1/2+x,y,-z
1/2-x,y,1/2+z
x,-y,1/2+z
loop_
_atom_site_type_symbol
_atom_site_label
_atom_site_fract_x
_atom_site_fract_y
_atom_site_fract_z
Si Si1 0.333121 0.891287 0.745796
Si Si2 0.824203 0.393154 0.743449
Si Si3 0.993756 0.111180 0.582010
Si Si4 0.750000 0.500000 0.939326
Si Si5 0.432875 0.611407 0.950910
O O1 0.278984 0.752288 0.764323
O O2 0.401625 0.879320 0.644627
O O3 0.400170 0.926486 0.844405
O O4 0.250000 0.000000 0.727037
O O5 0.750000 0.500000 0.692057
O O6 0.834225 0.427308 0.865047
O O7 0.928257 0.399499 0.674580
O O8 0.976161 0.247093 0.522612
O O9 0.000000 0.000000 0.500000
O O10 0.684033 0.399750 0.006694
O O11 0.500000 0.500000 0.000000
#
# Coordination Sequence:
#
# PCOD8222976 Si02
#       5
#     8   8   8   4   8
#     4  10  22  42  64  86 128 170 205 261 321 373
#     4   9  21  39  60  90 123 155 205 252 309 371
#     4  10  24  42  60  95 126 162 217 262 314 381
#     4  10  20  38  64  92 124 158 208 258 310 374
#     4  11  22  40  65  92 126 162 208 260 315 377
#
# _framework density 20.405187000000002
#
# number of rings (size 3 to 8) (size 9 to 14) (size 15 to 20)
#    0.667    1.333    1.111    1.333    3.111    5.333 
#    4.000    0.000    0.000    0.000    0.000    0.000 
#    0.000    0.000    0.000    0.000    0.000    0.000 
#
# Total GULP energy -446041.128516 kJ/mol
# GULP energy per Si atom -12390.031348 kJ/mol
# Density = 2.035874 g / cm^3
# Si number density = 20.405187 Si / 1000 Ang^3
#
#
#
# Elastic Constant Matrix: (Units=GPa)
#
#
# Indices 1 2 3 4 5 6 
#
# 1 81.1531 76.2547 42.0483 0.0000 0.0000 0.0000
# 2 76.2547 204.2212 72.7653 0.0000 0.0000 0.0000
# 3 42.0483 72.7653 107.1480 0.0000 0.0000 0.0000
# 4 0.0000 0.0000 0.0000 31.4988 0.0000 0.0000
# 5 0.0000 0.0000 0.0000 0.0000 22.0598 0.0000
# 6 0.0000 0.0000 0.0000 0.0000 0.0000 45.1723
#
#
#
# Elastic Compliance Matrix: (Units=1/GPa)
#
#
# Indices 1 2 3 4 5 6 
#
# 1 0.020018 -0.006168 -0.003667 0.000000 0.000000 0.000000
# 2 -0.006168 0.008360 -0.003257 0.000000 0.000000 0.000000
# 3 -0.003667 -0.003257 0.012984 0.000000 0.000000 0.000000
# 4 0.000000 0.000000 0.000000 0.031747 0.000000 0.000000
# 5 0.000000 0.000000 0.000000 0.000000 0.045331 0.000000
# 6 0.000000 0.000000 0.000000 0.000000 0.000000 0.022137
#
#
# Mechanical properties :
#
#
# Convention : Reuss Voigt Hill
#
# Bulk Modulus (GPa) = 65.88425 86.07320 75.97872
# Shear Modulus (GPa) = 29.09994 33.17644 31.13819
#
# Velocity S-wave (km/s) = 3.78048 4.03660 3.91064
# Velocity P-wave (km/s) = 7.17036 7.99994 7.59649
#
# Compressibility (1/GPa) = 0.01517813
#
# Stress axis : x y z
#
# Youngs Moduli (GPa) = 49.95469 119.61381 77.01923
#
# Poissons Ratio (x) = 0.73779 0.28243
# Poissons Ratio (y) = 0.30812 0.25085
# Poissons Ratio (z) = 0.18318 0.38958
#
# Static dielectric constant tensor:
#      x y z
#    x 3.530890 0.000000 0.000000 
#    y 0.000000 3.965740 0.000000 
#    z 0.000000 0.000000 3.864220 
# 
# 
# High freq. dielectric constant tensor:
#      x y z
#    x 1.780310 0.000000 0.000000 
#    y 0.000000 1.801520 0.000000 
#    z 0.000000 0.000000 1.807430 
# 
# From -- ./inp_files/13094.got.cif
#   From: 2010.03.12/outbox.cif.g09.slc.cpg/sg54_7_cif.got.tgz:13094.got - 2010.04.16 15:00:50.
