data_PCOD8222622
_publ_section_title
;
Structure prediction by ZEFSAII (Michael W. Deem and Ramdas Pophale) SiO2 
 PCOD8222622
Probable space group: P C C A
;
_chemical_formula_sum "Si O2"
_cell_formula_units_Z 32
_cell_length_a 5.142848
_cell_length_b 8.735007
_cell_length_c 33.684024
_cell_angle_alpha 90.000000
_cell_angle_beta 90.000000
_cell_angle_gamma 90.000000
_cell_volume 1513.181121
_symmetry_space_group_name_H-M "P C C A"
_symmetry_group_IT_number 54
_symmetry_cell_setting 'orthorhombic'
loop_
_space_group_symop_operation_xyz
x,y,z
1/2-x,-y,z
1/2+x,-y,1/2-z
-x,y,1/2-z
-x,-y,-z
1/2+x,y,-z
1/2-x,y,1/2+z
x,-y,1/2+z
loop_
_atom_site_type_symbol
_atom_site_label
_atom_site_fract_x
_atom_site_fract_y
_atom_site_fract_z
Si Si1 0.761138 0.678839 0.640283
Si Si2 0.431006 0.169770 0.516301
Si Si3 0.248286 0.823389 0.275856
Si Si4 0.257926 0.171937 0.106105
O O1 0.750000 0.500000 0.632566
O O2 0.718698 0.716136 0.686158
O O3 0.546492 0.761203 0.612514
O O4 0.051512 0.729837 0.630068
O O5 0.710416 0.253599 0.511266
O O6 0.322419 0.170415 0.560347
O O7 0.500000 0.000000 0.500000
O O8 0.500000 0.781638 0.250000
O O9 0.000000 0.785394 0.250000
O O10 0.250000 0.000000 0.289654
O O11 0.250000 0.000000 0.123101
#
# Coordination Sequence:
#
# PCOD8222622 Si02
#       4
#     8   8   8   8
#     4  12  27  43  62  97 143 177 212 261 332 406
#     4  10  19  34  61  99 122 150 212 292 320 369
#     4  10  21  40  67  95 126 164 218 276 317 368
#     4  12  23  40  70  97 126 170 224 279 323 377
#
# _framework density 21.147500999999998
#
# number of rings (size 3 to 8) (size 9 to 14) (size 15 to 20)
#    0.000    1.000    2.500    6.000    3.500    3.000 
#    0.000    0.000    0.000   15.000    0.000    0.000 
#    0.000    0.000    0.000    0.000    0.000    0.000 
#
# Total GULP energy -396680.068989 kJ/mol
# GULP energy per Si atom -12396.252156 kJ/mol
# Density = 2.109937 g / cm^3
# Si number density = 21.147501 Si / 1000 Ang^3
#
#
#
# Elastic Constant Matrix: (Units=GPa)
#
#
# Indices 1 2 3 4 5 6 
#
# 1 153.7412 16.5758 29.4506 0.0000 0.0000 0.0000
# 2 16.5758 100.2535 20.1052 0.0000 0.0000 0.0000
# 3 29.4506 20.1052 105.7688 0.0000 0.0000 0.0000
# 4 0.0000 0.0000 0.0000 28.6118 0.0000 0.0000
# 5 0.0000 0.0000 0.0000 0.0000 32.6119 0.0000
# 6 0.0000 0.0000 0.0000 0.0000 0.0000 27.7378
#
#
#
# Elastic Compliance Matrix: (Units=1/GPa)
#
#
# Indices 1 2 3 4 5 6 
#
# 1 0.006930 -0.000789 -0.001780 0.000000 0.000000 0.000000
# 2 -0.000789 0.010460 -0.001769 0.000000 0.000000 0.000000
# 3 -0.001780 -0.001769 0.010286 0.000000 0.000000 0.000000
# 4 0.000000 0.000000 0.000000 0.034951 0.000000 0.000000
# 5 0.000000 0.000000 0.000000 0.000000 0.030664 0.000000
# 6 0.000000 0.000000 0.000000 0.000000 0.000000 0.036052
#
#
# Mechanical properties :
#
#
# Convention : Reuss Voigt Hill
#
# Bulk Modulus (GPa) = 52.62609 54.66965 53.64787
# Shear Modulus (GPa) = 34.63771 37.36776 36.00274
#
# Velocity S-wave (km/s) = 4.05150 4.20814 4.13056
# Velocity P-wave (km/s) = 6.84292 7.03697 6.94062
#
# Compressibility (1/GPa) = 0.01900198
#
# Stress axis : x y z
#
# Youngs Moduli (GPa) = 144.29115 95.60381 97.21639
#
# Poissons Ratio (x) = 0.07543 0.17302
# Poissons Ratio (y) = 0.11384 0.17194
# Poissons Ratio (z) = 0.25680 0.16908
#
# Static dielectric constant tensor:
#      x y z
#    x 4.561310 0.000000 0.000000 
#    y 0.000000 3.519260 0.000000 
#    z 0.000000 0.000000 3.846600 
# 
# 
# High freq. dielectric constant tensor:
#      x y z
#    x 1.867730 0.000000 0.000000 
#    y 0.000000 1.790640 0.000000 
#    z 0.000000 0.000000 1.837390 
# 
# From -- ./inp_files/26858.got.cif
#   From: 2010.03.12/outbox.cif.g09.slc.cpg/sg54_14_cif.got.tgz:26858.got - 2010.04.16 15:00:50.
