data_PCOD8222950
_publ_section_title
;
Structure prediction by ZEFSAII (Michael W. Deem and Ramdas Pophale) SiO2 
 PCOD8222950
Probable space group: P C C A
;
_chemical_formula_sum "Si O2"
_cell_formula_units_Z 48
_cell_length_a 15.416155
_cell_length_b 8.510853
_cell_length_c 17.889615
_cell_angle_alpha 90.000000
_cell_angle_beta 90.000000
_cell_angle_gamma 90.000000
_cell_volume 2347.200300
_symmetry_space_group_name_H-M "P C C A"
_symmetry_group_IT_number 54
_symmetry_cell_setting 'orthorhombic'
loop_
_space_group_symop_operation_xyz
x,y,z
1/2-x,-y,z
1/2+x,-y,1/2-z
-x,y,1/2-z
-x,-y,-z
1/2+x,y,-z
1/2-x,y,1/2+z
x,-y,1/2+z
loop_
_atom_site_type_symbol
_atom_site_label
_atom_site_fract_x
_atom_site_fract_y
_atom_site_fract_z
Si Si1 0.662170 0.598138 0.153616
Si Si2 0.087870 0.702075 0.290646
Si Si3 0.262379 0.183354 0.561292
Si Si4 0.589243 0.841346 0.548358
Si Si5 0.593054 0.790665 0.016946
Si Si6 0.243130 0.815872 0.727510
O O1 0.750000 0.500000 0.132252
O O2 0.592460 0.482218 0.190902
O O3 0.611264 0.673939 0.084941
O O4 0.681476 0.738304 0.211081
O O5 0.103655 0.802229 0.365442
O O6 0.161405 0.744191 0.231273
O O7 0.000000 0.748623 0.250000
O O8 0.334578 0.238012 0.501321
O O9 0.168136 0.254262 0.542302
O O10 0.292912 0.227324 0.644953
O O11 0.250000 0.000000 0.555533
O O12 0.500002 0.761406 0.520731
O O13 0.593569 0.028706 0.542885
O O14 0.250000 0.000000 0.742491
#
# Coordination Sequence:
#
# PCOD8222950 Si02
#       6
#     8   8   8   8   8   8
#     4  10  22  38  56  82 118 159 195 232 290 355
#     4  11  23  39  56  83 122 157 191 236 290 348
#     4   9  18  34  58  87 115 142 184 242 293 337
#     4  10  21  37  62  88 112 149 197 246 292 341
#     4  10  20  38  60  86 115 148 197 248 290 340
#     4  10  20  38  63  86 111 151 196 239 290 343
#
# _framework density 20.449895000000001
#
# number of rings (size 3 to 8) (size 9 to 14) (size 15 to 20)
#    0.000    2.000    0.000    4.000    0.000    4.667 
#    0.000   10.833    0.000    0.000    0.000    0.000 
#    0.000    0.000    0.000    0.000    0.000    0.000 
#
# Total GULP energy -595057.263840 kJ/mol
# GULP energy per Si atom -12397.026330 kJ/mol
# Density = 2.040335 g / cm^3
# Si number density = 20.449895 Si / 1000 Ang^3
#
#
#
# Elastic Constant Matrix: (Units=GPa)
#
#
# Indices 1 2 3 4 5 6 
#
# 1 88.0748 2.6922 26.8625 0.0000 0.0000 0.0000
# 2 2.6922 64.6421 26.1029 0.0000 0.0000 0.0000
# 3 26.8625 26.1029 99.2458 0.0000 0.0000 0.0000
# 4 0.0000 0.0000 0.0000 2.6609 0.0000 0.0000
# 5 0.0000 0.0000 0.0000 0.0000 34.1276 0.0000
# 6 0.0000 0.0000 0.0000 0.0000 0.0000 16.9765
#
#
#
# Elastic Compliance Matrix: (Units=1/GPa)
#
#
# Indices 1 2 3 4 5 6 
#
# 1 0.012427 0.000941 -0.003611 0.000000 0.000000 0.000000
# 2 0.000941 0.017379 -0.004826 0.000000 0.000000 0.000000
# 3 -0.003611 -0.004826 0.012322 0.000000 0.000000 0.000000
# 4 0.000000 0.000000 0.000000 0.375814 0.000000 0.000000
# 5 0.000000 0.000000 0.000000 0.000000 0.029302 0.000000
# 6 0.000000 0.000000 0.000000 0.000000 0.000000 0.058905
#
#
# Mechanical properties :
#
#
# Convention : Reuss Voigt Hill
#
# Bulk Modulus (GPa) = 36.85058 40.36421 38.60739
# Shear Modulus (GPa) = 9.43065 23.84000 16.63533
#
# Velocity S-wave (km/s) = 2.14979 3.41805 2.85523
# Velocity P-wave (km/s) = 4.92150 5.94629 5.45800
#
# Compressibility (1/GPa) = 0.02713662
#
# Stress axis : x y z
#
# Youngs Moduli (GPa) = 80.47300 57.54006 81.15238
#
# Poissons Ratio (x) = -0.05412 0.29303
# Poissons Ratio (y) = -0.07569 0.39160
# Poissons Ratio (z) = 0.29057 0.27766
#
# Static dielectric constant tensor:
#      x y z
#    x 4.003520 0.000000 0.000000 
#    y 0.000000 3.630590 0.000000 
#    z 0.000000 0.000000 3.772950 
# 
# 
# High freq. dielectric constant tensor:
#      x y z
#    x 1.799140 0.000000 0.000000 
#    y 0.000000 1.788940 0.000000 
#    z 0.000000 0.000000 1.807350 
# 
# From -- ./inp_files/18024.got.cif
#   From: 2010.03.12/outbox.cif.g09.slc.cpg/sg54_10_cif.got.tgz:18024.got - 2010.04.16 15:00:50.
