data_PCOD8222993
_publ_section_title
;
Structure prediction by ZEFSAII (Michael W. Deem and Ramdas Pophale) SiO2 
 PCOD8222993
Probable space group: P C C A
;
_chemical_formula_sum "Si O2"
_cell_formula_units_Z 40
_cell_length_a 14.372145
_cell_length_b 15.042979
_cell_length_c 8.420399
_cell_angle_alpha 90.000000
_cell_angle_beta 90.000000
_cell_angle_gamma 90.000000
_cell_volume 1820.489215
_symmetry_space_group_name_H-M "P C C A"
_symmetry_group_IT_number 54
_symmetry_cell_setting 'orthorhombic'
loop_
_space_group_symop_operation_xyz
x,y,z
1/2-x,-y,z
1/2+x,-y,1/2-z
-x,y,1/2-z
-x,-y,-z
1/2+x,y,-z
1/2-x,y,1/2+z
x,-y,1/2+z
loop_
_atom_site_type_symbol
_atom_site_label
_atom_site_fract_x
_atom_site_fract_y
_atom_site_fract_z
Si Si1 0.023087 0.096283 0.433833
Si Si2 0.355435 0.599236 0.529366
Si Si3 0.814098 0.798197 0.458377
Si Si4 0.750000 0.500000 0.225077
Si Si5 0.622145 0.213870 0.116606
Si Si6 0.000000 0.366103 0.750000
O O1 0.132055 0.124030 0.445487
O O2 0.000000 0.103963 0.250000
O O3 0.965624 0.161721 0.547916
O O4 0.000000 0.000000 0.500000
O O5 0.356434 0.703324 0.486189
O O6 0.336602 0.535556 0.379786
O O7 0.277718 0.582832 0.665053
O O8 0.454635 0.574341 0.610123
O O9 0.831922 0.825563 0.275835
O O10 0.703520 0.790924 0.485711
O O11 0.583140 0.310508 0.165181
#
# Coordination Sequence:
#
# PCOD8222993 Si02
#       6
#     8   8   8   4   8   4
#     4  12  25  43  67 101 136 170 219 277 334 400
#     4  10  20  39  60  91 128 172 213 278 336 387
#     4  11  22  41  69  94 131 182 221 273 337 405
#     4  10  22  36  62  92 128 168 226 282 328 404
#     4  11  21  42  66  99 132 178 226 272 335 399
#     4  10  20  38  68  86 138 170 226 276 336 402
#
# _framework density 21.972116
#
# number of rings (size 3 to 8) (size 9 to 14) (size 15 to 20)
#    0.000    1.200    4.000    4.800    0.000    1.600 
#    0.000    4.000    2.200    0.000    0.000    0.000 
#    0.000    0.000    0.000    0.000    0.000    0.000 
#
# Total GULP energy -495665.327260 kJ/mol
# GULP energy per Si atom -12391.633181 kJ/mol
# Density = 2.192211 g / cm^3
# Si number density = 21.972116 Si / 1000 Ang^3
#
#
#
# Elastic Constant Matrix: (Units=GPa)
#
#
# Indices 1 2 3 4 5 6 
#
# 1 101.9339 4.1748 18.9054 0.0000 0.0000 0.0000
# 2 4.1748 71.9029 13.8282 0.0000 0.0000 0.0000
# 3 18.9054 13.8282 104.4951 0.0000 0.0000 0.0000
# 4 0.0000 0.0000 0.0000 21.6932 0.0000 0.0000
# 5 0.0000 0.0000 0.0000 0.0000 42.5165 0.0000
# 6 0.0000 0.0000 0.0000 0.0000 0.0000 31.9303
#
#
#
# Elastic Compliance Matrix: (Units=1/GPa)
#
#
# Indices 1 2 3 4 5 6 
#
# 1 0.010155 -0.000242 -0.001805 0.000000 0.000000 0.000000
# 2 -0.000242 0.014277 -0.001845 0.000000 0.000000 0.000000
# 3 -0.001805 -0.001845 0.010141 0.000000 0.000000 0.000000
# 4 0.000000 0.000000 0.000000 0.046097 0.000000 0.000000
# 5 0.000000 0.000000 0.000000 0.000000 0.023520 0.000000
# 6 0.000000 0.000000 0.000000 0.000000 0.000000 0.031318
#
#
# Mechanical properties :
#
#
# Convention : Reuss Voigt Hill
#
# Bulk Modulus (GPa) = 37.33264 39.12762 38.23013
# Shear Modulus (GPa) = 32.84657 35.32291 34.08474
#
# Velocity S-wave (km/s) = 3.87061 4.01387 3.94289
# Velocity P-wave (km/s) = 6.08304 6.27121 6.17784
#
# Compressibility (1/GPa) = 0.02678621
#
# Stress axis : x y z
#
# Youngs Moduli (GPa) = 98.47362 70.04454 98.61324
#
# Poissons Ratio (x) = 0.01698 0.17801
# Poissons Ratio (y) = 0.02387 0.18198
# Poissons Ratio (z) = 0.17776 0.12926
#
# Static dielectric constant tensor:
#      x y z
#    x 4.221480 0.000000 0.000000 
#    y 0.000000 3.762810 0.000000 
#    z 0.000000 0.000000 4.213230 
# 
# 
# High freq. dielectric constant tensor:
#      x y z
#    x 1.867920 0.000000 0.000000 
#    y 0.000000 1.841730 0.000000 
#    z 0.000000 0.000000 1.874180 
# 
# From -- ./inp_files/3465.got.cif
#   From: 2010.03.12/outbox.cif.g09.slc.cpg/sg54_2_cif.got.tgz:3465.got - 2010.04.16 15:00:50.
