data_PCOD8222750
_publ_section_title
;
Structure prediction by ZEFSAII (Michael W. Deem and Ramdas Pophale) SiO2 
 PCOD8222750
Probable space group: P C C A
;
_chemical_formula_sum "Si O2"
_cell_formula_units_Z 52
_cell_length_a 15.691453
_cell_length_b 17.771107
_cell_length_c 8.947672
_cell_angle_alpha 90.000000
_cell_angle_beta 90.000000
_cell_angle_gamma 90.000000
_cell_volume 2495.098514
_symmetry_space_group_name_H-M "P C C A"
_symmetry_group_IT_number 54
_symmetry_cell_setting 'orthorhombic'
loop_
_space_group_symop_operation_xyz
x,y,z
1/2-x,-y,z
1/2+x,-y,1/2-z
-x,y,1/2-z
-x,-y,-z
1/2+x,y,-z
1/2-x,y,1/2+z
x,-y,1/2+z
loop_
_atom_site_type_symbol
_atom_site_label
_atom_site_fract_x
_atom_site_fract_y
_atom_site_fract_z
Si Si1 0.194112 0.821380 0.043303
Si Si2 0.823685 0.057825 0.509787
Si Si3 0.745611 0.280443 0.705643
Si Si4 0.500000 0.502389 0.750000
Si Si5 0.591876 0.947366 0.820075
Si Si6 0.883805 0.460828 0.998444
Si Si7 0.794522 0.382456 0.462018
O O1 0.288333 0.860343 0.035419
O O2 0.194094 0.766994 0.185334
O O3 0.116749 0.880919 0.062296
O O4 0.181572 0.773097 0.890684
O O5 0.841471 0.055590 0.685110
O O6 0.750000 0.000000 0.469500
O O7 0.903363 0.028078 0.407757
O O8 0.810991 0.322140 0.592858
O O9 0.692714 0.342537 0.801251
O O10 0.448860 0.556534 0.636393
O O11 0.432811 0.450880 0.843719
O O12 0.500000 0.933868 0.750000
O O13 0.804070 0.406603 0.984621
O O14 0.857291 0.548216 0.979422
#
# Coordination Sequence:
#
# PCOD8222750 Si02
#       7
#     8   8   8   4   8   8   8
#     4  10  20  37  59  80 118 151 198 236 286 348
#     4  10  20  36  60  87 109 148 193 238 284 345
#     4  10  20  34  60  84 107 154 202 241 275 348
#     4  10  20  32  56  86 122 146 170 224 334 344
#     4  11  22  36  59  89 118 146 188 244 298 341
#     4  10  20  36  58  88 116 150 185 259 286 346
#     4  10  20  36  62  85 110 145 213 241 285 330
#
# _framework density 20.840861
#
# number of rings (size 3 to 8) (size 9 to 14) (size 15 to 20)
#    0.000    1.846    1.538    3.692    2.154    2.462 
#    0.000    0.000   25.385    1.846    0.000    0.000 
#    0.000    0.000    0.000    0.000    0.000    0.000 
#
# Total GULP energy -644531.316063 kJ/mol
# GULP energy per Si atom -12394.833001 kJ/mol
# Density = 2.079343 g / cm^3
# Si number density = 20.840861 Si / 1000 Ang^3
#
#
#
# Elastic Constant Matrix: (Units=GPa)
#
#
# Indices 1 2 3 4 5 6 
#
# 1 72.1764 27.8137 30.6863 0.0000 0.0000 0.0000
# 2 27.8137 101.2818 44.8794 0.0000 0.0000 0.0000
# 3 30.6863 44.8794 137.9213 0.0000 0.0000 0.0000
# 4 0.0000 0.0000 0.0000 35.4423 0.0000 0.0000
# 5 0.0000 0.0000 0.0000 0.0000 24.4417 0.0000
# 6 0.0000 0.0000 0.0000 0.0000 0.0000 16.4271
#
#
#
# Elastic Compliance Matrix: (Units=1/GPa)
#
#
# Indices 1 2 3 4 5 6 
#
# 1 0.016212 -0.003335 -0.002522 0.000000 0.000000 0.000000
# 2 -0.003335 0.012223 -0.003235 0.000000 0.000000 0.000000
# 3 -0.002522 -0.003235 0.008864 0.000000 0.000000 0.000000
# 4 0.000000 0.000000 0.000000 0.028215 0.000000 0.000000
# 5 0.000000 0.000000 0.000000 0.000000 0.040914 0.000000
# 6 0.000000 0.000000 0.000000 0.000000 0.000000 0.060875
#
#
# Mechanical properties :
#
#
# Convention : Reuss Voigt Hill
#
# Bulk Modulus (GPa) = 52.31358 57.57091 54.94225
# Shear Modulus (GPa) = 26.06082 29.12889 27.59486
#
# Velocity S-wave (km/s) = 3.54003 3.74261 3.64273
# Velocity P-wave (km/s) = 6.47032 6.80884 6.64173
#
# Compressibility (1/GPa) = 0.01911550
#
# Stress axis : x y z
#
# Youngs Moduli (GPa) = 61.68189 81.81424 112.81059
#
# Poissons Ratio (x) = 0.27282 0.28451
# Poissons Ratio (y) = 0.20569 0.36498
# Poissons Ratio (z) = 0.15556 0.26470
#
# Static dielectric constant tensor:
#      x y z
#    x 3.496350 0.000000 0.000000 
#    y 0.000000 3.867590 0.000000 
#    z 0.000000 0.000000 4.098410 
# 
# 
# High freq. dielectric constant tensor:
#      x y z
#    x 1.773250 0.000000 0.000000 
#    y 0.000000 1.806530 0.000000 
#    z 0.000000 0.000000 1.843720 
# 
# From -- ./inp_files/4327.got.cif
#   From: 2010.03.12/outbox.cif.g09.slc.cpg/sg54_3_cif.got.tgz:4327.got - 2010.04.16 15:00:50.
