data_PCOD8222983
_publ_section_title
;
Structure prediction by ZEFSAII (Michael W. Deem and Ramdas Pophale) SiO2 
 PCOD8222983
Probable space group: P C C A
;
_chemical_formula_sum "Si O2"
_cell_formula_units_Z 64
_cell_length_a 9.378223
_cell_length_b 22.474778
_cell_length_c 14.908467
_cell_angle_alpha 90.000000
_cell_angle_beta 90.000000
_cell_angle_gamma 90.000000
_cell_volume 3142.309470
_symmetry_space_group_name_H-M "P C C A"
_symmetry_group_IT_number 54
_symmetry_cell_setting 'orthorhombic'
loop_
_space_group_symop_operation_xyz
x,y,z
1/2-x,-y,z
1/2+x,-y,1/2-z
-x,y,1/2-z
-x,-y,-z
1/2+x,y,-z
1/2-x,y,1/2+z
x,-y,1/2+z
loop_
_atom_site_type_symbol
_atom_site_label
_atom_site_fract_x
_atom_site_fract_y
_atom_site_fract_z
Si Si1 0.289157 0.641135 0.389693
Si Si2 0.520313 0.567364 0.603934
Si Si3 0.167173 0.940873 0.088335
Si Si4 0.161962 0.148789 0.748485
Si Si5 0.830929 0.731486 0.757712
Si Si6 0.221463 0.645915 0.095696
Si Si7 0.532533 0.439232 0.898242
Si Si8 0.671163 0.940317 0.590978
O O1 0.258326 0.696281 0.324776
O O2 0.289449 0.665860 0.491628
O O3 0.435826 0.612145 0.353540
O O4 0.181452 0.585949 0.378937
O O5 0.428720 0.624374 0.637871
O O6 0.486252 0.503518 0.650316
O O7 0.477362 0.557799 0.500406
O O8 0.189704 0.890680 0.161598
O O9 0.997564 0.952821 0.073214
O O10 0.250000 0.000000 0.121203
O O11 0.246034 0.918760 0.998142
O O12 0.271137 0.202550 0.744774
O O13 0.193225 0.110694 0.836595
O O14 0.000000 0.172837 0.750000
O O15 0.786804 0.701175 0.851520
O O16 0.000000 0.734771 0.750000
O O17 0.307502 0.584038 0.106459
O O18 0.750000 0.000000 0.625594
#
# Coordination Sequence:
#
# PCOD8222983 Si02
#       8
#     8   8   8   8   8   8   8   8
#     4  10  21  38  59  85 115 152 194 244 304 362
#     4   9  18  31  61  87 112 151 183 240 308 372
#     4  10  20  38  65  99 132 163 198 244 296 348
#     4  10  25  43  61  87 123 165 210 251 289 343
#     4  12  26  43  60  82 118 161 207 250 293 353
#     4  10  21  38  59  85 115 152 194 244 304 362
#     4   9  16  35  57  87 118 143 189 238 306 374
#     4  10  20  38  65  99 132 163 198 244 296 348
#
# _framework density 20.367184999999999
#
# number of rings (size 3 to 8) (size 9 to 14) (size 15 to 20)
#    0.000    2.000    1.250    2.625    1.750    6.000 
#    0.000    6.250    0.000    0.000    0.000    0.000 
#    0.000    0.000    0.000    0.000    0.000    0.000 
#
# Total GULP energy -793256.070212 kJ/mol
# GULP energy per Si atom -12394.626097 kJ/mol
# Density = 2.032083 g / cm^3
# Si number density = 20.367185 Si / 1000 Ang^3
#
#
#
# Elastic Constant Matrix: (Units=GPa)
#
#
# Indices 1 2 3 4 5 6 
#
# 1 98.3592 41.6016 33.4546 0.0000 0.0000 0.0000
# 2 41.6016 119.3136 56.6958 0.0000 0.0000 0.0000
# 3 33.4546 56.6958 84.4521 0.0000 0.0000 0.0000
# 4 0.0000 0.0000 0.0000 279.1050 0.0000 0.0000
# 5 0.0000 0.0000 0.0000 0.0000 23.2919 0.0000
# 6 0.0000 0.0000 0.0000 0.0000 0.0000 38.3576
#
#
#
# Elastic Compliance Matrix: (Units=1/GPa)
#
#
# Indices 1 2 3 4 5 6 
#
# 1 0.012407 -0.002923 -0.002953 0.000000 0.000000 0.000000
# 2 -0.002923 0.012996 -0.007567 0.000000 0.000000 0.000000
# 3 -0.002953 -0.007567 0.018091 0.000000 0.000000 0.000000
# 4 0.000000 0.000000 0.000000 0.003583 0.000000 0.000000
# 5 0.000000 0.000000 0.000000 0.000000 0.042933 0.000000
# 6 0.000000 0.000000 0.000000 0.000000 0.000000 0.026070
#
#
# Mechanical properties :
#
#
# Convention : Reuss Voigt Hill
#
# Bulk Modulus (GPa) = 60.20847 62.84766 61.52807
# Shear Modulus (GPa) = 33.66948 79.50908 56.58928
#
# Velocity S-wave (km/s) = 4.07027 6.25480 5.27682
# Velocity P-wave (km/s) = 7.19133 9.11525 8.20984
#
# Compressibility (1/GPa) = 0.01660896
#
# Stress axis : x y z
#
# Youngs Moduli (GPa) = 80.59685 76.94604 55.27732
#
# Poissons Ratio (x) = 0.22492 0.16322
# Poissons Ratio (y) = 0.23559 0.41827
# Poissons Ratio (z) = 0.23798 0.58224
#
# Static dielectric constant tensor:
#      x y z
#    x 3.805920 0.000000 0.000000 
#    y 0.000000 3.506390 0.000000 
#    z 0.000000 0.000000 3.624780 
# 
# 
# High freq. dielectric constant tensor:
#      x y z
#    x 1.811470 0.000000 0.000000 
#    y 0.000000 1.782740 0.000000 
#    z 0.000000 0.000000 1.788820 
# 
# From -- ./inp_files/16858.got.cif
#   From: 2010.03.12/outbox.cif.g09.slc.cpg/sg54_9_cif.got.tgz:16858.got - 2010.04.16 15:00:50.
