data_PCOD8222823
_publ_section_title
;
Structure prediction by ZEFSAII (Michael W. Deem and Ramdas Pophale) SiO2 
 PCOD8222823
Probable space group: P C C A
;
_chemical_formula_sum "Si O2"
_cell_formula_units_Z 56
_cell_length_a 18.492144
_cell_length_b 9.283843
_cell_length_c 16.162841
_cell_angle_alpha 90.000000
_cell_angle_beta 90.000000
_cell_angle_gamma 90.000000
_cell_volume 2774.806830
_symmetry_space_group_name_H-M "P C C A"
_symmetry_group_IT_number 54
_symmetry_cell_setting 'orthorhombic'
loop_
_space_group_symop_operation_xyz
x,y,z
1/2-x,-y,z
1/2+x,-y,1/2-z
-x,y,1/2-z
-x,-y,-z
1/2+x,y,-z
1/2-x,y,1/2+z
x,-y,1/2+z
loop_
_atom_site_type_symbol
_atom_site_label
_atom_site_fract_x
_atom_site_fract_y
_atom_site_fract_z
Si Si1 0.455075 0.304853 0.915972
Si Si2 0.447519 0.502057 0.177458
Si Si3 0.916386 0.769909 0.407312
Si Si4 0.037724 0.941927 0.670867
Si Si5 0.259365 0.672508 0.545005
Si Si6 0.791071 0.351385 0.134534
Si Si7 0.665199 0.728261 0.304512
O O1 0.517413 0.424017 0.903382
O O2 0.376739 0.365613 0.886758
O O3 0.476300 0.155973 0.871132
O O4 0.460435 0.272139 0.012088
O O5 0.500000 0.549132 0.250000
O O6 0.443624 0.330488 0.167886
O O7 0.368520 0.567207 0.196068
O O8 0.930639 0.936202 0.388793
O O9 0.833689 0.732064 0.420581
O O10 0.000000 0.016067 0.750000
O O11 0.104089 0.847176 0.702917
O O12 0.250000 0.500000 0.550698
O O13 0.252569 0.719859 0.447438
O O14 0.203304 0.750264 0.606500
O O15 0.750000 0.500000 0.151110
O O16 0.784114 0.261340 0.221279
#
# Coordination Sequence:
#
# PCOD8222823 Si02
#       7
#     8   8   8   8   8   8   8
#     4  10  20  40  61  90 122 165 203 259 323 369
#     4  11  20  35  61  96 118 159 207 258 317 376
#     4  11  23  36  61  91 127 157 210 264 304 380
#     4  11  22  41  63  89 125 169 208 255 325 389
#     4  10  21  38  61  92 122 158 207 261 319 369
#     4  10  20  35  63  93 119 158 211 256 310 379
#     4  11  20  39  64  87 127 166 205 256 320 373
#
# _framework density 20.181585999999999
#
# number of rings (size 3 to 8) (size 9 to 14) (size 15 to 20)
#    0.000    1.429    4.286    2.571    0.000    0.571 
#    0.000    0.000    3.143    1.714    0.000    0.000 
#    0.000    0.000    0.000    0.000    0.000    0.000 
#
# Total GULP energy -693849.627736 kJ/mol
# GULP energy per Si atom -12390.171924 kJ/mol
# Density = 2.013565 g / cm^3
# Si number density = 20.181586 Si / 1000 Ang^3
#
#
#
# Elastic Constant Matrix: (Units=GPa)
#
#
# Indices 1 2 3 4 5 6 
#
# 1 77.4306 33.5315 51.6746 0.0000 0.0000 0.0000
# 2 33.5315 94.1380 27.8869 0.0000 0.0000 0.0000
# 3 51.6746 27.8869 138.6868 0.0000 0.0000 0.0000
# 4 0.0000 0.0000 0.0000 20.0151 0.0000 0.0000
# 5 0.0000 0.0000 0.0000 0.0000 72.9475 0.0000
# 6 0.0000 0.0000 0.0000 0.0000 0.0000 22.7368
#
#
#
# Elastic Compliance Matrix: (Units=1/GPa)
#
#
# Indices 1 2 3 4 5 6 
#
# 1 0.019184 -0.005014 -0.006140 0.000000 0.000000 0.000000
# 2 -0.005014 0.012606 -0.000666 0.000000 0.000000 0.000000
# 3 -0.006140 -0.000666 0.009632 0.000000 0.000000 0.000000
# 4 0.000000 0.000000 0.000000 0.049962 0.000000 0.000000
# 5 0.000000 0.000000 0.000000 0.000000 0.013708 0.000000
# 6 0.000000 0.000000 0.000000 0.000000 0.000000 0.043982
#
#
# Mechanical properties :
#
#
# Convention : Reuss Voigt Hill
#
# Bulk Modulus (GPa) = 56.23930 59.60461 57.92195
# Shear Modulus (GPa) = 27.98892 36.28403 32.13647
#
# Velocity S-wave (km/s) = 3.72809 4.24474 3.99478
# Velocity P-wave (km/s) = 6.81606 7.32271 7.07392
#
# Compressibility (1/GPa) = 0.01778116
#
# Stress axis : x y z
#
# Youngs Moduli (GPa) = 52.12791 79.32586 103.81964
#
# Poissons Ratio (x) = 0.39777 0.63740
# Poissons Ratio (y) = 0.26139 0.06919
# Poissons Ratio (z) = 0.32004 0.05287
#
# Static dielectric constant tensor:
#      x y z
#    x 3.843970 0.000000 0.000000 
#    y 0.000000 3.370930 0.000000 
#    z 0.000000 0.000000 4.124470 
# 
# 
# High freq. dielectric constant tensor:
#      x y z
#    x 1.783700 0.000000 0.000000 
#    y 0.000000 1.755450 0.000000 
#    z 0.000000 0.000000 1.809900 
# 
# From -- ./inp_files/14683.got.cif
#   From: 2010.03.12/outbox.cif.g09.slc.cpg/sg54_8_cif.got.tgz:14683.got - 2010.04.16 15:00:50.
