data_PCOD8222054
_publ_section_title
;
Structure prediction by ZEFSAII (Michael W. Deem and Ramdas Pophale) SiO2 
 PCOD8222054
Probable space group: P M N A
;
_chemical_formula_sum "Si O2"
_cell_formula_units_Z 24
_cell_length_a 28.006217
_cell_length_b 4.965037
_cell_length_c 8.300704
_cell_angle_alpha 90.000000
_cell_angle_beta 90.000000
_cell_angle_gamma 90.000000
_cell_volume 1154.228693
_symmetry_space_group_name_H-M "P M N A"
_symmetry_group_IT_number 53
_symmetry_cell_setting 'orthorhombic'
loop_
_space_group_symop_operation_xyz
x,y,z
1/2-x,-y,1/2+z
x,-y,-z
1/2-x,y,1/2-z
-x,-y,-z
1/2+x,y,1/2-z
-x,y,z
1/2+x,-y,1/2+z
loop_
_atom_site_type_symbol
_atom_site_label
_atom_site_fract_x
_atom_site_fract_y
_atom_site_fract_z
Si Si1 0.648643 0.920906 0.313546
Si Si2 0.699378 0.419337 0.184515
Si Si3 0.948393 0.252222 0.888389
O O1 0.685596 0.679904 0.288025
O O2 0.595139 0.815026 0.265810
O O3 0.650393 0.000000 0.500000
O O4 0.661442 0.177340 0.203761
O O5 0.750000 0.313078 0.250000
O O6 0.702168 0.500000 0.000000
O O7 0.000000 0.314106 0.801731
O O8 0.932181 0.500000 0.000000
O O9 0.956841 0.000000 0.000000
#
# Coordination Sequence:
#
# PCOD8222054 Si02
#       3
#     8   8   8
#     4  11  21  38  62  88 116 150 194 242 289 340
#     4  12  25  41  59  83 116 154 196 241 294 350
#     4   9  17  31  55  88 119 148 188 237 284 335
#
# _framework density 20.793106000000002
#
# number of rings (size 3 to 8) (size 9 to 14) (size 15 to 20)
#    0.000    1.333    0.000    9.000    0.000    0.000 
#    0.000    0.000    0.000    6.000    0.000    0.000 
#    0.000    0.000    0.000    0.000    0.000    0.000 
#
# Total GULP energy -297494.604607 kJ/mol
# GULP energy per Si atom -12395.608525 kJ/mol
# Density = 2.074578 g / cm^3
# Si number density = 20.793106 Si / 1000 Ang^3
#
#
#
# Elastic Constant Matrix: (Units=GPa)
#
#
# Indices 1 2 3 4 5 6 
#
# 1 157.0634 50.5992 65.6886 0.0000 0.0000 0.0000
# 2 50.5992 140.5094 29.0279 0.0000 0.0000 0.0000
# 3 65.6886 29.0279 62.9391 0.0000 0.0000 0.0000
# 4 0.0000 0.0000 0.0000 18.3098 0.0000 0.0000
# 5 0.0000 0.0000 0.0000 0.0000 17.5511 0.0000
# 6 0.0000 0.0000 0.0000 0.0000 0.0000 26.6671
#
#
#
# Elastic Compliance Matrix: (Units=1/GPa)
#
#
# Indices 1 2 3 4 5 6 
#
# 1 0.011729 -0.001873 -0.011377 0.000000 0.000000 0.000000
# 2 -0.001873 0.008166 -0.001811 0.000000 0.000000 0.000000
# 3 -0.011377 -0.001811 0.028598 0.000000 0.000000 0.000000
# 4 0.000000 0.000000 0.000000 0.054616 0.000000 0.000000
# 5 0.000000 0.000000 0.000000 0.000000 0.056977 0.000000
# 6 0.000000 0.000000 0.000000 0.000000 0.000000 0.037499
#
#
# Mechanical properties :
#
#
# Convention : Reuss Voigt Hill
#
# Bulk Modulus (GPa) = 54.43825 72.34926 63.39375
# Shear Modulus (GPa) = 21.38316 26.85201 24.11759
#
# Velocity S-wave (km/s) = 3.21031 3.59749 3.40940
# Velocity P-wave (km/s) = 6.32291 7.21985 6.78622
#
# Compressibility (1/GPa) = 0.01836944
#
# Stress axis : x y z
#
# Youngs Moduli (GPa) = 85.26237 122.46404 34.96800
#
# Poissons Ratio (x) = 0.22940 0.39783
# Poissons Ratio (y) = 0.15971 0.06333
# Poissons Ratio (z) = 0.97002 0.22178
#
# Static dielectric constant tensor:
#      x y z
#    x 4.712440 0.000000 0.000000 
#    y 0.000000 3.937350 0.000000 
#    z 0.000000 0.000000 -84.531830 
# 
# 
# High freq. dielectric constant tensor:
#      x y z
#    x 1.839240 0.000000 0.000000 
#    y 0.000000 1.841070 0.000000 
#    z 0.000000 0.000000 1.753100 
# 
# From -- ./inp_files/11310.got.cif
#   From: 2010.03.12/outbox.cif.g09.slc.cpg/sg53_6_cif.got.tgz:11310.got - 2010.04.16 14:36:59.
