data_PCOD8222578
_publ_section_title
;
Structure prediction by ZEFSAII (Michael W. Deem and Ramdas Pophale) SiO2 
 PCOD8222578
Probable space group: P C C A
;
_chemical_formula_sum "Si O2"
_cell_formula_units_Z 56
_cell_length_a 5.083876
_cell_length_b 34.935612
_cell_length_c 17.047207
_cell_angle_alpha 90.000000
_cell_angle_beta 90.000000
_cell_angle_gamma 90.000000
_cell_volume 3027.725786
_symmetry_space_group_name_H-M "P C C A"
_symmetry_group_IT_number 54
_symmetry_cell_setting 'orthorhombic'
loop_
_space_group_symop_operation_xyz
x,y,z
1/2-x,-y,z
1/2+x,-y,1/2-z
-x,y,1/2-z
-x,-y,-z
1/2+x,y,-z
1/2-x,y,1/2+z
x,-y,1/2+z
loop_
_atom_site_type_symbol
_atom_site_label
_atom_site_fract_x
_atom_site_fract_y
_atom_site_fract_z
Si Si1 0.211658 0.902112 0.553000
Si Si2 0.778683 0.456663 0.449338
Si Si3 0.218564 0.737999 0.553043
Si Si4 0.756549 0.595673 0.800704
Si Si5 0.685255 0.179744 0.451027
Si Si6 0.743031 0.683994 0.300947
Si Si7 0.249871 0.044832 0.699876
O O1 0.422377 0.906864 0.483220
O O2 0.245888 0.859922 0.594112
O O3 0.255191 0.934364 0.617035
O O4 0.750000 0.500000 0.417970
O O5 0.569749 0.448952 0.518208
O O6 0.724225 0.427965 0.379385
O O7 0.429875 0.732890 0.483467
O O8 0.248964 0.780362 0.593470
O O9 0.266705 0.706503 0.618385
O O10 0.500000 0.589456 0.750000
O O11 0.798804 0.639815 0.823786
O O12 0.000000 0.580121 0.750000
O O13 0.376329 0.179585 0.472255
O O14 0.500000 0.699485 0.250000
O O15 0.000000 0.690664 0.250000
O O16 0.500000 0.057525 0.750000
O O17 0.000000 0.057359 0.750000
O O18 0.250000 0.000000 0.681164
#
# Coordination Sequence:
#
# PCOD8222578 Si02
#       7
#     8   8   8   8   8   8   8
#     4  10  19  33  54  76  98 128 168 209 244 288
#     4  10  21  36  54  78 106 132 164 211 256 292
#     4  10  19  33  54  76  98 132 173 203 241 302
#     4  10  21  36  54  75 102 137 171 204 247 301
#     4   8  16  30  48  72 100 126 158 205 250 286
#     4  10  21  36  51  74 107 134 163 210 257 288
#     4  10  21  36  51  71 103 135 161 200 253 299
#
# _framework density 18.495729000000001
#
# number of rings (size 3 to 8) (size 9 to 14) (size 15 to 20)
#    0.000    2.286    0.000    2.571    0.000    2.286 
#    0.000    1.429    0.000    0.000    0.000    0.000 
#    0.000    0.000    0.000    0.000    0.000    0.000 
#
# Total GULP energy -694295.456465 kJ/mol
# GULP energy per Si atom -12398.133151 kJ/mol
# Density = 1.845363 g / cm^3
# Si number density = 18.495729 Si / 1000 Ang^3
#
#
#
# Elastic Constant Matrix: (Units=GPa)
#
#
# Indices 1 2 3 4 5 6 
#
# 1 99.0506 21.6788 12.6435 0.0000 0.0000 0.0000
# 2 21.6788 89.2526 55.8528 0.0000 0.0000 0.0000
# 3 12.6435 55.8528 68.7385 0.0000 0.0000 0.0000
# 4 0.0000 0.0000 0.0000 -14.8270 0.0000 0.0000
# 5 0.0000 0.0000 0.0000 0.0000 18.2294 0.0000
# 6 0.0000 0.0000 0.0000 0.0000 0.0000 35.2952
#
#
#
# Elastic Compliance Matrix: (Units=1/GPa)
#
#
# Indices 1 2 3 4 5 6 
#
# 1 0.010666 -0.002773 0.000291 0.000000 0.000000 0.000000
# 2 -0.002773 0.023515 -0.018597 0.000000 0.000000 0.000000
# 3 0.000291 -0.018597 0.029605 0.000000 0.000000 0.000000
# 4 0.000000 0.000000 0.000000 -0.067445 0.000000 0.000000
# 5 0.000000 0.000000 0.000000 0.000000 0.054857 0.000000
# 6 0.000000 0.000000 0.000000 0.000000 0.000000 0.028332
#
#
# Mechanical properties :
#
#
# Convention : Reuss Voigt Hill
#
# Bulk Modulus (GPa) = 46.23484 48.59909 47.41696
# Shear Modulus (GPa) = 38.79040 18.86398 28.82719
#
# Velocity S-wave (km/s) = 4.58456 3.19707 3.95218
# Velocity P-wave (km/s) = 7.28533 6.32149 6.82046
#
# Compressibility (1/GPa) = 0.02162871
#
# Stress axis : x y z
#
# Youngs Moduli (GPa) = 93.75976 42.52515 33.77772
#
# Poissons Ratio (x) = 0.11792 -0.00984
# Poissons Ratio (y) = 0.25998 0.62817
# Poissons Ratio (z) = -0.02731 0.79085
#
# Static dielectric constant tensor:
#      x y z
#    x 3.659300 0.000000 0.000000 
#    y 0.000000 3.630420 0.000000 
#    z 0.000000 0.000000 2.942950 
# 
# 
# High freq. dielectric constant tensor:
#      x y z
#    x 1.744830 0.000000 0.000000 
#    y 0.000000 1.728270 0.000000 
#    z 0.000000 0.000000 1.679600 
# 
# From -- ./inp_files/10979.got.cif
#   From: 2010.03.12/outbox.cif.g09.slc.cpg/sg54_6_cif.got.tgz:10979.got - 2010.04.16 15:00:50.
