data_PCOD8222426
_publ_section_title
;
Structure prediction by ZEFSAII (Michael W. Deem and Ramdas Pophale) SiO2 
 PCOD8222426
Probable space group: P C C A
;
_chemical_formula_sum "Si O2"
_cell_formula_units_Z 32
_cell_length_a 5.233893
_cell_length_b 14.741448
_cell_length_c 23.591400
_cell_angle_alpha 90.000000
_cell_angle_beta 90.000000
_cell_angle_gamma 90.000000
_cell_volume 1820.198277
_symmetry_space_group_name_H-M "P C C A"
_symmetry_group_IT_number 54
_symmetry_cell_setting 'orthorhombic'
loop_
_space_group_symop_operation_xyz
x,y,z
1/2-x,-y,z
1/2+x,-y,1/2-z
-x,y,1/2-z
-x,-y,-z
1/2+x,y,-z
1/2-x,y,1/2+z
x,-y,1/2+z
loop_
_atom_site_type_symbol
_atom_site_label
_atom_site_fract_x
_atom_site_fract_y
_atom_site_fract_z
Si Si1 0.006425 0.897238 0.475624
Si Si2 0.034619 0.176817 0.853364
Si Si3 0.500000 0.559784 0.250000
Si Si4 0.000000 0.053168 0.750000
Si Si5 0.478832 0.266969 0.686289
O O1 0.251642 0.846965 0.502544
O O2 0.021090 0.887991 0.408153
O O3 0.000000 0.000000 0.500000
O O4 0.095941 0.111026 0.802275
O O5 0.277354 0.244633 0.853444
O O6 0.774619 0.232678 0.845216
O O7 0.750000 0.500000 0.241421
O O8 0.535731 0.623836 0.305628
O O9 0.250000 0.000000 0.728952
O O10 0.500000 0.222621 0.750000
#
# Coordination Sequence:
#
# PCOD8222426 Si02
#       5
#     8   8   4   4   8
#     4  10  23  38  53  72  99 144 200 253 292 306
#     4  12  21  39  53  72 115 144 193 240 270 346
#     4  10  18  32  56  88 130 148 166 206 266 372
#     4  12  24  30  50  76  96 142 186 230 290 328
#     4  10  20  35  55  83 114 150 174 206 287 336
#
# _framework density 17.580504000000001
#
# number of rings (size 3 to 8) (size 9 to 14) (size 15 to 20)
#    0.750    0.500    2.500    4.500    7.000    0.000 
#    0.000    0.000    0.000    0.000    0.000    0.000 
#    0.000   70.000    0.000    0.000    0.000    0.000 
#
# Total GULP energy -396493.921207 kJ/mol
# GULP energy per Si atom -12390.435038 kJ/mol
# Density = 1.754049 g / cm^3
# Si number density = 17.580504 Si / 1000 Ang^3
#
#
#
# Elastic Constant Matrix: (Units=GPa)
#
#
# Indices 1 2 3 4 5 6 
#
# 1 170.5131 37.6562 31.9915 0.0000 0.0000 0.0000
# 2 37.6562 80.8017 34.1002 0.0000 0.0000 0.0000
# 3 31.9915 34.1002 111.0362 0.0000 0.0000 0.0000
# 4 0.0000 0.0000 0.0000 19.1913 0.0000 0.0000
# 5 0.0000 0.0000 0.0000 0.0000 26.7523 0.0000
# 6 0.0000 0.0000 0.0000 0.0000 0.0000 32.7831
#
#
#
# Elastic Compliance Matrix: (Units=1/GPa)
#
#
# Indices 1 2 3 4 5 6 
#
# 1 0.006654 -0.002633 -0.001108 0.000000 0.000000 0.000000
# 2 -0.002633 0.015261 -0.003928 0.000000 0.000000 0.000000
# 3 -0.001108 -0.003928 0.010532 0.000000 0.000000 0.000000
# 4 0.000000 0.000000 0.000000 0.052107 0.000000 0.000000
# 5 0.000000 0.000000 0.000000 0.000000 0.037380 0.000000
# 6 0.000000 0.000000 0.000000 0.000000 0.000000 0.030504
#
#
# Mechanical properties :
#
#
# Convention : Reuss Voigt Hill
#
# Bulk Modulus (GPa) = 58.45480 63.31632 60.88556
# Shear Modulus (GPa) = 28.82187 32.98554 30.90370
#
# Velocity S-wave (km/s) = 4.05337 4.33628 4.19721
# Velocity P-wave (km/s) = 7.43158 7.82076 7.62865
#
# Compressibility (1/GPa) = 0.01710724
#
# Stress axis : x y z
#
# Youngs Moduli (GPa) = 150.28214 65.52697 94.95056
#
# Poissons Ratio (x) = 0.17255 0.10525
# Poissons Ratio (y) = 0.39573 0.37297
# Poissons Ratio (z) = 0.16659 0.25739
#
# Static dielectric constant tensor:
#      x y z
#    x 3.893250 0.000000 0.000000 
#    y 0.000000 3.017010 0.000000 
#    z 0.000000 0.000000 3.004120 
# 
# 
# High freq. dielectric constant tensor:
#      x y z
#    x 1.717760 0.000000 0.000000 
#    y 0.000000 1.640450 0.000000 
#    z 0.000000 0.000000 1.654520 
# 
# From -- ./inp_files/19580.got.cif
#   From: 2010.03.12/outbox.cif.g09.slc.cpg/sg54_10_cif.got.tgz:19580.got - 2010.04.16 15:00:50.
