data_PCOD8222337
_publ_section_title
;
Structure prediction by ZEFSAII (Michael W. Deem and Ramdas Pophale) SiO2 
 PCOD8222337
Probable space group: P C C A
;
_chemical_formula_sum "Si O2"
_cell_formula_units_Z 56
_cell_length_a 16.541829
_cell_length_b 29.038810
_cell_length_c 5.338520
_cell_angle_alpha 90.000000
_cell_angle_beta 90.000000
_cell_angle_gamma 90.000000
_cell_volume 2564.384931
_symmetry_space_group_name_H-M "P C C A"
_symmetry_group_IT_number 54
_symmetry_cell_setting 'orthorhombic'
loop_
_space_group_symop_operation_xyz
x,y,z
1/2-x,-y,z
1/2+x,-y,1/2-z
-x,y,1/2-z
-x,-y,-z
1/2+x,y,-z
1/2-x,y,1/2+z
x,-y,1/2+z
loop_
_atom_site_type_symbol
_atom_site_label
_atom_site_fract_x
_atom_site_fract_y
_atom_site_fract_z
Si Si1 0.800503 0.376733 0.030269
Si Si2 0.340826 0.519255 0.471523
Si Si3 0.092601 0.980824 0.500500
Si Si4 0.460638 0.673089 0.499925
Si Si5 0.525987 0.225612 0.999980
Si Si6 0.797798 0.208507 0.494722
Si Si7 0.699317 0.101710 0.996202
O O1 0.737977 0.371089 0.803942
O O2 0.843797 0.425944 0.010559
O O3 0.865644 0.336522 0.999761
O O4 0.250000 0.500000 0.454432
O O5 0.385063 0.502135 0.216563
O O6 0.113183 0.926105 0.502604
O O7 0.135348 0.000302 0.749840
O O8 0.000000 0.000000 0.500000
O O9 0.500000 0.650889 0.250000
O O10 0.472903 0.727958 0.499924
O O11 0.500000 0.651036 0.750000
O O12 0.500000 0.197279 0.250000
O O13 0.500000 0.197254 0.750000
O O14 0.620428 0.237985 0.000007
O O15 0.748223 0.221787 0.741426
O O16 0.823964 0.155196 0.496662
O O17 0.749655 0.089541 0.745548
#
# Coordination Sequence:
#
# PCOD8222337 Si02
#       7
#     8   8   8   8   8   8   8
#     4  12  21  35  63  93 115 156 210 254 294 345
#     4  10  16  30  51  87 115 147 188 260 294 338
#     4  10  21  37  53  80 121 158 201 239 281 353
#     4  10  23  43  59  82 130 163 191 242 306 372
#     4  10  21  42  63  89 123 163 193 239 316 371
#     4  10  21  40  65  95 120 152 205 258 300 360
#     4  10  21  37  59  87 119 150 195 253 301 334
#
# _framework density 21.837596000000001
#
# number of rings (size 3 to 8) (size 9 to 14) (size 15 to 20)
#    0.000    1.714    2.857    2.571    0.000    1.714 
#    5.143   17.143    0.000    2.571    0.000    0.000 
#    0.000    0.000    0.000    0.000    0.000    0.000 
#
# Total GULP energy -693854.264958 kJ/mol
# GULP energy per Si atom -12390.254731 kJ/mol
# Density = 2.178789 g / cm^3
# Si number density = 21.837596 Si / 1000 Ang^3
#
#
#
# Elastic Constant Matrix: (Units=GPa)
#
#
# Indices 1 2 3 4 5 6 
#
# 1 72.6989 17.9025 30.5939 0.0000 0.0000 0.0000
# 2 17.9025 48.6842 5.1012 0.0000 0.0000 0.0000
# 3 30.5939 5.1012 227.2946 0.0000 0.0000 0.0000
# 4 0.0000 0.0000 0.0000 0.4262 0.0000 0.0000
# 5 0.0000 0.0000 0.0000 0.0000 18.2679 0.0000
# 6 0.0000 0.0000 0.0000 0.0000 0.0000 18.8418
#
#
#
# Elastic Compliance Matrix: (Units=1/GPa)
#
#
# Indices 1 2 3 4 5 6 
#
# 1 0.016005 -0.005673 -0.002027 0.000000 0.000000 0.000000
# 2 -0.005673 0.022600 0.000256 0.000000 0.000000 0.000000
# 3 -0.002027 0.000256 0.004667 0.000000 0.000000 0.000000
# 4 0.000000 0.000000 0.000000 2.346398 0.000000 0.000000
# 5 0.000000 0.000000 0.000000 0.000000 0.054741 0.000000
# 6 0.000000 0.000000 0.000000 0.000000 0.000000 0.053073
#
#
# Mechanical properties :
#
#
# Convention : Reuss Voigt Hill
#
# Bulk Modulus (GPa) = 35.23073 50.65253 42.94163
# Shear Modulus (GPa) = 1.98268 27.17917 14.58093
#
# Velocity S-wave (km/s) = 0.95388 3.53172 2.58679
# Velocity P-wave (km/s) = 4.16909 6.31476 5.35058
#
# Compressibility (1/GPa) = 0.02838431
#
# Stress axis : x y z
#
# Youngs Moduli (GPa) = 62.47862 44.24795 214.28607
#
# Poissons Ratio (x) = 0.25103 0.43436
# Poissons Ratio (y) = 0.35446 -0.05495
# Poissons Ratio (z) = 0.12665 -0.01135
#
# Static dielectric constant tensor:
#      x y z
#    x 3.529750 0.000000 0.000000 
#    y 0.000000 3.653800 0.000000 
#    z 0.000000 0.000000 15.037410 
# 
# 
# High freq. dielectric constant tensor:
#      x y z
#    x 1.823950 0.000000 0.000000 
#    y 0.000000 1.829070 0.000000 
#    z 0.000000 0.000000 1.906820 
# 
# From -- ./inp_files/710.got.cif
#   From: 2010.03.12/outbox.cif.g09.slc.cpg/sg54_1_cif.got.tgz:710.got - 2010.04.16 15:00:50.
