data_PCOD8222928
_publ_section_title
;
Structure prediction by ZEFSAII (Michael W. Deem and Ramdas Pophale) SiO2 
 PCOD8222928
Probable space group: P C C A
;
_chemical_formula_sum "Si O2"
_cell_formula_units_Z 48
_cell_length_a 8.330330
_cell_length_b 9.612412
_cell_length_c 28.878335
_cell_angle_alpha 90.000000
_cell_angle_beta 90.000000
_cell_angle_gamma 90.000000
_cell_volume 2312.420086
_symmetry_space_group_name_H-M "P C C A"
_symmetry_group_IT_number 54
_symmetry_cell_setting 'orthorhombic'
loop_
_space_group_symop_operation_xyz
x,y,z
1/2-x,-y,z
1/2+x,-y,1/2-z
-x,y,1/2-z
-x,-y,-z
1/2+x,y,-z
1/2-x,y,1/2+z
x,-y,1/2+z
loop_
_atom_site_type_symbol
_atom_site_label
_atom_site_fract_x
_atom_site_fract_y
_atom_site_fract_z
Si Si1 0.558621 0.281460 0.697905
Si Si2 0.369630 0.216253 0.350285
Si Si3 0.414958 0.575277 0.457773
Si Si4 0.437976 0.490159 0.136250
Si Si5 0.656650 0.130382 0.563332
Si Si6 0.431156 0.043055 0.637762
O O1 0.500000 0.274782 0.750000
O O2 0.749019 0.248538 0.692441
O O3 0.531376 0.434628 0.677697
O O4 0.444886 0.178219 0.669319
O O5 0.500919 0.332617 0.362040
O O6 0.263096 0.194634 0.395729
O O7 0.464066 0.076524 0.337423
O O8 0.250000 0.500000 0.446048
O O9 0.500000 0.500000 0.500000
O O10 0.526521 0.564416 0.412721
O O11 0.384584 0.739435 0.470496
O O12 0.250000 0.500000 0.145436
O O13 0.493758 0.070531 0.585611
O O14 0.750000 0.000000 0.538520
O O15 0.250000 0.000000 0.632746
#
# Coordination Sequence:
#
# PCOD8222928 Si02
#       6
#     8   8   8   8   8   8
#     4  11  23  40  61  91 129 173 221 269 323 386
#     4  10  20  39  66  85 125 175 211 257 329 374
#     4  12  23  43  67  97 130 167 217 272 334 400
#     4  12  23  40  64  93 127 170 219 271 328 394
#     4   9  19  39  66  89 125 173 213 257 329 395
#     4  10  20  37  63  96 125 172 216 261 320 389
#
# _framework density 20.757474999999999
#
# number of rings (size 3 to 8) (size 9 to 14) (size 15 to 20)
#    0.000    1.333    5.000    3.500    0.000    2.667 
#    0.000    3.333    0.000    0.000    0.000    0.000 
#    0.000    0.000    0.000    0.000    0.000    0.000 
#
# Total GULP energy -595184.117743 kJ/mol
# GULP energy per Si atom -12399.669120 kJ/mol
# Density = 2.071023 g / cm^3
# Si number density = 20.757475 Si / 1000 Ang^3
#
#
#
# Elastic Constant Matrix: (Units=GPa)
#
#
# Indices 1 2 3 4 5 6 
#
# 1 121.4277 24.2336 25.5289 0.0000 0.0000 0.0000
# 2 24.2336 114.3576 24.5608 0.0000 0.0000 0.0000
# 3 25.5289 24.5608 54.4438 0.0000 0.0000 0.0000
# 4 0.0000 0.0000 0.0000 20.2097 0.0000 0.0000
# 5 0.0000 0.0000 0.0000 0.0000 13.4114 0.0000
# 6 0.0000 0.0000 0.0000 0.0000 0.0000 37.3466
#
#
#
# Elastic Compliance Matrix: (Units=1/GPa)
#
#
# Indices 1 2 3 4 5 6 
#
# 1 0.009269 -0.001141 -0.003831 0.000000 0.000000 0.000000
# 2 -0.001141 0.009823 -0.003896 0.000000 0.000000 0.000000
# 3 -0.003831 -0.003896 0.021922 0.000000 0.000000 0.000000
# 4 0.000000 0.000000 0.000000 0.049481 0.000000 0.000000
# 5 0.000000 0.000000 0.000000 0.000000 0.074564 0.000000
# 6 0.000000 0.000000 0.000000 0.000000 0.000000 0.026776
#
#
# Mechanical properties :
#
#
# Convention : Reuss Voigt Hill
#
# Bulk Modulus (GPa) = 42.96287 48.76396 45.86341
# Shear Modulus (GPa) = 23.00642 28.58725 25.79683
#
# Velocity S-wave (km/s) = 3.33279 3.71509 3.52912
# Velocity P-wave (km/s) = 5.96259 6.47656 6.22488
#
# Compressibility (1/GPa) = 0.02327591
#
# Stress axis : x y z
#
# Youngs Moduli (GPa) = 107.89121 101.80017 45.61683
#
# Poissons Ratio (x) = 0.11618 0.17477
# Poissons Ratio (y) = 0.12313 0.17774
# Poissons Ratio (z) = 0.41335 0.39664
#
# Static dielectric constant tensor:
#      x y z
#    x 4.012070 0.000000 0.000000 
#    y 0.000000 4.250490 0.000000 
#    z 0.000000 0.000000 3.334130 
# 
# 
# High freq. dielectric constant tensor:
#      x y z
#    x 1.822090 0.000000 0.000000 
#    y 0.000000 1.837690 0.000000 
#    z 0.000000 0.000000 1.766750 
# 
# From -- ./inp_files/27701.got.cif
#   From: 2010.03.12/outbox.cif.g09.slc.cpg/sg54_14_cif.got.tgz:27701.got - 2010.04.16 15:00:50.
