data_PCOD8222871
_publ_section_title
;
Structure prediction by ZEFSAII (Michael W. Deem and Ramdas Pophale) SiO2 
 PCOD8222871
Probable space group: P C C A
;
_chemical_formula_sum "Si O2"
_cell_formula_units_Z 56
_cell_length_a 8.640009
_cell_length_b 14.719180
_cell_length_c 21.239399
_cell_angle_alpha 90.000000
_cell_angle_beta 90.000000
_cell_angle_gamma 90.000000
_cell_volume 2701.096093
_symmetry_space_group_name_H-M "P C C A"
_symmetry_group_IT_number 54
_symmetry_cell_setting 'orthorhombic'
loop_
_space_group_symop_operation_xyz
x,y,z
1/2-x,-y,z
1/2+x,-y,1/2-z
-x,y,1/2-z
-x,-y,-z
1/2+x,y,-z
1/2-x,y,1/2+z
x,-y,1/2+z
loop_
_atom_site_type_symbol
_atom_site_label
_atom_site_fract_x
_atom_site_fract_y
_atom_site_fract_z
Si Si1 0.612099 0.283785 0.573801
Si Si2 0.541988 0.538495 0.433255
Si Si3 0.540001 0.772846 0.553347
Si Si4 0.569238 0.020247 0.068056
Si Si5 0.414141 0.739113 0.189306
Si Si6 0.403642 0.056348 0.688883
Si Si7 0.821879 0.631073 0.386010
O O1 0.596326 0.392895 0.582883
O O2 0.789684 0.264551 0.563162
O O3 0.508940 0.237968 0.518984
O O4 0.545445 0.241860 0.637263
O O5 0.500000 0.500000 0.500000
O O6 0.698746 0.599712 0.439638
O O7 0.566860 0.458848 0.379771
O O8 0.533728 0.874204 0.580097
O O9 0.419330 0.717235 0.594647
O O10 0.750000 0.000000 0.065759
O O11 0.497047 0.959659 0.123782
O O12 0.500000 0.000000 0.000000
O O13 0.500000 0.699327 0.250000
O O14 0.347145 0.839827 0.199755
O O15 0.280890 0.664104 0.173548
O O16 0.500000 0.024220 0.750000
O O17 0.250000 0.000000 0.684489
#
# Coordination Sequence:
#
# PCOD8222871 Si02
#       7
#     8   8   8   8   8   8   8
#     4  11  23  38  62  94 127 166 210 264 329 388
#     4  10  20  36  60  96 125 156 198 259 323 379
#     4  12  23  38  62  94 130 163 211 267 334 394
#     4  12  25  41  60  90 132 175 218 273 337 396
#     4  10  22  43  64  87 125 175 217 263 320 385
#     4  11  23  41  66  93 125 169 225 278 330 392
#     4  10  22  37  62  94 126 163 205 261 320 386
#
# _framework density 20.732324999999999
#
# number of rings (size 3 to 8) (size 9 to 14) (size 15 to 20)
#    0.000    1.143    1.429    6.000    2.000    1.714 
#    0.000    0.714    0.000   20.571    0.000    0.000 
#    0.000    0.000    0.000    0.000    0.000    0.000 
#
# Total GULP energy -693885.291595 kJ/mol
# GULP energy per Si atom -12390.808778 kJ/mol
# Density = 2.068514 g / cm^3
# Si number density = 20.732325 Si / 1000 Ang^3
#
#
#
# Elastic Constant Matrix: (Units=GPa)
#
#
# Indices 1 2 3 4 5 6 
#
# 1 94.1232 33.8479 26.2215 0.0000 0.0000 0.0000
# 2 33.8479 135.7474 13.6032 0.0000 0.0000 0.0000
# 3 26.2215 13.6032 94.0950 0.0000 0.0000 0.0000
# 4 0.0000 0.0000 0.0000 24.0643 0.0000 0.0000
# 5 0.0000 0.0000 0.0000 0.0000 33.7631 0.0000
# 6 0.0000 0.0000 0.0000 0.0000 0.0000 40.6397
#
#
#
# Elastic Compliance Matrix: (Units=1/GPa)
#
#
# Indices 1 2 3 4 5 6 
#
# 1 0.012490 -0.002806 -0.003075 0.000000 0.000000 0.000000
# 2 -0.002806 0.008105 -0.000390 0.000000 0.000000 0.000000
# 3 -0.003075 -0.000390 0.011541 0.000000 0.000000 0.000000
# 4 0.000000 0.000000 0.000000 0.041555 0.000000 0.000000
# 5 0.000000 0.000000 0.000000 0.000000 0.029618 0.000000
# 6 0.000000 0.000000 0.000000 0.000000 0.000000 0.024606
#
#
# Mechanical properties :
#
#
# Convention : Reuss Voigt Hill
#
# Bulk Modulus (GPa) = 51.03480 52.36788 51.70134
# Shear Modulus (GPa) = 34.01596 36.37960 35.19778
#
# Velocity S-wave (km/s) = 4.05498 4.19349 4.12482
# Velocity P-wave (km/s) = 6.82593 6.98291 6.90486
#
# Compressibility (1/GPa) = 0.01959447
#
# Stress axis : x y z
#
# Youngs Moduli (GPa) = 80.06297 123.37452 86.64902
#
# Poissons Ratio (x) = 0.34622 0.26644
# Poissons Ratio (y) = 0.22467 0.03377
# Poissons Ratio (z) = 0.24619 0.04809
#
# Static dielectric constant tensor:
#      x y z
#    x 3.819150 0.000000 0.000000 
#    y 0.000000 4.933250 0.000000 
#    z 0.000000 0.000000 3.315640 
# 
# 
# High freq. dielectric constant tensor:
#      x y z
#    x 1.818320 0.000000 0.000000 
#    y 0.000000 1.835230 0.000000 
#    z 0.000000 0.000000 1.783810 
# 
# From -- ./inp_files/20555.got.cif
#   From: 2010.03.12/outbox.cif.g09.slc.cpg/sg54_11_cif.got.tgz:20555.got - 2010.04.16 15:00:50.
