data_PCOD8222897
_publ_section_title
;
Structure prediction by ZEFSAII (Michael W. Deem and Ramdas Pophale) SiO2 
 PCOD8222897
Probable space group: P C C A
;
_chemical_formula_sum "Si O2"
_cell_formula_units_Z 52
_cell_length_a 18.716176
_cell_length_b 15.569880
_cell_length_c 8.862810
_cell_angle_alpha 90.000000
_cell_angle_beta 90.000000
_cell_angle_gamma 90.000000
_cell_volume 2582.699182
_symmetry_space_group_name_H-M "P C C A"
_symmetry_group_IT_number 54
_symmetry_cell_setting 'orthorhombic'
loop_
_space_group_symop_operation_xyz
x,y,z
1/2-x,-y,z
1/2+x,-y,1/2-z
-x,y,1/2-z
-x,-y,-z
1/2+x,y,-z
1/2-x,y,1/2+z
x,-y,1/2+z
loop_
_atom_site_type_symbol
_atom_site_label
_atom_site_fract_x
_atom_site_fract_y
_atom_site_fract_z
Si Si1 0.325803 0.965942 0.792312
Si Si2 0.569143 0.611304 0.996488
Si Si3 0.825020 0.214884 0.594901
Si Si4 0.108876 0.892837 0.996758
Si Si5 0.512778 0.779970 0.572072
Si Si6 0.000000 0.494913 0.250000
Si Si7 0.308764 0.729908 0.563485
O O1 0.306883 0.886906 0.904445
O O2 0.374205 0.932647 0.658467
O O3 0.250000 0.000000 0.731281
O O4 0.374031 0.038685 0.868766
O O5 0.554869 0.561726 0.151930
O O6 0.519264 0.694141 0.996739
O O7 0.551043 0.552020 0.854052
O O8 0.652269 0.641085 0.984683
O O9 0.904512 0.221792 0.529785
O O10 0.818732 0.257322 0.758823
O O11 0.774625 0.268673 0.481273
O O12 0.156151 0.808025 0.970380
O O13 0.025608 0.863469 0.996919
O O14 0.500000 0.782889 0.750000
#
# Coordination Sequence:
#
# PCOD8222897 Si02
#       7
#     8   8   8   8   8   4   8
#     4  11  20  33  55  85 117 158 208 265 300 360
#     4  10  20  39  66  93 126 151 200 237 302 371
#     4  11  22  36  62  82 119 163 208 249 312 348
#     4  10  22  35  58  80 118 158 210 253 313 353
#     4  11  19  41  61  84 118 165 200 248 307 369
#     4  10  20  36  70 102 118 160 188 246 306 368
#     4  10  21  38  58  87 116 163 198 250 296 375
#
# _framework density 20.133976000000001
#
# number of rings (size 3 to 8) (size 9 to 14) (size 15 to 20)
#    0.000    1.538    6.923    0.462    2.154    1.846 
#    0.000    1.538    0.000   15.692    0.000    0.000 
#    0.000    0.000    0.000    0.000    0.000    0.000 
#
# Total GULP energy -644738.127175 kJ/mol
# GULP energy per Si atom -12398.810138 kJ/mol
# Density = 2.008815 g / cm^3
# Si number density = 20.133976 Si / 1000 Ang^3
#
#
#
# Elastic Constant Matrix: (Units=GPa)
#
#
# Indices 1 2 3 4 5 6 
#
# 1 176.7135 57.9318 42.5925 0.0000 0.0000 0.0000
# 2 57.9318 114.4232 48.8286 0.0000 0.0000 0.0000
# 3 42.5925 48.8286 66.6629 0.0000 0.0000 0.0000
# 4 0.0000 0.0000 0.0000 -2.8812 0.0000 0.0000
# 5 0.0000 0.0000 0.0000 0.0000 20.3173 0.0000
# 6 0.0000 0.0000 0.0000 0.0000 0.0000 -320.0766
#
#
#
# Elastic Compliance Matrix: (Units=1/GPa)
#
#
# Indices 1 2 3 4 5 6 
#
# 1 0.007122 -0.002421 -0.002777 0.000000 0.000000 0.000000
# 2 -0.002421 0.013536 -0.008368 0.000000 0.000000 0.000000
# 3 -0.002777 -0.008368 0.022905 0.000000 0.000000 0.000000
# 4 0.000000 0.000000 0.000000 -0.347075 0.000000 0.000000
# 5 0.000000 0.000000 0.000000 0.000000 0.049219 0.000000
# 6 0.000000 0.000000 0.000000 0.000000 0.000000 -0.003124
#
#
# Mechanical properties :
#
#
# Convention : Reuss Voigt Hill
#
# Bulk Modulus (GPa) = 60.86237 72.94505 66.90371
# Shear Modulus (GPa) = -22.24112 -46.63166 -34.43639
#
# Velocity S-wave (km/s) = -3.32724 -4.81778 -4.14014
# Velocity P-wave (km/s) = 3.94127 2.31528 3.23219
#
# Compressibility (1/GPa) = 0.01643051
#
# Stress axis : x y z
#
# Youngs Moduli (GPa) = 140.41378 73.87700 43.65897
#
# Poissons Ratio (x) = 0.17882 0.12125
# Poissons Ratio (y) = 0.33988 0.36535
# Poissons Ratio (z) = 0.38997 0.61822
#
# Static dielectric constant tensor:
#      x y z
#    x 3.865410 0.000000 0.000000 
#    y 0.000000 3.881460 0.000000 
#    z 0.000000 0.000000 3.437730 
# 
# 
# High freq. dielectric constant tensor:
#      x y z
#    x 1.785630 0.000000 0.000000 
#    y 0.000000 1.782810 0.000000 
#    z 0.000000 0.000000 1.771030 
# 
# From -- ./inp_files/4754.got.cif
#   From: 2010.03.12/outbox.cif.g09.slc.cpg/sg54_3_cif.got.tgz:4754.got - 2010.04.16 15:00:50.
