data_PCOD8222709
_publ_section_title
;
Structure prediction by ZEFSAII (Michael W. Deem and Ramdas Pophale) SiO2 
 PCOD8222709
Probable space group: P C C A
;
_chemical_formula_sum "Si O2"
_cell_formula_units_Z 48
_cell_length_a 12.084407
_cell_length_b 7.972662
_cell_length_c 24.383726
_cell_angle_alpha 90.000000
_cell_angle_beta 90.000000
_cell_angle_gamma 90.000000
_cell_volume 2349.247460
_symmetry_space_group_name_H-M "P C C A"
_symmetry_group_IT_number 54
_symmetry_cell_setting 'orthorhombic'
loop_
_space_group_symop_operation_xyz
x,y,z
1/2-x,-y,z
1/2+x,-y,1/2-z
-x,y,1/2-z
-x,-y,-z
1/2+x,y,-z
1/2-x,y,1/2+z
x,-y,1/2+z
loop_
_atom_site_type_symbol
_atom_site_label
_atom_site_fract_x
_atom_site_fract_y
_atom_site_fract_z
Si Si1 0.250000 0.500000 0.136395
Si Si2 0.054450 0.813089 0.899213
Si Si3 0.678341 0.659435 0.659452
Si Si4 0.741917 0.316647 0.537538
Si Si5 0.250000 0.000000 0.346892
Si Si6 0.691327 0.833959 0.429260
Si Si7 0.016683 0.458967 0.187789
O O1 0.239362 0.331745 0.100158
O O2 0.143171 0.506065 0.175415
O O3 0.112406 0.714045 0.949311
O O4 0.936946 0.875760 0.919917
O O5 0.034969 0.688432 0.848520
O O6 0.139163 0.962187 0.882913
O O7 0.750000 0.500000 0.679157
O O8 0.689161 0.691910 0.594243
O O9 0.721414 0.832437 0.688538
O O10 0.551773 0.629295 0.675777
O O11 0.750000 0.500000 0.510563
O O12 0.789251 0.183368 0.494396
O O13 0.750000 0.000000 0.406282
O O14 0.000000 0.401294 0.250000
#
# Coordination Sequence:
#
# PCOD8222709 Si02
#       7
#     4   8   8   8   4   8   8
#     4  10  26  42  62  94 132 170 200 268 330 368
#     4  10  23  42  61  96 129 166 214 273 306 377
#     4  10  20  39  65  94 122 161 211 267 298 371
#     4  10  19  38  63  93 124 169 214 249 310 378
#     4  10  20  38  68  88 126 164 214 252 322 356
#     4  11  25  41  60  95 136 171 207 258 318 386
#     4  11  23  43  73  91 123 169 215 264 327 379
#
# _framework density 20.432075999999999
#
# number of rings (size 3 to 8) (size 9 to 14) (size 15 to 20)
#    0.000    1.667    5.833    0.000    8.167    2.667 
#    0.000    0.833    9.167    0.000    0.000    0.000 
#    0.000    0.000    0.000    0.000    0.000    0.000 
#
# Total GULP energy -594821.024908 kJ/mol
# GULP energy per Si atom -12392.104686 kJ/mol
# Density = 2.038557 g / cm^3
# Si number density = 20.432076 Si / 1000 Ang^3
#
#
#
# Elastic Constant Matrix: (Units=GPa)
#
#
# Indices 1 2 3 4 5 6 
#
# 1 173.9686 68.9863 44.1475 0.0000 0.0000 0.0000
# 2 68.9863 150.0807 22.0841 0.0000 0.0000 0.0000
# 3 44.1475 22.0841 69.1380 0.0000 0.0000 0.0000
# 4 0.0000 0.0000 0.0000 0.5213 0.0000 0.0000
# 5 0.0000 0.0000 0.0000 0.0000 10.3355 0.0000
# 6 0.0000 0.0000 0.0000 0.0000 0.0000 41.1900
#
#
#
# Elastic Compliance Matrix: (Units=1/GPa)
#
#
# Indices 1 2 3 4 5 6 
#
# 1 0.008018 -0.003077 -0.004137 0.000000 0.000000 0.000000
# 2 -0.003077 0.008172 -0.000646 0.000000 0.000000 0.000000
# 3 -0.004137 -0.000646 0.017312 0.000000 0.000000 0.000000
# 4 0.000000 0.000000 0.000000 1.918256 0.000000 0.000000
# 5 0.000000 0.000000 0.000000 0.000000 0.096754 0.000000
# 6 0.000000 0.000000 0.000000 0.000000 0.000000 0.024278
#
#
# Mechanical properties :
#
#
# Convention : Reuss Voigt Hill
#
# Bulk Modulus (GPa) = 56.23359 73.73589 64.98474
# Shear Modulus (GPa) = 2.38728 27.60732 14.99730
#
# Velocity S-wave (km/s) = 1.08210 3.67982 2.71220
# Velocity P-wave (km/s) = 5.39844 7.36352 6.45618
#
# Compressibility (1/GPa) = 0.01778296
#
# Stress axis : x y z
#
# Youngs Moduli (GPa) = 124.71726 122.36281 57.76408
#
# Poissons Ratio (x) = 0.37649 0.23898
# Poissons Ratio (y) = 0.38374 0.03730
# Poissons Ratio (z) = 0.51597 0.07901
#
# Static dielectric constant tensor:
#      x y z
#    x 3.519110 0.000000 0.000000 
#    y 0.000000 4.012120 0.000000 
#    z 0.000000 0.000000 3.341510 
# 
# 
# High freq. dielectric constant tensor:
#      x y z
#    x 1.808830 0.000000 0.000000 
#    y 0.000000 1.806590 0.000000 
#    z 0.000000 0.000000 1.765560 
# 
# From -- ./inp_files/24114.got.cif
#   From: 2010.03.12/outbox.cif.g09.slc.cpg/sg54_13_cif.got.tgz:24114.got - 2010.04.16 15:00:50.
