data_PCOD8222605
_publ_section_title
;
Structure prediction by ZEFSAII (Michael W. Deem and Ramdas Pophale) SiO2 
 PCOD8222605
Probable space group: P C C A
;
_chemical_formula_sum "Si O2"
_cell_formula_units_Z 64
_cell_length_a 21.146295
_cell_length_b 8.947539
_cell_length_c 18.456160
_cell_angle_alpha 90.000000
_cell_angle_beta 90.000000
_cell_angle_gamma 90.000000
_cell_volume 3492.040188
_symmetry_space_group_name_H-M "P C C A"
_symmetry_group_IT_number 54
_symmetry_cell_setting 'orthorhombic'
loop_
_space_group_symop_operation_xyz
x,y,z
1/2-x,-y,z
1/2+x,-y,1/2-z
-x,y,1/2-z
-x,-y,-z
1/2+x,y,-z
1/2-x,y,1/2+z
x,-y,1/2+z
loop_
_atom_site_type_symbol
_atom_site_label
_atom_site_fract_x
_atom_site_fract_y
_atom_site_fract_z
Si Si1 0.858575 0.310364 0.924395
Si Si2 0.799432 0.131448 0.210884
Si Si3 0.964992 0.086465 0.898415
Si Si4 0.065435 0.151363 0.211861
Si Si5 0.416022 0.884898 0.976277
Si Si6 0.252638 0.325496 0.669840
Si Si7 0.693592 0.895658 0.046136
Si Si8 0.373378 0.663224 0.087190
O O1 0.924745 0.233593 0.911240
O O2 0.814539 0.263501 0.856891
O O3 0.872649 0.486068 0.926208
O O4 0.823710 0.246776 0.996400
O O5 0.873575 0.118617 0.235906
O O6 0.769880 0.273663 0.250343
O O7 0.792597 0.166344 0.126098
O O8 0.750000 0.000000 0.233150
O O9 0.036858 0.143242 0.908856
O O10 0.951196 0.011069 0.821490
O O11 0.951383 0.959605 0.956793
O O12 0.079812 0.280307 0.151669
O O13 0.000000 0.206129 0.250000
O O14 0.363895 0.992141 0.944005
O O15 0.388773 0.730193 0.008044
O O16 0.250000 0.500000 0.673291
O O17 0.304632 0.275670 0.610402
O O18 0.750000 0.000000 0.014718
#
# Coordination Sequence:
#
# PCOD8222605 Si02
#       8
#     8   8   8   8   8   8   8   8
#     4  10  19  34  55  79 105 136 180 220 264 325
#     4  10  20  34  53  78 104 134 177 223 269 316
#     4   9  18  30  50  73  97 134 171 211 257 307
#     4  10  19  34  55  76 104 143 182 220 270 326
#     4   9  17  32  48  71 103 128 166 213 256 308
#     4   9  18  34  53  74 102 135 173 215 259 318
#     4  10  20  33  52  78 104 132 169 222 273 313
#     4   9  19  33  54  79 103 140 177 215 267 321
#
# _framework density 18.327394999999999
#
# number of rings (size 3 to 8) (size 9 to 14) (size 15 to 20)
#    0.000    2.500    0.000    2.250    0.000    4.000 
#    0.000    5.000    0.000    4.500    0.000    0.000 
#    0.000    0.000    0.000    0.000    0.000    0.000 
#
# Total GULP energy -792851.700177 kJ/mol
# GULP energy per Si atom -12388.307815 kJ/mol
# Density = 1.828568 g / cm^3
# Si number density = 18.327395 Si / 1000 Ang^3
#
#
#
# Elastic Constant Matrix: (Units=GPa)
#
#
# Indices 1 2 3 4 5 6 
#
# 1 85.9020 25.2163 29.0601 0.0000 0.0000 0.0000
# 2 25.2163 67.5739 37.3797 0.0000 0.0000 0.0000
# 3 29.0601 37.3797 71.6708 0.0000 0.0000 0.0000
# 4 0.0000 0.0000 0.0000 21.1707 0.0000 0.0000
# 5 0.0000 0.0000 0.0000 0.0000 27.7523 0.0000
# 6 0.0000 0.0000 0.0000 0.0000 0.0000 18.4696
#
#
#
# Elastic Compliance Matrix: (Units=1/GPa)
#
#
# Indices 1 2 3 4 5 6 
#
# 1 0.013886 -0.002906 -0.004115 0.000000 0.000000 0.000000
# 2 -0.002906 0.021407 -0.009987 0.000000 0.000000 0.000000
# 3 -0.004115 -0.009987 0.020830 0.000000 0.000000 0.000000
# 4 0.000000 0.000000 0.000000 0.047235 0.000000 0.000000
# 5 0.000000 0.000000 0.000000 0.000000 0.036033 0.000000
# 6 0.000000 0.000000 0.000000 0.000000 0.000000 0.054143
#
#
# Mechanical properties :
#
#
# Convention : Reuss Voigt Hill
#
# Bulk Modulus (GPa) = 45.23148 45.38432 45.30790
# Shear Modulus (GPa) = 21.28398 22.37789 21.83093
#
# Velocity S-wave (km/s) = 3.41151 3.49808 3.45507
# Velocity P-wave (km/s) = 6.34438 6.41345 6.37901
#
# Compressibility (1/GPa) = 0.02210850
#
# Stress axis : x y z
#
# Youngs Moduli (GPa) = 72.01407 46.71323 48.00829
#
# Poissons Ratio (x) = 0.13573 0.19755
# Poissons Ratio (y) = 0.20924 0.47945
# Poissons Ratio (z) = 0.29634 0.46651
#
# Static dielectric constant tensor:
#      x y z
#    x 3.841400 0.000000 0.000000 
#    y 0.000000 3.204890 0.000000 
#    z 0.000000 0.000000 3.334320 
# 
# 
# High freq. dielectric constant tensor:
#      x y z
#    x 1.726820 0.000000 0.000000 
#    y 0.000000 1.694700 0.000000 
#    z 0.000000 0.000000 1.700190 
# 
# From -- ./inp_files/18931.got.cif
#   From: 2010.03.12/outbox.cif.g09.slc.cpg/sg54_10_cif.got.tgz:18931.got - 2010.04.16 15:00:50.
