data_PCOD8222035
_publ_section_title
;
Structure prediction by ZEFSAII (Michael W. Deem and Ramdas Pophale) SiO2 
 PCOD8222035
Probable space group: P M N A
;
_chemical_formula_sum "Si O2"
_cell_formula_units_Z 64
_cell_length_a 14.496547
_cell_length_b 11.899887
_cell_length_c 18.147539
_cell_angle_alpha 90.000000
_cell_angle_beta 90.000000
_cell_angle_gamma 90.000000
_cell_volume 3130.582432
_symmetry_space_group_name_H-M "P M N A"
_symmetry_group_IT_number 53
_symmetry_cell_setting 'orthorhombic'
loop_
_space_group_symop_operation_xyz
x,y,z
1/2-x,-y,1/2+z
x,-y,-z
1/2-x,y,1/2-z
-x,-y,-z
1/2+x,y,1/2-z
-x,y,z
1/2+x,-y,1/2+z
loop_
_atom_site_type_symbol
_atom_site_label
_atom_site_fract_x
_atom_site_fract_y
_atom_site_fract_z
Si Si1 0.703834 0.261741 0.590965
Si Si2 0.391698 0.620085 0.538050
Si Si3 0.340943 0.633319 0.700404
Si Si4 0.103897 0.881213 0.797726
Si Si5 0.101783 0.733762 0.363195
Si Si6 0.601649 0.609961 0.283958
Si Si7 0.213608 0.008512 0.915966
Si Si8 0.102643 0.010453 0.654210
O O1 0.648077 0.285985 0.516702
O O2 0.814767 0.279489 0.577896
O O3 0.673105 0.343226 0.656696
O O4 0.686590 0.132273 0.614047
O O5 0.379370 0.500000 0.500000
O O6 0.500000 0.643907 0.555541
O O7 0.328988 0.627231 0.611412
O O8 0.250000 0.628381 0.750000
O O9 0.392194 0.748898 0.719548
O O10 0.400585 0.524768 0.720878
O O11 0.000000 0.918009 0.814193
O O12 0.162764 0.913070 0.869191
O O13 0.140540 0.947825 0.726655
O O14 0.126966 0.651268 0.296876
O O15 0.099487 0.857731 0.328548
O O16 0.000000 0.705875 0.397810
O O17 0.500000 0.651322 0.308043
O O18 0.323927 0.985964 0.910435
O O19 0.182784 0.000000 0.000000
O O20 0.000000 0.966867 0.631335
#
# Coordination Sequence:
#
# PCOD8222035 Si02
#       8
#     8   8   8   8   8   8   8   8
#     4  11  21  36  61  87 117 160 201 246 305 362
#     4  11  23  40  61  88 124 158 194 243 300 364
#     4  12  24  39  61  86 118 158 200 243 290 355
#     4  11  23  39  59  84 122 163 201 244 295 354
#     4   9  19  35  58  88 120 152 199 257 304 353
#     4  11  21  35  57  88 119 150 197 248 299 357
#     4  11  23  37  57  87 119 152 197 248 298 354
#     4   9  19  38  61  84 113 154 197 245 301 351
#
# _framework density 20.443480999999998
#
# number of rings (size 3 to 8) (size 9 to 14) (size 15 to 20)
#    0.000    1.375    1.250    5.250    0.000    4.500 
#    0.000    0.000    0.000    2.625    0.000    0.000 
#    0.000    0.000    0.000    0.000    0.000    0.000 
#
# Total GULP energy -793365.033466 kJ/mol
# GULP energy per Si atom -12396.328648 kJ/mol
# Density = 2.039695 g / cm^3
# Si number density = 20.443481 Si / 1000 Ang^3
#
#
#
# Elastic Constant Matrix: (Units=GPa)
#
#
# Indices 1 2 3 4 5 6 
#
# 1 102.9499 24.0808 47.4100 0.0000 0.0000 0.0000
# 2 24.0808 85.7535 22.4392 0.0000 0.0000 0.0000
# 3 47.4100 22.4392 74.3297 0.0000 0.0000 0.0000
# 4 0.0000 0.0000 0.0000 26.6281 0.0000 0.0000
# 5 0.0000 0.0000 0.0000 0.0000 26.8000 0.0000
# 6 0.0000 0.0000 0.0000 0.0000 0.0000 24.7442
#
#
#
# Elastic Compliance Matrix: (Units=1/GPa)
#
#
# Indices 1 2 3 4 5 6 
#
# 1 0.013986 -0.001730 -0.008398 0.000000 0.000000 0.000000
# 2 -0.001730 0.012875 -0.002784 0.000000 0.000000 0.000000
# 3 -0.008398 -0.002784 0.019651 0.000000 0.000000 0.000000
# 4 0.000000 0.000000 0.000000 0.037554 0.000000 0.000000
# 5 0.000000 0.000000 0.000000 0.000000 0.037313 0.000000
# 6 0.000000 0.000000 0.000000 0.000000 0.000000 0.040413
#
#
# Mechanical properties :
#
#
# Convention : Reuss Voigt Hill
#
# Bulk Modulus (GPa) = 48.33647 50.09923 49.21785
# Shear Modulus (GPa) = 25.70528 26.90799 26.30663
#
# Velocity S-wave (km/s) = 3.54981 3.63190 3.59109
# Velocity P-wave (km/s) = 6.36371 6.49207 6.42821
#
# Compressibility (1/GPa) = 0.02068831
#
# Stress axis : x y z
#
# Youngs Moduli (GPa) = 71.50200 77.66701 50.88890
#
# Poissons Ratio (x) = 0.13435 0.42738
# Poissons Ratio (y) = 0.12368 0.14166
# Poissons Ratio (z) = 0.60050 0.21620
#
# Static dielectric constant tensor:
#      x y z
#    x 3.929630 0.000000 0.000000 
#    y 0.000000 3.851540 0.000000 
#    z 0.000000 0.000000 3.499850 
# 
# 
# High freq. dielectric constant tensor:
#      x y z
#    x 1.806570 0.000000 0.000000 
#    y 0.000000 1.807090 0.000000 
#    z 0.000000 0.000000 1.775220 
# 
# From -- ./inp_files/28563.got.cif
#   From: 2010.03.12/outbox.cif.g09.slc.cpg/sg53_15_cif.got.tgz:28563.got - 2010.04.16 14:36:59.
