data_PCOD8222383
_publ_section_title
;
Structure prediction by ZEFSAII (Michael W. Deem and Ramdas Pophale) SiO2 
 PCOD8222383
Probable space group: P C C A
;
_chemical_formula_sum "Si O2"
_cell_formula_units_Z 48
_cell_length_a 13.679054
_cell_length_b 9.325285
_cell_length_c 19.118193
_cell_angle_alpha 90.000000
_cell_angle_beta 90.000000
_cell_angle_gamma 90.000000
_cell_volume 2438.737291
_symmetry_space_group_name_H-M "P C C A"
_symmetry_group_IT_number 54
_symmetry_cell_setting 'orthorhombic'
loop_
_space_group_symop_operation_xyz
x,y,z
1/2-x,-y,z
1/2+x,-y,1/2-z
-x,y,1/2-z
-x,-y,-z
1/2+x,y,-z
1/2-x,y,1/2+z
x,-y,1/2+z
loop_
_atom_site_type_symbol
_atom_site_label
_atom_site_fract_x
_atom_site_fract_y
_atom_site_fract_z
Si Si1 0.559454 0.241071 0.678339
Si Si2 0.469154 0.909633 0.828141
Si Si3 0.314993 0.829102 0.012894
Si Si4 0.993210 0.348910 0.462590
Si Si5 0.386814 0.871563 0.550389
Si Si6 0.737293 0.161557 0.143231
O O1 0.500000 0.271705 0.750000
O O2 0.515687 0.350580 0.620672
O O3 0.679130 0.260175 0.681531
O O4 0.546731 0.076844 0.653487
O O5 0.500000 0.887791 0.750000
O O6 0.554821 0.855505 0.877992
O O7 0.375671 0.804180 0.838204
O O8 0.380191 0.691021 0.025495
O O9 0.226364 0.832414 0.068847
O O10 0.386818 0.967259 0.017917
O O11 0.254993 0.824790 0.940280
O O12 0.068145 0.236522 0.494810
O O13 0.000000 0.500000 0.500000
O O14 0.750000 0.000000 0.170146
#
# Coordination Sequence:
#
# PCOD8222383 Si02
#       6
#     8   8   8   8   8   8
#     4  10  21  38  59  89 126 164 205 253 312 380
#     4  10  20  34  58  93 130 159 201 259 319 373
#     4  11  20  35  65  90 117 161 211 262 310 361
#     4  12  24  38  60  92 122 166 210 256 309 372
#     4  11  20  37  62  91 122 157 210 266 305 361
#     4  10  17  32  59  89 117 158 199 253 310 360
#
# _framework density 19.682317999999999
#
# number of rings (size 3 to 8) (size 9 to 14) (size 15 to 20)
#    0.000    1.333    6.667    1.500    0.000    2.000 
#    6.000    0.833    0.000    0.000    0.000    0.000 
#    0.000    0.000    0.000    0.000    0.000    0.000 
#
# Total GULP energy -594784.782136 kJ/mol
# GULP energy per Si atom -12391.349628 kJ/mol
# Density = 1.963752 g / cm^3
# Si number density = 19.682318 Si / 1000 Ang^3
#
#
#
# Elastic Constant Matrix: (Units=GPa)
#
#
# Indices 1 2 3 4 5 6 
#
# 1 157.2926 52.2465 63.7480 0.0000 0.0000 0.0000
# 2 52.2465 63.5697 42.5760 0.0000 0.0000 0.0000
# 3 63.7480 42.5760 121.3850 0.0000 0.0000 0.0000
# 4 0.0000 0.0000 0.0000 28.0585 0.0000 0.0000
# 5 0.0000 0.0000 0.0000 0.0000 35.9338 0.0000
# 6 0.0000 0.0000 0.0000 0.0000 0.0000 18.7179
#
#
#
# Elastic Compliance Matrix: (Units=1/GPa)
#
#
# Indices 1 2 3 4 5 6 
#
# 1 0.009483 -0.005827 -0.002936 0.000000 0.000000 0.000000
# 2 -0.005827 0.024142 -0.005407 0.000000 0.000000 0.000000
# 3 -0.002936 -0.005407 0.011677 0.000000 0.000000 0.000000
# 4 0.000000 0.000000 0.000000 0.035640 0.000000 0.000000
# 5 0.000000 0.000000 0.000000 0.000000 0.027829 0.000000
# 6 0.000000 0.000000 0.000000 0.000000 0.000000 0.053425
#
#
# Mechanical properties :
#
#
# Convention : Reuss Voigt Hill
#
# Bulk Modulus (GPa) = 58.96325 73.26536 66.11430
# Shear Modulus (GPa) = 25.48530 28.78715 27.13623
#
# Velocity S-wave (km/s) = 3.60228 3.82853 3.71713
# Velocity P-wave (km/s) = 6.87927 7.53978 7.21709
#
# Compressibility (1/GPa) = 0.01695972
#
# Stress axis : x y z
#
# Youngs Moduli (GPa) = 105.44860 41.42185 85.63845
#
# Poissons Ratio (x) = 0.24138 0.25147
# Poissons Ratio (y) = 0.61450 0.46308
# Poissons Ratio (z) = 0.30964 0.22398
#
# Static dielectric constant tensor:
#      x y z
#    x 4.004530 0.000000 0.000000 
#    y 0.000000 3.137640 0.000000 
#    z 0.000000 0.000000 3.418990 
# 
# 
# High freq. dielectric constant tensor:
#      x y z
#    x 1.798170 0.000000 0.000000 
#    y 0.000000 1.707700 0.000000 
#    z 0.000000 0.000000 1.752640 
# 
# From -- ./inp_files/18047.got.cif
#   From: 2010.03.12/outbox.cif.g09.slc.cpg/sg54_10_cif.got.tgz:18047.got - 2010.04.16 15:00:50.
