data_PCOD8222531
_publ_section_title
;
Structure prediction by ZEFSAII (Michael W. Deem and Ramdas Pophale) SiO2 
 PCOD8222531
Probable space group: P C C A
;
_chemical_formula_sum "Si O2"
_cell_formula_units_Z 48
_cell_length_a 17.143484
_cell_length_b 4.906058
_cell_length_c 28.174356
_cell_angle_alpha 90.000000
_cell_angle_beta 90.000000
_cell_angle_gamma 90.000000
_cell_volume 2369.658498
_symmetry_space_group_name_H-M "P C C A"
_symmetry_group_IT_number 54
_symmetry_cell_setting 'orthorhombic'
loop_
_space_group_symop_operation_xyz
x,y,z
1/2-x,-y,z
1/2+x,-y,1/2-z
-x,y,1/2-z
-x,-y,-z
1/2+x,y,-z
1/2-x,y,1/2+z
x,-y,1/2+z
loop_
_atom_site_type_symbol
_atom_site_label
_atom_site_fract_x
_atom_site_fract_y
_atom_site_fract_z
Si Si1 0.302869 0.744056 0.654098
Si Si2 0.662453 0.447458 0.602309
Si Si3 0.107101 0.047590 0.844005
Si Si4 0.696682 0.741660 0.741327
Si Si5 0.959777 0.875401 0.395909
Si Si6 0.515150 0.630076 0.050679
O O1 0.250000 0.500000 0.631997
O O2 0.335218 0.652729 0.706409
O O3 0.370706 0.845026 0.619501
O O4 0.250000 0.000000 0.662622
O O5 0.750000 0.500000 0.584524
O O6 0.634461 0.746444 0.615703
O O7 0.608479 0.332720 0.559172
O O8 0.654048 0.235863 0.646826
O O9 0.124267 0.177045 0.792488
O O10 0.013734 0.010308 0.852336
O O11 0.750000 0.500000 0.719183
O O12 0.750000 0.000000 0.746308
O O13 0.984120 0.571438 0.409068
O O14 0.969985 0.082061 0.441003
O O15 0.500000 0.500000 0.000000
#
# Coordination Sequence:
#
# PCOD8222531 Si02
#       6
#     8   8   8   8   8   8
#     4  10  21  37  55  77 109 148 188 227 265 315
#     4  10  19  32  52  78 108 138 173 219 273 332
#     4  10  19  31  52  79 107 141 178 220 270 325
#     4  10  19  31  50  77 110 147 183 220 263 311
#     4  10  21  37  57  79 105 141 181 224 280 332
#     4  10  21  38  58  80 107 139 175 224 282 337
#
# _framework density 20.256081999999999
#
# number of rings (size 3 to 8) (size 9 to 14) (size 15 to 20)
#    0.000    2.000    0.000    4.500    0.000    0.667 
#    0.000    2.500    0.000   14.000    0.000    0.000 
#    0.000    0.000    0.000    0.000    0.000    0.000 
#
# Total GULP energy -594806.831854 kJ/mol
# GULP energy per Si atom -12391.808997 kJ/mol
# Density = 2.020998 g / cm^3
# Si number density = 20.256082 Si / 1000 Ang^3
#
#
#
# Elastic Constant Matrix: (Units=GPa)
#
#
# Indices 1 2 3 4 5 6 
#
# 1 124.1348 32.9719 50.6389 0.0000 0.0000 0.0000
# 2 32.9719 103.5795 8.9682 0.0000 0.0000 0.0000
# 3 50.6389 8.9682 66.1020 0.0000 0.0000 0.0000
# 4 0.0000 0.0000 0.0000 33.5005 0.0000 0.0000
# 5 0.0000 0.0000 0.0000 0.0000 25.4696 0.0000
# 6 0.0000 0.0000 0.0000 0.0000 0.0000 32.6721
#
#
#
# Elastic Compliance Matrix: (Units=1/GPa)
#
#
# Indices 1 2 3 4 5 6 
#
# 1 0.012709 -0.003241 -0.009296 0.000000 0.000000 0.000000
# 2 -0.003241 0.010596 0.001045 0.000000 0.000000 0.000000
# 3 -0.009296 0.001045 0.022108 0.000000 0.000000 0.000000
# 4 0.000000 0.000000 0.000000 0.029850 0.000000 0.000000
# 5 0.000000 0.000000 0.000000 0.000000 0.039263 0.000000
# 6 0.000000 0.000000 0.000000 0.000000 0.000000 0.030607
#
#
# Mechanical properties :
#
#
# Convention : Reuss Voigt Hill
#
# Bulk Modulus (GPa) = 44.58585 53.21938 48.90261
# Shear Modulus (GPa) = 28.47514 31.74426 30.10970
#
# Velocity S-wave (km/s) = 3.75341 3.96302 3.85964
# Velocity P-wave (km/s) = 6.39085 6.87539 6.63754
#
# Compressibility (1/GPa) = 0.02242864
#
# Stress axis : x y z
#
# Youngs Moduli (GPa) = 78.68607 94.37968 45.23277
#
# Poissons Ratio (x) = 0.30585 0.42049
# Poissons Ratio (y) = 0.25499 -0.04727
# Poissons Ratio (z) = 0.73148 -0.09863
#
# Static dielectric constant tensor:
#      x y z
#    x 3.661570 0.000000 0.000000 
#    y 0.000000 3.898840 0.000000 
#    z 0.000000 0.000000 3.431600 
# 
# 
# High freq. dielectric constant tensor:
#      x y z
#    x 1.775630 0.000000 0.000000 
#    y 0.000000 1.816180 0.000000 
#    z 0.000000 0.000000 1.756000 
# 
# From -- ./inp_files/26446.got.cif
#   From: 2010.03.12/outbox.cif.g09.slc.cpg/sg54_14_cif.got.tgz:26446.got - 2010.04.16 15:00:50.
