data_PCOD8222186
_publ_section_title
;
Structure prediction by ZEFSAII (Michael W. Deem and Ramdas Pophale) SiO2 
 PCOD8222186
Probable space group: P M N A
;
_chemical_formula_sum "Si O2"
_cell_formula_units_Z 40
_cell_length_a 21.278876
_cell_length_b 9.888406
_cell_length_c 8.666836
_cell_angle_alpha 90.000000
_cell_angle_beta 90.000000
_cell_angle_gamma 90.000000
_cell_volume 1823.625061
_symmetry_space_group_name_H-M "P M N A"
_symmetry_group_IT_number 53
_symmetry_cell_setting 'orthorhombic'
loop_
_space_group_symop_operation_xyz
x,y,z
1/2-x,-y,1/2+z
x,-y,-z
1/2-x,y,1/2-z
-x,-y,-z
1/2+x,y,1/2-z
-x,y,z
1/2+x,-y,1/2+z
loop_
_atom_site_type_symbol
_atom_site_label
_atom_site_fract_x
_atom_site_fract_y
_atom_site_fract_z
Si Si1 0.132455 0.851800 0.430094
Si Si2 0.758679 0.640280 0.430491
Si Si3 0.571368 0.627589 0.895074
Si Si4 0.876496 0.358336 0.067064
Si Si5 0.571476 0.879123 0.393000
O O1 0.195257 0.765559 0.459168
O O2 0.076157 0.767674 0.509400
O O3 0.118450 0.866951 0.249865
O O4 0.140389 0.000000 0.500000
O O5 0.785904 0.500000 0.500000
O O6 0.750000 0.615828 0.250000
O O7 0.694120 0.678483 0.516550
O O8 0.500000 0.611432 0.836591
O O9 0.618901 0.635894 0.751726
O O10 0.590758 0.500000 0.000000
O O11 0.898059 0.500000 0.000000
O O12 0.925848 0.253283 0.997936
O O13 0.500000 0.903224 0.336470
O O14 0.595704 0.000000 0.500000
#
# Coordination Sequence:
#
# PCOD8222186 Si02
#       5
#     8   8   8   8   8
#     4  12  26  45  69 100 144 187 232 294 357 417
#     4  11  26  48  72 102 137 182 236 295 353 421
#     4  11  25  44  71 107 144 184 237 294 357 423
#     4  11  24  43  71 100 136 180 233 296 349 417
#     4  11  24  44  69  99 140 188 235 284 349 423
#
# _framework density 21.934332000000001
#
# number of rings (size 3 to 8) (size 9 to 14) (size 15 to 20)
#    0.000    0.800    2.000    4.200    8.400    7.200 
#    3.600    0.000    0.000    0.000    0.000    0.000 
#    0.000    0.000    0.000    0.000    0.000    0.000 
#
# Total GULP energy -496175.181116 kJ/mol
# GULP energy per Si atom -12404.379528 kJ/mol
# Density = 2.188441 g / cm^3
# Si number density = 21.934332 Si / 1000 Ang^3
#
#
#
# Elastic Constant Matrix: (Units=GPa)
#
#
# Indices 1 2 3 4 5 6 
#
# 1 99.7277 41.4719 59.9927 0.0000 0.0000 0.0000
# 2 41.4719 188.1539 66.6867 0.0000 0.0000 0.0000
# 3 59.9927 66.6867 167.1405 0.0000 0.0000 0.0000
# 4 0.0000 0.0000 0.0000 44.1732 0.0000 0.0000
# 5 0.0000 0.0000 0.0000 0.0000 39.7349 0.0000
# 6 0.0000 0.0000 0.0000 0.0000 0.0000 9.1221
#
#
#
# Elastic Compliance Matrix: (Units=1/GPa)
#
#
# Indices 1 2 3 4 5 6 
#
# 1 0.013108 -0.001423 -0.004137 0.000000 0.000000 0.000000
# 2 -0.001423 0.006345 -0.002021 0.000000 0.000000 0.000000
# 3 -0.004137 -0.002021 0.008274 0.000000 0.000000 0.000000
# 4 0.000000 0.000000 0.000000 0.022638 0.000000 0.000000
# 5 0.000000 0.000000 0.000000 0.000000 0.025167 0.000000
# 6 0.000000 0.000000 0.000000 0.000000 0.000000 0.109624
#
#
# Mechanical properties :
#
#
# Convention : Reuss Voigt Hill
#
# Bulk Modulus (GPa) = 79.58500 87.92498 83.75499
# Shear Modulus (GPa) = 24.44929 37.73076 31.09002
#
# Velocity S-wave (km/s) = 3.34227 4.15199 3.76894
# Velocity P-wave (km/s) = 7.15936 7.94720 7.56354
#
# Compressibility (1/GPa) = 0.01256518
#
# Stress axis : x y z
#
# Youngs Moduli (GPa) = 76.29070 157.61428 120.85765
#
# Poissons Ratio (x) = 0.22426 0.50001
# Poissons Ratio (y) = 0.10855 0.24422
# Poissons Ratio (z) = 0.31563 0.31849
#
# Static dielectric constant tensor:
#      x y z
#    x 3.820830 0.000000 0.000000 
#    y 0.000000 4.091610 0.000000 
#    z 0.000000 0.000000 4.072780 
# 
# 
# High freq. dielectric constant tensor:
#      x y z
#    x 1.864680 0.000000 0.000000 
#    y 0.000000 1.872160 0.000000 
#    z 0.000000 0.000000 1.875770 
# 
# From -- ./inp_files/11531.got.cif
#   From: 2010.03.12/outbox.cif.g09.slc.cpg/sg53_6_cif.got.tgz:11531.got - 2010.04.16 14:36:59.
