data_PCOD8222109
_publ_section_title
;
Structure prediction by ZEFSAII (Michael W. Deem and Ramdas Pophale) SiO2 
 PCOD8222109
Probable space group: P M N A
;
_chemical_formula_sum "Si O2"
_cell_formula_units_Z 40
_cell_length_a 8.749293
_cell_length_b 9.740794
_cell_length_c 25.835195
_cell_angle_alpha 90.000000
_cell_angle_beta 90.000000
_cell_angle_gamma 90.000000
_cell_volume 2201.806064
_symmetry_space_group_name_H-M "P M N A"
_symmetry_group_IT_number 53
_symmetry_cell_setting 'orthorhombic'
loop_
_space_group_symop_operation_xyz
x,y,z
1/2-x,-y,1/2+z
x,-y,-z
1/2-x,y,1/2-z
-x,-y,-z
1/2+x,y,1/2-z
-x,y,z
1/2+x,-y,1/2+z
loop_
_atom_site_type_symbol
_atom_site_label
_atom_site_fract_x
_atom_site_fract_y
_atom_site_fract_z
Si Si1 0.681280 0.039945 0.618987
Si Si2 0.320185 0.247023 0.805927
Si Si3 0.823606 0.758816 0.032217
Si Si4 0.181313 0.747013 0.917842
Si Si5 0.177481 0.456071 0.882872
O O1 0.500000 0.059973 0.624080
O O2 0.729065 0.880705 0.615018
O O3 0.758005 0.105604 0.669456
O O4 0.743718 0.118643 0.567814
O O5 0.250000 0.267112 0.750000
O O6 0.500000 0.237033 0.801368
O O7 0.275571 0.379156 0.839794
O O8 0.799632 0.613985 0.061029
O O9 0.000000 0.792289 0.023548
O O10 0.745077 0.754935 0.975588
O O11 0.239607 0.611788 0.887760
O O12 0.000000 0.735418 0.923248
O O13 0.000000 0.448973 0.866332
#
# Coordination Sequence:
#
# PCOD8222109 Si02
#       5
#     8   8   8   8   8
#     4   9  17  30  50  77 105 132 166 203 240 284
#     4  11  22  38  57  72  90 121 164 209 255 302
#     4   8  13  23  44  75 108 139 169 198 228 271
#     4   9  15  25  47  79 110 136 163 199 238 279
#     4   9  17  30  50  77 105 132 166 203 240 284
#
# _framework density 18.166903999999999
#
# number of rings (size 3 to 8) (size 9 to 14) (size 15 to 20)
#    0.000    2.800    0.000    4.200    0.000    4.800 
#    0.000    2.000    0.000   19.200    0.000    0.000 
#    0.000    0.000    0.000    0.000    0.000    0.000 
#
# Total GULP energy -495846.676861 kJ/mol
# GULP energy per Si atom -12396.166922 kJ/mol
# Density = 1.812556 g / cm^3
# Si number density = 18.166904 Si / 1000 Ang^3
#
#
#
# Elastic Constant Matrix: (Units=GPa)
#
#
# Indices 1 2 3 4 5 6 
#
# 1 56.7438 28.0306 32.1914 0.0000 0.0000 0.0000
# 2 28.0306 144.0942 43.5242 0.0000 0.0000 0.0000
# 3 32.1914 43.5242 106.2714 0.0000 0.0000 0.0000
# 4 0.0000 0.0000 0.0000 14.3381 0.0000 0.0000
# 5 0.0000 0.0000 0.0000 0.0000 19.1992 0.0000
# 6 0.0000 0.0000 0.0000 0.0000 0.0000 18.8751
#
#
#
# Elastic Compliance Matrix: (Units=1/GPa)
#
#
# Indices 1 2 3 4 5 6 
#
# 1 0.022101 -0.002599 -0.005631 0.000000 0.000000 0.000000
# 2 -0.002599 0.008225 -0.002582 0.000000 0.000000 0.000000
# 3 -0.005631 -0.002582 0.012173 0.000000 0.000000 0.000000
# 4 0.000000 0.000000 0.000000 0.069744 0.000000 0.000000
# 5 0.000000 0.000000 0.000000 0.000000 0.052086 0.000000
# 6 0.000000 0.000000 0.000000 0.000000 0.000000 0.052980
#
#
# Mechanical properties :
#
#
# Convention : Reuss Voigt Hill
#
# Bulk Modulus (GPa) = 47.89806 57.17797 52.53801
# Shear Modulus (GPa) = 20.33436 24.04001 22.18719
#
# Velocity S-wave (km/s) = 3.34924 3.64165 3.49850
# Velocity P-wave (km/s) = 6.43267 7.01599 6.73066
#
# Compressibility (1/GPa) = 0.02087767
#
# Stress axis : x y z
#
# Youngs Moduli (GPa) = 45.24683 121.57815 82.15085
#
# Poissons Ratio (x) = 0.31593 0.46255
# Poissons Ratio (y) = 0.11758 0.21207
# Poissons Ratio (z) = 0.25476 0.31386
#
# Static dielectric constant tensor:
#      x y z
#    x 2.887410 0.000000 0.000000 
#    y 0.000000 3.547540 0.000000 
#    z 0.000000 0.000000 3.316120 
# 
# 
# High freq. dielectric constant tensor:
#      x y z
#    x 1.653760 0.000000 0.000000 
#    y 0.000000 1.712230 0.000000 
#    z 0.000000 0.000000 1.693920 
# 
# From -- ./inp_files/33647.got.cif
#   From: 2010.03.12/outbox.cif.g09.slc.cpg/sg53_17_cif.got.tgz:33647.got - 2010.04.16 14:36:59.
