data_PCOD8222598
_publ_section_title
;
Structure prediction by ZEFSAII (Michael W. Deem and Ramdas Pophale) SiO2 
 PCOD8222598
Probable space group: P C C A
;
_chemical_formula_sum "Si O2"
_cell_formula_units_Z 60
_cell_length_a 5.018274
_cell_length_b 20.321133
_cell_length_c 28.650568
_cell_angle_alpha 90.000000
_cell_angle_beta 90.000000
_cell_angle_gamma 90.000000
_cell_volume 2921.699356
_symmetry_space_group_name_H-M "P C C A"
_symmetry_group_IT_number 54
_symmetry_cell_setting 'orthorhombic'
loop_
_space_group_symop_operation_xyz
x,y,z
1/2-x,-y,z
1/2+x,-y,1/2-z
-x,y,1/2-z
-x,-y,-z
1/2+x,y,-z
1/2-x,y,1/2+z
x,-y,1/2+z
loop_
_atom_site_type_symbol
_atom_site_label
_atom_site_fract_x
_atom_site_fract_y
_atom_site_fract_z
Si Si1 0.500000 0.042436 0.750000
Si Si2 0.637312 0.725823 0.824619
Si Si3 0.870142 0.071869 0.150304
Si Si4 0.361368 0.344360 0.795836
Si Si5 0.871831 0.146455 0.876406
Si Si6 0.161106 0.574795 0.888513
Si Si7 0.169088 0.773244 0.030083
Si Si8 0.144714 0.645547 0.082458
O O1 0.388460 0.084582 0.793683
O O2 0.750000 0.000000 0.769604
O O3 0.418295 0.694820 0.788657
O O4 0.628165 0.804057 0.832095
O O5 0.587330 0.690485 0.873257
O O6 0.936312 0.713316 0.808887
O O7 0.672759 0.120720 0.123397
O O8 0.164388 0.086121 0.129886
O O9 0.750000 0.000000 0.140449
O O10 0.500000 0.377970 0.750000
O O11 0.329971 0.399920 0.835161
O O12 0.795091 0.183298 0.923888
O O13 0.250000 0.500000 0.886212
O O14 0.365745 0.608490 0.924620
O O15 0.871262 0.590080 0.909904
O O16 0.205565 0.695069 0.040187
O O17 0.385300 0.791431 0.991423
#
# Coordination Sequence:
#
# PCOD8222598 Si02
#       8
#     4   8   8   8   8   8   8   8
#     4  10  20  38  58  82 116 158 206 242 266 320
#     4   9  19  35  52  74 107 146 186 235 288 336
#     4  11  22  39  62  86 121 164 198 239 287 341
#     4  10  19  34  50  75 112 149 186 242 290 336
#     4  11  22  39  60  89 118 148 201 243 292 365
#     4  10  19  34  56  79 108 154 198 232 284 349
#     4  11  22  39  66  92 115 148 191 249 303 358
#     4   9  19  35  57  80 109 143 188 233 285 350
#
# _framework density 20.535995
#
# number of rings (size 3 to 8) (size 9 to 14) (size 15 to 20)
#    0.000    1.867    0.000    5.200    0.000    4.267 
#    7.200    4.000    0.000   16.000    0.000    0.000 
#    0.000    0.000    0.000    0.000    0.000    0.000 
#
# Total GULP energy -743435.245302 kJ/mol
# GULP energy per Si atom -12390.587422 kJ/mol
# Density = 2.048925 g / cm^3
# Si number density = 20.535995 Si / 1000 Ang^3
#
#
#
# Elastic Constant Matrix: (Units=GPa)
#
#
# Indices 1 2 3 4 5 6 
#
# 1 103.5906 34.8478 15.7825 0.0000 0.0000 0.0000
# 2 34.8478 77.3783 28.1016 0.0000 0.0000 0.0000
# 3 15.7825 28.1016 68.2509 0.0000 0.0000 0.0000
# 4 0.0000 0.0000 0.0000 17.3715 0.0000 0.0000
# 5 0.0000 0.0000 0.0000 0.0000 33.0837 0.0000
# 6 0.0000 0.0000 0.0000 0.0000 0.0000 23.9762
#
#
#
# Elastic Compliance Matrix: (Units=1/GPa)
#
#
# Indices 1 2 3 4 5 6 
#
# 1 0.011399 -0.004911 -0.000614 0.000000 0.000000 0.000000
# 2 -0.004911 0.017311 -0.005992 0.000000 0.000000 0.000000
# 3 -0.000614 -0.005992 0.017261 0.000000 0.000000 0.000000
# 4 0.000000 0.000000 0.000000 0.057566 0.000000 0.000000
# 5 0.000000 0.000000 0.000000 0.000000 0.030226 0.000000
# 6 0.000000 0.000000 0.000000 0.000000 0.000000 0.041708
#
#
# Mechanical properties :
#
#
# Convention : Reuss Voigt Hill
#
# Bulk Modulus (GPa) = 43.59659 45.18705 44.39182
# Shear Modulus (GPa) = 24.25414 26.25214 25.25314
#
# Velocity S-wave (km/s) = 3.44038 3.57928 3.51051
# Velocity P-wave (km/s) = 6.08745 6.25566 6.17213
#
# Compressibility (1/GPa) = 0.02293757
#
# Stress axis : x y z
#
# Youngs Moduli (GPa) = 87.72821 57.76604 57.93403
#
# Poissons Ratio (x) = 0.28366 0.03557
# Poissons Ratio (y) = 0.43079 0.34715
# Poissons Ratio (z) = 0.05387 0.34614
#
# Static dielectric constant tensor:
#      x y z
#    x 3.958250 0.000000 0.000000 
#    y 0.000000 3.614360 0.000000 
#    z 0.000000 0.000000 3.679640 
# 
# 
# High freq. dielectric constant tensor:
#      x y z
#    x 1.826700 0.000000 0.000000 
#    y 0.000000 1.782220 0.000000 
#    z 0.000000 0.000000 1.785440 
# 
# From -- ./inp_files/25504.got.cif
#   From: 2010.03.12/outbox.cif.g09.slc.cpg/sg54_13_cif.got.tgz:25504.got - 2010.04.16 15:00:50.
