data_PCOD8222615
_publ_section_title
;
Structure prediction by ZEFSAII (Michael W. Deem and Ramdas Pophale) SiO2 
 PCOD8222615
Probable space group: P C C A
;
_chemical_formula_sum "Si O2"
_cell_formula_units_Z 48
_cell_length_a 15.656745
_cell_length_b 8.940373
_cell_length_c 15.515495
_cell_angle_alpha 90.000000
_cell_angle_beta 90.000000
_cell_angle_gamma 90.000000
_cell_volume 2171.814620
_symmetry_space_group_name_H-M "P C C A"
_symmetry_group_IT_number 54
_symmetry_cell_setting 'orthorhombic'
loop_
_space_group_symop_operation_xyz
x,y,z
1/2-x,-y,z
1/2+x,-y,1/2-z
-x,y,1/2-z
-x,-y,-z
1/2+x,y,-z
1/2-x,y,1/2+z
x,-y,1/2+z
loop_
_atom_site_type_symbol
_atom_site_label
_atom_site_fract_x
_atom_site_fract_y
_atom_site_fract_z
Si Si1 0.400035 0.583600 0.914299
Si Si2 0.592250 0.915891 0.592111
Si Si3 0.394076 0.091003 0.070309
Si Si4 0.398324 0.606487 0.250900
Si Si5 0.342203 0.938450 0.244307
Si Si6 0.896798 0.423764 0.915358
O O1 0.364290 0.752044 0.903602
O O2 0.368653 0.482027 0.835506
O O3 0.501733 0.586025 0.916012
O O4 0.362824 0.514973 0.002286
O O5 0.495159 0.895016 0.564756
O O6 0.639084 0.017155 0.519203
O O7 0.593213 0.993520 0.685389
O O8 0.355769 0.257536 0.082118
O O9 0.365733 0.986960 0.148405
O O10 0.500000 0.637640 0.250000
O O11 0.346616 0.760304 0.248644
O O12 0.367040 0.508065 0.170395
O O13 0.250000 0.000000 0.270637
#
# Coordination Sequence:
#
# PCOD8222615 Si02
#       6
#     8   8   8   8   8   8
#     4   9  17  31  55  86 111 135 178 237 291 336
#     4  10  20  37  62  87 112 146 191 240 288 341
#     4  10  20  37  62  87 112 146 191 240 288 341
#     4  10  19  34  57  82 111 146 189 238 284 336
#     4  12  25  38  54  80 118 158 191 232 284 344
#     4   9  17  31  55  86 111 135 178 237 291 336
#
# _framework density 22.101334999999999
#
# number of rings (size 3 to 8) (size 9 to 14) (size 15 to 20)
#    0.000    2.000    0.000    4.500    0.000    8.667 
#    0.000    3.333    0.000    2.000    0.000    0.000 
#    0.000    0.000    0.000    0.000    0.000    0.000 
#
# Total GULP energy -595284.844465 kJ/mol
# GULP energy per Si atom -12401.767593 kJ/mol
# Density = 2.205103 g / cm^3
# Si number density = 22.101335 Si / 1000 Ang^3
#
#
#
# Elastic Constant Matrix: (Units=GPa)
#
#
# Indices 1 2 3 4 5 6 
#
# 1 17.0153 23.8491 6.5929 0.0000 0.0000 0.0000
# 2 23.8491 210.0922 70.7616 0.0000 0.0000 0.0000
# 3 6.5929 70.7616 159.9965 0.0000 0.0000 0.0000
# 4 0.0000 0.0000 0.0000 50.1365 0.0000 0.0000
# 5 0.0000 0.0000 0.0000 0.0000 -4.1846 0.0000
# 6 0.0000 0.0000 0.0000 0.0000 0.0000 15.3910
#
#
#
# Elastic Compliance Matrix: (Units=1/GPa)
#
#
# Indices 1 2 3 4 5 6 
#
# 1 0.069965 -0.008191 0.000740 0.000000 0.000000 0.000000
# 2 -0.008191 0.006552 -0.002560 0.000000 0.000000 0.000000
# 3 0.000740 -0.002560 0.007352 0.000000 0.000000 0.000000
# 4 0.000000 0.000000 0.000000 0.019946 0.000000 0.000000
# 5 0.000000 0.000000 0.000000 0.000000 -0.238970 0.000000
# 6 0.000000 0.000000 0.000000 0.000000 0.000000 0.064973
#
#
# Mechanical properties :
#
#
# Convention : Reuss Voigt Hill
#
# Bulk Modulus (GPa) = 15.66282 65.50125 40.58203
# Shear Modulus (GPa) = -173.15314 31.32861 -70.91227
#
# Velocity S-wave (km/s) = -8.86088 3.76905 -5.67051
# Velocity P-wave (km/s) = 9.87850 6.97439 4.94685
#
# Compressibility (1/GPa) = 0.06384547
#
# Stress axis : x y z
#
# Youngs Moduli (GPa) = 14.29282 152.62519 136.01829
#
# Poissons Ratio (x) = 1.25022 -0.10063
# Poissons Ratio (y) = 0.11708 0.34824
# Poissons Ratio (z) = -0.01057 0.39075
#
# Static dielectric constant tensor:
#      x y z
#    x 3.535820 0.000000 0.000000 
#    y 0.000000 4.310030 0.000000 
#    z 0.000000 0.000000 4.126430 
# 
# 
# High freq. dielectric constant tensor:
#      x y z
#    x 1.816480 0.000000 0.000000 
#    y 0.000000 1.889310 0.000000 
#    z 0.000000 0.000000 1.885700 
# 
# From -- ./inp_files/14123.got.cif
#   From: 2010.03.12/outbox.cif.g09.slc.cpg/sg54_8_cif.got.tgz:14123.got - 2010.04.16 15:00:50.
