data_PCOD8222998
_publ_section_title
;
Structure prediction by ZEFSAII (Michael W. Deem and Ramdas Pophale) SiO2 
 PCOD8222998
Probable space group: P C C A
;
_chemical_formula_sum "Si O2"
_cell_formula_units_Z 60
_cell_length_a 17.842079
_cell_length_b 17.857368
_cell_length_c 9.137397
_cell_angle_alpha 90.000000
_cell_angle_beta 90.000000
_cell_angle_gamma 90.000000
_cell_volume 2911.289547
_symmetry_space_group_name_H-M "P C C A"
_symmetry_group_IT_number 54
_symmetry_cell_setting 'orthorhombic'
loop_
_space_group_symop_operation_xyz
x,y,z
1/2-x,-y,z
1/2+x,-y,1/2-z
-x,y,1/2-z
-x,-y,-z
1/2+x,y,-z
1/2-x,y,1/2+z
x,-y,1/2+z
loop_
_atom_site_type_symbol
_atom_site_label
_atom_site_fract_x
_atom_site_fract_y
_atom_site_fract_z
Si Si1 0.195380 0.227940 0.719878
Si Si2 0.332456 0.278382 0.545358
Si Si3 0.540490 0.267931 0.402800
Si Si4 0.414130 0.976708 0.974888
Si Si5 0.444532 0.600185 0.999155
Si Si6 0.000000 0.498535 0.750000
Si Si7 0.544407 0.830392 0.393555
Si Si8 0.820592 0.053117 0.801527
O O1 0.264588 0.275878 0.658653
O O2 0.128310 0.263374 0.625570
O O3 0.205493 0.139254 0.696094
O O4 0.187174 0.238266 0.893050
O O5 0.362626 0.361365 0.508795
O O6 0.400434 0.238824 0.631927
O O7 0.500000 0.272851 0.250000
O O8 0.514476 0.340663 0.496225
O O9 0.516040 0.191126 0.482074
O O10 0.403138 0.898527 0.058185
O O11 0.355126 0.036128 0.039433
O O12 0.390015 0.963703 0.807659
O O13 0.500000 0.000000 0.000000
O O14 0.445110 0.552291 0.849290
O O15 0.450405 0.548845 0.142121
O O16 0.500000 0.853693 0.250000
O O17 0.750000 0.000000 0.766003
#
# Coordination Sequence:
#
# PCOD8222998 Si02
#       8
#     8   8   8   8   8   4   8   8
#     4  12  25  42  65  92 130 177 219 284 338 388
#     4  11  25  42  64  95 133 167 225 266 328 397
#     4  11  20  41  67  94 135 169 220 273 327 389
#     4  12  24  42  62  91 124 165 225 289 344 405
#     4  10  21  40  68 106 131 172 210 258 308 396
#     4  10  20  38  74 102 140 168 210 248 324 386
#     4  11  23  40  62  92 125 165 225 284 333 399
#     4  12  26  42  64  87 128 177 226 276 353 420
#
# _framework density 20.609425000000002
#
# number of rings (size 3 to 8) (size 9 to 14) (size 15 to 20)
#    0.000    0.800    4.667    3.200    7.467    0.000 
#    0.000    0.000    0.000   13.600    0.000    0.000 
#    0.000    0.000    0.000    0.000    0.000    0.000 
#
# Total GULP energy -743945.055004 kJ/mol
# GULP energy per Si atom -12399.084250 kJ/mol
# Density = 2.056252 g / cm^3
# Si number density = 20.609425 Si / 1000 Ang^3
#
#
#
# Elastic Constant Matrix: (Units=GPa)
#
#
# Indices 1 2 3 4 5 6 
#
# 1 105.4576 24.7347 34.3442 0.0000 0.0000 0.0000
# 2 24.7347 108.7241 44.2873 0.0000 0.0000 0.0000
# 3 34.3442 44.2873 70.5930 0.0000 0.0000 0.0000
# 4 0.0000 0.0000 0.0000 27.9635 0.0000 0.0000
# 5 0.0000 0.0000 0.0000 0.0000 35.6098 0.0000
# 6 0.0000 0.0000 0.0000 0.0000 0.0000 27.6956
#
#
#
# Elastic Compliance Matrix: (Units=1/GPa)
#
#
# Indices 1 2 3 4 5 6 
#
# 1 0.011284 -0.000445 -0.005211 0.000000 0.000000 0.000000
# 2 -0.000445 0.012372 -0.007546 0.000000 0.000000 0.000000
# 3 -0.005211 -0.007546 0.021435 0.000000 0.000000 0.000000
# 4 0.000000 0.000000 0.000000 0.035761 0.000000 0.000000
# 5 0.000000 0.000000 0.000000 0.000000 0.028082 0.000000
# 6 0.000000 0.000000 0.000000 0.000000 0.000000 0.036107
#
#
# Mechanical properties :
#
#
# Convention : Reuss Voigt Hill
#
# Bulk Modulus (GPa) = 53.50788 54.61188 54.05988
# Shear Modulus (GPa) = 28.14173 30.34768 29.24471
#
# Velocity S-wave (km/s) = 3.69925 3.84150 3.77104
# Velocity P-wave (km/s) = 6.65320 6.79942 6.72671
#
# Compressibility (1/GPa) = 0.01868884
#
# Stress axis : x y z
#
# Youngs Moduli (GPa) = 88.62322 80.82544 46.65339
#
# Poissons Ratio (x) = 0.03593 0.24310
# Poissons Ratio (y) = 0.03939 0.35203
# Poissons Ratio (z) = 0.46180 0.60988
#
# Static dielectric constant tensor:
#      x y z
#    x 3.525320 0.000000 0.000000 
#    y 0.000000 3.961850 0.000000 
#    z 0.000000 0.000000 3.783460 
# 
# 
# High freq. dielectric constant tensor:
#      x y z
#    x 1.795010 0.000000 0.000000 
#    y 0.000000 1.806230 0.000000 
#    z 0.000000 0.000000 1.815460 
# 
# From -- ./inp_files/4362.got.cif
#   From: 2010.03.12/outbox.cif.g09.slc.cpg/sg54_3_cif.got.tgz:4362.got - 2010.04.16 15:00:50.
