data_PCOD8222236
_publ_section_title
;
Structure prediction by ZEFSAII (Michael W. Deem and Ramdas Pophale) SiO2 
 PCOD8222236
Probable space group: P M N A
;
_chemical_formula_sum "Si O2"
_cell_formula_units_Z 64
_cell_length_a 9.873263
_cell_length_b 20.700507
_cell_length_c 19.676072
_cell_angle_alpha 90.000000
_cell_angle_beta 90.000000
_cell_angle_gamma 90.000000
_cell_volume 4021.426090
_symmetry_space_group_name_H-M "P M N A"
_symmetry_group_IT_number 53
_symmetry_cell_setting 'orthorhombic'
loop_
_space_group_symop_operation_xyz
x,y,z
1/2-x,-y,1/2+z
x,-y,-z
1/2-x,y,1/2-z
-x,-y,-z
1/2+x,y,1/2-z
-x,y,z
1/2+x,-y,1/2+z
loop_
_atom_site_type_symbol
_atom_site_label
_atom_site_fract_x
_atom_site_fract_y
_atom_site_fract_z
Si Si1 0.661456 0.800150 0.957845
Si Si2 0.851400 0.942977 0.695883
Si Si3 0.338994 0.680807 0.042340
Si Si4 0.339007 0.560274 0.958178
Si Si5 0.849785 0.790598 0.693388
Si Si6 0.156189 0.366597 0.687698
Si Si7 0.661352 0.942950 0.954735
Si Si8 0.655562 0.481728 0.188282
O O1 0.500000 0.802545 0.955665
O O2 0.709297 0.777907 0.882418
O O3 0.717087 0.871919 0.976251
O O4 0.714771 0.749731 0.014384
O O5 0.750000 0.974820 0.750000
O O6 0.861749 0.866617 0.705637
O O7 0.793808 0.959127 0.621662
O O8 0.000000 0.973867 0.706414
O O9 0.500000 0.677906 0.040035
O O10 0.291821 0.670360 0.120017
O O11 0.280952 0.625416 0.992308
O O12 0.500000 0.558107 0.962860
O O13 0.295806 0.556178 0.879154
O O14 0.278002 0.500000 0.000000
O O15 0.750000 0.759575 0.750000
O O16 0.000000 0.759538 0.701521
O O17 0.250000 0.343522 0.750000
O O18 0.172779 0.442408 0.673767
O O19 0.000000 0.349568 0.704475
O O20 0.500000 0.942185 0.960276
O O21 0.725405 0.000000 0.000000
O O22 0.750000 0.458554 0.250000
O O23 0.500000 0.465671 0.206603
#
# Coordination Sequence:
#
# PCOD8222236 Si02
#       8
#     8   8   8   8   8   8   8   8
#     4   8  14  23  36  57  80 100 129 168 201 229
#     4   8  13  21  35  55  76  98 125 157 190 226
#     4   9  15  24  40  60  79 100 131 169 201 231
#     4   9  14  23  39  58  77  99 130 165 197 229
#     4   8  13  22  36  54  76 100 127 158 189 224
#     4   9  16  26  42  62  80 101 132 168 202 237
#     4   8  13  22  37  56  77 101 130 164 200 235
#     4   9  16  26  41  60  82 106 133 166 201 238
#
# _framework density 15.914752
#
# number of rings (size 3 to 8) (size 9 to 14) (size 15 to 20)
#    0.000    3.500    1.250    1.500    0.000    0.000 
#    0.000    0.625    0.000    3.000    0.000    0.000 
#    0.000    0.000    0.000    0.000    0.000    0.000 
#
# Total GULP energy -793038.047930 kJ/mol
# GULP energy per Si atom -12391.219499 kJ/mol
# Density = 1.587853 g / cm^3
# Si number density = 15.914752 Si / 1000 Ang^3
#
#
#
# Elastic Constant Matrix: (Units=GPa)
#
#
# Indices 1 2 3 4 5 6 
#
# 1 35.8579 18.4694 44.5186 0.0000 0.0000 0.0000
# 2 18.4694 74.6493 65.4120 0.0000 0.0000 0.0000
# 3 44.5186 65.4120 151.0252 0.0000 0.0000 0.0000
# 4 0.0000 0.0000 0.0000 23.5056 0.0000 0.0000
# 5 0.0000 0.0000 0.0000 0.0000 24.1493 0.0000
# 6 0.0000 0.0000 0.0000 0.0000 0.0000 4.9456
#
#
#
# Elastic Compliance Matrix: (Units=1/GPa)
#
#
# Indices 1 2 3 4 5 6 
#
# 1 0.044013 0.000772 -0.013308 0.000000 0.000000 0.000000
# 2 0.000772 0.021603 -0.009584 0.000000 0.000000 0.000000
# 3 -0.013308 -0.009584 0.014696 0.000000 0.000000 0.000000
# 4 0.000000 0.000000 0.000000 0.042543 0.000000 0.000000
# 5 0.000000 0.000000 0.000000 0.000000 0.041409 0.000000
# 6 0.000000 0.000000 0.000000 0.000000 0.000000 0.202201
#
#
# Mechanical properties :
#
#
# Convention : Reuss Voigt Hill
#
# Bulk Modulus (GPa) = 27.72354 57.59248 42.65801
# Shear Modulus (GPa) = 11.82790 19.39559 15.61174
#
# Velocity S-wave (km/s) = 2.72913 3.49480 3.13543
# Velocity P-wave (km/s) = 5.23342 7.24924 6.32219
#
# Compressibility (1/GPa) = 0.03607043
#
# Stress axis : x y z
#
# Youngs Moduli (GPa) = 22.72061 46.28908 68.04760
#
# Poissons Ratio (x) = -0.03574 0.90560
# Poissons Ratio (y) = -0.01754 0.65220
# Poissons Ratio (z) = 0.30237 0.44365
#
# Static dielectric constant tensor:
#      x y z
#    x 2.793300 0.000000 0.000000 
#    y 0.000000 2.985530 0.000000 
#    z 0.000000 0.000000 3.235930 
# 
# 
# High freq. dielectric constant tensor:
#      x y z
#    x 1.556680 0.000000 0.000000 
#    y 0.000000 1.579110 0.000000 
#    z 0.000000 0.000000 1.620030 
# 
# From -- ./inp_files/27732.got.cif
#   From: 2010.03.12/outbox.cif.g09.slc.cpg/sg53_14_cif.got.tgz:27732.got - 2010.04.16 14:36:59.
