data_PCOD8222029
_publ_section_title
;
Structure prediction by ZEFSAII (Michael W. Deem and Ramdas Pophale) SiO2 
 PCOD8222029
Probable space group: P M N A
;
_chemical_formula_sum "Si O2"
_cell_formula_units_Z 48
_cell_length_a 14.202671
_cell_length_b 14.029198
_cell_length_c 11.337891
_cell_angle_alpha 90.000000
_cell_angle_beta 90.000000
_cell_angle_gamma 90.000000
_cell_volume 2259.098405
_symmetry_space_group_name_H-M "P M N A"
_symmetry_group_IT_number 53
_symmetry_cell_setting 'orthorhombic'
loop_
_space_group_symop_operation_xyz
x,y,z
1/2-x,-y,1/2+z
x,-y,-z
1/2-x,y,1/2-z
-x,-y,-z
1/2+x,y,1/2-z
-x,y,z
1/2+x,-y,1/2+z
loop_
_atom_site_type_symbol
_atom_site_label
_atom_site_fract_x
_atom_site_fract_y
_atom_site_fract_z
Si Si1 0.104288 0.302724 0.059830
Si Si2 0.605653 0.272629 0.050761
Si Si3 0.269167 0.772953 0.375707
Si Si4 0.105778 0.953943 0.125346
Si Si5 0.859599 0.854120 0.762856
Si Si6 0.741749 0.437755 0.120268
O O1 0.104271 0.198110 0.118753
O O2 0.163876 0.376023 0.136135
O O3 0.000000 0.343098 0.044460
O O4 0.152802 0.294779 0.932821
O O5 0.500000 0.295904 0.002071
O O6 0.590890 0.192600 0.150469
O O7 0.650948 0.368927 0.105451
O O8 0.672154 0.227048 0.950049
O O9 0.250000 0.725710 0.250000
O O10 0.312577 0.877440 0.354130
O O11 0.000000 0.909449 0.131170
O O12 0.114267 0.034807 0.226600
O O13 0.126259 0.000000 0.000000
O O14 0.750000 0.837122 0.750000
O O15 0.750000 0.491333 0.250000
O O16 0.746152 0.500000 0.000000
#
# Coordination Sequence:
#
# PCOD8222029 Si02
#       6
#     8   8   8   8   8   8
#     4  11  21  40  69  92 120 168 221 263 316 393
#     4  11  23  43  70  96 126 173 226 271 326 396
#     4  11  24  40  57  89 135 177 213 272 328 386
#     4  11  21  34  59  94 128 167 221 272 318 378
#     4  12  19  38  67  96 124 164 215 273 320 372
#     4  11  24  43  67 103 137 171 215 275 344 408
#
# _framework density 21.247415
#
# number of rings (size 3 to 8) (size 9 to 14) (size 15 to 20)
#    0.000    0.833    6.667    2.500    0.000    4.667 
#    0.000    0.000    0.000    3.500    0.000    0.000 
#    0.000    0.000    0.000    0.000    0.000    0.000 
#
# Total GULP energy -594836.749325 kJ/mol
# GULP energy per Si atom -12392.432278 kJ/mol
# Density = 2.119905 g / cm^3
# Si number density = 21.247415 Si / 1000 Ang^3
#
#
#
# Elastic Constant Matrix: (Units=GPa)
#
#
# Indices 1 2 3 4 5 6 
#
# 1 173.9039 21.9056 30.1903 0.0000 0.0000 0.0000
# 2 21.9056 61.0030 21.1939 0.0000 0.0000 0.0000
# 3 30.1903 21.1939 128.8537 0.0000 0.0000 0.0000
# 4 0.0000 0.0000 0.0000 27.0957 0.0000 0.0000
# 5 0.0000 0.0000 0.0000 0.0000 9.6832 0.0000
# 6 0.0000 0.0000 0.0000 0.0000 0.0000 16.3887
#
#
#
# Elastic Compliance Matrix: (Units=1/GPa)
#
#
# Indices 1 2 3 4 5 6 
#
# 1 0.006179 -0.001820 -0.001148 0.000000 0.000000 0.000000
# 2 -0.001820 0.017922 -0.002521 0.000000 0.000000 0.000000
# 3 -0.001148 -0.002521 0.008445 0.000000 0.000000 0.000000
# 4 0.000000 0.000000 0.000000 0.036906 0.000000 0.000000
# 5 0.000000 0.000000 0.000000 0.000000 0.103272 0.000000
# 6 0.000000 0.000000 0.000000 0.000000 0.000000 0.061018
#
#
# Mechanical properties :
#
#
# Convention : Reuss Voigt Hill
#
# Bulk Modulus (GPa) = 46.36872 56.70445 51.53659
# Shear Modulus (GPa) = 19.84841 29.99823 24.92332
#
# Velocity S-wave (km/s) = 3.05971 3.76154 3.42863
# Velocity P-wave (km/s) = 5.86115 6.75361 6.32314
#
# Compressibility (1/GPa) = 0.02156626
#
# Stress axis : x y z
#
# Youngs Moduli (GPa) = 161.84119 55.79693 118.41975
#
# Poissons Ratio (x) = 0.10154 0.13599
# Poissons Ratio (y) = 0.29452 0.29859
# Poissons Ratio (z) = 0.18586 0.14069
#
# Static dielectric constant tensor:
#      x y z
#    x 3.962600 0.000000 0.000000 
#    y 0.000000 3.706140 0.000000 
#    z 0.000000 0.000000 3.897880 
# 
# 
# High freq. dielectric constant tensor:
#      x y z
#    x 1.844460 0.000000 0.000000 
#    y 0.000000 1.807070 0.000000 
#    z 0.000000 0.000000 1.832370 
# 
# From -- ./inp_files/15944.got.cif
#   From: 2010.03.12/outbox.cif.g09.slc.cpg/sg53_8_cif.got.tgz:15944.got - 2010.04.16 14:36:59.
