data_PCOD8222253
_publ_section_title
;
Structure prediction by ZEFSAII (Michael W. Deem and Ramdas Pophale) SiO2 
 PCOD8222253
Probable space group: P M N A
;
_chemical_formula_sum "Si O2"
_cell_formula_units_Z 48
_cell_length_a 9.261980
_cell_length_b 10.442501
_cell_length_c 29.672283
_cell_angle_alpha 90.000000
_cell_angle_beta 90.000000
_cell_angle_gamma 90.000000
_cell_volume 2869.850852
_symmetry_space_group_name_H-M "P M N A"
_symmetry_group_IT_number 53
_symmetry_cell_setting 'orthorhombic'
loop_
_space_group_symop_operation_xyz
x,y,z
1/2-x,-y,1/2+z
x,-y,-z
1/2-x,y,1/2-z
-x,-y,-z
1/2+x,y,1/2-z
-x,y,z
1/2+x,-y,1/2+z
loop_
_atom_site_type_symbol
_atom_site_label
_atom_site_fract_x
_atom_site_fract_y
_atom_site_fract_z
Si Si1 0.828242 0.630039 0.521483
Si Si2 0.170493 0.119831 0.526727
Si Si3 0.666031 0.016927 0.878473
Si Si4 0.337816 0.017061 0.707698
Si Si5 0.663664 0.712084 0.706740
Si Si6 0.667605 0.719258 0.881511
O O1 0.764364 0.500000 0.500000
O O2 0.763912 0.748187 0.492508
O O3 0.782333 0.642897 0.573832
O O4 0.000000 0.630706 0.518192
O O5 0.000000 0.119189 0.518656
O O6 0.239264 0.000000 0.500000
O O7 0.207439 0.105729 0.579332
O O8 0.500000 0.033955 0.864251
O O9 0.763693 0.066946 0.837738
O O10 0.696288 0.869122 0.890725
O O11 0.250000 0.072880 0.750000
O O12 0.500000 0.070356 0.709850
O O13 0.335434 0.864501 0.708725
O O14 0.750000 0.657110 0.750000
O O15 0.500000 0.659392 0.707733
O O16 0.740731 0.666700 0.660711
O O17 0.500000 0.695171 0.870456
#
# Coordination Sequence:
#
# PCOD8222253 Si02
#       6
#     8   8   8   8   8   8
#     4   9  16  25  39  62  89 115 146 184 219 251
#     4   9  14  23  39  60  84 113 147 178 210 251
#     4   9  15  23  39  60  82 111 146 178 211 253
#     4   9  16  25  37  56  85 114 140 172 215 262
#     4   9  16  25  38  58  84 112 141 174 214 260
#     4   9  15  24  39  59  84 113 143 176 214 253
#
# _framework density 16.725608999999999
#
# number of rings (size 3 to 8) (size 9 to 14) (size 15 to 20)
#    0.000    3.000    1.667    1.000    0.000    4.000 
#    0.000    0.000    0.000    2.000    0.000    1.167 
#    0.000    0.000    0.000    0.000    0.000    0.000 
#
# Total GULP energy -595026.704520 kJ/mol
# GULP energy per Si atom -12396.389678 kJ/mol
# Density = 1.668754 g / cm^3
# Si number density = 16.725609 Si / 1000 Ang^3
#
#
#
# Elastic Constant Matrix: (Units=GPa)
#
#
# Indices 1 2 3 4 5 6 
#
# 1 79.5832 21.0716 66.1668 0.0000 0.0000 0.0000
# 2 21.0716 65.3044 57.4049 0.0000 0.0000 0.0000
# 3 66.1668 57.4049 159.2881 0.0000 0.0000 0.0000
# 4 0.0000 0.0000 0.0000 14.0546 0.0000 0.0000
# 5 0.0000 0.0000 0.0000 0.0000 26.3482 0.0000
# 6 0.0000 0.0000 0.0000 0.0000 0.0000 4.7085
#
#
#
# Elastic Compliance Matrix: (Units=1/GPa)
#
#
# Indices 1 2 3 4 5 6 
#
# 1 0.019258 0.001197 -0.008431 0.000000 0.000000 0.000000
# 2 0.001197 0.022488 -0.008602 0.000000 0.000000 0.000000
# 3 -0.008431 -0.008602 0.012880 0.000000 0.000000 0.000000
# 4 0.000000 0.000000 0.000000 0.071151 0.000000 0.000000
# 5 0.000000 0.000000 0.000000 0.000000 0.037953 0.000000
# 6 0.000000 0.000000 0.000000 0.000000 0.000000 0.212382
#
#
# Mechanical properties :
#
#
# Convention : Reuss Voigt Hill
#
# Bulk Modulus (GPa) = 43.56332 65.94026 54.75179
# Shear Modulus (GPa) = 12.03560 19.65776 15.84668
#
# Velocity S-wave (km/s) = 2.68543 3.43200 3.08141
# Velocity P-wave (km/s) = 5.97644 7.43069 6.74288
#
# Compressibility (1/GPa) = 0.02295509
#
# Stress axis : x y z
#
# Youngs Moduli (GPa) = 51.92569 44.46891 77.63950
#
# Poissons Ratio (x) = -0.05324 0.65460
# Poissons Ratio (y) = -0.06217 0.66782
# Poissons Ratio (z) = 0.43780 0.38250
#
# Static dielectric constant tensor:
#      x y z
#    x 2.917790 0.000000 0.000000 
#    y 0.000000 2.803020 0.000000 
#    z 0.000000 0.000000 3.312750 
# 
# 
# High freq. dielectric constant tensor:
#      x y z
#    x 1.612410 0.000000 0.000000 
#    y 0.000000 1.582410 0.000000 
#    z 0.000000 0.000000 1.663490 
# 
# From -- ./inp_files/37898.got.cif
#   From: 2010.03.12/outbox.cif.g09.slc.cpg/sg53_19_cif.got.tgz:37898.got - 2010.04.16 14:36:59.
