data_PCOD8222651
_publ_section_title
;
Structure prediction by ZEFSAII (Michael W. Deem and Ramdas Pophale) SiO2 
 PCOD8222651
Probable space group: P C C A
;
_chemical_formula_sum "Si O2"
_cell_formula_units_Z 64
_cell_length_a 9.349607
_cell_length_b 22.831450
_cell_length_c 15.036330
_cell_angle_alpha 90.000000
_cell_angle_beta 90.000000
_cell_angle_gamma 90.000000
_cell_volume 3209.731458
_symmetry_space_group_name_H-M "P C C A"
_symmetry_group_IT_number 54
_symmetry_cell_setting 'orthorhombic'
loop_
_space_group_symop_operation_xyz
x,y,z
1/2-x,-y,z
1/2+x,-y,1/2-z
-x,y,1/2-z
-x,-y,-z
1/2+x,y,-z
1/2-x,y,1/2+z
x,-y,1/2+z
loop_
_atom_site_type_symbol
_atom_site_label
_atom_site_fract_x
_atom_site_fract_y
_atom_site_fract_z
Si Si1 0.288572 0.638977 0.390442
Si Si2 0.520710 0.565841 0.602729
Si Si3 0.171718 0.059896 0.088903
Si Si4 0.332157 0.142771 0.748534
Si Si5 0.170269 0.726331 0.742584
Si Si6 0.220090 0.644070 0.094779
Si Si7 0.533100 0.439863 0.898986
Si Si8 0.825168 0.939706 0.591358
O O1 0.255524 0.692490 0.324648
O O2 0.288674 0.663859 0.491403
O O3 0.436527 0.610979 0.355042
O O4 0.182756 0.583821 0.380667
O O5 0.430586 0.622514 0.635921
O O6 0.485544 0.503200 0.649183
O O7 0.477345 0.556608 0.500117
O O8 0.215257 0.107733 0.161383
O O9 0.998214 0.052264 0.079890
O O10 0.250000 0.000000 0.117856
O O11 0.246560 0.081425 0.998269
O O12 0.500000 0.148677 0.750000
O O13 0.266134 0.207926 0.745775
O O14 0.283075 0.108787 0.836512
O O15 0.216547 0.698250 0.648781
O O16 0.000000 0.726256 0.750000
O O17 0.306556 0.583170 0.105594
O O18 0.750000 0.000000 0.621873
#
# Coordination Sequence:
#
# PCOD8222651 Si02
#       8
#     8   8   8   8   8   8   8   8
#     4  10  20  35  58  80 108 146 183 231 287 337
#     4   9  18  31  55  81 118 129 179 232 294 342
#     4  10  19  35  61  91 122 151 185 229 280 328
#     4   9  21  37  57  82 113 157 197 232 268 323
#     4  11  22  40  59  78 110 153 200 229 269 338
#     4  10  20  35  58  80 108 146 183 231 287 337
#     4   9  16  33  55  85 102 149 175 222 288 362
#     4  10  19  35  61  91 122 151 185 229 280 328
#
# _framework density 19.939361999999999
#
# number of rings (size 3 to 8) (size 9 to 14) (size 15 to 20)
#    0.000    2.250    1.250    2.625    0.000    4.500 
#    0.000    5.625   11.000    0.000    0.000    0.000 
#    0.000    0.000    0.000    0.000    0.000    0.000 
#
# Total GULP energy -793079.617567 kJ/mol
# GULP energy per Si atom -12391.869024 kJ/mol
# Density = 1.989398 g / cm^3
# Si number density = 19.939362 Si / 1000 Ang^3
#
#
#
# Elastic Constant Matrix: (Units=GPa)
#
#
# Indices 1 2 3 4 5 6 
#
# 1 67.5631 20.5539 20.9920 0.0000 0.0000 0.0000
# 2 20.5539 145.0501 76.6591 0.0000 0.0000 0.0000
# 3 20.9920 76.6591 99.3365 0.0000 0.0000 0.0000
# 4 0.0000 0.0000 0.0000 18.8857 0.0000 0.0000
# 5 0.0000 0.0000 0.0000 0.0000 23.2504 0.0000
# 6 0.0000 0.0000 0.0000 0.0000 0.0000 22.6198
#
#
#
# Elastic Compliance Matrix: (Units=1/GPa)
#
#
# Indices 1 2 3 4 5 6 
#
# 1 0.015897 -0.000806 -0.002737 0.000000 0.000000 0.000000
# 2 -0.000806 0.011683 -0.008846 0.000000 0.000000 0.000000
# 3 -0.002737 -0.008846 0.017472 0.000000 0.000000 0.000000
# 4 0.000000 0.000000 0.000000 0.052950 0.000000 0.000000
# 5 0.000000 0.000000 0.000000 0.000000 0.043010 0.000000
# 6 0.000000 0.000000 0.000000 0.000000 0.000000 0.044209
#
#
# Mechanical properties :
#
#
# Convention : Reuss Voigt Hill
#
# Bulk Modulus (GPa) = 49.32566 60.92886 55.12726
# Shear Modulus (GPa) = 23.06724 25.86748 24.46736
#
# Velocity S-wave (km/s) = 3.40497 3.60572 3.50678
# Velocity P-wave (km/s) = 6.34428 6.92520 6.64110
#
# Compressibility (1/GPa) = 0.02027342
#
# Stress axis : x y z
#
# Youngs Moduli (GPa) = 62.90634 85.59112 57.23512
#
# Poissons Ratio (x) = 0.06897 0.15668
# Poissons Ratio (y) = 0.05069 0.50630
# Poissons Ratio (z) = 0.17220 0.75714
#
# Static dielectric constant tensor:
#      x y z
#    x 3.560060 0.000000 0.000000 
#    y 0.000000 3.747680 0.000000 
#    z 0.000000 0.000000 3.539680 
# 
# 
# High freq. dielectric constant tensor:
#      x y z
#    x 1.774360 0.000000 0.000000 
#    y 0.000000 1.768610 0.000000 
#    z 0.000000 0.000000 1.769920 
# 
# From -- ./inp_files/16859.got.cif
#   From: 2010.03.12/outbox.cif.g09.slc.cpg/sg54_9_cif.got.tgz:16859.got - 2010.04.16 15:00:50.
