data_PCOD8222252
_publ_section_title
;
Structure prediction by ZEFSAII (Michael W. Deem and Ramdas Pophale) SiO2 
 PCOD8222252
Probable space group: P M N A
;
_chemical_formula_sum "Si O2"
_cell_formula_units_Z 48
_cell_length_a 9.231510
_cell_length_b 9.981040
_cell_length_c 29.448508
_cell_angle_alpha 90.000000
_cell_angle_beta 90.000000
_cell_angle_gamma 90.000000
_cell_volume 2713.387605
_symmetry_space_group_name_H-M "P M N A"
_symmetry_group_IT_number 53
_symmetry_cell_setting 'orthorhombic'
loop_
_space_group_symop_operation_xyz
x,y,z
1/2-x,-y,1/2+z
x,-y,-z
1/2-x,y,1/2-z
-x,-y,-z
1/2+x,y,1/2-z
-x,y,z
1/2+x,-y,1/2+z
loop_
_atom_site_type_symbol
_atom_site_label
_atom_site_fract_x
_atom_site_fract_y
_atom_site_fract_z
Si Si1 0.669924 0.478251 0.296563
Si Si2 0.827203 0.365676 0.022648
Si Si3 0.172491 0.016373 0.872547
Si Si4 0.827570 0.287481 0.122367
Si Si5 0.669423 0.215731 0.704396
Si Si6 0.827467 0.114985 0.967797
O O1 0.750000 0.438910 0.250000
O O2 0.500000 0.456599 0.288391
O O3 0.728187 0.383734 0.337180
O O4 0.704012 0.631732 0.310713
O O5 0.768006 0.341710 0.073871
O O6 0.000000 0.366931 0.024572
O O7 0.765466 0.500000 0.000000
O O8 0.768982 0.252963 0.988333
O O9 0.229482 0.109458 0.831967
O O10 0.233939 0.087272 0.917729
O O11 0.000000 0.014250 0.873742
O O12 0.230187 0.863644 0.868619
O O13 0.000000 0.288044 0.121098
O O14 0.750000 0.177904 0.750000
O O15 0.500000 0.197151 0.712432
O O16 0.000000 0.114558 0.966984
O O17 0.766866 0.000000 0.000000
#
# Coordination Sequence:
#
# PCOD8222252 Si02
#       6
#     8   8   8   8   8   8
#     4   9  18  31  46  63  86 114 144 179 218 256
#     4   9  16  22  32  53  81 112 142 171 206 253
#     4   9  16  25  39  58  82 113 144 175 213 255
#     4   9  16  26  38  57  84 113 144 176 212 254
#     4   9  18  31  46  64  86 113 145 180 216 256
#     4   9  14  22  34  51  79 112 140 166 204 255
#
# _framework density 17.690062999999999
#
# number of rings (size 3 to 8) (size 9 to 14) (size 15 to 20)
#    0.000    3.000    1.667    0.000    2.333    0.667 
#    0.000    0.000    0.000    0.000    0.000    0.000 
#    0.000    2.667    0.000    0.167    0.000    0.000 
#
# Total GULP energy -594917.297458 kJ/mol
# GULP energy per Si atom -12394.110364 kJ/mol
# Density = 1.764980 g / cm^3
# Si number density = 17.690063 Si / 1000 Ang^3
#
#
#
# Elastic Constant Matrix: (Units=GPa)
#
#
# Indices 1 2 3 4 5 6 
#
# 1 7.7271 14.4037 20.5177 0.0000 0.0000 0.0000
# 2 14.4037 174.2707 119.4589 0.0000 0.0000 0.0000
# 3 20.5177 119.4589 186.2981 0.0000 0.0000 0.0000
# 4 0.0000 0.0000 0.0000 43.5487 0.0000 0.0000
# 5 0.0000 0.0000 0.0000 0.0000 16.7888 0.0000
# 6 0.0000 0.0000 0.0000 0.0000 0.0000 7.9191
#
#
#
# Elastic Compliance Matrix: (Units=1/GPa)
#
#
# Indices 1 2 3 4 5 6 
#
# 1 0.183435 -0.002342 -0.018700 0.000000 0.000000 0.000000
# 2 -0.002342 0.010268 -0.006326 0.000000 0.000000 0.000000
# 3 -0.018700 -0.006326 0.011484 0.000000 0.000000 0.000000
# 4 0.000000 0.000000 0.000000 0.022963 0.000000 0.000000
# 5 0.000000 0.000000 0.000000 0.000000 0.059563 0.000000
# 6 0.000000 0.000000 0.000000 0.000000 0.000000 0.126276
#
#
# Mechanical properties :
#
#
# Convention : Reuss Voigt Hill
#
# Bulk Modulus (GPa) = 6.64676 75.22850 40.93763
# Shear Modulus (GPa) = 9.63617 27.91237 18.77427
#
# Velocity S-wave (km/s) = 2.33646 3.97653 3.26128
# Velocity P-wave (km/s) = 3.32329 7.98135 6.11335
#
# Compressibility (1/GPa) = 0.15044921
#
# Stress axis : x y z
#
# Youngs Moduli (GPa) = 5.45152 97.38611 87.07830
#
# Poissons Ratio (x) = 0.22812 1.62840
# Poissons Ratio (y) = 0.01277 0.55089
# Poissons Ratio (z) = 0.10195 0.61610
#
# Static dielectric constant tensor:
#      x y z
#    x 2.541070 0.000000 0.000000 
#    y 0.000000 3.571580 0.000000 
#    z 0.000000 0.000000 3.525120 
# 
# 
# High freq. dielectric constant tensor:
#      x y z
#    x 1.599290 0.000000 0.000000 
#    y 0.000000 1.699000 0.000000 
#    z 0.000000 0.000000 1.697430 
# 
# From -- ./inp_files/34890.got.cif
#   From: 2010.03.12/outbox.cif.g09.slc.cpg/sg53_18_cif.got.tgz:34890.got - 2010.04.16 14:36:59.
