data_PCOD8222918
_publ_section_title
;
Structure prediction by ZEFSAII (Michael W. Deem and Ramdas Pophale) SiO2 
 PCOD8222918
Probable space group: P C C A
;
_chemical_formula_sum "Si O2"
_cell_formula_units_Z 40
_cell_length_a 13.447943
_cell_length_b 7.453365
_cell_length_c 19.283448
_cell_angle_alpha 90.000000
_cell_angle_beta 90.000000
_cell_angle_gamma 90.000000
_cell_volume 1932.826807
_symmetry_space_group_name_H-M "P C C A"
_symmetry_group_IT_number 54
_symmetry_cell_setting 'orthorhombic'
loop_
_space_group_symop_operation_xyz
x,y,z
1/2-x,-y,z
1/2+x,-y,1/2-z
-x,y,1/2-z
-x,-y,-z
1/2+x,y,-z
1/2-x,y,1/2+z
x,-y,1/2+z
loop_
_atom_site_type_symbol
_atom_site_label
_atom_site_fract_x
_atom_site_fract_y
_atom_site_fract_z
Si Si1 0.617275 0.832102 0.310684
Si Si2 0.158918 0.767967 0.170891
Si Si3 0.635627 0.520221 0.215363
Si Si4 0.356490 0.594959 0.530311
Si Si5 0.020614 0.635622 0.906615
O O1 0.722397 0.754181 0.336487
O O2 0.602765 0.721760 0.239177
O O3 0.528976 0.801910 0.365873
O O4 0.622349 0.044303 0.297154
O O5 0.113405 0.615559 0.221267
O O6 0.127669 0.739726 0.091504
O O7 0.750000 0.500000 0.192477
O O8 0.566127 0.488850 0.148130
O O9 0.250000 0.500000 0.524660
O O10 0.433595 0.437656 0.545384
O O11 0.388099 0.692212 0.457836
#
# Coordination Sequence:
#
# PCOD8222918 Si02
#       5
#     8   8   8   8   8
#     4  10  20  37  62  89 113 157 203 240 294 366
#     4  10  20  38  65  82 120 160 195 244 304 350
#     4  10  20  40  60  87 122 156 192 248 301 350
#     4  11  21  39  61  86 116 160 197 242 305 354
#     4  11  22  36  61  90 118 152 204 244 293 360
#
# _framework density 20.695079
#
# number of rings (size 3 to 8) (size 9 to 14) (size 15 to 20)
#    0.000    1.600    4.000    1.800    0.000    0.800 
#    7.200    0.000    0.000    2.400    0.000    0.000 
#    0.000    0.000    0.000    0.000    0.000    0.000 
#
# Total GULP energy -495522.725698 kJ/mol
# GULP energy per Si atom -12388.068142 kJ/mol
# Density = 2.064798 g / cm^3
# Si number density = 20.695079 Si / 1000 Ang^3
#
#
#
# Elastic Constant Matrix: (Units=GPa)
#
#
# Indices 1 2 3 4 5 6 
#
# 1 99.0358 26.4611 61.2037 0.0000 0.0000 0.0000
# 2 26.4611 81.8118 35.6309 0.0000 0.0000 0.0000
# 3 61.2037 35.6309 123.1661 0.0000 0.0000 0.0000
# 4 0.0000 0.0000 0.0000 12.3497 0.0000 0.0000
# 5 0.0000 0.0000 0.0000 0.0000 29.0855 0.0000
# 6 0.0000 0.0000 0.0000 0.0000 0.0000 19.0426
#
#
#
# Elastic Compliance Matrix: (Units=1/GPa)
#
#
# Indices 1 2 3 4 5 6 
#
# 1 0.014804 -0.001813 -0.006832 0.000000 0.000000 0.000000
# 2 -0.001813 0.014207 -0.003209 0.000000 0.000000 0.000000
# 3 -0.006832 -0.003209 0.012442 0.000000 0.000000 0.000000
# 4 0.000000 0.000000 0.000000 0.080973 0.000000 0.000000
# 5 0.000000 0.000000 0.000000 0.000000 0.034381 0.000000
# 6 0.000000 0.000000 0.000000 0.000000 0.000000 0.052514
#
#
# Mechanical properties :
#
#
# Convention : Reuss Voigt Hill
#
# Bulk Modulus (GPa) = 56.35163 61.17835 58.76499
# Shear Modulus (GPa) = 20.92533 24.14344 22.53438
#
# Velocity S-wave (km/s) = 3.18327 3.41930 3.30339
# Velocity P-wave (km/s) = 6.38745 6.72419 6.55798
#
# Compressibility (1/GPa) = 0.01774571
#
# Stress axis : x y z
#
# Youngs Moduli (GPa) = 67.55039 70.38699 80.37011
#
# Poissons Ratio (x) = 0.12759 0.54908
# Poissons Ratio (y) = 0.12245 0.25793
# Poissons Ratio (z) = 0.46150 0.22589
#
# Static dielectric constant tensor:
#      x y z
#    x 4.209520 0.000000 0.000000 
#    y 0.000000 3.360160 0.000000 
#    z 0.000000 0.000000 3.917670 
# 
# 
# High freq. dielectric constant tensor:
#      x y z
#    x 1.835070 0.000000 0.000000 
#    y 0.000000 1.765890 0.000000 
#    z 0.000000 0.000000 1.810680 
# 
# From -- ./inp_files/17806.got.cif
#   From: 2010.03.12/outbox.cif.g09.slc.cpg/sg54_9_cif.got.tgz:17806.got - 2010.04.16 15:00:50.
