data_PCOD8222121
_publ_section_title
;
Structure prediction by ZEFSAII (Michael W. Deem and Ramdas Pophale) SiO2 
 PCOD8222121
Probable space group: P M N A
;
_chemical_formula_sum "Si O2"
_cell_formula_units_Z 32
_cell_length_a 9.846586
_cell_length_b 12.514566
_cell_length_c 12.103416
_cell_angle_alpha 90.000000
_cell_angle_beta 90.000000
_cell_angle_gamma 90.000000
_cell_volume 1491.452519
_symmetry_space_group_name_H-M "P M N A"
_symmetry_group_IT_number 53
_symmetry_cell_setting 'orthorhombic'
loop_
_space_group_symop_operation_xyz
x,y,z
1/2-x,-y,1/2+z
x,-y,-z
1/2-x,y,1/2-z
-x,-y,-z
1/2+x,y,1/2-z
-x,y,z
1/2+x,-y,1/2+z
loop_
_atom_site_type_symbol
_atom_site_label
_atom_site_fract_x
_atom_site_fract_y
_atom_site_fract_z
Si Si1 0.000000 0.932011 0.704787
Si Si2 0.750000 0.417244 0.750000
Si Si3 0.718087 0.760128 0.418387
Si Si4 0.000000 0.125219 0.046627
Si Si5 0.250000 0.933181 0.250000
Si Si6 0.500000 0.471414 0.130086
Si Si7 0.000000 0.748361 0.535680
O O1 0.000000 0.876207 0.822493
O O2 0.000000 0.857198 0.600088
O O3 0.135578 0.999281 0.689551
O O4 0.820924 0.344681 0.846013
O O5 0.865558 0.489451 0.693495
O O6 0.625733 0.794955 0.520803
O O7 0.683267 0.861178 0.342753
O O8 0.872492 0.741840 0.453885
O O9 0.000000 0.000000 0.000000
O O10 0.500000 0.343160 0.129263
O O11 0.500000 0.500000 0.000000
#
# Coordination Sequence:
#
# PCOD8222121 Si02
#       7
#     4   4   8   4   4   4   4
#     4  12  25  38  59  94 136 184 220 290 346 413
#     4  11  24  47  80  98 140 187 238 303 372 442
#     4  11  23  42  69  99 132 187 238 287 348 440
#     4  12  23  41  61  95 139 185 230 283 340 429
#     4  11  22  39  62  94 132 179 238 265 348 426
#     4  12  25  51  74 111 141 183 244 317 373 429
#     4  12  27  44  69 103 146 180 243 305 361 418
#
# _framework density 21.455593
#
# number of rings (size 3 to 8) (size 9 to 14) (size 15 to 20)
#    0.000    0.500    5.000    3.000    0.000    8.000 
#    0.000    0.625    0.000    0.000    0.000    0.000 
#    0.000    0.000    0.000    0.000    0.000    0.000 
#
# Total GULP energy -396490.742656 kJ/mol
# GULP energy per Si atom -12390.335708 kJ/mol
# Density = 2.140676 g / cm^3
# Si number density = 21.455593 Si / 1000 Ang^3
#
#
#
# Elastic Constant Matrix: (Units=GPa)
#
#
# Indices 1 2 3 4 5 6 
#
# 1 116.0541 37.6105 16.1630 0.0000 0.0000 0.0000
# 2 37.6105 103.8662 19.0814 0.0000 0.0000 0.0000
# 3 16.1630 19.0814 80.9820 0.0000 0.0000 0.0000
# 4 0.0000 0.0000 0.0000 26.0501 0.0000 0.0000
# 5 0.0000 0.0000 0.0000 0.0000 36.6969 0.0000
# 6 0.0000 0.0000 0.0000 0.0000 0.0000 28.1488
#
#
#
# Elastic Compliance Matrix: (Units=1/GPa)
#
#
# Indices 1 2 3 4 5 6 
#
# 1 0.009869 -0.003357 -0.001179 0.000000 0.000000 0.000000
# 2 -0.003357 0.011205 -0.001970 0.000000 0.000000 0.000000
# 3 -0.001179 -0.001970 0.013048 0.000000 0.000000 0.000000
# 4 0.000000 0.000000 0.000000 0.038388 0.000000 0.000000
# 5 0.000000 0.000000 0.000000 0.000000 0.027250 0.000000
# 6 0.000000 0.000000 0.000000 0.000000 0.000000 0.035526
#
#
# Mechanical properties :
#
#
# Convention : Reuss Voigt Hill
#
# Bulk Modulus (GPa) = 47.37061 49.62357 48.49709
# Shear Modulus (GPa) = 32.18873 33.38231 32.78552
#
# Velocity S-wave (km/s) = 3.87751 3.94874 3.91329
# Velocity P-wave (km/s) = 6.49408 6.63090 6.56285
#
# Compressibility (1/GPa) = 0.02111014
#
# Stress axis : x y z
#
# Youngs Moduli (GPa) = 101.32997 89.24340 76.64062
#
# Poissons Ratio (x) = 0.29959 0.09034
# Poissons Ratio (y) = 0.34016 0.15100
# Poissons Ratio (z) = 0.11944 0.17583
#
# Static dielectric constant tensor:
#      x y z
#    x 3.916300 0.000000 0.000000 
#    y 0.000000 4.191430 0.000000 
#    z 0.000000 0.000000 4.913170 
# 
# 
# High freq. dielectric constant tensor:
#      x y z
#    x 1.846760 0.000000 0.000000 
#    y 0.000000 1.844950 0.000000 
#    z 0.000000 0.000000 1.850630 
# 
# From -- ./inp_files/19691.got.cif
#   From: 2010.03.12/outbox.cif.g09.slc.cpg/sg53_10_cif.got.tgz:19691.got - 2010.04.16 14:36:59.
