data_PCOD8222614
_publ_section_title
;
Structure prediction by ZEFSAII (Michael W. Deem and Ramdas Pophale) SiO2 
 PCOD8222614
Probable space group: P C C A
;
_chemical_formula_sum "Si O2"
_cell_formula_units_Z 56
_cell_length_a 15.698299
_cell_length_b 4.911897
_cell_length_c 33.063990
_cell_angle_alpha 90.000000
_cell_angle_beta 90.000000
_cell_angle_gamma 90.000000
_cell_volume 2549.512284
_symmetry_space_group_name_H-M "P C C A"
_symmetry_group_IT_number 54
_symmetry_cell_setting 'orthorhombic'
loop_
_space_group_symop_operation_xyz
x,y,z
1/2-x,-y,z
1/2+x,-y,1/2-z
-x,y,1/2-z
-x,-y,-z
1/2+x,y,-z
1/2-x,y,1/2+z
x,-y,1/2+z
loop_
_atom_site_type_symbol
_atom_site_label
_atom_site_fract_x
_atom_site_fract_y
_atom_site_fract_z
Si Si1 0.010906 0.489855 0.952558
Si Si2 0.399274 0.958527 0.637417
Si Si3 0.594159 0.376826 0.235263
Si Si4 0.842652 0.880943 0.777683
Si Si5 0.193124 0.759246 0.341767
Si Si6 0.071190 0.012836 0.906366
Si Si7 0.843032 0.536917 0.905645
O O1 0.062854 0.218214 0.943602
O O2 0.914149 0.458655 0.937845
O O3 0.064314 0.720470 0.928290
O O4 0.000000 0.500000 0.000000
O O5 0.498312 0.943671 0.626962
O O6 0.355690 0.659857 0.633878
O O7 0.394117 0.096320 0.680844
O O8 0.350331 0.149093 0.605818
O O9 0.500000 0.470761 0.250000
O O10 0.658902 0.575573 0.259593
O O11 0.619179 0.370805 0.187498
O O12 0.606184 0.064337 0.246386
O O13 0.750000 0.000000 0.785506
O O14 0.250000 0.500000 0.355283
O O15 0.156672 0.917152 0.381391
O O16 0.250000 0.000000 0.319929
O O17 0.750000 0.500000 0.925099
#
# Coordination Sequence:
#
# PCOD8222614 Si02
#       7
#     8   8   8   8   8   8   8
#     4  10  21  39  64  93 126 161 200 253 313 376
#     4  10  21  36  58  85 117 152 193 243 301 372
#     4  12  26  42  61  86 120 164 215 265 321 372
#     4  12  23  38  59  88 120 154 199 258 316 366
#     4  12  25  44  66  90 126 171 219 273 320 377
#     4  10  22  41  65  90 120 163 209 247 308 384
#     4  10  19  34  56  86 118 155 193 237 300 371
#
# _framework density 21.964984000000001
#
# number of rings (size 3 to 8) (size 9 to 14) (size 15 to 20)
#    0.000    1.143    0.000    7.286    0.000    3.429 
#    0.000    2.143    0.000    1.714    0.000    0.000 
#    0.000    0.000    0.000    0.000    0.000    0.000 
#
# Total GULP energy -693978.876813 kJ/mol
# GULP energy per Si atom -12392.479943 kJ/mol
# Density = 2.191499 g / cm^3
# Si number density = 21.964984 Si / 1000 Ang^3
#
#
#
# Elastic Constant Matrix: (Units=GPa)
#
#
# Indices 1 2 3 4 5 6 
#
# 1 87.1952 29.5255 27.3764 0.0000 0.0000 0.0000
# 2 29.5255 93.8947 10.0776 0.0000 0.0000 0.0000
# 3 27.3764 10.0776 101.7067 0.0000 0.0000 0.0000
# 4 0.0000 0.0000 0.0000 31.4456 0.0000 0.0000
# 5 0.0000 0.0000 0.0000 0.0000 14.9714 0.0000
# 6 0.0000 0.0000 0.0000 0.0000 0.0000 33.7717
#
#
#
# Elastic Compliance Matrix: (Units=1/GPa)
#
#
# Indices 1 2 3 4 5 6 
#
# 1 0.013872 -0.004004 -0.003337 0.000000 0.000000 0.000000
# 2 -0.004004 0.011920 -0.000103 0.000000 0.000000 0.000000
# 3 -0.003337 -0.000103 0.010741 0.000000 0.000000 0.000000
# 4 0.000000 0.000000 0.000000 0.031801 0.000000 0.000000
# 5 0.000000 0.000000 0.000000 0.000000 0.066794 0.000000
# 6 0.000000 0.000000 0.000000 0.000000 0.000000 0.029611
#
#
# Mechanical properties :
#
#
# Convention : Reuss Voigt Hill
#
# Bulk Modulus (GPa) = 46.20203 46.30619 46.25411
# Shear Modulus (GPa) = 26.76052 30.42555 28.59303
#
# Velocity S-wave (km/s) = 3.49424 3.72584 3.61190
# Velocity P-wave (km/s) = 6.11226 6.29578 6.20470
#
# Compressibility (1/GPa) = 0.02164407
#
# Stress axis : x y z
#
# Youngs Moduli (GPa) = 72.08722 83.88994 93.10368
#
# Poissons Ratio (x) = 0.33589 0.31071
# Poissons Ratio (y) = 0.28863 0.00963
# Poissons Ratio (z) = 0.24057 0.00867
#
# Static dielectric constant tensor:
#      x y z
#    x 4.113720 0.000000 0.000000 
#    y 0.000000 4.315270 0.000000 
#    z 0.000000 0.000000 3.756320 
# 
# 
# High freq. dielectric constant tensor:
#      x y z
#    x 1.861780 0.000000 0.000000 
#    y 0.000000 1.885810 0.000000 
#    z 0.000000 0.000000 1.838070 
# 
# From -- ./inp_files/28252.got.cif
#   From: 2010.03.12/outbox.cif.g09.slc.cpg/sg54_15_cif.got.tgz:28252.got - 2010.04.16 15:00:50.
