data_PCOD8222496
_publ_section_title
;
Structure prediction by ZEFSAII (Michael W. Deem and Ramdas Pophale) SiO2 
 PCOD8222496
Probable space group: P C C A
;
_chemical_formula_sum "Si O2"
_cell_formula_units_Z 40
_cell_length_a 9.550862
_cell_length_b 8.922394
_cell_length_c 22.554017
_cell_angle_alpha 90.000000
_cell_angle_beta 90.000000
_cell_angle_gamma 90.000000
_cell_volume 1921.975603
_symmetry_space_group_name_H-M "P C C A"
_symmetry_group_IT_number 54
_symmetry_cell_setting 'orthorhombic'
loop_
_space_group_symop_operation_xyz
x,y,z
1/2-x,-y,z
1/2+x,-y,1/2-z
-x,y,1/2-z
-x,-y,-z
1/2+x,y,-z
1/2-x,y,1/2+z
x,-y,1/2+z
loop_
_atom_site_type_symbol
_atom_site_label
_atom_site_fract_x
_atom_site_fract_y
_atom_site_fract_z
Si Si1 0.988976 0.747579 0.330073
Si Si2 0.500000 0.482758 0.750000
Si Si3 0.822679 0.755287 0.683595
Si Si4 0.000000 0.003009 0.250000
Si Si5 0.867464 0.387440 0.066671
Si Si6 0.874219 0.400787 0.936312
O O1 0.927883 0.739218 0.396555
O O2 0.937616 0.591423 0.300857
O O3 0.156198 0.763248 0.322743
O O4 0.921958 0.892193 0.297348
O O5 0.626511 0.384714 0.723239
O O6 0.883733 0.902906 0.714816
O O7 0.883692 0.742941 0.616069
O O8 0.750000 0.500000 0.092179
O O9 0.007459 0.476745 0.057720
O O10 0.828172 0.329389 0.000266
O O11 0.750000 0.500000 0.908310
#
# Coordination Sequence:
#
# PCOD8222496 Si02
#       6
#     8   4   8   4   8   8
#     4  11  21  40  59  86 124 164 199 258 311 367
#     4  10  20  32  60  88 106 154 212 252 298 368
#     4  11  20  40  60  85 118 168 202 252 309 373
#     4  10  26  38  56  86 120 166 216 250 292 364
#     4  10  18  37  63  93 122 157 203 256 316 369
#     4  10  21  34  61  99 126 148 200 267 308 364
#
# _framework density 20.811917999999999
#
# number of rings (size 3 to 8) (size 9 to 14) (size 15 to 20)
#    0.000    1.600    4.000    1.200    0.000    3.200 
#    3.600    1.000    0.000    0.000    0.000    0.000 
#    0.000    0.000    0.000    0.000    0.000    0.000 
#
# Total GULP energy -495554.901983 kJ/mol
# GULP energy per Si atom -12388.872550 kJ/mol
# Density = 2.076455 g / cm^3
# Si number density = 20.811918 Si / 1000 Ang^3
#
#
#
# Elastic Constant Matrix: (Units=GPa)
#
#
# Indices 1 2 3 4 5 6 
#
# 1 92.9819 31.6898 44.9351 0.0000 0.0000 0.0000
# 2 31.6898 122.9543 70.5227 0.0000 0.0000 0.0000
# 3 44.9351 70.5227 160.3090 0.0000 0.0000 0.0000
# 4 0.0000 0.0000 0.0000 42.6265 0.0000 0.0000
# 5 0.0000 0.0000 0.0000 0.0000 28.5665 0.0000
# 6 0.0000 0.0000 0.0000 0.0000 0.0000 21.4679
#
#
#
# Elastic Compliance Matrix: (Units=1/GPa)
#
#
# Indices 1 2 3 4 5 6 
#
# 1 0.012684 -0.001645 -0.002832 0.000000 0.000000 0.000000
# 2 -0.001645 0.011091 -0.004418 0.000000 0.000000 0.000000
# 3 -0.002832 -0.004418 0.008975 0.000000 0.000000 0.000000
# 4 0.000000 0.000000 0.000000 0.023460 0.000000 0.000000
# 5 0.000000 0.000000 0.000000 0.000000 0.035006 0.000000
# 6 0.000000 0.000000 0.000000 0.000000 0.000000 0.046581
#
#
# Mechanical properties :
#
#
# Convention : Reuss Voigt Hill
#
# Bulk Modulus (GPa) = 66.84116 74.50450 70.67283
# Shear Modulus (GPa) = 31.13837 33.80533 32.47185
#
# Velocity S-wave (km/s) = 3.87224 4.03466 3.95429
# Velocity P-wave (km/s) = 7.22349 7.58824 7.40811
#
# Compressibility (1/GPa) = 0.01496084
#
# Stress axis : x y z
#
# Youngs Moduli (GPa) = 78.84027 90.16202 111.41699
#
# Poissons Ratio (x) = 0.14831 0.31550
# Poissons Ratio (y) = 0.12969 0.49225
# Poissons Ratio (z) = 0.22325 0.39835
#
# Static dielectric constant tensor:
#      x y z
#    x 3.513650 0.000000 0.000000 
#    y 0.000000 3.685340 0.000000 
#    z 0.000000 0.000000 4.550400 
# 
# 
# High freq. dielectric constant tensor:
#      x y z
#    x 1.812070 0.000000 0.000000 
#    y 0.000000 1.778550 0.000000 
#    z 0.000000 0.000000 1.831790 
# 
# From -- ./inp_files/23324.got.cif
#   From: 2010.03.12/outbox.cif.g09.slc.cpg/sg54_12_cif.got.tgz:23324.got - 2010.04.16 15:00:50.
