data_PCOD8222926
_publ_section_title
;
Structure prediction by ZEFSAII (Michael W. Deem and Ramdas Pophale) SiO2 
 PCOD8222926
Probable space group: P C C A
;
_chemical_formula_sum "Si O2"
_cell_formula_units_Z 52
_cell_length_a 9.559201
_cell_length_b 16.157787
_cell_length_c 16.811039
_cell_angle_alpha 90.000000
_cell_angle_beta 90.000000
_cell_angle_gamma 90.000000
_cell_volume 2596.558000
_symmetry_space_group_name_H-M "P C C A"
_symmetry_group_IT_number 54
_symmetry_cell_setting 'orthorhombic'
loop_
_space_group_symop_operation_xyz
x,y,z
1/2-x,-y,z
1/2+x,-y,1/2-z
-x,y,1/2-z
-x,-y,-z
1/2+x,y,-z
1/2-x,y,1/2+z
x,-y,1/2+z
loop_
_atom_site_type_symbol
_atom_site_label
_atom_site_fract_x
_atom_site_fract_y
_atom_site_fract_z
Si Si1 0.213240 0.733539 0.712355
Si Si2 0.500000 0.819958 0.750000
Si Si3 0.980431 0.841886 0.079998
Si Si4 0.703406 0.093615 0.535119
Si Si5 0.751192 0.595419 0.912947
Si Si6 0.942499 0.779488 0.635219
Si Si7 0.996965 0.327538 0.511369
O O1 0.368990 0.768669 0.715797
O O2 0.220030 0.644554 0.669200
O O3 0.149351 0.729494 0.800376
O O4 0.104539 0.791224 0.662027
O O5 0.456212 0.872725 0.828309
O O6 0.849960 0.860591 0.023139
O O7 0.979650 0.741829 0.080304
O O8 0.114912 0.890118 0.044991
O O9 0.620659 0.130272 0.612334
O O10 0.750000 0.000000 0.550016
O O11 0.750000 0.500000 0.889693
O O12 0.598790 0.605891 0.950402
O O13 0.860430 0.624087 0.981006
O O14 0.927271 0.721816 0.558985
#
# Coordination Sequence:
#
# PCOD8222926 Si02
#       7
#     8   4   8   8   8   8   8
#     4  10  21  39  61  87 119 165 211 251 307 379
#     4  12  22  38  64  92 120 158 228 252 296 374
#     4  11  23  40  65  92 124 170 216 255 308 388
#     4  11  23  41  65  97 128 161 210 266 321 367
#     4  11  22  37  58  90 125 157 202 266 319 362
#     4   9  20  39  65  84 119 165 211 248 309 386
#     4  10  20  37  63  85 116 162 210 246 303 380
#
# _framework density 20.026512
#
# number of rings (size 3 to 8) (size 9 to 14) (size 15 to 20)
#    0.000    1.538    3.077    2.769    4.308    0.000 
#    0.000    6.154    0.000    0.000    0.000    0.000 
#    0.000    0.000    0.000    0.000    0.000    0.000 
#
# Total GULP energy -644221.732762 kJ/mol
# GULP energy per Si atom -12388.879476 kJ/mol
# Density = 1.998093 g / cm^3
# Si number density = 20.026512 Si / 1000 Ang^3
#
#
#
# Elastic Constant Matrix: (Units=GPa)
#
#
# Indices 1 2 3 4 5 6 
#
# 1 122.2861 47.6777 33.0954 0.0000 0.0000 0.0000
# 2 47.6777 111.3926 32.2838 0.0000 0.0000 0.0000
# 3 33.0954 32.2838 119.0992 0.0000 0.0000 0.0000
# 4 0.0000 0.0000 0.0000 13.2065 0.0000 0.0000
# 5 0.0000 0.0000 0.0000 0.0000 23.1046 0.0000
# 6 0.0000 0.0000 0.0000 0.0000 0.0000 27.2675
#
#
#
# Elastic Compliance Matrix: (Units=1/GPa)
#
#
# Indices 1 2 3 4 5 6 
#
# 1 0.010153 -0.003829 -0.001783 0.000000 0.000000 0.000000
# 2 -0.003829 0.011186 -0.001968 0.000000 0.000000 0.000000
# 3 -0.001783 -0.001968 0.009426 0.000000 0.000000 0.000000
# 4 0.000000 0.000000 0.000000 0.075720 0.000000 0.000000
# 5 0.000000 0.000000 0.000000 0.000000 0.043281 0.000000
# 6 0.000000 0.000000 0.000000 0.000000 0.000000 0.036674
#
#
# Mechanical properties :
#
#
# Convention : Reuss Voigt Hill
#
# Bulk Modulus (GPa) = 64.08674 64.32128 64.20401
# Shear Modulus (GPa) = 24.17760 28.69712 26.43736
#
# Velocity S-wave (km/s) = 3.47836 3.78955 3.63728
# Velocity P-wave (km/s) = 6.94280 7.16487 7.05471
#
# Compressibility (1/GPa) = 0.01560385
#
# Stress axis : x y z
#
# Youngs Moduli (GPa) = 98.49306 89.39366 106.09512
#
# Poissons Ratio (x) = 0.34227 0.18922
# Poissons Ratio (y) = 0.37710 0.20883
# Poissons Ratio (z) = 0.17566 0.17596
#
# Static dielectric constant tensor:
#      x y z
#    x 4.113000 0.000000 0.000000 
#    y 0.000000 3.483320 0.000000 
#    z 0.000000 0.000000 3.844770 
# 
# 
# High freq. dielectric constant tensor:
#      x y z
#    x 1.805800 0.000000 0.000000 
#    y 0.000000 1.742670 0.000000 
#    z 0.000000 0.000000 1.788660 
# 
# From -- ./inp_files/16772.got.cif
#   From: 2010.03.12/outbox.cif.g09.slc.cpg/sg54_9_cif.got.tgz:16772.got - 2010.04.16 15:00:50.
