data_PCOD8222608
_publ_section_title
;
Structure prediction by ZEFSAII (Michael W. Deem and Ramdas Pophale) SiO2 
 PCOD8222608
Probable space group: P C C A
;
_chemical_formula_sum "Si O2"
_cell_formula_units_Z 60
_cell_length_a 13.459854
_cell_length_b 9.787743
_cell_length_c 22.617291
_cell_angle_alpha 90.000000
_cell_angle_beta 90.000000
_cell_angle_gamma 90.000000
_cell_volume 2979.637918
_symmetry_space_group_name_H-M "P C C A"
_symmetry_group_IT_number 54
_symmetry_cell_setting 'orthorhombic'
loop_
_space_group_symop_operation_xyz
x,y,z
1/2-x,-y,z
1/2+x,-y,1/2-z
-x,y,1/2-z
-x,-y,-z
1/2+x,y,-z
1/2-x,y,1/2+z
x,-y,1/2+z
loop_
_atom_site_type_symbol
_atom_site_label
_atom_site_fract_x
_atom_site_fract_y
_atom_site_fract_z
Si Si1 0.468881 0.369190 0.397150
Si Si2 0.602657 0.261100 0.500299
Si Si3 0.573154 0.868595 0.298541
Si Si4 0.567763 0.902710 0.659589
Si Si5 0.139573 0.026166 0.963873
Si Si6 0.326548 0.321780 0.496418
Si Si7 0.250000 0.000000 0.764683
Si Si8 0.541469 0.652910 0.399773
O O1 0.551717 0.318484 0.442741
O O2 0.454664 0.259754 0.344432
O O3 0.368369 0.389647 0.436060
O O4 0.503646 0.512762 0.368555
O O5 0.709052 0.333760 0.504979
O O6 0.549351 0.290411 0.561966
O O7 0.606475 0.096659 0.493202
O O8 0.500000 0.799346 0.250000
O O9 0.685821 0.894081 0.275507
O O10 0.578609 0.764166 0.352884
O O11 0.524512 0.017156 0.311838
O O12 0.573269 0.964808 0.594233
O O13 0.670988 0.918284 0.695152
O O14 0.133139 0.165589 0.000829
O O15 0.250000 0.000000 0.940411
O O16 0.369024 0.390274 0.555927
#
# Coordination Sequence:
#
# PCOD8222608 Si02
#       8
#     8   8   8   8   8   8   4   8
#     4  10  23  34  57  89 120 157 191 221 288 367
#     4  10  19  34  55  87 130 154 189 228 283 359
#     4  10  23  40  64  84 107 151 198 258 304 335
#     4  10  19  38  63  83 113 148 191 249 304 339
#     4   9  16  29  55  90 114 149 187 231 277 348
#     4   9  20  32  54  87 122 160 188 227 281 348
#     4  10  22  42  64  88 108 138 214 264 302 350
#     4  11  22  38  55  87 124 157 192 236 286 350
#
# _framework density 20.136675
#
# number of rings (size 3 to 8) (size 9 to 14) (size 15 to 20)
#    0.000    2.133    2.000    1.600    1.867    4.800 
#    1.200    2.000    0.000    3.200    0.000    0.000 
#    0.000    0.000    0.000    0.000    0.000    0.000 
#
# Total GULP energy -743733.286742 kJ/mol
# GULP energy per Si atom -12395.554779 kJ/mol
# Density = 2.009084 g / cm^3
# Si number density = 20.136675 Si / 1000 Ang^3
#
#
#
# Elastic Constant Matrix: (Units=GPa)
#
#
# Indices 1 2 3 4 5 6 
#
# 1 111.7261 33.2605 31.8875 0.0000 0.0000 0.0000
# 2 33.2605 103.1524 30.2709 0.0000 0.0000 0.0000
# 3 31.8875 30.2709 63.6626 0.0000 0.0000 0.0000
# 4 0.0000 0.0000 0.0000 15.2789 0.0000 0.0000
# 5 0.0000 0.0000 0.0000 0.0000 17.6768 0.0000
# 6 0.0000 0.0000 0.0000 0.0000 0.0000 24.1630
#
#
#
# Elastic Compliance Matrix: (Units=1/GPa)
#
#
# Indices 1 2 3 4 5 6 
#
# 1 0.010862 -0.002215 -0.004387 0.000000 0.000000 0.000000
# 2 -0.002215 0.011718 -0.004462 0.000000 0.000000 0.000000
# 3 -0.004387 -0.004462 0.020027 0.000000 0.000000 0.000000
# 4 0.000000 0.000000 0.000000 0.065450 0.000000 0.000000
# 5 0.000000 0.000000 0.000000 0.000000 0.056571 0.000000
# 6 0.000000 0.000000 0.000000 0.000000 0.000000 0.041386
#
#
# Mechanical properties :
#
#
# Convention : Reuss Voigt Hill
#
# Bulk Modulus (GPa) = 48.83321 52.15321 50.49321
# Shear Modulus (GPa) = 21.27937 23.63190 22.45564
#
# Velocity S-wave (km/s) = 3.25429 3.42946 3.34303
# Velocity P-wave (km/s) = 6.19872 6.45271 6.32699
#
# Compressibility (1/GPa) = 0.02047787
#
# Stress axis : x y z
#
# Youngs Moduli (GPa) = 92.06392 85.33816 49.93195
#
# Poissons Ratio (x) = 0.18901 0.21907
# Poissons Ratio (y) = 0.20390 0.22282
# Poissons Ratio (z) = 0.40393 0.38082
#
# Static dielectric constant tensor:
#      x y z
#    x 3.829940 0.000000 0.000000 
#    y 0.000000 3.835950 0.000000 
#    z 0.000000 0.000000 3.431180 
# 
# 
# High freq. dielectric constant tensor:
#      x y z
#    x 1.796380 0.000000 0.000000 
#    y 0.000000 1.786480 0.000000 
#    z 0.000000 0.000000 1.755690 
# 
# From -- ./inp_files/24479.got.cif
#   From: 2010.03.12/outbox.cif.g09.slc.cpg/sg54_13_cif.got.tgz:24479.got - 2010.04.16 15:00:50.
