data_PCOD8222693
_publ_section_title
;
Structure prediction by ZEFSAII (Michael W. Deem and Ramdas Pophale) SiO2 
 PCOD8222693
Probable space group: P C C A
;
_chemical_formula_sum "Si O2"
_cell_formula_units_Z 64
_cell_length_a 17.990574
_cell_length_b 11.908248
_cell_length_c 15.664148
_cell_angle_alpha 90.000000
_cell_angle_beta 90.000000
_cell_angle_gamma 90.000000
_cell_volume 3355.827808
_symmetry_space_group_name_H-M "P C C A"
_symmetry_group_IT_number 54
_symmetry_cell_setting 'orthorhombic'
loop_
_space_group_symop_operation_xyz
x,y,z
1/2-x,-y,z
1/2+x,-y,1/2-z
-x,y,1/2-z
-x,-y,-z
1/2+x,y,-z
1/2-x,y,1/2+z
x,-y,1/2+z
loop_
_atom_site_type_symbol
_atom_site_label
_atom_site_fract_x
_atom_site_fract_y
_atom_site_fract_z
Si Si1 0.662862 0.775380 0.766431
Si Si2 0.964942 0.260442 0.342043
Si Si3 0.413687 0.279405 0.061398
Si Si4 0.332953 0.008684 0.819857
Si Si5 0.453325 0.367990 0.331508
Si Si6 0.954884 0.080939 0.057811
Si Si7 0.410311 0.401508 0.901618
Si Si8 0.830139 0.742964 0.741156
O O1 0.643720 0.746044 0.863562
O O2 0.607038 0.720981 0.699121
O O3 0.743478 0.720451 0.753119
O O4 0.658697 0.908787 0.749508
O O5 0.876668 0.284424 0.328397
O O6 0.000000 0.266499 0.250000
O O7 0.984637 0.138801 0.380244
O O8 0.003672 0.358085 0.397975
O O9 0.494425 0.305458 0.100765
O O10 0.413543 0.172681 0.999389
O O11 0.385962 0.383145 0.000889
O O12 0.394410 0.003400 0.893863
O O13 0.345867 0.126096 0.773189
O O14 0.250000 0.000000 0.860178
O O15 0.500000 0.413925 0.250000
O O16 0.408642 0.468641 0.376409
O O17 0.000000 0.000000 0.000000
O O18 0.357276 0.330012 0.839300
#
# Coordination Sequence:
#
# PCOD8222693 Si02
#       8
#     8   8   8   8   8   8   8   8
#     4  10  23  37  58  85 122 154 194 234 294 363
#     4   9  17  33  56  79 102 147 193 234 273 339
#     4  10  21  38  55  90 117 149 191 253 296 335
#     4  10  20  38  56  78 117 161 193 226 291 363
#     4  10  20  37  60  87 113 154 195 238 297 351
#     4  11  21  33  54  84 116 147 194 246 287 336
#     4  10  19  37  63  83 115 149 197 248 292 340
#     4  10  19  38  59  83 112 159 199 229 289 353
#
# _framework density 19.071300999999998
#
# number of rings (size 3 to 8) (size 9 to 14) (size 15 to 20)
#    0.000    2.000    3.750    2.250    1.750    0.500 
#    2.250    2.500    0.000    4.500    0.000    0.000 
#    0.000    0.000    0.000    0.000    0.000    0.000 
#
# Total GULP energy -793256.595207 kJ/mol
# GULP energy per Si atom -12394.634300 kJ/mol
# Density = 1.902789 g / cm^3
# Si number density = 19.071301 Si / 1000 Ang^3
#
#
#
# Elastic Constant Matrix: (Units=GPa)
#
#
# Indices 1 2 3 4 5 6 
#
# 1 102.4936 20.9175 49.7300 0.0000 0.0000 0.0000
# 2 20.9175 62.1890 19.7807 0.0000 0.0000 0.0000
# 3 49.7300 19.7807 95.9201 0.0000 0.0000 0.0000
# 4 0.0000 0.0000 0.0000 30.0753 0.0000 0.0000
# 5 0.0000 0.0000 0.0000 0.0000 25.9911 0.0000
# 6 0.0000 0.0000 0.0000 0.0000 0.0000 17.0844
#
#
#
# Elastic Compliance Matrix: (Units=1/GPa)
#
#
# Indices 1 2 3 4 5 6 
#
# 1 0.013377 -0.002454 -0.006429 0.000000 0.000000 0.000000
# 2 -0.002454 0.017659 -0.002369 0.000000 0.000000 0.000000
# 3 -0.006429 -0.002369 0.014247 0.000000 0.000000 0.000000
# 4 0.000000 0.000000 0.000000 0.033250 0.000000 0.000000
# 5 0.000000 0.000000 0.000000 0.000000 0.038475 0.000000
# 6 0.000000 0.000000 0.000000 0.000000 0.000000 0.058533
#
#
# Mechanical properties :
#
#
# Convention : Reuss Voigt Hill
#
# Bulk Modulus (GPa) = 43.90258 49.05101 46.47680
# Shear Modulus (GPa) = 24.31444 25.97512 25.14478
#
# Velocity S-wave (km/s) = 3.57448 3.69453 3.63500
# Velocity P-wave (km/s) = 6.33294 6.63137 6.48387
#
# Compressibility (1/GPa) = 0.02277770
#
# Stress axis : x y z
#
# Youngs Moduli (GPa) = 74.75461 56.62783 70.18940
#
# Poissons Ratio (x) = 0.13899 0.45126
# Poissons Ratio (y) = 0.18348 0.16629
# Poissons Ratio (z) = 0.48061 0.13416
#
# Static dielectric constant tensor:
#      x y z
#    x 4.117230 0.000000 0.000000 
#    y 0.000000 4.001770 0.000000 
#    z 0.000000 0.000000 3.756470 
# 
# 
# High freq. dielectric constant tensor:
#      x y z
#    x 1.731860 0.000000 0.000000 
#    y 0.000000 1.739480 0.000000 
#    z 0.000000 0.000000 1.740000 
# 
# From -- ./inp_files/14330.got.cif
#   From: 2010.03.12/outbox.cif.g09.slc.cpg/sg54_8_cif.got.tgz:14330.got - 2010.04.16 15:00:50.
