data_PCOD8222771
_publ_section_title
;
Structure prediction by ZEFSAII (Michael W. Deem and Ramdas Pophale) SiO2 
 PCOD8222771
Probable space group: P C C A
;
_chemical_formula_sum "Si O2"
_cell_formula_units_Z 48
_cell_length_a 9.869436
_cell_length_b 10.709683
_cell_length_c 22.913876
_cell_angle_alpha 90.000000
_cell_angle_beta 90.000000
_cell_angle_gamma 90.000000
_cell_volume 2421.963032
_symmetry_space_group_name_H-M "P C C A"
_symmetry_group_IT_number 54
_symmetry_cell_setting 'orthorhombic'
loop_
_space_group_symop_operation_xyz
x,y,z
1/2-x,-y,z
1/2+x,-y,1/2-z
-x,y,1/2-z
-x,-y,-z
1/2+x,y,-z
1/2-x,y,1/2+z
x,-y,1/2+z
loop_
_atom_site_type_symbol
_atom_site_label
_atom_site_fract_x
_atom_site_fract_y
_atom_site_fract_z
Si Si1 0.352162 0.174164 0.888431
Si Si2 0.496692 0.720610 0.492926
Si Si3 0.149837 0.106266 0.265887
Si Si4 0.246698 0.636555 0.063227
Si Si5 0.288361 0.860281 0.645701
Si Si6 0.440388 0.894802 0.910001
O O1 0.431784 0.271405 0.928361
O O2 0.374678 0.202932 0.819182
O O3 0.193431 0.186343 0.899916
O O4 0.412898 0.040328 0.905843
O O5 0.639883 0.650192 0.487133
O O6 0.400702 0.639611 0.534320
O O7 0.509235 0.856479 0.524811
O O8 0.230906 0.162381 0.210803
O O9 0.000000 0.053532 0.250000
O O10 0.250000 0.000000 0.292452
O O11 0.250000 0.500000 0.094003
O O12 0.277238 0.750657 0.107382
O O13 0.451100 0.853712 0.639980
O O14 0.250000 0.000000 0.623162
#
# Coordination Sequence:
#
# PCOD8222771 Si02
#       6
#     8   8   8   8   8   8
#     4  11  20  33  57  88 124 156 194 237 298 351
#     4  11  21  38  56  85 118 154 201 239 292 355
#     4  11  21  33  55  85 119 158 194 239 293 347
#     4  11  23  39  61  85 116 157 196 241 295 354
#     4  10  22  37  59  86 120 148 198 241 293 343
#     4  10  20  34  53  89 123 157 186 241 301 344
#
# _framework density 19.818632999999998
#
# number of rings (size 3 to 8) (size 9 to 14) (size 15 to 20)
#    0.000    1.333    3.333    5.000    0.000    1.333 
#    0.000    0.000    0.000    1.000   17.333    0.000 
#    0.000    0.000    0.000    0.000    0.000    0.000 
#
# Total GULP energy -594734.102045 kJ/mol
# GULP energy per Si atom -12390.293793 kJ/mol
# Density = 1.977352 g / cm^3
# Si number density = 19.818633 Si / 1000 Ang^3
#
#
#
# Elastic Constant Matrix: (Units=GPa)
#
#
# Indices 1 2 3 4 5 6 
#
# 1 107.5192 7.3210 27.7500 0.0000 0.0000 0.0000
# 2 7.3210 94.9156 39.9394 0.0000 0.0000 0.0000
# 3 27.7500 39.9394 115.5685 0.0000 0.0000 0.0000
# 4 0.0000 0.0000 0.0000 9.2136 0.0000 0.0000
# 5 0.0000 0.0000 0.0000 0.0000 24.1111 0.0000
# 6 0.0000 0.0000 0.0000 0.0000 0.0000 12.3536
#
#
#
# Elastic Compliance Matrix: (Units=1/GPa)
#
#
# Indices 1 2 3 4 5 6 
#
# 1 0.009921 0.000278 -0.002478 0.000000 0.000000 0.000000
# 2 0.000278 0.012336 -0.004330 0.000000 0.000000 0.000000
# 3 -0.002478 -0.004330 0.010744 0.000000 0.000000 0.000000
# 4 0.000000 0.000000 0.000000 0.108535 0.000000 0.000000
# 5 0.000000 0.000000 0.000000 0.000000 0.041475 0.000000
# 6 0.000000 0.000000 0.000000 0.000000 0.000000 0.080948
#
#
# Mechanical properties :
#
#
# Convention : Reuss Voigt Hill
#
# Bulk Modulus (GPa) = 50.14853 52.00266 51.07559
# Shear Modulus (GPa) = 17.62622 25.33519 21.48070
#
# Velocity S-wave (km/s) = 2.98548 3.57928 3.29578
# Velocity P-wave (km/s) = 6.10268 6.58619 6.34904
#
# Compressibility (1/GPa) = 0.01994076
#
# Stress axis : x y z
#
# Youngs Moduli (GPa) = 100.79247 81.06186 93.07245
#
# Poissons Ratio (x) = -0.02250 0.23065
# Poissons Ratio (y) = -0.02798 0.40300
# Poissons Ratio (z) = 0.24978 0.35099
#
# Static dielectric constant tensor:
#      x y z
#    x 3.970360 0.000000 0.000000 
#    y 0.000000 3.145020 0.000000 
#    z 0.000000 0.000000 3.705210 
# 
# 
# High freq. dielectric constant tensor:
#      x y z
#    x 1.804920 0.000000 0.000000 
#    y 0.000000 1.711180 0.000000 
#    z 0.000000 0.000000 1.769330 
# 
# From -- ./inp_files/23453.got.cif
#   From: 2010.03.12/outbox.cif.g09.slc.cpg/sg54_12_cif.got.tgz:23453.got - 2010.04.16 15:00:50.
