data_PCOD8222833
_publ_section_title
;
Structure prediction by ZEFSAII (Michael W. Deem and Ramdas Pophale) SiO2 
 PCOD8222833
Probable space group: P C C A
;
_chemical_formula_sum "Si O2"
_cell_formula_units_Z 44
_cell_length_a 16.364206
_cell_length_b 11.003475
_cell_length_c 12.838934
_cell_angle_alpha 90.000000
_cell_angle_beta 90.000000
_cell_angle_gamma 90.000000
_cell_volume 2311.818663
_symmetry_space_group_name_H-M "P C C A"
_symmetry_group_IT_number 54
_symmetry_cell_setting 'orthorhombic'
loop_
_space_group_symop_operation_xyz
x,y,z
1/2-x,-y,z
1/2+x,-y,1/2-z
-x,y,1/2-z
-x,-y,-z
1/2+x,y,-z
1/2-x,y,1/2+z
x,-y,1/2+z
loop_
_atom_site_type_symbol
_atom_site_label
_atom_site_fract_x
_atom_site_fract_y
_atom_site_fract_z
Si Si1 0.181029 0.289577 0.162443
Si Si2 0.750000 0.500000 0.972619
Si Si3 0.515068 0.809038 0.430641
Si Si4 0.349872 0.309996 0.902000
Si Si5 0.300854 0.116170 0.061502
Si Si6 0.481556 0.926461 0.634559
O O1 0.175845 0.319699 0.283121
O O2 0.254217 0.194294 0.148523
O O3 0.098196 0.232348 0.120345
O O4 0.197707 0.411876 0.099744
O O5 0.682684 0.568678 0.042485
O O6 0.448054 0.703518 0.411839
O O7 0.527139 0.835449 0.554175
O O8 0.484860 0.935922 0.378280
O O9 0.310378 0.192194 0.955704
O O10 0.385437 0.075046 0.112041
O O11 0.250000 0.000000 0.027307
O O12 0.500000 0.878340 0.750000
#
# Coordination Sequence:
#
# PCOD8222833 Si02
#       6
#     8   4   8   8   8   8
#     4  11  21  39  61  82 117 155 195 242 300 340
#     4  10  24  40  58  82 112 148 208 252 280 356
#     4  10  21  36  57  87 115 151 196 236 287 361
#     4  10  22  39  59  83 116 154 193 246 298 341
#     4  10  21  36  55  92 121 151 196 233 284 358
#     4  10  20  36  57  85 127 158 189 230 288 354
#
# _framework density 19.032636
#
# number of rings (size 3 to 8) (size 9 to 14) (size 15 to 20)
#    0.000    1.818    1.818    2.182    0.000    4.364 
#    0.000    1.818    0.000    0.000    0.000    0.000 
#    0.000    0.000    0.000    0.000    0.000    0.000 
#
# Total GULP energy -545680.315308 kJ/mol
# GULP energy per Si atom -12401.825348 kJ/mol
# Density = 1.898932 g / cm^3
# Si number density = 19.032636 Si / 1000 Ang^3
#
#
#
# Elastic Constant Matrix: (Units=GPa)
#
#
# Indices 1 2 3 4 5 6 
#
# 1 79.8443 34.1507 37.0743 0.0000 0.0000 0.0000
# 2 34.1507 90.6395 41.5687 0.0000 0.0000 0.0000
# 3 37.0743 41.5687 160.8842 0.0000 0.0000 0.0000
# 4 0.0000 0.0000 0.0000 17.4155 0.0000 0.0000
# 5 0.0000 0.0000 0.0000 0.0000 16.1081 0.0000
# 6 0.0000 0.0000 0.0000 0.0000 0.0000 28.7000
#
#
#
# Elastic Compliance Matrix: (Units=1/GPa)
#
#
# Indices 1 2 3 4 5 6 
#
# 1 0.015688 -0.004824 -0.002369 0.000000 0.000000 0.000000
# 2 -0.004824 0.013999 -0.002505 0.000000 0.000000 0.000000
# 3 -0.002369 -0.002505 0.007409 0.000000 0.000000 0.000000
# 4 0.000000 0.000000 0.000000 0.057420 0.000000 0.000000
# 5 0.000000 0.000000 0.000000 0.000000 0.062081 0.000000
# 6 0.000000 0.000000 0.000000 0.000000 0.000000 0.034843
#
#
# Mechanical properties :
#
#
# Convention : Reuss Voigt Hill
#
# Bulk Modulus (GPa) = 56.49994 61.88392 59.19193
# Shear Modulus (GPa) = 23.06948 27.01633 25.04290
#
# Velocity S-wave (km/s) = 3.48530 3.77168 3.63131
# Velocity P-wave (km/s) = 6.77840 7.18002 6.98210
#
# Compressibility (1/GPa) = 0.01769913
#
# Stress axis : x y z
#
# Youngs Moduli (GPa) = 63.74434 71.43130 134.97476
#
# Poissons Ratio (x) = 0.34462 0.31969
# Poissons Ratio (y) = 0.30753 0.33816
# Poissons Ratio (z) = 0.15098 0.17896
#
# Static dielectric constant tensor:
#      x y z
#    x 3.598280 0.000000 0.000000 
#    y 0.000000 3.557980 0.000000 
#    z 0.000000 0.000000 3.567130 
# 
# 
# High freq. dielectric constant tensor:
#      x y z
#    x 1.744770 0.000000 0.000000 
#    y 0.000000 1.732830 0.000000 
#    z 0.000000 0.000000 1.746970 
# 
# From -- ./inp_files/8873.got.cif
#   From: 2010.03.12/outbox.cif.g09.slc.cpg/sg54_5_cif.got.tgz:8873.got - 2010.04.16 15:00:50.
