data_PCOD8222702
_publ_section_title
;
Structure prediction by ZEFSAII (Michael W. Deem and Ramdas Pophale) SiO2 
 PCOD8222702
Probable space group: P C C A
;
_chemical_formula_sum "Si O2"
_cell_formula_units_Z 36
_cell_length_a 12.494088
_cell_length_b 10.130061
_cell_length_c 13.453745
_cell_angle_alpha 90.000000
_cell_angle_beta 90.000000
_cell_angle_gamma 90.000000
_cell_volume 1702.784989
_symmetry_space_group_name_H-M "P C C A"
_symmetry_group_IT_number 54
_symmetry_cell_setting 'orthorhombic'
loop_
_space_group_symop_operation_xyz
x,y,z
1/2-x,-y,z
1/2+x,-y,1/2-z
-x,y,1/2-z
-x,-y,-z
1/2+x,y,-z
1/2-x,y,1/2+z
x,-y,1/2+z
loop_
_atom_site_type_symbol
_atom_site_label
_atom_site_fract_x
_atom_site_fract_y
_atom_site_fract_z
Si Si1 0.250000 0.000000 0.974474
Si Si2 0.871481 0.187844 0.660460
Si Si3 0.390264 0.138412 0.115002
Si Si4 0.052679 0.520966 0.350676
Si Si5 0.847735 0.594220 0.474209
O O1 0.275532 0.871290 0.906146
O O2 0.148359 0.983592 0.048044
O O3 0.855509 0.128544 0.770268
O O4 0.875285 0.347262 0.667836
O O5 0.982173 0.143343 0.609619
O O6 0.325964 0.258464 0.062030
O O7 0.129496 0.415263 0.406114
O O8 0.000000 0.464376 0.250000
O O9 0.953631 0.548081 0.420286
O O10 0.750000 0.500000 0.443432
#
# Coordination Sequence:
#
# PCOD8222702 Si02
#       5
#     4   8   8   8   8
#     4  12  22  34  62  90 110 152 208 240 272 354
#     4  10  20  40  60  80 118 159 186 239 303 335
#     4  10  21  40  58  82 120 154 191 239 298 340
#     4  10  19  38  60  79 120 153 181 236 299 343
#     4  10  20  35  60  88 109 150 194 232 287 354
#
# _framework density 21.141835
#
# number of rings (size 3 to 8) (size 9 to 14) (size 15 to 20)
#    0.000    1.778    4.444    2.667    0.000    0.889 
#    4.000    0.000   14.667    0.000    0.000    0.000 
#    0.000    0.000    0.000    0.000    0.000    0.000 
#
# Total GULP energy -445999.531203 kJ/mol
# GULP energy per Si atom -12388.875867 kJ/mol
# Density = 2.109372 g / cm^3
# Si number density = 21.141835 Si / 1000 Ang^3
#
#
#
# Elastic Constant Matrix: (Units=GPa)
#
#
# Indices 1 2 3 4 5 6 
#
# 1 34.7994 16.3851 27.0107 0.0000 0.0000 0.0000
# 2 16.3851 43.0847 34.2025 0.0000 0.0000 0.0000
# 3 27.0107 34.2025 120.9885 0.0000 0.0000 0.0000
# 4 0.0000 0.0000 0.0000 41.5905 0.0000 0.0000
# 5 0.0000 0.0000 0.0000 0.0000 26.4837 0.0000
# 6 0.0000 0.0000 0.0000 0.0000 0.0000 16.9279
#
#
#
# Elastic Compliance Matrix: (Units=1/GPa)
#
#
# Indices 1 2 3 4 5 6 
#
# 1 0.037767 -0.009889 -0.005636 0.000000 0.000000 0.000000
# 2 -0.009889 0.032515 -0.006984 0.000000 0.000000 0.000000
# 3 -0.005636 -0.006984 0.011498 0.000000 0.000000 0.000000
# 4 0.000000 0.000000 0.000000 0.024044 0.000000 0.000000
# 5 0.000000 0.000000 0.000000 0.000000 0.037759 0.000000
# 6 0.000000 0.000000 0.000000 0.000000 0.000000 0.059074
#
#
# Mechanical properties :
#
#
# Convention : Reuss Voigt Hill
#
# Bulk Modulus (GPa) = 27.20185 39.34102 33.27144
# Shear Modulus (GPa) = 19.23609 25.08537 22.16073
#
# Velocity S-wave (km/s) = 3.01966 3.44834 3.24109
# Velocity P-wave (km/s) = 5.00521 5.87395 5.45689
#
# Compressibility (1/GPa) = 0.03676220
#
# Stress axis : x y z
#
# Youngs Moduli (GPa) = 26.47836 30.75506 86.97289
#
# Poissons Ratio (x) = 0.30412 0.49018
# Poissons Ratio (y) = 0.26183 0.60743
# Poissons Ratio (z) = 0.14923 0.21480
#
# Static dielectric constant tensor:
#      x y z
#    x 3.840090 0.000000 0.000000 
#    y 0.000000 3.841760 0.000000 
#    z 0.000000 0.000000 4.348290 
# 
# 
# High freq. dielectric constant tensor:
#      x y z
#    x 1.823300 0.000000 0.000000 
#    y 0.000000 1.797150 0.000000 
#    z 0.000000 0.000000 1.845010 
# 
# From -- ./inp_files/8152.got.cif
#   From: 2010.03.12/outbox.cif.g09.slc.cpg/sg54_5_cif.got.tgz:8152.got - 2010.04.16 15:00:50.
