data_PCOD8222997
_publ_section_title
;
Structure prediction by ZEFSAII (Michael W. Deem and Ramdas Pophale) SiO2 
 PCOD8222997
Probable space group: P C C A
;
_chemical_formula_sum "Si O2"
_cell_formula_units_Z 44
_cell_length_a 14.407031
_cell_length_b 7.732427
_cell_length_c 18.184010
_cell_angle_alpha 90.000000
_cell_angle_beta 90.000000
_cell_angle_gamma 90.000000
_cell_volume 2025.722635
_symmetry_space_group_name_H-M "P C C A"
_symmetry_group_IT_number 54
_symmetry_cell_setting 'orthorhombic'
loop_
_space_group_symop_operation_xyz
x,y,z
1/2-x,-y,z
1/2+x,-y,1/2-z
-x,y,1/2-z
-x,-y,-z
1/2+x,y,-z
1/2-x,y,1/2+z
x,-y,1/2+z
loop_
_atom_site_type_symbol
_atom_site_label
_atom_site_fract_x
_atom_site_fract_y
_atom_site_fract_z
Si Si1 0.458239 0.694946 0.408606
Si Si2 0.576494 0.989374 0.689125
Si Si3 0.645752 0.769092 0.945012
Si Si4 0.250000 0.000000 0.221304
Si Si5 0.503317 0.648349 0.837924
Si Si6 0.340266 0.834440 0.088935
O O1 0.411952 0.690072 0.487987
O O2 0.444337 0.509242 0.371002
O O3 0.569102 0.718188 0.413598
O O4 0.408164 0.842456 0.360847
O O5 0.500000 0.037273 0.750000
O O6 0.545544 0.828685 0.638416
O O7 0.670387 0.923552 0.727020
O O8 0.607181 0.669449 0.872063
O O9 0.756891 0.740213 0.956319
O O10 0.631514 0.976111 0.940152
O O11 0.297116 0.851378 0.171172
O O12 0.500000 0.632138 0.750000
#
# Coordination Sequence:
#
# PCOD8222997 Si02
#       6
#     8   8   8   4   8   8
#     4  12  23  40  72  94 131 179 221 274 341 394
#     4  11  21  42  66  96 134 169 222 276 323 392
#     4  10  22  42  65  98 131 172 222 277 326 398
#     4  10  20  38  70  96 128 184 214 266 328 398
#     4  11  23  41  66  97 132 171 220 278 334 396
#     4  10  20  40  70  93 127 180 226 252 345 401
#
# _framework density 21.720645000000001
#
# number of rings (size 3 to 8) (size 9 to 14) (size 15 to 20)
#    0.000    1.455    3.636    4.909    0.000    2.182 
#    0.000    0.909    0.000    0.000    0.000    0.000 
#    0.000    0.000    0.000    0.000    0.000    0.000 
#
# Total GULP energy -545363.720735 kJ/mol
# GULP energy per Si atom -12394.630017 kJ/mol
# Density = 2.167121 g / cm^3
# Si number density = 21.720645 Si / 1000 Ang^3
#
#
#
# Elastic Constant Matrix: (Units=GPa)
#
#
# Indices 1 2 3 4 5 6 
#
# 1 126.8817 17.5413 58.4256 0.0000 0.0000 0.0000
# 2 17.5413 97.8032 43.8201 0.0000 0.0000 0.0000
# 3 58.4256 43.8201 115.5866 0.0000 0.0000 0.0000
# 4 0.0000 0.0000 0.0000 12.6175 0.0000 0.0000
# 5 0.0000 0.0000 0.0000 0.0000 32.4904 0.0000
# 6 0.0000 0.0000 0.0000 0.0000 0.0000 8.6474
#
#
#
# Elastic Compliance Matrix: (Units=1/GPa)
#
#
# Indices 1 2 3 4 5 6 
#
# 1 0.010300 0.000585 -0.005428 0.000000 0.000000 0.000000
# 2 0.000585 0.012350 -0.004977 0.000000 0.000000 0.000000
# 3 -0.005428 -0.004977 0.013282 0.000000 0.000000 0.000000
# 4 0.000000 0.000000 0.000000 0.079255 0.000000 0.000000
# 5 0.000000 0.000000 0.000000 0.000000 0.030778 0.000000
# 6 0.000000 0.000000 0.000000 0.000000 0.000000 0.115642
#
#
# Mechanical properties :
#
#
# Convention : Reuss Voigt Hill
#
# Bulk Modulus (GPa) = 61.38572 64.42725 62.90648
# Shear Modulus (GPa) = 17.44112 25.45003 21.44558
#
# Velocity S-wave (km/s) = 2.83675 3.42672 3.14560
# Velocity P-wave (km/s) = 6.24919 6.73667 6.49750
#
# Compressibility (1/GPa) = 0.01629043
#
# Stress axis : x y z
#
# Youngs Moduli (GPa) = 97.08775 80.97243 75.28868
#
# Poissons Ratio (x) = -0.04734 0.40866
# Poissons Ratio (y) = -0.05676 0.37475
# Poissons Ratio (z) = 0.52699 0.40304
#
# Static dielectric constant tensor:
#      x y z
#    x 4.343050 0.000000 0.000000 
#    y 0.000000 3.877620 0.000000 
#    z 0.000000 0.000000 3.841160 
# 
# 
# High freq. dielectric constant tensor:
#      x y z
#    x 1.852930 0.000000 0.000000 
#    y 0.000000 1.842250 0.000000 
#    z 0.000000 0.000000 1.844520 
# 
# From -- ./inp_files/17896.got.cif
#   From: 2010.03.12/outbox.cif.g09.slc.cpg/sg54_9_cif.got.tgz:17896.got - 2010.04.16 15:00:50.
