data_PCOD8222550
_publ_section_title
;
Structure prediction by ZEFSAII (Michael W. Deem and Ramdas Pophale) SiO2 
 PCOD8222550
Probable space group: P C C A
;
_chemical_formula_sum "Si O2"
_cell_formula_units_Z 56
_cell_length_a 5.194880
_cell_length_b 30.489788
_cell_length_c 17.378817
_cell_angle_alpha 90.000000
_cell_angle_beta 90.000000
_cell_angle_gamma 90.000000
_cell_volume 2752.644552
_symmetry_space_group_name_H-M "P C C A"
_symmetry_group_IT_number 54
_symmetry_cell_setting 'orthorhombic'
loop_
_space_group_symop_operation_xyz
x,y,z
1/2-x,-y,z
1/2+x,-y,1/2-z
-x,y,1/2-z
-x,-y,-z
1/2+x,y,-z
1/2-x,y,1/2+z
x,-y,1/2+z
loop_
_atom_site_type_symbol
_atom_site_label
_atom_site_fract_x
_atom_site_fract_y
_atom_site_fract_z
Si Si1 0.943945 0.202127 0.453647
Si Si2 0.593243 0.894265 0.449877
Si Si3 0.750972 0.551519 0.547522
Si Si4 0.752221 0.330664 0.286378
Si Si5 0.250031 0.427880 0.780966
Si Si6 0.497933 0.972985 0.159679
Si Si7 0.818195 0.294882 0.447937
O O1 0.748136 0.204049 0.527083
O O2 0.905193 0.154951 0.412998
O O3 0.848485 0.245968 0.408792
O O4 0.377985 0.901746 0.515782
O O5 0.521885 0.926311 0.380854
O O6 0.750000 0.500000 0.566167
O O7 0.502378 0.565679 0.499345
O O8 0.749307 0.577758 0.627334
O O9 0.500000 0.307370 0.250000
O O10 0.750060 0.381280 0.261993
O O11 0.771156 0.328529 0.378606
O O12 0.000000 0.306675 0.250000
O O13 0.500000 0.454095 0.750000
O O14 0.000000 0.454059 0.750000
O O15 0.500000 0.963863 0.250000
O O16 0.750000 0.000000 0.133470
O O17 0.250000 0.000000 0.133618
O O18 0.579896 0.302592 0.505079
#
# Coordination Sequence:
#
# PCOD8222550 Si02
#       7
#     8   8   8   8   8   8   8
#     4   8  16  30  50  76 102 128 163 213 264 304
#     4  10  19  32  52  76 100 127 168 216 255 302
#     4  10  21  38  60  85 111 144 190 235 272 322
#     4  10  21  38  54  79 116 145 178 225 275 324
#     4  10  21  38  56  81 115 148 179 222 278 328
#     4  10  21  35  49  68 100 137 168 205 254 307
#     4  10  19  35  59  81 104 141 184 219 263 325
#
# _framework density 20.344071
#
# number of rings (size 3 to 8) (size 9 to 14) (size 15 to 20)
#    0.000    2.286    0.000    2.571    0.000    2.286 
#    0.000   17.857    0.000    2.571    0.000    0.000 
#    0.000    0.000    0.000    0.000    0.000    0.000 
#
# Total GULP energy -693735.260166 kJ/mol
# GULP energy per Si atom -12388.129646 kJ/mol
# Density = 2.029777 g / cm^3
# Si number density = 20.344071 Si / 1000 Ang^3
#
#
#
# Elastic Constant Matrix: (Units=GPa)
#
#
# Indices 1 2 3 4 5 6 
#
# 1 182.0032 13.6079 49.0978 0.0000 0.0000 0.0000
# 2 13.6079 78.8346 44.7951 0.0000 0.0000 0.0000
# 3 49.0978 44.7951 111.7204 0.0000 0.0000 0.0000
# 4 0.0000 0.0000 0.0000 7.8241 0.0000 0.0000
# 5 0.0000 0.0000 0.0000 0.0000 27.4909 0.0000
# 6 0.0000 0.0000 0.0000 0.0000 0.0000 14.8709
#
#
#
# Elastic Compliance Matrix: (Units=1/GPa)
#
#
# Indices 1 2 3 4 5 6 
#
# 1 0.006257 0.000625 -0.003000 0.000000 0.000000 0.000000
# 2 0.000625 0.016490 -0.006886 0.000000 0.000000 0.000000
# 3 -0.003000 -0.006886 0.013031 0.000000 0.000000 0.000000
# 4 0.000000 0.000000 0.000000 0.127811 0.000000 0.000000
# 5 0.000000 0.000000 0.000000 0.000000 0.036376 0.000000
# 6 0.000000 0.000000 0.000000 0.000000 0.000000 0.067246
#
#
# Mechanical properties :
#
#
# Convention : Reuss Voigt Hill
#
# Bulk Modulus (GPa) = 57.95816 65.28444 61.62130
# Shear Modulus (GPa) = 17.15358 27.70766 22.43062
#
# Velocity S-wave (km/s) = 2.90690 3.69447 3.32409
# Velocity P-wave (km/s) = 6.31011 7.09638 6.71477
#
# Compressibility (1/GPa) = 0.01725382
#
# Stress axis : x y z
#
# Youngs Moduli (GPa) = 159.81929 60.64341 76.74264
#
# Poissons Ratio (x) = -0.03789 0.23025
# Poissons Ratio (y) = -0.09985 0.52847
# Poissons Ratio (z) = 0.47951 0.41761
#
# Static dielectric constant tensor:
#      x y z
#    x -1.720460 0.000000 0.000000 
#    y 0.000000 3.714740 0.000000 
#    z 0.000000 0.000000 3.295950 
# 
# 
# High freq. dielectric constant tensor:
#      x y z
#    x 1.833200 0.000000 0.000000 
#    y 0.000000 1.782990 0.000000 
#    z 0.000000 0.000000 1.759350 
# 
# From -- ./inp_files/11011.got.cif
#   From: 2010.03.12/outbox.cif.g09.slc.cpg/sg54_6_cif.got.tgz:11011.got - 2010.04.16 15:00:50.
