data_PCOD8222365
_publ_section_title
;
Structure prediction by ZEFSAII (Michael W. Deem and Ramdas Pophale) SiO2 
 PCOD8222365
Probable space group: P C C A
;
_chemical_formula_sum "Si O2"
_cell_formula_units_Z 64
_cell_length_a 22.261576
_cell_length_b 17.048196
_cell_length_c 8.783445
_cell_angle_alpha 90.000000
_cell_angle_beta 90.000000
_cell_angle_gamma 90.000000
_cell_volume 3333.490507
_symmetry_space_group_name_H-M "P C C A"
_symmetry_group_IT_number 54
_symmetry_cell_setting 'orthorhombic'
loop_
_space_group_symop_operation_xyz
x,y,z
1/2-x,-y,z
1/2+x,-y,1/2-z
-x,y,1/2-z
-x,-y,-z
1/2+x,y,-z
1/2-x,y,1/2+z
x,-y,1/2+z
loop_
_atom_site_type_symbol
_atom_site_label
_atom_site_fract_x
_atom_site_fract_y
_atom_site_fract_z
Si Si1 0.656837 0.013364 0.473116
Si Si2 0.363015 0.897993 0.259833
Si Si3 0.614805 0.483164 0.456856
Si Si4 0.804498 0.562288 0.195504
Si Si5 0.771404 0.267995 0.588505
Si Si6 0.338249 0.268070 0.727051
Si Si7 0.933949 0.601399 0.730139
Si Si8 0.719550 0.100888 0.206219
O O1 0.613221 0.066632 0.580137
O O2 0.692393 0.074766 0.367309
O O3 0.614643 0.955275 0.374635
O O4 0.700421 0.957947 0.572783
O O5 0.381393 0.808760 0.224299
O O6 0.290652 0.903724 0.272455
O O7 0.668768 0.442174 0.365192
O O8 0.644357 0.543849 0.573492
O O9 0.576622 0.419935 0.553202
O O10 0.569622 0.526039 0.340573
O O11 0.750000 0.500000 0.180591
O O12 0.787876 0.652236 0.174671
O O13 0.698996 0.264819 0.614073
O O14 0.790170 0.270060 0.411665
O O15 0.800713 0.190216 0.665359
O O16 0.381603 0.341441 0.714170
O O17 0.000000 0.638998 0.750000
#
# Coordination Sequence:
#
# PCOD8222365 Si02
#       8
#     8   8   8   8   8   8   8   8
#     4  10  17  28  44  70 105 153 186 217 267 342
#     4  10  18  28  45  70 108 144 192 215 275 328
#     4  10  22  38  58  87 105 143 193 236 282 331
#     4  11  22  35  57  82 122 153 183 220 284 354
#     4  11  23  35  51  79 123 150 183 227 284 352
#     4  11  24  36  53  82 116 151 184 231 287 337
#     4  11  23  43  63  81 109 145 197 244 284 328
#     4  10  18  27  44  66 106 151 181 218 264 330
#
# _framework density 19.199095
#
# number of rings (size 3 to 8) (size 9 to 14) (size 15 to 20)
#    0.000    1.500    2.500    5.250    8.750    0.000 
#    0.000    0.000    0.000    0.000    0.000    0.875 
#    0.000    0.000    0.000    0.000    0.000    0.000 
#
# Total GULP energy -793027.794582 kJ/mol
# GULP energy per Si atom -12391.059290 kJ/mol
# Density = 1.915540 g / cm^3
# Si number density = 19.199095 Si / 1000 Ang^3
#
#
#
# Elastic Constant Matrix: (Units=GPa)
#
#
# Indices 1 2 3 4 5 6 
#
# 1 47.8515 14.5582 20.7731 0.0000 0.0000 0.0000
# 2 14.5582 117.4556 37.9197 0.0000 0.0000 0.0000
# 3 20.7731 37.9197 112.4171 0.0000 0.0000 0.0000
# 4 0.0000 0.0000 0.0000 27.1746 0.0000 0.0000
# 5 0.0000 0.0000 0.0000 0.0000 12.8729 0.0000
# 6 0.0000 0.0000 0.0000 0.0000 0.0000 3.7720
#
#
#
# Elastic Compliance Matrix: (Units=1/GPa)
#
#
# Indices 1 2 3 4 5 6 
#
# 1 0.023005 -0.001660 -0.003691 0.000000 0.000000 0.000000
# 2 -0.001660 0.009674 -0.002956 0.000000 0.000000 0.000000
# 3 -0.003691 -0.002956 0.010575 0.000000 0.000000 0.000000
# 4 0.000000 0.000000 0.000000 0.036799 0.000000 0.000000
# 5 0.000000 0.000000 0.000000 0.000000 0.077682 0.000000
# 6 0.000000 0.000000 0.000000 0.000000 0.000000 0.265109
#
#
# Mechanical properties :
#
#
# Convention : Reuss Voigt Hill
#
# Bulk Modulus (GPa) = 37.53851 47.13626 42.33738
# Shear Modulus (GPa) = 11.15226 22.39546 16.77386
#
# Velocity S-wave (km/s) = 2.41275 3.41909 2.95901
# Velocity P-wave (km/s) = 5.23034 6.33968 5.81154
#
# Compressibility (1/GPa) = 0.02663931
#
# Stress axis : x y z
#
# Youngs Moduli (GPa) = 43.46813 103.36924 94.56454
#
# Poissons Ratio (x) = 0.17157 0.34906
# Poissons Ratio (y) = 0.07215 0.27958
# Poissons Ratio (z) = 0.16045 0.30561
#
# Static dielectric constant tensor:
#      x y z
#    x 2.872170 0.000000 0.000000 
#    y 0.000000 4.000190 0.000000 
#    z 0.000000 0.000000 3.929390 
# 
# 
# High freq. dielectric constant tensor:
#      x y z
#    x 1.666420 0.000000 0.000000 
#    y 0.000000 1.765740 0.000000 
#    z 0.000000 0.000000 1.769280 
# 
# From -- ./inp_files/4888.got.cif
#   From: 2010.03.12/outbox.cif.g09.slc.cpg/sg54_3_cif.got.tgz:4888.got - 2010.04.16 15:00:50.
