data_PCOD8222564
_publ_section_title
;
Structure prediction by ZEFSAII (Michael W. Deem and Ramdas Pophale) SiO2 
 PCOD8222564
Probable space group: P C C A
;
_chemical_formula_sum "Si O2"
_cell_formula_units_Z 56
_cell_length_a 5.006829
_cell_length_b 22.819140
_cell_length_c 26.929369
_cell_angle_alpha 90.000000
_cell_angle_beta 90.000000
_cell_angle_gamma 90.000000
_cell_volume 3076.721662
_symmetry_space_group_name_H-M "P C C A"
_symmetry_group_IT_number 54
_symmetry_cell_setting 'orthorhombic'
loop_
_space_group_symop_operation_xyz
x,y,z
1/2-x,-y,z
1/2+x,-y,1/2-z
-x,y,1/2-z
-x,-y,-z
1/2+x,y,-z
1/2-x,y,1/2+z
x,-y,1/2+z
loop_
_atom_site_type_symbol
_atom_site_label
_atom_site_fract_x
_atom_site_fract_y
_atom_site_fract_z
Si Si1 0.360242 0.362268 0.825484
Si Si2 0.777764 0.206701 0.339424
Si Si3 0.500000 0.262532 0.750000
Si Si4 0.248283 0.067681 0.466588
Si Si5 0.316445 0.167058 0.392810
Si Si6 0.635595 0.670522 0.879466
Si Si7 0.076933 0.267821 0.967459
Si Si8 0.000000 0.539272 0.750000
O O1 0.356282 0.304927 0.789905
O O2 0.567795 0.355508 0.871576
O O3 0.425199 0.421217 0.796783
O O4 0.064850 0.369307 0.847180
O O5 0.555625 0.156987 0.352148
O O6 0.632694 0.263900 0.360051
O O7 0.808822 0.218005 0.280354
O O8 0.059771 0.195014 0.366053
O O9 0.498752 0.084482 0.499912
O O10 0.240758 0.104437 0.415805
O O11 0.250000 0.000000 0.450487
O O12 0.438497 0.207700 0.436515
O O13 0.520134 0.675306 0.935455
O O14 0.384778 0.269521 0.984690
O O15 0.250000 0.500000 0.734379
#
# Coordination Sequence:
#
# PCOD8222564 Si02
#       8
#     8   8   4   8   8   8   8   4
#     4  10  20  33  53  70 104 140 158 203 240 279
#     4  10  20  30  48  69  99 129 164 206 235 297
#     4   9  18  32  48  72  96 130 168 187 232 286
#     4  10  20  34  52  71  94 127 169 209 247 304
#     4  11  20  32  45  70 100 131 161 201 258 294
#     4  10  19  33  46  71 100 135 172 191 240 296
#     4  11  19  28  45  68 100 133 161 198 237 292
#     4  11  22  36  54  82 108 132 170 203 246 298
#
# _framework density 18.201193
#
# number of rings (size 3 to 8) (size 9 to 14) (size 15 to 20)
#    0.000    1.714    0.000    8.571    0.000    7.429 
#    0.000    0.000    0.000    0.000    0.000    2.000 
#    0.000   40.000    0.000    0.000    0.000    0.000 
#
# Total GULP energy -693968.193371 kJ/mol
# GULP energy per Si atom -12392.289167 kJ/mol
# Density = 1.815977 g / cm^3
# Si number density = 18.201193 Si / 1000 Ang^3
#
#
#
# Elastic Constant Matrix: (Units=GPa)
#
#
# Indices 1 2 3 4 5 6 
#
# 1 117.3188 27.7230 36.6670 0.0000 0.0000 0.0000
# 2 27.7230 70.2088 40.0937 0.0000 0.0000 0.0000
# 3 36.6670 40.0937 72.9618 0.0000 0.0000 0.0000
# 4 0.0000 0.0000 0.0000 57.5892 0.0000 0.0000
# 5 0.0000 0.0000 0.0000 0.0000 -51.8164 0.0000
# 6 0.0000 0.0000 0.0000 0.0000 0.0000 27.9986
#
#
#
# Elastic Compliance Matrix: (Units=1/GPa)
#
#
# Indices 1 2 3 4 5 6 
#
# 1 0.010235 -0.001609 -0.004260 0.000000 0.000000 0.000000
# 2 -0.001609 0.021010 -0.010737 0.000000 0.000000 0.000000
# 3 -0.004260 -0.010737 0.021746 0.000000 0.000000 0.000000
# 4 0.000000 0.000000 0.000000 0.017364 0.000000 0.000000
# 5 0.000000 0.000000 0.000000 0.000000 -0.019299 0.000000
# 6 0.000000 0.000000 0.000000 0.000000 0.000000 0.035716
#
#
# Mechanical properties :
#
#
# Convention : Reuss Voigt Hill
#
# Bulk Modulus (GPa) = 50.55339 52.16187 51.35763
# Shear Modulus (GPa) = 39.50153 17.15465 28.32809
#
# Velocity S-wave (km/s) = 4.66367 3.07335 3.94939
# Velocity P-wave (km/s) = 7.53889 6.42765 7.00534
#
# Compressibility (1/GPa) = 0.01978107
#
# Stress axis : x y z
#
# Youngs Moduli (GPa) = 97.70106 47.59655 45.98464
#
# Poissons Ratio (x) = 0.07659 0.19587
# Poissons Ratio (y) = 0.15721 0.49372
# Poissons Ratio (z) = 0.41616 0.51103
#
# Static dielectric constant tensor:
#      x y z
#    x 3.570430 0.000000 0.000000 
#    y 0.000000 3.121370 0.000000 
#    z 0.000000 0.000000 3.610450 
# 
# 
# High freq. dielectric constant tensor:
#      x y z
#    x 1.728570 0.000000 0.000000 
#    y 0.000000 1.658350 0.000000 
#    z 0.000000 0.000000 1.696420 
# 
# From -- ./inp_files/23012.got.cif
#   From: 2010.03.12/outbox.cif.g09.slc.cpg/sg54_12_cif.got.tgz:23012.got - 2010.04.16 15:00:50.
