data_PCOD8222096
_publ_section_title
;
Structure prediction by ZEFSAII (Michael W. Deem and Ramdas Pophale) SiO2 
 PCOD8222096
Probable space group: P M N A
;
_chemical_formula_sum "Si O2"
_cell_formula_units_Z 44
_cell_length_a 25.502967
_cell_length_b 5.331428
_cell_length_c 16.321191
_cell_angle_alpha 90.000000
_cell_angle_beta 90.000000
_cell_angle_gamma 90.000000
_cell_volume 2219.147169
_symmetry_space_group_name_H-M "P M N A"
_symmetry_group_IT_number 53
_symmetry_cell_setting 'orthorhombic'
loop_
_space_group_symop_operation_xyz
x,y,z
1/2-x,-y,1/2+z
x,-y,-z
1/2-x,y,1/2-z
-x,-y,-z
1/2+x,y,1/2-z
-x,y,z
1/2+x,-y,1/2+z
loop_
_atom_site_type_symbol
_atom_site_label
_atom_site_fract_x
_atom_site_fract_y
_atom_site_fract_z
Si Si1 0.750000 0.276410 0.250000
Si Si2 0.204949 0.747712 0.052035
Si Si3 0.844064 0.371431 0.786065
Si Si4 0.059044 0.513573 0.310402
Si Si5 0.913348 0.013034 0.408878
Si Si6 0.302553 0.076884 0.864619
O O1 0.699386 0.418948 0.279532
O O2 0.737735 0.131573 0.166221
O O3 0.161252 0.754341 0.124558
O O4 0.265188 0.729138 0.086434
O O5 0.194348 0.500000 0.000000
O O6 0.197497 0.000000 0.000000
O O7 0.901923 0.484334 0.768195
O O8 0.831167 0.173624 0.716294
O O9 0.067691 0.761783 0.364136
O O10 0.000000 0.512074 0.275942
O O11 0.067601 0.264125 0.363986
O O12 0.849972 0.026577 0.419446
O O13 0.937433 0.000000 0.500000
#
# Coordination Sequence:
#
# PCOD8222096 Si02
#       6
#     4   8   8   8   8   8
#     4  12  16  38  64  86 118 160 206 248 288 360
#     4  12  25  37  58  93 131 159 196 250 315 375
#     4  11  23  38  63  87 121 164 204 251 297 363
#     4  11  25  43  64  86 114 163 215 251 291 357
#     4  11  24  39  60  92 126 158 198 251 305 355
#     4  11  22  36  60  89 125 167 201 241 298 365
#
# _framework density 19.827435000000001
#
# number of rings (size 3 to 8) (size 9 to 14) (size 15 to 20)
#    0.000    0.727    5.455    2.727    0.000    5.091 
#    0.000    0.000    0.000    1.091    0.000    0.000 
#    0.000    0.000    0.000    0.000    0.000    0.000 
#
# Total GULP energy -545341.772175 kJ/mol
# GULP energy per Si atom -12394.131186 kJ/mol
# Density = 1.978231 g / cm^3
# Si number density = 19.827435 Si / 1000 Ang^3
#
#
#
# Elastic Constant Matrix: (Units=GPa)
#
#
# Indices 1 2 3 4 5 6 
#
# 1 157.1335 39.5136 48.7819 0.0000 0.0000 0.0000
# 2 39.5136 121.4225 40.7089 0.0000 0.0000 0.0000
# 3 48.7819 40.7089 108.4838 0.0000 0.0000 0.0000
# 4 0.0000 0.0000 0.0000 38.5452 0.0000 0.0000
# 5 0.0000 0.0000 0.0000 0.0000 15.5758 0.0000
# 6 0.0000 0.0000 0.0000 0.0000 0.0000 -10.4917
#
#
#
# Elastic Compliance Matrix: (Units=1/GPa)
#
#
# Indices 1 2 3 4 5 6 
#
# 1 0.007636 -0.001526 -0.002861 0.000000 0.000000 0.000000
# 2 -0.001526 0.009726 -0.002964 0.000000 0.000000 0.000000
# 3 -0.002861 -0.002964 0.011617 0.000000 0.000000 0.000000
# 4 0.000000 0.000000 0.000000 0.025944 0.000000 0.000000
# 5 0.000000 0.000000 0.000000 0.000000 0.064202 0.000000
# 6 0.000000 0.000000 0.000000 0.000000 0.000000 -0.095314
#
#
# Mechanical properties :
#
#
# Convention : Reuss Voigt Hill
#
# Bulk Modulus (GPa) = 70.03997 71.67207 70.85602
# Shear Modulus (GPa) = 115.55258 25.92822 70.74040
#
# Velocity S-wave (km/s) = 7.64236 3.62013 5.97959
# Velocity P-wave (km/s) = 10.64310 7.32804 9.13717
#
# Compressibility (1/GPa) = 0.01427756
#
# Stress axis : x y z
#
# Youngs Moduli (GPa) = 130.96035 102.81949 86.08346
#
# Poissons Ratio (x) = 0.15687 0.24630
# Poissons Ratio (y) = 0.19980 0.25512
# Poissons Ratio (z) = 0.37469 0.30472
#
# Static dielectric constant tensor:
#      x y z
#    x 4.092350 0.000000 0.000000 
#    y 0.000000 3.754150 0.000000 
#    z 0.000000 0.000000 4.103730 
# 
# 
# High freq. dielectric constant tensor:
#      x y z
#    x 1.760560 0.000000 0.000000 
#    y 0.000000 1.784530 0.000000 
#    z 0.000000 0.000000 1.765080 
# 
# From -- ./inp_files/24849.got.cif
#   From: 2010.03.12/outbox.cif.g09.slc.cpg/sg53_13_cif.got.tgz:24849.got - 2010.04.16 14:36:59.
