data_PCOD8222690
_publ_section_title
;
Structure prediction by ZEFSAII (Michael W. Deem and Ramdas Pophale) SiO2 
 PCOD8222690
Probable space group: P C C A
;
_chemical_formula_sum "Si O2"
_cell_formula_units_Z 52
_cell_length_a 9.928817
_cell_length_b 13.856690
_cell_length_c 19.592397
_cell_angle_alpha 90.000000
_cell_angle_beta 90.000000
_cell_angle_gamma 90.000000
_cell_volume 2695.532544
_symmetry_space_group_name_H-M "P C C A"
_symmetry_group_IT_number 54
_symmetry_cell_setting 'orthorhombic'
loop_
_space_group_symop_operation_xyz
x,y,z
1/2-x,-y,z
1/2+x,-y,1/2-z
-x,y,1/2-z
-x,-y,-z
1/2+x,y,-z
1/2-x,y,1/2+z
x,-y,1/2+z
loop_
_atom_site_type_symbol
_atom_site_label
_atom_site_fract_x
_atom_site_fract_y
_atom_site_fract_z
Si Si1 0.500000 0.694432 0.750000
Si Si2 0.213911 0.207009 0.087328
Si Si3 0.247294 0.607755 0.672775
Si Si4 0.441544 0.836985 0.346992
Si Si5 0.017861 0.142798 0.646686
Si Si6 0.222586 0.108738 0.949951
Si Si7 0.500000 0.325998 0.750000
Si Si8 0.500000 0.007966 0.750000
O O1 0.374170 0.631115 0.722711
O O2 0.539844 0.763020 0.686082
O O3 0.229319 0.319659 0.108513
O O4 0.359668 0.161558 0.096722
O O5 0.099996 0.156725 0.133491
O O6 0.178683 0.184841 0.008527
O O7 0.250000 0.500000 0.642049
O O8 0.113154 0.607237 0.717854
O O9 0.352038 0.843286 0.414296
O O10 0.420755 0.737575 0.306556
O O11 0.402405 0.923866 0.295237
O O12 0.897002 0.097690 0.603858
O O13 0.078645 0.063285 0.698768
O O14 0.250000 0.000000 0.978067
#
# Coordination Sequence:
#
# PCOD8222690 Si02
#       8
#     4   8   8   8   8   8   4   4
#     4   9  19  35  59  88 112 140 174 236 286 338
#     4  10  24  37  53  78 111 149 186 231 268 327
#     4  10  19  37  61  85 110 142 182 233 291 336
#     4  10  21  36  54  79 113 145 183 226 275 320
#     4  10  21  36  54  79 113 145 183 226 275 320
#     4  12  23  36  54  79 111 157 194 222 259 325
#     4   9  19  35  59  88 112 140 174 236 286 338
#     4  10  20  34  52  78 106 142 182 220 266 322
#
# _framework density 19.291177999999999
#
# number of rings (size 3 to 8) (size 9 to 14) (size 15 to 20)
#    0.000    1.846    1.538    2.308    2.154    6.154 
#    0.000    0.000    0.000   18.462    0.000    0.000 
#    0.000    0.000    0.000    0.000    0.000    0.000 
#
# Total GULP energy -644344.292144 kJ/mol
# GULP energy per Si atom -12391.236387 kJ/mol
# Density = 1.924727 g / cm^3
# Si number density = 19.291178 Si / 1000 Ang^3
#
#
#
# Elastic Constant Matrix: (Units=GPa)
#
#
# Indices 1 2 3 4 5 6 
#
# 1 78.5387 40.1345 24.1190 0.0000 0.0000 0.0000
# 2 40.1345 118.2496 47.9501 0.0000 0.0000 0.0000
# 3 24.1190 47.9501 94.9242 0.0000 0.0000 0.0000
# 4 0.0000 0.0000 0.0000 20.2374 0.0000 0.0000
# 5 0.0000 0.0000 0.0000 0.0000 22.9037 0.0000
# 6 0.0000 0.0000 0.0000 0.0000 0.0000 10.5150
#
#
#
# Elastic Compliance Matrix: (Units=1/GPa)
#
#
# Indices 1 2 3 4 5 6 
#
# 1 0.015600 -0.004637 -0.001621 0.000000 0.000000 0.000000
# 2 -0.004637 0.012014 -0.004890 0.000000 0.000000 0.000000
# 3 -0.001621 -0.004890 0.013417 0.000000 0.000000 0.000000
# 4 0.000000 0.000000 0.000000 0.049414 0.000000 0.000000
# 5 0.000000 0.000000 0.000000 0.000000 0.043661 0.000000
# 6 0.000000 0.000000 0.000000 0.000000 0.000000 0.095102
#
#
# Mechanical properties :
#
#
# Convention : Reuss Voigt Hill
#
# Bulk Modulus (GPa) = 53.38190 57.34663 55.36427
# Shear Modulus (GPa) = 19.39866 22.69847 21.04856
#
# Velocity S-wave (km/s) = 3.17452 3.43392 3.30676
# Velocity P-wave (km/s) = 6.41627 6.74639 6.58340
#
# Compressibility (1/GPa) = 0.01873294
#
# Stress axis : x y z
#
# Youngs Moduli (GPa) = 64.10162 83.23868 74.53254
#
# Poissons Ratio (x) = 0.38601 0.12084
# Poissons Ratio (y) = 0.29726 0.36449
# Poissons Ratio (z) = 0.10393 0.40706
#
# Static dielectric constant tensor:
#      x y z
#    x 3.425780 0.000000 0.000000 
#    y 0.000000 3.404790 0.000000 
#    z 0.000000 0.000000 3.464090 
# 
# 
# High freq. dielectric constant tensor:
#      x y z
#    x 1.748890 0.000000 0.000000 
#    y 0.000000 1.737030 0.000000 
#    z 0.000000 0.000000 1.746010 
# 
# From -- ./inp_files/20500.got.cif
#   From: 2010.03.12/outbox.cif.g09.slc.cpg/sg54_11_cif.got.tgz:20500.got - 2010.04.16 15:00:50.
