data_PCOD8222501
_publ_section_title
;
Structure prediction by ZEFSAII (Michael W. Deem and Ramdas Pophale) SiO2 
 PCOD8222501
Probable space group: P C C A
;
_chemical_formula_sum "Si O2"
_cell_formula_units_Z 36
_cell_length_a 19.983429
_cell_length_b 5.347507
_cell_length_c 16.139700
_cell_angle_alpha 90.000000
_cell_angle_beta 90.000000
_cell_angle_gamma 90.000000
_cell_volume 1724.712979
_symmetry_space_group_name_H-M "P C C A"
_symmetry_group_IT_number 54
_symmetry_cell_setting 'orthorhombic'
loop_
_space_group_symop_operation_xyz
x,y,z
1/2-x,-y,z
1/2+x,-y,1/2-z
-x,y,1/2-z
-x,-y,-z
1/2+x,y,-z
1/2-x,y,1/2+z
x,-y,1/2+z
loop_
_atom_site_type_symbol
_atom_site_label
_atom_site_fract_x
_atom_site_fract_y
_atom_site_fract_z
Si Si1 0.867312 0.454466 0.815776
Si Si2 0.500000 0.423052 0.750000
Si Si3 0.823249 0.971219 0.738377
Si Si4 0.948858 0.949531 0.620665
Si Si5 0.953622 0.309250 0.955268
O O1 0.823575 0.208008 0.800475
O O2 0.890039 0.445715 0.912327
O O3 0.933005 0.415937 0.758385
O O4 0.830915 0.714256 0.791345
O O5 0.506434 0.257727 0.666731
O O6 0.879628 0.999288 0.668455
O O7 0.750000 0.000000 0.696165
O O8 0.999806 0.183719 0.616223
O O9 0.928183 0.881397 0.526117
O O10 0.000000 0.500000 0.000000
#
# Coordination Sequence:
#
# PCOD8222501 Si02
#       5
#     8   4   8   8   8
#     4  11  22  39  65  92 127 158 212 264 314 373
#     4  10  18  38  60  96 116 164 198 268 324 360
#     4  11  25  44  65  88 125 179 224 250 298 379
#     4  10  22  36  63  95 132 159 208 265 321 385
#     4  11  21  37  62 101 129 156 197 270 347 373
#
# _framework density 20.873037
#
# number of rings (size 3 to 8) (size 9 to 14) (size 15 to 20)
#    0.000    1.333    2.222    4.667    6.222    0.889 
#    0.000    1.111    4.889    0.000    0.000    0.000 
#    0.000    0.000    0.000    0.000    0.000    0.000 
#
# Total GULP energy -446101.090735 kJ/mol
# GULP energy per Si atom -12391.696965 kJ/mol
# Density = 2.082553 g / cm^3
# Si number density = 20.873037 Si / 1000 Ang^3
#
#
#
# Elastic Constant Matrix: (Units=GPa)
#
#
# Indices 1 2 3 4 5 6 
#
# 1 107.4464 32.9400 35.8079 0.0000 0.0000 0.0000
# 2 32.9400 119.9107 26.5566 0.0000 0.0000 0.0000
# 3 35.8079 26.5566 97.2960 0.0000 0.0000 0.0000
# 4 0.0000 0.0000 0.0000 36.0154 0.0000 0.0000
# 5 0.0000 0.0000 0.0000 0.0000 26.0433 0.0000
# 6 0.0000 0.0000 0.0000 0.0000 0.0000 19.6780
#
#
#
# Elastic Compliance Matrix: (Units=1/GPa)
#
#
# Indices 1 2 3 4 5 6 
#
# 1 0.011173 -0.002297 -0.003485 0.000000 0.000000 0.000000
# 2 -0.002297 0.009349 -0.001706 0.000000 0.000000 0.000000
# 3 -0.003485 -0.001706 0.012026 0.000000 0.000000 0.000000
# 4 0.000000 0.000000 0.000000 0.027766 0.000000 0.000000
# 5 0.000000 0.000000 0.000000 0.000000 0.038398 0.000000
# 6 0.000000 0.000000 0.000000 0.000000 0.000000 0.050818
#
#
# Mechanical properties :
#
#
# Convention : Reuss Voigt Hill
#
# Bulk Modulus (GPa) = 56.91325 57.25131 57.08228
# Shear Modulus (GPa) = 29.34919 31.63724 30.49321
#
# Velocity S-wave (km/s) = 3.75384 3.89742 3.82631
# Velocity P-wave (km/s) = 6.79073 6.90949 6.85037
#
# Compressibility (1/GPa) = 0.01757060
#
# Stress axis : x y z
#
# Youngs Moduli (GPa) = 89.50438 106.96901 83.15238
#
# Poissons Ratio (x) = 0.24575 0.28977
# Poissons Ratio (y) = 0.20563 0.14187
# Poissons Ratio (z) = 0.31191 0.18250
#
# Static dielectric constant tensor:
#      x y z
#    x 3.584910 0.000000 0.000000 
#    y 0.000000 4.437080 0.000000 
#    z 0.000000 0.000000 4.129440 
# 
# 
# High freq. dielectric constant tensor:
#      x y z
#    x 1.793700 0.000000 0.000000 
#    y 0.000000 1.833300 0.000000 
#    z 0.000000 0.000000 1.813590 
# 
# From -- ./inp_files/14443.got.cif
#   From: 2010.03.12/outbox.cif.g09.slc.cpg/sg54_8_cif.got.tgz:14443.got - 2010.04.16 15:00:50.
