data_PCOD8222671
_publ_section_title
;
Structure prediction by ZEFSAII (Michael W. Deem and Ramdas Pophale) SiO2 
 PCOD8222671
Probable space group: P C C A
;
_chemical_formula_sum "Si O2"
_cell_formula_units_Z 40
_cell_length_a 13.765296
_cell_length_b 5.076127
_cell_length_c 28.550671
_cell_angle_alpha 90.000000
_cell_angle_beta 90.000000
_cell_angle_gamma 90.000000
_cell_volume 1994.960740
_symmetry_space_group_name_H-M "P C C A"
_symmetry_group_IT_number 54
_symmetry_cell_setting 'orthorhombic'
loop_
_space_group_symop_operation_xyz
x,y,z
1/2-x,-y,z
1/2+x,-y,1/2-z
-x,y,1/2-z
-x,-y,-z
1/2+x,y,-z
1/2-x,y,1/2+z
x,-y,1/2+z
loop_
_atom_site_type_symbol
_atom_site_label
_atom_site_fract_x
_atom_site_fract_y
_atom_site_fract_z
Si Si1 0.961496 0.582420 0.800159
Si Si2 0.646793 0.081790 0.320658
Si Si3 0.921720 0.967263 0.421639
Si Si4 0.250000 0.000000 0.506350
Si Si5 0.250000 0.500000 0.443197
Si Si6 0.543824 0.466241 0.600461
O O1 0.931816 0.888121 0.797013
O O2 0.000000 0.493224 0.750000
O O3 0.037375 0.541438 0.842759
O O4 0.871070 0.388093 0.809934
O O5 0.750000 0.000000 0.299852
O O6 0.645625 0.032679 0.375997
O O7 0.847657 0.942533 0.464512
O O8 0.998602 0.730615 0.420967
O O9 0.984436 0.232685 0.424296
O O10 0.273211 0.251031 0.475090
O O11 0.342606 0.556121 0.410526
#
# Coordination Sequence:
#
# PCOD8222671 Si02
#       6
#     8   8   8   4   4   8
#     4  10  21  38  62  85 119 152 196 239 288 357
#     4  10  19  36  60  89 117 144 188 248 302 335
#     4  10  21  39  63  88 114 154 194 256 293 333
#     4  12  24  38  64  90 118 150 208 244 288 366
#     4  12  26  40  56  86 124 164 194 236 292 364
#     4  10  23  41  60  83 125 159 193 244 300 343
#
# _framework density 20.050521
#
# number of rings (size 3 to 8) (size 9 to 14) (size 15 to 20)
#    0.000    1.600    1.000    3.600    0.000    4.800 
#    3.600    0.000    0.000    0.000    0.000    0.000 
#    0.000    0.000    0.000    0.000    0.000    0.000 
#
# Total GULP energy -496027.491982 kJ/mol
# GULP energy per Si atom -12400.687300 kJ/mol
# Density = 2.000489 g / cm^3
# Si number density = 20.050521 Si / 1000 Ang^3
#
#
#
# Elastic Constant Matrix: (Units=GPa)
#
#
# Indices 1 2 3 4 5 6 
#
# 1 86.7671 -4.0013 47.1927 0.0000 0.0000 0.0000
# 2 -4.0013 93.4901 18.9814 0.0000 0.0000 0.0000
# 3 47.1927 18.9814 96.5687 0.0000 0.0000 0.0000
# 4 0.0000 0.0000 0.0000 18.2508 0.0000 0.0000
# 5 0.0000 0.0000 0.0000 0.0000 15.8020 0.0000
# 6 0.0000 0.0000 0.0000 0.0000 0.0000 14.7942
#
#
#
# Elastic Compliance Matrix: (Units=1/GPa)
#
#
# Indices 1 2 3 4 5 6 
#
# 1 0.016197 0.002396 -0.008386 0.000000 0.000000 0.000000
# 2 0.002396 0.011495 -0.003430 0.000000 0.000000 0.000000
# 3 -0.008386 -0.003430 0.015128 0.000000 0.000000 0.000000
# 4 0.000000 0.000000 0.000000 0.054792 0.000000 0.000000
# 5 0.000000 0.000000 0.000000 0.000000 0.063283 0.000000
# 6 0.000000 0.000000 0.000000 0.000000 0.000000 0.067594
#
#
# Mechanical properties :
#
#
# Convention : Reuss Voigt Hill
#
# Bulk Modulus (GPa) = 41.70377 44.57460 43.13919
# Shear Modulus (GPa) = 19.58297 24.07960 21.83128
#
# Velocity S-wave (km/s) = 3.12858 3.46923 3.30330
# Velocity P-wave (km/s) = 5.82196 6.19086 6.00924
#
# Compressibility (1/GPa) = 0.02397865
#
# Stress axis : x y z
#
# Youngs Moduli (GPa) = 61.74025 86.99177 66.10291
#
# Poissons Ratio (x) = -0.20842 0.55436
# Poissons Ratio (y) = -0.14792 0.22676
# Poissons Ratio (z) = 0.51777 0.29841
#
# Static dielectric constant tensor:
#      x y z
#    x 3.438080 0.000000 0.000000 
#    y 0.000000 3.808240 0.000000 
#    z 0.000000 0.000000 3.585610 
# 
# 
# High freq. dielectric constant tensor:
#      x y z
#    x 1.775790 0.000000 0.000000 
#    y 0.000000 1.803680 0.000000 
#    z 0.000000 0.000000 1.773440 
# 
# From -- ./inp_files/26079.got.cif
#   From: 2010.03.12/outbox.cif.g09.slc.cpg/sg54_14_cif.got.tgz:26079.got - 2010.04.16 15:00:50.
