data_PCOD8222278
_publ_section_title
;
Structure prediction by ZEFSAII (Michael W. Deem and Ramdas Pophale) SiO2 
 PCOD8222278
Probable space group: P C C A
;
_chemical_formula_sum "Si O2"
_cell_formula_units_Z 56
_cell_length_a 17.030430
_cell_length_b 29.885767
_cell_length_c 5.314644
_cell_angle_alpha 90.000000
_cell_angle_beta 90.000000
_cell_angle_gamma 90.000000
_cell_volume 2704.980873
_symmetry_space_group_name_H-M "P C C A"
_symmetry_group_IT_number 54
_symmetry_cell_setting 'orthorhombic'
loop_
_space_group_symop_operation_xyz
x,y,z
1/2-x,-y,z
1/2+x,-y,1/2-z
-x,y,1/2-z
-x,-y,-z
1/2+x,y,-z
1/2-x,y,1/2+z
x,-y,1/2+z
loop_
_atom_site_type_symbol
_atom_site_label
_atom_site_fract_x
_atom_site_fract_y
_atom_site_fract_z
Si Si1 0.339791 0.981480 0.520814
Si Si2 0.464291 0.659980 0.000051
Si Si3 0.703488 0.114787 0.539010
Si Si4 0.162212 0.481100 0.018574
Si Si5 0.800223 0.214184 0.987545
Si Si6 0.469681 0.759548 0.500014
Si Si7 0.199729 0.621018 0.509100
O O1 0.351000 0.927811 0.514730
O O2 0.250000 0.000000 0.522536
O O3 0.382406 0.998498 0.774031
O O4 0.500000 0.636439 0.750000
O O5 0.500000 0.636370 0.250000
O O6 0.487789 0.711720 0.000242
O O7 0.370277 0.656758 0.000138
O O8 0.772468 0.111248 0.331407
O O9 0.664726 0.163460 0.494821
O O10 0.250000 0.500000 0.037827
O O11 0.118887 0.497902 0.273722
O O12 0.161556 0.427907 0.002351
O O13 0.745056 0.223631 0.227265
O O14 0.875566 0.246398 0.999398
O O15 0.500000 0.785564 0.250000
O O16 0.500000 0.785572 0.750000
O O17 0.253416 0.628880 0.266231
#
# Coordination Sequence:
#
# PCOD8222278 Si02
#       7
#     8   8   8   8   8   8   8
#     4  10  14  20  34  55  93 145 163 189 265 350
#     4  10  23  43  59  82 120 159 181 231 291 347
#     4  10  16  25  39  66 103 135 167 220 268 319
#     4  10  16  30  51  87 115 147 175 235 275 324
#     4  10  21  35  57  87 111 140 187 246 279 325
#     4  10  21  42  63  79 112 155 185 226 294 355
#     4  12  21  35  63  93 115 148 199 241 274 324
#
# _framework density 20.702546999999999
#
# number of rings (size 3 to 8) (size 9 to 14) (size 15 to 20)
#    0.000    1.714    5.714    1.714    0.000    0.000 
#    0.000   17.143    0.000    2.571    0.000    0.000 
#    0.000    3.429    0.000    0.000    0.000    0.000 
#
# Total GULP energy -693830.650207 kJ/mol
# GULP energy per Si atom -12389.833039 kJ/mol
# Density = 2.065543 g / cm^3
# Si number density = 20.702547 Si / 1000 Ang^3
#
#
#
# Elastic Constant Matrix: (Units=GPa)
#
#
# Indices 1 2 3 4 5 6 
#
# 1 71.8827 22.8243 35.3781 0.0000 0.0000 0.0000
# 2 22.8243 66.5803 6.0832 0.0000 0.0000 0.0000
# 3 35.3781 6.0832 200.6871 0.0000 0.0000 0.0000
# 4 0.0000 0.0000 0.0000 10.2082 0.0000 0.0000
# 5 0.0000 0.0000 0.0000 0.0000 19.7204 0.0000
# 6 0.0000 0.0000 0.0000 0.0000 0.0000 5.7848
#
#
#
# Elastic Compliance Matrix: (Units=1/GPa)
#
#
# Indices 1 2 3 4 5 6 
#
# 1 0.017088 -0.005598 -0.002843 0.000000 0.000000 0.000000
# 2 -0.005598 0.016895 0.000475 0.000000 0.000000 0.000000
# 3 -0.002843 0.000475 0.005470 0.000000 0.000000 0.000000
# 4 0.000000 0.000000 0.000000 0.097961 0.000000 0.000000
# 5 0.000000 0.000000 0.000000 0.000000 0.050709 0.000000
# 6 0.000000 0.000000 0.000000 0.000000 0.000000 0.172868
#
#
# Mechanical properties :
#
#
# Convention : Reuss Voigt Hill
#
# Bulk Modulus (GPa) = 42.51586 51.96904 47.24245
# Shear Modulus (GPa) = 12.99501 25.46696 19.23099
#
# Velocity S-wave (km/s) = 2.50811 3.51114 3.05112
# Velocity P-wave (km/s) = 5.38225 6.44939 5.93984
#
# Compressibility (1/GPa) = 0.02352064
#
# Stress axis : x y z
#
# Youngs Moduli (GPa) = 58.51994 59.18835 182.82822
#
# Poissons Ratio (x) = 0.33135 0.51973
# Poissons Ratio (y) = 0.32761 -0.08680
# Poissons Ratio (z) = 0.16635 -0.02810
#
# Static dielectric constant tensor:
#      x y z
#    x 3.039120 0.000000 0.000000 
#    y 0.000000 3.699490 0.000000 
#    z 0.000000 0.000000 7.703430 
# 
# 
# High freq. dielectric constant tensor:
#      x y z
#    x 1.739070 0.000000 0.000000 
#    y 0.000000 1.793560 0.000000 
#    z 0.000000 0.000000 1.859060 
# 
# From -- ./inp_files/745.got.cif
#   From: 2010.03.12/outbox.cif.g09.slc.cpg/sg54_1_cif.got.tgz:745.got - 2010.04.16 15:00:50.
