data_PCOD8222543
_publ_section_title
;
Structure prediction by ZEFSAII (Michael W. Deem and Ramdas Pophale) SiO2 
 PCOD8222543
Probable space group: P C C A
;
_chemical_formula_sum "Si O2"
_cell_formula_units_Z 44
_cell_length_a 10.302489
_cell_length_b 9.910778
_cell_length_c 23.212000
_cell_angle_alpha 90.000000
_cell_angle_beta 90.000000
_cell_angle_gamma 90.000000
_cell_volume 2370.077075
_symmetry_space_group_name_H-M "P C C A"
_symmetry_group_IT_number 54
_symmetry_cell_setting 'orthorhombic'
loop_
_space_group_symop_operation_xyz
x,y,z
1/2-x,-y,z
1/2+x,-y,1/2-z
-x,y,1/2-z
-x,-y,-z
1/2+x,y,-z
1/2-x,y,1/2+z
x,-y,1/2+z
loop_
_atom_site_type_symbol
_atom_site_label
_atom_site_fract_x
_atom_site_fract_y
_atom_site_fract_z
Si Si1 0.373074 0.843597 0.952489
Si Si2 0.250000 0.500000 0.793070
Si Si3 0.473634 0.151792 0.836309
Si Si4 0.415321 0.152358 0.963513
Si Si5 0.186804 0.210207 0.828639
Si Si6 0.500000 0.930220 0.750000
Si Si7 0.000000 0.619563 0.750000
O O1 0.228817 0.778164 0.963366
O O2 0.400195 0.830639 0.884120
O O3 0.381231 0.996687 0.974486
O O4 0.492477 0.775958 0.988267
O O5 0.217957 0.369874 0.832130
O O6 0.373282 0.472949 0.752638
O O7 0.498609 0.164289 0.904340
O O8 0.319746 0.125752 0.828565
O O9 0.518647 0.290209 0.806922
O O10 0.543404 0.025707 0.804042
O O11 0.114816 0.169489 0.769768
#
# Coordination Sequence:
#
# PCOD8222543 Si02
#       7
#     8   4   8   8   8   4   4
#     4   9  17  30  51  72 101 137 167 208 258 314
#     4  10  20  36  52  72 102 142 184 212 250 310
#     4   9  18  32  51  74 106 137 163 214 281 316
#     4   9  16  31  50  73 103 132 167 205 262 320
#     4  10  19  32  51  73 104 142 176 214 258 316
#     4  11  17  28  50  78  99 127 176 214 252 315
#     4   9  19  34  54  72  99 141 174 214 266 309
#
# _framework density 18.564798
#
# number of rings (size 3 to 8) (size 9 to 14) (size 15 to 20)
#    0.000    2.545    1.818    1.091    0.000    0.000 
#    0.000    9.091    0.000   10.909    0.000    0.000 
#    0.000    0.000    0.000    0.000    0.000    0.000 
#
# Total GULP energy -545140.303205 kJ/mol
# GULP energy per Si atom -12389.552346 kJ/mol
# Density = 1.852254 g / cm^3
# Si number density = 18.564798 Si / 1000 Ang^3
#
#
#
# Elastic Constant Matrix: (Units=GPa)
#
#
# Indices 1 2 3 4 5 6 
#
# 1 91.3826 24.6423 63.3421 0.0000 0.0000 0.0000
# 2 24.6423 49.1295 17.0070 0.0000 0.0000 0.0000
# 3 63.3421 17.0070 114.4599 0.0000 0.0000 0.0000
# 4 0.0000 0.0000 0.0000 12.6911 0.0000 0.0000
# 5 0.0000 0.0000 0.0000 0.0000 36.9377 0.0000
# 6 0.0000 0.0000 0.0000 0.0000 0.0000 23.7601
#
#
#
# Elastic Compliance Matrix: (Units=1/GPa)
#
#
# Indices 1 2 3 4 5 6 
#
# 1 0.019474 -0.006364 -0.009831 0.000000 0.000000 0.000000
# 2 -0.006364 0.023538 0.000025 0.000000 0.000000 0.000000
# 3 -0.009831 0.000025 0.014174 0.000000 0.000000 0.000000
# 4 0.000000 0.000000 0.000000 0.078795 0.000000 0.000000
# 5 0.000000 0.000000 0.000000 0.000000 0.027073 0.000000
# 6 0.000000 0.000000 0.000000 0.000000 0.000000 0.042087
#
#
# Mechanical properties :
#
#
# Convention : Reuss Voigt Hill
#
# Bulk Modulus (GPa) = 40.25174 51.66166 45.95670
# Shear Modulus (GPa) = 20.34478 24.67650 22.51064
#
# Velocity S-wave (km/s) = 3.31400 3.64979 3.48594
# Velocity P-wave (km/s) = 6.03094 6.75644 6.40397
#
# Compressibility (1/GPa) = 0.02484365
#
# Stress axis : x y z
#
# Youngs Moduli (GPa) = 51.35138 42.48438 70.55400
#
# Poissons Ratio (x) = 0.27039 0.69362
# Poissons Ratio (y) = 0.32682 -0.00174
# Poissons Ratio (z) = 0.50484 -0.00105
#
# Static dielectric constant tensor:
#      x y z
#    x 3.678060 0.000000 0.000000 
#    y 0.000000 3.138700 0.000000 
#    z 0.000000 0.000000 3.446040 
# 
# 
# High freq. dielectric constant tensor:
#      x y z
#    x 1.711190 0.000000 0.000000 
#    y 0.000000 1.687080 0.000000 
#    z 0.000000 0.000000 1.711120 
# 
# From -- ./inp_files/24019.got.cif
#   From: 2010.03.12/outbox.cif.g09.slc.cpg/sg54_13_cif.got.tgz:24019.got - 2010.04.16 15:00:50.
