data_PCOD8222183
_publ_section_title
;
Structure prediction by ZEFSAII (Michael W. Deem and Ramdas Pophale) SiO2 
 PCOD8222183
Probable space group: P M N A
;
_chemical_formula_sum "Si O2"
_cell_formula_units_Z 24
_cell_length_a 14.524042
_cell_length_b 9.035865
_cell_length_c 7.860988
_cell_angle_alpha 90.000000
_cell_angle_beta 90.000000
_cell_angle_gamma 90.000000
_cell_volume 1031.654705
_symmetry_space_group_name_H-M "P M N A"
_symmetry_group_IT_number 53
_symmetry_cell_setting 'orthorhombic'
loop_
_space_group_symop_operation_xyz
x,y,z
1/2-x,-y,1/2+z
x,-y,-z
1/2-x,y,1/2-z
-x,-y,-z
1/2+x,y,1/2-z
-x,y,z
1/2+x,-y,1/2+z
loop_
_atom_site_type_symbol
_atom_site_label
_atom_site_fract_x
_atom_site_fract_y
_atom_site_fract_z
Si Si1 0.169478 0.375202 0.371492
Si Si2 0.176465 0.133203 0.614189
Si Si3 0.500000 0.144609 0.696728
Si Si4 0.000000 0.787684 0.812912
O O1 0.130190 0.500000 0.500000
O O2 0.250000 0.439895 0.250000
O O3 0.220917 0.255192 0.491083
O O4 0.088638 0.293105 0.267308
O O5 0.250000 0.074030 0.750000
O O6 0.089428 0.205929 0.707916
O O7 0.140332 0.000000 0.500000
O O8 0.500000 0.227013 0.515953
O O9 0.500000 0.965590 0.708972
#
# Coordination Sequence:
#
# PCOD8222183 Si02
#       4
#     8   8   4   4
#     4  12  26  47  68 101 140 184 232 283 347 414
#     4  12  24  41  68 101 136 182 233 283 347 405
#     4  11  24  42  70 106 141 173 230 299 341 406
#     4  11  24  43  72 103 139 181 233 285 350 408
#
# _framework density 23.263598999999999
#
# number of rings (size 3 to 8) (size 9 to 14) (size 15 to 20)
#    0.000    0.333    3.333    6.000    4.667    0.000 
#    0.000    2.500    0.000    0.000    0.000    0.000 
#    0.000    0.000    0.000    0.000    0.000    0.000 
#
# Total GULP energy -297462.542995 kJ/mol
# GULP energy per Si atom -12394.272625 kJ/mol
# Density = 2.321065 g / cm^3
# Si number density = 23.263599 Si / 1000 Ang^3
#
#
#
# Elastic Constant Matrix: (Units=GPa)
#
#
# Indices 1 2 3 4 5 6 
#
# 1 132.5356 12.1789 69.3153 0.0000 0.0000 0.0000
# 2 12.1789 90.1936 55.3367 0.0000 0.0000 0.0000
# 3 69.3153 55.3367 171.7392 0.0000 0.0000 0.0000
# 4 0.0000 0.0000 0.0000 55.0386 0.0000 0.0000
# 5 0.0000 0.0000 0.0000 0.0000 29.1531 0.0000
# 6 0.0000 0.0000 0.0000 0.0000 0.0000 26.8679
#
#
#
# Elastic Compliance Matrix: (Units=1/GPa)
#
#
# Indices 1 2 3 4 5 6 
#
# 1 0.009696 0.001361 -0.004352 0.000000 0.000000 0.000000
# 2 0.001361 0.014010 -0.005063 0.000000 0.000000 0.000000
# 3 -0.004352 -0.005063 0.009211 0.000000 0.000000 0.000000
# 4 0.000000 0.000000 0.000000 0.018169 0.000000 0.000000
# 5 0.000000 0.000000 0.000000 0.000000 0.034302 0.000000
# 6 0.000000 0.000000 0.000000 0.000000 0.000000 0.037219
#
#
# Mechanical properties :
#
#
# Convention : Reuss Voigt Hill
#
# Bulk Modulus (GPa) = 59.49618 74.23667 66.86643
# Shear Modulus (GPa) = 34.64558 39.38777 37.01668
#
# Velocity S-wave (km/s) = 3.86328 4.11920 3.99329
# Velocity P-wave (km/s) = 6.74761 7.38946 7.07582
#
# Compressibility (1/GPa) = 0.01680780
#
# Stress axis : x y z
#
# Youngs Moduli (GPa) = 103.13416 71.37703 108.56888
#
# Poissons Ratio (x) = -0.09713 0.47248
# Poissons Ratio (y) = -0.14034 0.54973
# Poissons Ratio (z) = 0.44883 0.36141
#
# Static dielectric constant tensor:
#      x y z
#    x 4.053970 0.000000 0.000000 
#    y 0.000000 4.140200 0.000000 
#    z 0.000000 0.000000 4.701760 
# 
# 
# High freq. dielectric constant tensor:
#      x y z
#    x 1.912630 0.000000 0.000000 
#    y 0.000000 1.908520 0.000000 
#    z 0.000000 0.000000 1.949850 
# 
# From -- ./inp_files/7812.got.cif
#   From: 2010.03.12/outbox.cif.g09.slc.cpg/sg53_4_cif.got.tgz:7812.got - 2010.04.16 14:36:59.
