data_PCOD8222945
_publ_section_title
;
Structure prediction by ZEFSAII (Michael W. Deem and Ramdas Pophale) SiO2 
 PCOD8222945
Probable space group: P C C A
;
_chemical_formula_sum "Si O2"
_cell_formula_units_Z 52
_cell_length_a 5.154175
_cell_length_b 28.291787
_cell_length_c 17.920602
_cell_angle_alpha 90.000000
_cell_angle_beta 90.000000
_cell_angle_gamma 90.000000
_cell_volume 2613.196901
_symmetry_space_group_name_H-M "P C C A"
_symmetry_group_IT_number 54
_symmetry_cell_setting 'orthorhombic'
loop_
_space_group_symop_operation_xyz
x,y,z
1/2-x,-y,z
1/2+x,-y,1/2-z
-x,y,1/2-z
-x,-y,-z
1/2+x,y,-z
1/2-x,y,1/2+z
x,-y,1/2+z
loop_
_atom_site_type_symbol
_atom_site_label
_atom_site_fract_x
_atom_site_fract_y
_atom_site_fract_z
Si Si1 0.250000 0.000000 0.449142
Si Si2 0.999411 0.529953 0.163010
Si Si3 0.470803 0.799329 0.839180
Si Si4 0.965331 0.850981 0.836003
Si Si5 0.456419 0.718799 0.951852
Si Si6 0.056742 0.609978 0.452755
Si Si7 0.555741 0.042023 0.835508
O O1 0.201643 0.042154 0.388799
O O2 0.500000 0.000000 0.500000
O O3 0.750000 0.500000 0.139695
O O4 0.995602 0.579385 0.120393
O O5 0.250000 0.500000 0.139607
O O6 0.000000 0.542434 0.250000
O O7 0.500000 0.794097 0.750000
O O8 0.741174 0.819053 0.872002
O O9 0.421705 0.748460 0.875870
O O10 0.246678 0.836002 0.868006
O O11 0.853511 0.904287 0.845726
O O12 0.000000 0.839530 0.750000
O O13 0.453952 0.664287 0.927185
O O14 0.725855 0.731253 0.991604
O O15 0.338400 0.598176 0.485971
O O16 0.500000 0.030280 0.750000
O O17 0.750000 0.000000 0.864255
#
# Coordination Sequence:
#
# PCOD8222945 Si02
#       7
#     4   8   8   8   8   8   8
#     4  12  26  42  58  86 126 152 180 240 296 330
#     4  10  21  36  54  80 117 154 191 236 286 338
#     4  10  20  38  59  85 113 148 183 235 290 338
#     4   9  21  36  60  89 117 140 190 243 278 329
#     4  10  21  38  59  83 115 147 188 239 285 342
#     4  10  21  36  56  83 111 148 194 240 285 333
#     4  11  23  40  69  92 114 159 209 237 282 356
#
# _framework density 19.898999
#
# number of rings (size 3 to 8) (size 9 to 14) (size 15 to 20)
#    0.000    1.846    1.538    1.846    2.154    3.077 
#    0.000    4.615    0.000   11.077    0.000    0.000 
#    0.000    0.000    0.000    0.000    0.000    0.000 
#
# Total GULP energy -644206.313384 kJ/mol
# GULP energy per Si atom -12388.582950 kJ/mol
# Density = 1.985371 g / cm^3
# Si number density = 19.898999 Si / 1000 Ang^3
#
#
#
# Elastic Constant Matrix: (Units=GPa)
#
#
# Indices 1 2 3 4 5 6 
#
# 1 138.1843 55.0706 37.2179 0.0000 0.0000 0.0000
# 2 55.0706 120.9096 51.8672 0.0000 0.0000 0.0000
# 3 37.2179 51.8672 80.8845 0.0000 0.0000 0.0000
# 4 0.0000 0.0000 0.0000 10.1847 0.0000 0.0000
# 5 0.0000 0.0000 0.0000 0.0000 -3.7616 0.0000
# 6 0.0000 0.0000 0.0000 0.0000 0.0000 26.0316
#
#
#
# Elastic Compliance Matrix: (Units=1/GPa)
#
#
# Indices 1 2 3 4 5 6 
#
# 1 0.009095 -0.003238 -0.002109 0.000000 0.000000 0.000000
# 2 -0.003238 0.012562 -0.006565 0.000000 0.000000 0.000000
# 3 -0.002109 -0.006565 0.017544 0.000000 0.000000 0.000000
# 4 0.000000 0.000000 0.000000 0.098187 0.000000 0.000000
# 5 0.000000 0.000000 0.000000 0.000000 -0.265841 0.000000
# 6 0.000000 0.000000 0.000000 0.000000 0.000000 0.038415
#
#
# Mechanical properties :
#
#
# Convention : Reuss Voigt Hill
#
# Bulk Modulus (GPa) = 65.03399 69.80997 67.42198
# Shear Modulus (GPa) = -81.84691 19.54576 -31.15057
#
# Velocity S-wave (km/s) = -6.42032 3.13748 -3.96085
# Velocity P-wave (km/s) = 4.71250 6.94863 3.61080
#
# Compressibility (1/GPa) = 0.01537658
#
# Stress axis : x y z
#
# Youngs Moduli (GPa) = 109.94963 79.60636 57.00092
#
# Poissons Ratio (x) = 0.25776 0.12019
# Poissons Ratio (y) = 0.35602 0.37423
# Poissons Ratio (z) = 0.23184 0.52264
#
# Static dielectric constant tensor:
#      x y z
#    x 4.394290 0.000000 0.000000 
#    y 0.000000 3.529060 0.000000 
#    z 0.000000 0.000000 3.562050 
# 
# 
# High freq. dielectric constant tensor:
#      x y z
#    x 1.795840 0.000000 0.000000 
#    y 0.000000 1.769430 0.000000 
#    z 0.000000 0.000000 1.762700 
# 
# From -- ./inp_files/15966.got.cif
#   From: 2010.03.12/outbox.cif.g09.slc.cpg/sg54_8_cif.got.tgz:15966.got - 2010.04.16 15:00:50.
