data_PCOD8222166
_publ_section_title
;
Structure prediction by ZEFSAII (Michael W. Deem and Ramdas Pophale) SiO2 
 PCOD8222166
Probable space group: P M N A
;
_chemical_formula_sum "Si O2"
_cell_formula_units_Z 40
_cell_length_a 8.366694
_cell_length_b 9.836773
_cell_length_c 22.665370
_cell_angle_alpha 90.000000
_cell_angle_beta 90.000000
_cell_angle_gamma 90.000000
_cell_volume 1865.388728
_symmetry_space_group_name_H-M "P M N A"
_symmetry_group_IT_number 53
_symmetry_cell_setting 'orthorhombic'
loop_
_space_group_symop_operation_xyz
x,y,z
1/2-x,-y,1/2+z
x,-y,-z
1/2-x,y,1/2-z
-x,-y,-z
1/2+x,y,1/2-z
-x,y,z
1/2+x,-y,1/2+z
loop_
_atom_site_type_symbol
_atom_site_label
_atom_site_fract_x
_atom_site_fract_y
_atom_site_fract_z
Si Si1 0.188001 0.023539 0.315826
Si Si2 0.313428 0.273440 0.385254
Si Si3 0.815309 0.238188 0.872580
Si Si4 0.312895 0.656231 0.007063
Si Si5 0.685389 0.489735 0.813807
O O1 0.250000 0.001512 0.250000
O O2 0.234199 0.172349 0.338458
O O3 0.000000 0.004259 0.316553
O O4 0.268077 0.916705 0.360257
O O5 0.500000 0.243527 0.391534
O O6 0.229496 0.258626 0.448652
O O7 0.283478 0.425527 0.362089
O O8 0.781940 0.273155 0.940278
O O9 0.712582 0.331838 0.828315
O O10 0.000000 0.261321 0.858187
O O11 0.500000 0.664168 0.020972
O O12 0.257359 0.500000 0.000000
O O13 0.750000 0.527977 0.750000
O O14 0.500000 0.527150 0.818221
#
# Coordination Sequence:
#
# PCOD8222166 Si02
#       5
#     8   8   8   8   8
#     4  12  26  47  70  97 136 178 222 274 334 398
#     4  12  25  43  68  99 133 174 222 274 332 393
#     4  12  25  43  68  99 133 174 222 274 332 393
#     4  11  23  42  69 100 136 175 221 275 332 392
#     4  12  24  41  64  95 130 172 222 274 330 392
#
# _framework density 21.443252000000001
#
# number of rings (size 3 to 8) (size 9 to 14) (size 15 to 20)
#    0.000    0.200    2.000    9.000    0.000    1.600 
#    0.000    4.000    0.000    0.000    0.000    0.000 
#    0.000    0.000    0.000    0.000    0.000    0.000 
#
# Total GULP energy -496417.858925 kJ/mol
# GULP energy per Si atom -12410.446473 kJ/mol
# Density = 2.139445 g / cm^3
# Si number density = 21.443252 Si / 1000 Ang^3
#
#
#
# Elastic Constant Matrix: (Units=GPa)
#
#
# Indices 1 2 3 4 5 6 
#
# 1 108.9284 23.9634 37.3020 0.0000 0.0000 0.0000
# 2 23.9634 75.4110 21.2949 0.0000 0.0000 0.0000
# 3 37.3020 21.2949 91.5656 0.0000 0.0000 0.0000
# 4 0.0000 0.0000 0.0000 49.5111 0.0000 0.0000
# 5 0.0000 0.0000 0.0000 0.0000 36.4795 0.0000
# 6 0.0000 0.0000 0.0000 0.0000 0.0000 24.7117
#
#
#
# Elastic Compliance Matrix: (Units=1/GPa)
#
#
# Indices 1 2 3 4 5 6 
#
# 1 0.011060 -0.002400 -0.003948 0.000000 0.000000 0.000000
# 2 -0.002400 0.014713 -0.002444 0.000000 0.000000 0.000000
# 3 -0.003948 -0.002444 0.013098 0.000000 0.000000 0.000000
# 4 0.000000 0.000000 0.000000 0.020197 0.000000 0.000000
# 5 0.000000 0.000000 0.000000 0.000000 0.027413 0.000000
# 6 0.000000 0.000000 0.000000 0.000000 0.000000 0.040467
#
#
# Mechanical properties :
#
#
# Convention : Reuss Voigt Hill
#
# Bulk Modulus (GPa) = 46.97453 49.00286 47.98870
# Shear Modulus (GPa) = 32.97557 35.03009 34.00283
#
# Velocity S-wave (km/s) = 3.92574 4.04619 3.98642
# Velocity P-wave (km/s) = 6.51940 6.68811 6.60429
#
# Compressibility (1/GPa) = 0.02128813
#
# Stress axis : x y z
#
# Youngs Moduli (GPa) = 90.41503 67.96495 76.34924
#
# Poissons Ratio (x) = 0.16311 0.30139
# Poissons Ratio (y) = 0.21698 0.18661
# Poissons Ratio (z) = 0.35692 0.16612
#
# Static dielectric constant tensor:
#      x y z
#    x 3.911760 0.000000 0.000000 
#    y 0.000000 3.857660 0.000000 
#    z 0.000000 0.000000 3.803740 
# 
# 
# High freq. dielectric constant tensor:
#      x y z
#    x 1.857490 0.000000 0.000000 
#    y 0.000000 1.840510 0.000000 
#    z 0.000000 0.000000 1.856070 
# 
# From -- ./inp_files/33649.got.cif
#   From: 2010.03.12/outbox.cif.g09.slc.cpg/sg53_17_cif.got.tgz:33649.got - 2010.04.16 14:36:59.
