data_PCOD8222472
_publ_section_title
;
Structure prediction by ZEFSAII (Michael W. Deem and Ramdas Pophale) SiO2 
 PCOD8222472
Probable space group: P C C A
;
_chemical_formula_sum "Si O2"
_cell_formula_units_Z 40
_cell_length_a 12.945285
_cell_length_b 22.268523
_cell_length_c 5.350166
_cell_angle_alpha 90.000000
_cell_angle_beta 90.000000
_cell_angle_gamma 90.000000
_cell_volume 1542.305069
_symmetry_space_group_name_H-M "P C C A"
_symmetry_group_IT_number 54
_symmetry_cell_setting 'orthorhombic'
loop_
_space_group_symop_operation_xyz
x,y,z
1/2-x,-y,z
1/2+x,-y,1/2-z
-x,y,1/2-z
-x,-y,-z
1/2+x,y,-z
1/2-x,y,1/2+z
x,-y,1/2+z
loop_
_atom_site_type_symbol
_atom_site_label
_atom_site_fract_x
_atom_site_fract_y
_atom_site_fract_z
Si Si1 0.632042 0.786114 0.102049
Si Si2 0.115453 0.025229 0.984278
Si Si3 0.113759 0.474480 0.485479
Si Si4 0.684917 0.654579 0.019131
Si Si5 0.133640 0.165286 0.897817
O O1 0.578629 0.822420 0.871525
O O2 0.621088 0.715844 0.042746
O O3 0.578298 0.799159 0.371776
O O4 0.749901 0.809656 0.140862
O O5 0.125955 0.095911 0.960050
O O6 0.170615 0.994542 0.743504
O O7 0.000000 0.000000 0.000000
O O8 0.170362 0.503817 0.242015
O O9 0.109612 0.402510 0.460753
O O10 0.000000 0.500000 0.500000
O O11 0.765818 0.652498 0.244729
#
# Coordination Sequence:
#
# PCOD8222472 Si02
#       5
#     8   8   8   8   8
#     4  10  19  35  55  92 115 150 190 245 314 350
#     4  10  21  37  57  80 113 157 202 242 289 357
#     4  10  23  42  62  87 132 175 208 252 316 381
#     4  12  21  37  65  98 127 156 217 267 312 378
#     4  10  18  35  58  81 123 147 188 244 299 362
#
# _framework density 25.935206000000001
#
# number of rings (size 3 to 8) (size 9 to 14) (size 15 to 20)
#    0.000    1.600    4.000    2.400    0.000    2.400 
#    0.000   12.000    0.000   28.800    0.000    0.000 
#    0.000    0.000    0.000    0.000    0.000    0.000 
#
# Total GULP energy -495695.862812 kJ/mol
# GULP energy per Si atom -12392.396570 kJ/mol
# Density = 2.587618 g / cm^3
# Si number density = 25.935206 Si / 1000 Ang^3
#
#
#
# Elastic Constant Matrix: (Units=GPa)
#
#
# Indices 1 2 3 4 5 6 
#
# 1 42.8154 8.0460 -7.9459 0.0000 0.0000 0.0000
# 2 8.0460 247.1270 61.4412 0.0000 0.0000 0.0000
# 3 -7.9459 61.4412 272.3219 0.0000 0.0000 0.0000
# 4 0.0000 0.0000 0.0000 53.4013 0.0000 0.0000
# 5 0.0000 0.0000 0.0000 0.0000 -32.4031 0.0000
# 6 0.0000 0.0000 0.0000 0.0000 0.0000 36.4326
#
#
#
# Elastic Compliance Matrix: (Units=1/GPa)
#
#
# Indices 1 2 3 4 5 6 
#
# 1 0.023714 -0.001000 0.000918 0.000000 0.000000 0.000000
# 2 -0.001000 0.004329 -0.001006 0.000000 0.000000 0.000000
# 3 0.000918 -0.001006 0.003926 0.000000 0.000000 0.000000
# 4 0.000000 0.000000 0.000000 0.018726 0.000000 0.000000
# 5 0.000000 0.000000 0.000000 0.000000 -0.030861 0.000000
# 6 0.000000 0.000000 0.000000 0.000000 0.000000 0.027448
#
#
# Mechanical properties :
#
#
# Convention : Reuss Voigt Hill
#
# Bulk Modulus (GPa) = 33.56576 76.14966 54.85771
# Shear Modulus (GPa) = 84.18928 44.86771 64.52849
#
# Velocity S-wave (km/s) = 5.70367 4.16383 4.99346
# Velocity P-wave (km/s) = 7.50640 7.24858 7.37862
#
# Compressibility (1/GPa) = 0.02979226
#
# Stress axis : x y z
#
# Youngs Moduli (GPa) = 42.16859 230.99142 254.72145
#
# Poissons Ratio (x) = 0.23105 -0.23374
# Poissons Ratio (y) = 0.04218 0.25623
# Poissons Ratio (z) = -0.03869 0.23236
#
# Static dielectric constant tensor:
#      x y z
#    x 4.186290 0.000000 0.000000 
#    y 0.000000 4.699320 0.000000 
#    z 0.000000 0.000000 1.536940 
# 
# 
# High freq. dielectric constant tensor:
#      x y z
#    x 2.035770 0.000000 0.000000 
#    y 0.000000 2.033380 0.000000 
#    z 0.000000 0.000000 2.091360 
# 
# From -- ./inp_files/936.got.cif
#   From: 2010.03.12/outbox.cif.g09.slc.cpg/sg54_1_cif.got.tgz:936.got - 2010.04.16 15:00:50.
