data_PCOD8222503
_publ_section_title
;
Structure prediction by ZEFSAII (Michael W. Deem and Ramdas Pophale) SiO2 
 PCOD8222503
Probable space group: P C C A
;
_chemical_formula_sum "Si O2"
_cell_formula_units_Z 48
_cell_length_a 17.710069
_cell_length_b 11.289305
_cell_length_c 12.315181
_cell_angle_alpha 90.000000
_cell_angle_beta 90.000000
_cell_angle_gamma 90.000000
_cell_volume 2462.227961
_symmetry_space_group_name_H-M "P C C A"
_symmetry_group_IT_number 54
_symmetry_cell_setting 'orthorhombic'
loop_
_space_group_symop_operation_xyz
x,y,z
1/2-x,-y,z
1/2+x,-y,1/2-z
-x,y,1/2-z
-x,-y,-z
1/2+x,y,-z
1/2-x,y,1/2+z
x,-y,1/2+z
loop_
_atom_site_type_symbol
_atom_site_label
_atom_site_fract_x
_atom_site_fract_y
_atom_site_fract_z
Si Si1 0.344491 0.809882 0.327136
Si Si2 0.250000 0.000000 0.700429
Si Si3 0.156498 0.805708 0.082730
Si Si4 0.977867 0.650258 0.373910
Si Si5 0.500000 0.740670 0.250000
Si Si6 0.576702 0.400632 0.936824
Si Si7 0.225191 0.629877 0.677149
O O1 0.296974 0.915156 0.276882
O O2 0.336542 0.813692 0.454794
O O3 0.431044 0.823965 0.287951
O O4 0.310918 0.685433 0.285551
O O5 0.312040 0.929938 0.628577
O O6 0.069754 0.773194 0.115033
O O7 0.203665 0.699284 0.133101
O O8 0.929690 0.542682 0.426180
O O9 0.000000 0.627694 0.250000
O O10 0.054794 0.652476 0.445055
O O11 0.479101 0.656883 0.150278
O O12 0.663438 0.366422 0.918786
O O13 0.250000 0.500000 0.711867
#
# Coordination Sequence:
#
# PCOD8222503 Si02
#       7
#     8   4   8   8   4   8   8
#     4  10  22  40  66  86 123 166 210 265 314 380
#     4  10  24  44  64  88 122 162 220 276 312 360
#     4  11  22  42  63  91 123 168 213 262 323 367
#     4  11  22  36  60  92 129 164 200 253 311 378
#     4  10  18  38  62  90 120 166 204 238 318 384
#     4  10  20  35  58  90 130 165 194 246 309 384
#     4  10  21  36  59  95 127 161 207 249 314 391
#
# _framework density 19.494540000000001
#
# number of rings (size 3 to 8) (size 9 to 14) (size 15 to 20)
#    0.000    1.667    4.167    0.500    0.000    3.333 
#    1.500    2.500    0.000    0.000    0.000    0.000 
#    0.000    0.000    0.000    0.000    0.000    0.000 
#
# Total GULP energy -595163.999532 kJ/mol
# GULP energy per Si atom -12399.249990 kJ/mol
# Density = 1.945017 g / cm^3
# Si number density = 19.494540 Si / 1000 Ang^3
#
#
#
# Elastic Constant Matrix: (Units=GPa)
#
#
# Indices 1 2 3 4 5 6 
#
# 1 76.7400 29.9538 23.2855 0.0000 0.0000 0.0000
# 2 29.9538 86.4308 24.2275 0.0000 0.0000 0.0000
# 3 23.2855 24.2275 124.4649 0.0000 0.0000 0.0000
# 4 0.0000 0.0000 0.0000 33.7207 0.0000 0.0000
# 5 0.0000 0.0000 0.0000 0.0000 24.3748 0.0000
# 6 0.0000 0.0000 0.0000 0.0000 0.0000 39.5706
#
#
#
# Elastic Compliance Matrix: (Units=1/GPa)
#
#
# Indices 1 2 3 4 5 6 
#
# 1 0.015510 -0.004825 -0.001962 0.000000 0.000000 0.000000
# 2 -0.004825 0.013739 -0.001772 0.000000 0.000000 0.000000
# 3 -0.001962 -0.001772 0.008746 0.000000 0.000000 0.000000
# 4 0.000000 0.000000 0.000000 0.029655 0.000000 0.000000
# 5 0.000000 0.000000 0.000000 0.000000 0.041026 0.000000
# 6 0.000000 0.000000 0.000000 0.000000 0.000000 0.025271
#
#
# Mechanical properties :
#
#
# Convention : Reuss Voigt Hill
#
# Bulk Modulus (GPa) = 47.90014 49.17439 48.53726
# Shear Modulus (GPa) = 31.64061 33.54448 32.59255
#
# Velocity S-wave (km/s) = 4.03308 4.15265 4.09330
# Velocity P-wave (km/s) = 6.80530 6.94781 6.87692
#
# Compressibility (1/GPa) = 0.02087677
#
# Stress axis : x y z
#
# Youngs Moduli (GPa) = 64.47515 72.78688 114.33297
#
# Poissons Ratio (x) = 0.35120 0.22437
# Poissons Ratio (y) = 0.31110 0.20255
# Poissons Ratio (z) = 0.12653 0.12895
#
# Static dielectric constant tensor:
#      x y z
#    x 3.888550 0.000000 0.000000 
#    y 0.000000 3.547550 0.000000 
#    z 0.000000 0.000000 3.520600 
# 
# 
# High freq. dielectric constant tensor:
#      x y z
#    x 1.768070 0.000000 0.000000 
#    y 0.000000 1.745420 0.000000 
#    z 0.000000 0.000000 1.763540 
# 
# From -- ./inp_files/8988.got.cif
#   From: 2010.03.12/outbox.cif.g09.slc.cpg/sg54_5_cif.got.tgz:8988.got - 2010.04.16 15:00:50.
