data_PCOD8222296
_publ_section_title
;
Structure prediction by ZEFSAII (Michael W. Deem and Ramdas Pophale) SiO2 
 PCOD8222296
Probable space group: P C C A
;
_chemical_formula_sum "Si O2"
_cell_formula_units_Z 40
_cell_length_a 12.656237
_cell_length_b 22.384517
_cell_length_c 5.360680
_cell_angle_alpha 90.000000
_cell_angle_beta 90.000000
_cell_angle_gamma 90.000000
_cell_volume 1518.700759
_symmetry_space_group_name_H-M "P C C A"
_symmetry_group_IT_number 54
_symmetry_cell_setting 'orthorhombic'
loop_
_space_group_symop_operation_xyz
x,y,z
1/2-x,-y,z
1/2+x,-y,1/2-z
-x,y,1/2-z
-x,-y,-z
1/2+x,y,-z
1/2-x,y,1/2+z
x,-y,1/2+z
loop_
_atom_site_type_symbol
_atom_site_label
_atom_site_fract_x
_atom_site_fract_y
_atom_site_fract_z
Si Si1 0.183481 0.656973 0.919267
Si Si2 0.625263 0.784728 0.120596
Si Si3 0.139292 0.833098 0.375265
Si Si4 0.376212 0.967635 0.782030
Si Si5 0.629737 0.475472 0.616924
O O1 0.265494 0.659688 0.692465
O O2 0.105177 0.713611 0.892513
O O3 0.119320 0.595621 0.905203
O O4 0.750787 0.797383 0.125541
O O5 0.574688 0.812091 0.376014
O O6 0.574796 0.816499 0.876366
O O7 0.165239 0.903170 0.367949
O O8 0.500000 0.965784 0.750000
O O9 0.336002 0.988142 0.505552
O O10 0.750000 0.500000 0.636725
O O11 0.573279 0.506027 0.377175
#
# Coordination Sequence:
#
# PCOD8222296 Si02
#       5
#     8   8   8   8   8
#     4  12  16  25  38  53  82 114 151 181 207 249
#     4  10  19  30  43  67  90 119 148 172 214 260
#     4  10  18  32  48  65  90 112 142 178 207 258
#     4  10  21  37  54  70  87 111 142 175 216 262
#     4  10  16  22  31  49  73 108 153 186 204 233
#
# _framework density 26.338304999999998
#
# number of rings (size 3 to 8) (size 9 to 14) (size 15 to 20)
#    0.000    1.600    8.000    1.200    0.000    0.000 
#    0.000   12.000    0.000    0.000    0.000    0.000 
#    0.000    0.000    0.000    0.000    0.000   74.000 
#
# Total GULP energy -495837.681960 kJ/mol
# GULP energy per Si atom -12395.942049 kJ/mol
# Density = 2.627836 g / cm^3
# Si number density = 26.338305 Si / 1000 Ang^3
#
#
#
# Elastic Constant Matrix: (Units=GPa)
#
#
# Indices 1 2 3 4 5 6 
#
# 1 31.3729 -7.8431 13.4385 0.0000 0.0000 0.0000
# 2 -7.8431 236.3017 72.1778 0.0000 0.0000 0.0000
# 3 13.4385 72.1778 261.1888 0.0000 0.0000 0.0000
# 4 0.0000 0.0000 0.0000 55.7959 0.0000 0.0000
# 5 0.0000 0.0000 0.0000 0.0000 14.3103 0.0000
# 6 0.0000 0.0000 0.0000 0.0000 0.0000 -6.3380
#
#
#
# Elastic Compliance Matrix: (Units=1/GPa)
#
#
# Indices 1 2 3 4 5 6 
#
# 1 0.033262 0.001777 -0.002202 0.000000 0.000000 0.000000
# 2 0.001777 0.004717 -0.001395 0.000000 0.000000 0.000000
# 3 -0.002202 -0.001395 0.004327 0.000000 0.000000 0.000000
# 4 0.000000 0.000000 0.000000 0.017922 0.000000 0.000000
# 5 0.000000 0.000000 0.000000 0.000000 0.069880 0.000000
# 6 0.000000 0.000000 0.000000 0.000000 0.000000 -0.157779
#
#
# Mechanical properties :
#
#
# Convention : Reuss Voigt Hill
#
# Bulk Modulus (GPa) = 25.86290 76.04554 50.95422
# Shear Modulus (GPa) = -448.80162 42.82632 -202.98765
#
# Velocity S-wave (km/s) = -13.06785 4.03675 -8.78844
# Velocity P-wave (km/s) = 14.75977 7.11776 9.14299
#
# Compressibility (1/GPa) = 0.03866543
#
# Stress axis : x y z
#
# Youngs Moduli (GPa) = 30.06417 212.00285 231.08380
#
# Poissons Ratio (x) = -0.37667 0.50893
# Poissons Ratio (y) = -0.05342 0.32234
# Poissons Ratio (z) = 0.06621 0.29572
#
# Static dielectric constant tensor:
#      x y z
#    x 4.283630 0.000000 0.000000 
#    y 0.000000 4.918820 0.000000 
#    z 0.000000 0.000000 7.246720 
# 
# 
# High freq. dielectric constant tensor:
#      x y z
#    x 2.059590 0.000000 0.000000 
#    y 0.000000 2.050500 0.000000 
#    z 0.000000 0.000000 2.104140 
# 
# From -- ./inp_files/977.got.cif
#   From: 2010.03.12/outbox.cif.g09.slc.cpg/sg54_1_cif.got.tgz:977.got - 2010.04.16 15:00:50.
