data_PCOD8222687
_publ_section_title
;
Structure prediction by ZEFSAII (Michael W. Deem and Ramdas Pophale) SiO2 
 PCOD8222687
Probable space group: P C C A
;
_chemical_formula_sum "Si O2"
_cell_formula_units_Z 40
_cell_length_a 9.542437
_cell_length_b 12.056736
_cell_length_c 15.837064
_cell_angle_alpha 90.000000
_cell_angle_beta 90.000000
_cell_angle_gamma 90.000000
_cell_volume 1822.064408
_symmetry_space_group_name_H-M "P C C A"
_symmetry_group_IT_number 54
_symmetry_cell_setting 'orthorhombic'
loop_
_space_group_symop_operation_xyz
x,y,z
1/2-x,-y,z
1/2+x,-y,1/2-z
-x,y,1/2-z
-x,-y,-z
1/2+x,y,-z
1/2-x,y,1/2+z
x,-y,1/2+z
loop_
_atom_site_type_symbol
_atom_site_label
_atom_site_fract_x
_atom_site_fract_y
_atom_site_fract_z
Si Si1 0.781514 0.376363 0.405014
Si Si2 0.035660 0.723390 0.001989
Si Si3 0.789150 0.168390 0.301107
Si Si4 0.907867 0.893519 0.635919
Si Si5 0.501074 0.869799 0.847831
O O1 0.750000 0.500000 0.372909
O O2 0.666090 0.353078 0.475936
O O3 0.932297 0.353548 0.447691
O O4 0.769875 0.298605 0.322647
O O5 0.099312 0.829654 0.952203
O O6 0.962384 0.771460 0.086946
O O7 0.783492 0.150623 0.198717
O O8 0.668968 0.100976 0.352908
O O9 0.939411 0.124973 0.326117
O O10 0.899776 0.027282 0.627243
O O11 0.500000 0.828173 0.750000
#
# Coordination Sequence:
#
# PCOD8222687 Si02
#       5
#     8   8   8   8   8
#     4  10  21  42  64  84 121 155 204 259 305 344
#     4  10  23  38  61  92 119 158 206 247 301 372
#     4   9  20  36  57  85 116 158 198 244 291 362
#     4  10  19  37  59  85 121 159 195 237 302 367
#     4  11  21  34  58  87 129 158 192 242 305 357
#
# _framework density 21.953123000000001
#
# number of rings (size 3 to 8) (size 9 to 14) (size 15 to 20)
#    0.000    2.000    2.000    1.800    2.800    0.000 
#    0.000    3.000   35.200    0.000    0.000    0.000 
#    0.000    0.000    0.000    0.000    0.000    0.000 
#
# Total GULP energy -495642.334206 kJ/mol
# GULP energy per Si atom -12391.058355 kJ/mol
# Density = 2.190316 g / cm^3
# Si number density = 21.953123 Si / 1000 Ang^3
#
#
#
# Elastic Constant Matrix: (Units=GPa)
#
#
# Indices 1 2 3 4 5 6 
#
# 1 39.0358 19.9694 1.6945 0.0000 0.0000 0.0000
# 2 19.9694 79.9055 26.4477 0.0000 0.0000 0.0000
# 3 1.6945 26.4477 69.8956 0.0000 0.0000 0.0000
# 4 0.0000 0.0000 0.0000 23.1054 0.0000 0.0000
# 5 0.0000 0.0000 0.0000 0.0000 32.5205 0.0000
# 6 0.0000 0.0000 0.0000 0.0000 0.0000 29.7034
#
#
#
# Elastic Compliance Matrix: (Units=1/GPa)
#
#
# Indices 1 2 3 4 5 6 
#
# 1 0.029718 -0.008218 0.002389 0.000000 0.000000 0.000000
# 2 -0.008218 0.016579 -0.006074 0.000000 0.000000 0.000000
# 3 0.002389 -0.006074 0.016547 0.000000 0.000000 0.000000
# 4 0.000000 0.000000 0.000000 0.043280 0.000000 0.000000
# 5 0.000000 0.000000 0.000000 0.000000 0.030750 0.000000
# 6 0.000000 0.000000 0.000000 0.000000 0.000000 0.033666
#
#
# Mechanical properties :
#
#
# Convention : Reuss Voigt Hill
#
# Bulk Modulus (GPa) = 25.61553 31.67333 28.64443
# Shear Modulus (GPa) = 24.11288 26.44755 25.28021
#
# Velocity S-wave (km/s) = 3.31778 3.47469 3.39714
# Velocity P-wave (km/s) = 5.13522 5.52783 5.33514
#
# Compressibility (1/GPa) = 0.03903881
#
# Stress axis : x y z
#
# Youngs Moduli (GPa) = 33.65002 60.31764 60.43216
#
# Poissons Ratio (x) = 0.49566 -0.14437
# Poissons Ratio (y) = 0.27652 0.36707
# Poissons Ratio (z) = -0.08039 0.36637
#
# Static dielectric constant tensor:
#      x y z
#    x 4.383920 0.000000 0.000000 
#    y 0.000000 3.798180 0.000000 
#    z 0.000000 0.000000 4.309200 
# 
# 
# High freq. dielectric constant tensor:
#      x y z
#    x 1.888560 0.000000 0.000000 
#    y 0.000000 1.833160 0.000000 
#    z 0.000000 0.000000 1.853470 
# 
# From -- ./inp_files/12466.got.cif
#   From: 2010.03.12/outbox.cif.g09.slc.cpg/sg54_7_cif.got.tgz:12466.got - 2010.04.16 15:00:50.
