data_PCOD8222491
_publ_section_title
;
Structure prediction by ZEFSAII (Michael W. Deem and Ramdas Pophale) SiO2 
 PCOD8222491
Probable space group: P C C A
;
_chemical_formula_sum "Si O2"
_cell_formula_units_Z 36
_cell_length_a 10.044619
_cell_length_b 8.685778
_cell_length_c 20.206054
_cell_angle_alpha 90.000000
_cell_angle_beta 90.000000
_cell_angle_gamma 90.000000
_cell_volume 1762.883864
_symmetry_space_group_name_H-M "P C C A"
_symmetry_group_IT_number 54
_symmetry_cell_setting 'orthorhombic'
loop_
_space_group_symop_operation_xyz
x,y,z
1/2-x,-y,z
1/2+x,-y,1/2-z
-x,y,1/2-z
-x,-y,-z
1/2+x,y,-z
1/2-x,y,1/2+z
x,-y,1/2+z
loop_
_atom_site_type_symbol
_atom_site_label
_atom_site_fract_x
_atom_site_fract_y
_atom_site_fract_z
Si Si1 0.000000 0.876228 0.250000
Si Si2 0.901248 0.360490 0.934139
Si Si3 0.615303 0.092797 0.851788
Si Si4 0.284030 0.671089 0.708565
Si Si5 0.116214 0.705596 0.529418
O O1 0.871012 0.766972 0.238465
O O2 0.991032 0.983557 0.315452
O O3 0.873678 0.324345 0.857968
O O4 0.776886 0.297231 0.978746
O O5 0.922738 0.542868 0.937904
O O6 0.035917 0.276480 0.960219
O O7 0.646349 0.239712 0.804525
O O8 0.565120 0.157052 0.922413
O O9 0.750000 0.000000 0.864557
O O10 0.250000 0.500000 0.733988
#
# Coordination Sequence:
#
# PCOD8222491 Si02
#       5
#     4   8   8   8   8
#     4  10  22  34  56  78 112 152 202 244 292 360
#     4   9  16  31  57  84 112 150 195 236 290 350
#     4   9  18  35  54  79 115 156 189 238 305 352
#     4  10  18  37  57  80 111 156 201 240 297 355
#     4   9  16  31  54  82 116 151 188 238 288 351
#
# _framework density 20.421085000000001
#
# number of rings (size 3 to 8) (size 9 to 14) (size 15 to 20)
#    0.000    2.667    4.444    0.000    0.000    0.889 
#    0.000   16.667    4.889    0.000    0.000    0.000 
#    0.000    0.000    0.000    0.000    0.000    0.000 
#
# Total GULP energy -445999.982300 kJ/mol
# GULP energy per Si atom -12388.888397 kJ/mol
# Density = 2.037461 g / cm^3
# Si number density = 20.421085 Si / 1000 Ang^3
#
#
#
# Elastic Constant Matrix: (Units=GPa)
#
#
# Indices 1 2 3 4 5 6 
#
# 1 67.6322 31.2975 37.9990 0.0000 0.0000 0.0000
# 2 31.2975 126.2674 39.1957 0.0000 0.0000 0.0000
# 3 37.9990 39.1957 60.3938 0.0000 0.0000 0.0000
# 4 0.0000 0.0000 0.0000 33.7605 0.0000 0.0000
# 5 0.0000 0.0000 0.0000 0.0000 34.2612 0.0000
# 6 0.0000 0.0000 0.0000 0.0000 0.0000 28.8519
#
#
#
# Elastic Compliance Matrix: (Units=1/GPa)
#
#
# Indices 1 2 3 4 5 6 
#
# 1 0.023102 -0.001520 -0.013548 0.000000 0.000000 0.000000
# 2 -0.001520 0.010018 -0.005545 0.000000 0.000000 0.000000
# 3 -0.013548 -0.005545 0.028681 0.000000 0.000000 0.000000
# 4 0.000000 0.000000 0.000000 0.029620 0.000000 0.000000
# 5 0.000000 0.000000 0.000000 0.000000 0.029188 0.000000
# 6 0.000000 0.000000 0.000000 0.000000 0.000000 0.034660
#
#
# Mechanical properties :
#
#
# Convention : Reuss Voigt Hill
#
# Bulk Modulus (GPa) = 48.60758 52.36421 50.48590
# Shear Modulus (GPa) = 24.58771 29.09481 26.84126
#
# Velocity S-wave (km/s) = 3.47369 3.77867 3.62938
# Velocity P-wave (km/s) = 6.32005 6.68848 6.50687
#
# Compressibility (1/GPa) = 0.02057292
#
# Stress axis : x y z
#
# Youngs Moduli (GPa) = 43.28701 99.82219 34.86610
#
# Poissons Ratio (x) = 0.15177 0.47238
# Poissons Ratio (y) = 0.06582 0.19333
# Poissons Ratio (z) = 0.58647 0.55351
#
# Static dielectric constant tensor:
#      x y z
#    x 3.778290 0.000000 0.000000 
#    y 0.000000 4.155080 0.000000 
#    z 0.000000 0.000000 3.448190 
# 
# 
# High freq. dielectric constant tensor:
#      x y z
#    x 1.769970 0.000000 0.000000 
#    y 0.000000 1.818920 0.000000 
#    z 0.000000 0.000000 1.755200 
# 
# From -- ./inp_files/25678.got.cif
#   From: 2010.03.12/outbox.cif.g09.slc.cpg/sg54_13_cif.got.tgz:25678.got - 2010.04.16 15:00:50.
