data_PCOD8222719
_publ_section_title
;
Structure prediction by ZEFSAII (Michael W. Deem and Ramdas Pophale) SiO2 
 PCOD8222719
Probable space group: P C C A
;
_chemical_formula_sum "Si O2"
_cell_formula_units_Z 44
_cell_length_a 8.334803
_cell_length_b 9.118530
_cell_length_c 26.721174
_cell_angle_alpha 90.000000
_cell_angle_beta 90.000000
_cell_angle_gamma 90.000000
_cell_volume 2030.839985
_symmetry_space_group_name_H-M "P C C A"
_symmetry_group_IT_number 54
_symmetry_cell_setting 'orthorhombic'
loop_
_space_group_symop_operation_xyz
x,y,z
1/2-x,-y,z
1/2+x,-y,1/2-z
-x,y,1/2-z
-x,-y,-z
1/2+x,y,-z
1/2-x,y,1/2+z
x,-y,1/2+z
loop_
_atom_site_type_symbol
_atom_site_label
_atom_site_fract_x
_atom_site_fract_y
_atom_site_fract_z
Si Si1 0.907602 0.287017 0.965562
Si Si2 0.919710 0.082360 0.802663
Si Si3 0.507050 0.857297 0.123134
Si Si4 0.267529 0.338993 0.140989
Si Si5 0.261956 0.339824 0.935828
Si Si6 0.250000 0.000000 0.050097
O O1 0.817320 0.351887 0.917397
O O2 0.836712 0.126705 0.981560
O O3 0.094749 0.275267 0.954738
O O4 0.876543 0.378302 0.016361
O O5 0.897189 0.238947 0.830056
O O6 0.000000 0.114915 0.750000
O O7 0.750000 0.000000 0.797263
O O8 0.042935 0.981359 0.834997
O O9 0.410075 0.724299 0.148047
O O10 0.667565 0.786826 0.100103
O O11 0.389067 0.930259 0.083365
O O12 0.250000 0.500000 0.164594
O O13 0.250000 0.500000 0.908462
#
# Coordination Sequence:
#
# PCOD8222719 Si02
#       6
#     8   8   8   8   8   4
#     4  11  22  38  61  88 130 168 214 259 311 380
#     4  10  21  41  65  92 119 159 207 262 322 380
#     4  10  20  41  62  85 127 159 214 259 312 377
#     4  10  19  39  65  89 124 168 206 259 319 376
#     4  12  25  38  59  94 129 172 214 261 319 381
#     4  10  20  42  60  90 116 168 216 256 312 360
#
# _framework density 21.665911000000001
#
# number of rings (size 3 to 8) (size 9 to 14) (size 15 to 20)
#    0.000    1.455    4.545    4.364    0.000    5.091 
#    0.000    3.636    0.000    2.182    0.000    0.000 
#    0.000    0.000    0.000    0.000    0.000    0.000 
#
# Total GULP energy -545380.606014 kJ/mol
# GULP energy per Si atom -12395.013773 kJ/mol
# Density = 2.161660 g / cm^3
# Si number density = 21.665911 Si / 1000 Ang^3
#
#
#
# Elastic Constant Matrix: (Units=GPa)
#
#
# Indices 1 2 3 4 5 6 
#
# 1 91.4725 40.5969 21.3631 0.0000 0.0000 0.0000
# 2 40.5969 143.0532 45.9894 0.0000 0.0000 0.0000
# 3 21.3631 45.9894 93.9884 0.0000 0.0000 0.0000
# 4 0.0000 0.0000 0.0000 16.7686 0.0000 0.0000
# 5 0.0000 0.0000 0.0000 0.0000 44.8223 0.0000
# 6 0.0000 0.0000 0.0000 0.0000 0.0000 21.7729
#
#
#
# Elastic Compliance Matrix: (Units=1/GPa)
#
#
# Indices 1 2 3 4 5 6 
#
# 1 0.012646 -0.003162 -0.001327 0.000000 0.000000 0.000000
# 2 -0.003162 0.009086 -0.003727 0.000000 0.000000 0.000000
# 3 -0.001327 -0.003727 0.012765 0.000000 0.000000 0.000000
# 4 0.000000 0.000000 0.000000 0.059635 0.000000 0.000000
# 5 0.000000 0.000000 0.000000 0.000000 0.022310 0.000000
# 6 0.000000 0.000000 0.000000 0.000000 0.000000 0.045929
#
#
# Mechanical properties :
#
#
# Convention : Reuss Voigt Hill
#
# Bulk Modulus (GPa) = 55.35864 60.49030 57.92447
# Shear Modulus (GPa) = 27.05272 31.37708 29.21490
#
# Velocity S-wave (km/s) = 3.53743 3.80968 3.67608
# Velocity P-wave (km/s) = 6.50316 6.87981 6.69413
#
# Compressibility (1/GPa) = 0.01806403
#
# Stress axis : x y z
#
# Youngs Moduli (GPa) = 79.07930 110.05978 78.33939
#
# Poissons Ratio (x) = 0.34801 0.10396
# Poissons Ratio (y) = 0.25005 0.29198
# Poissons Ratio (z) = 0.10494 0.41021
#
# Static dielectric constant tensor:
#      x y z
#    x 3.752770 0.000000 0.000000 
#    y 0.000000 4.177360 0.000000 
#    z 0.000000 0.000000 3.667310 
# 
# 
# High freq. dielectric constant tensor:
#      x y z
#    x 1.846780 0.000000 0.000000 
#    y 0.000000 1.866320 0.000000 
#    z 0.000000 0.000000 1.811010 
# 
# From -- ./inp_files/27622.got.cif
#   From: 2010.03.12/outbox.cif.g09.slc.cpg/sg54_14_cif.got.tgz:27622.got - 2010.04.16 15:00:50.
