data_PCOD8222317
_publ_section_title
;
Structure prediction by ZEFSAII (Michael W. Deem and Ramdas Pophale) SiO2 
 PCOD8222317
Probable space group: P C C A
;
_chemical_formula_sum "Si O2"
_cell_formula_units_Z 48
_cell_length_a 5.244294
_cell_length_b 17.315925
_cell_length_c 27.530536
_cell_angle_alpha 90.000000
_cell_angle_beta 90.000000
_cell_angle_gamma 90.000000
_cell_volume 2500.042512
_symmetry_space_group_name_H-M "P C C A"
_symmetry_group_IT_number 54
_symmetry_cell_setting 'orthorhombic'
loop_
_space_group_symop_operation_xyz
x,y,z
1/2-x,-y,z
1/2+x,-y,1/2-z
-x,y,1/2-z
-x,-y,-z
1/2+x,y,-z
1/2-x,y,1/2+z
x,-y,1/2+z
loop_
_atom_site_type_symbol
_atom_site_label
_atom_site_fract_x
_atom_site_fract_y
_atom_site_fract_z
Si Si1 0.249999 0.090706 0.279487
Si Si2 0.249999 0.590706 0.220513
Si Si3 0.778545 0.700245 0.368816
Si Si4 0.710140 0.836062 0.020840
Si Si5 0.789860 0.663937 0.479160
Si Si6 0.221455 0.799754 0.868816
O O1 0.500000 0.116663 0.250000
O O2 0.253461 0.131309 0.331215
O O3 0.000000 0.116717 0.250000
O O4 0.250000 0.000000 0.289461
O O5 0.250000 0.500000 0.210539
O O6 0.500000 0.616663 0.250000
O O7 0.253462 0.631309 0.168784
O O8 0.000000 0.616717 0.250000
O O9 0.755866 0.662680 0.421682
O O10 0.554219 0.761807 0.361280
O O11 0.054219 0.738192 0.361280
O O12 0.744136 0.837320 0.078318
O O13 0.449431 0.879135 0.004615
O O14 0.672886 0.750000 0.000000
O O15 0.550569 0.620864 0.504615
#
# Coordination Sequence:
#
# PCOD8222317 Si02
#       6
#     8   8   8   8   8   8
#     4  10  23  42  57  74 110 152 179 216 278 330
#     4  10  23  42  57  74 110 152 179 216 278 330
#     4  12  21  32  58  88 106 138 185 229 262 312
#     4  10  16  30  48  76 109 143 165 208 268 328
#     4  10  16  30  48  76 109 143 165 208 268 328
#     4  12  21  32  58  88 106 138 185 229 262 312
#
# _framework density 19.199673000000001
#
# number of rings (size 3 to 8) (size 9 to 14) (size 15 to 20)
#    0.000    1.333    6.667    2.000    0.000    4.000 
#    0.000    0.000    0.000    2.000    0.000    0.000 
#    0.000    0.000    0.000    0.000    0.000    0.000 
#
# Total GULP energy -595157.319120 kJ/mol
# GULP energy per Si atom -12399.110815 kJ/mol
# Density = 1.915597 g / cm^3
# Si number density = 19.199673 Si / 1000 Ang^3
#
#
#
# Elastic Constant Matrix: (Units=GPa)
#
#
# Indices 1 2 3 4 5 6 
#
# 1 149.8631 13.6055 31.7151 0.0000 0.0000 0.0000
# 2 13.6055 23.0785 42.3022 0.0000 0.0000 0.0000
# 3 31.7151 42.3022 159.2634 0.0000 0.0000 0.0000
# 4 0.0000 0.0000 0.0000 4.4143 0.0000 0.0000
# 5 0.0000 0.0000 0.0000 0.0000 32.4575 0.0000
# 6 0.0000 0.0000 0.0000 0.0000 0.0000 6.8400
#
#
#
# Elastic Compliance Matrix: (Units=1/GPa)
#
#
# Indices 1 2 3 4 5 6 
#
# 1 0.007078 -0.003097 -0.000587 0.000000 0.000000 0.000000
# 2 -0.003097 0.085797 -0.022172 0.000000 0.000000 0.000000
# 3 -0.000587 -0.022172 0.012285 0.000000 0.000000 0.000000
# 4 0.000000 0.000000 0.000000 0.226537 0.000000 0.000000
# 5 0.000000 0.000000 0.000000 0.000000 0.030810 0.000000
# 6 0.000000 0.000000 0.000000 0.000000 0.000000 0.146199
#
#
# Mechanical properties :
#
#
# Convention : Reuss Voigt Hill
#
# Bulk Modulus (GPa) = 18.70976 56.38339 37.54658
# Shear Modulus (GPa) = 8.64703 25.04783 16.84743
#
# Velocity S-wave (km/s) = 2.12450 3.61584 2.96545
# Velocity P-wave (km/s) = 3.97291 6.84565 5.59674
#
# Compressibility (1/GPa) = 0.05344805
#
# Stress axis : x y z
#
# Youngs Moduli (GPa) = 141.28032 11.65549 81.40083
#
# Poissons Ratio (x) = 0.03610 0.04778
# Poissons Ratio (y) = 0.43754 1.80481
# Poissons Ratio (z) = 0.08292 0.25842
#
# Static dielectric constant tensor:
#      x y z
#    x 4.988790 0.000000 0.000000 
#    y 0.000000 2.924460 0.000000 
#    z 0.000000 0.000000 3.567700 
# 
# 
# High freq. dielectric constant tensor:
#      x y z
#    x 1.786170 0.000000 0.000000 
#    y 0.000000 1.685410 0.000000 
#    z 0.000000 0.000000 1.761050 
# 
# From -- ./inp_files/17290.got.cif
#   From: 2010.03.12/outbox.cif.g09.slc.cpg/sg54_9_cif.got.tgz:17290.got - 2010.04.16 15:00:50.
