data_PCOD8222536
_publ_section_title
;
Structure prediction by ZEFSAII (Michael W. Deem and Ramdas Pophale) SiO2 
 PCOD8222536
Probable space group: P C C A
;
_chemical_formula_sum "Si O2"
_cell_formula_units_Z 56
_cell_length_a 13.292334
_cell_length_b 35.281699
_cell_length_c 5.220393
_cell_angle_alpha 90.000000
_cell_angle_beta 90.000000
_cell_angle_gamma 90.000000
_cell_volume 2448.239692
_symmetry_space_group_name_H-M "P C C A"
_symmetry_group_IT_number 54
_symmetry_cell_setting 'orthorhombic'
loop_
_space_group_symop_operation_xyz
x,y,z
1/2-x,-y,z
1/2+x,-y,1/2-z
-x,y,1/2-z
-x,-y,-z
1/2+x,y,-z
1/2-x,y,1/2+z
x,-y,1/2+z
loop_
_atom_site_type_symbol
_atom_site_label
_atom_site_fract_x
_atom_site_fract_y
_atom_site_fract_z
Si Si1 0.865623 0.484050 0.652311
Si Si2 0.500000 0.366682 0.750000
Si Si3 0.188082 0.772016 0.779411
Si Si4 0.113488 0.852732 0.744607
Si Si5 0.619494 0.978174 0.751608
Si Si6 0.120137 0.107423 0.745099
Si Si7 0.683954 0.310833 0.800746
Si Si8 0.000000 0.416498 0.750000
O O1 0.750000 0.500000 0.630550
O O2 0.918199 0.492791 0.381892
O O3 0.894805 0.440396 0.713130
O O4 0.597574 0.341356 0.782136
O O5 0.517337 0.391681 0.499772
O O6 0.279309 0.774629 0.576107
O O7 0.114673 0.807132 0.729065
O O8 0.135279 0.731354 0.727143
O O9 0.164954 0.871136 0.494132
O O10 0.000000 0.866738 0.750000
O O11 0.164433 0.869731 0.000621
O O12 0.500000 0.977573 0.750000
O O13 0.661216 0.935437 0.760329
O O14 0.660301 0.999055 0.497881
O O15 0.000000 0.108396 0.750000
O O16 0.765563 0.316532 0.577375
#
# Coordination Sequence:
#
# PCOD8222536 Si02
#       8
#     8   4   8   8   8   8   8   4
#     4  10  21  41  65  94 132 176 219 274 337 386
#     4  12  26  45  70 104 138 182 226 278 334 395
#     4  10  21  38  61  84 114 152 194 240 291 359
#     4  10  19  31  51  78 106 141 178 228 290 349
#     4   9  15  23  37  57  89 138 177 208 272 351
#     4   9  17  28  41  68 107 134 173 234 284 337
#     4  10  23  46  67  95 135 174 218 276 325 387
#     4  12  24  43  66 104 136 172 232 280 322 399
#
# _framework density 22.873577000000001
#
# number of rings (size 3 to 8) (size 9 to 14) (size 15 to 20)
#    0.000    2.000    0.000    3.857    1.000    3.429 
#   15.429    0.000    0.000    0.000    0.000    0.000 
#    0.000   40.000    0.000    0.000    0.000    0.000 
#
# Total GULP energy -693882.505273 kJ/mol
# GULP energy per Si atom -12390.759023 kJ/mol
# Density = 2.282152 g / cm^3
# Si number density = 22.873577 Si / 1000 Ang^3
#
#
#
# Elastic Constant Matrix: (Units=GPa)
#
#
# Indices 1 2 3 4 5 6 
#
# 1 58.5697 34.7954 -0.8448 0.0000 0.0000 0.0000
# 2 34.7954 180.2846 70.9783 0.0000 0.0000 0.0000
# 3 -0.8448 70.9783 202.2876 0.0000 0.0000 0.0000
# 4 0.0000 0.0000 0.0000 46.3016 0.0000 0.0000
# 5 0.0000 0.0000 0.0000 0.0000 -33.2329 0.0000
# 6 0.0000 0.0000 0.0000 0.0000 0.0000 18.2670
#
#
#
# Elastic Compliance Matrix: (Units=1/GPa)
#
#
# Indices 1 2 3 4 5 6 
#
# 1 0.019747 -0.004460 0.001647 0.000000 0.000000 0.000000
# 2 -0.004460 0.007443 -0.002630 0.000000 0.000000 0.000000
# 3 0.001647 -0.002630 0.005873 0.000000 0.000000 0.000000
# 4 0.000000 0.000000 0.000000 0.021598 0.000000 0.000000
# 5 0.000000 0.000000 0.000000 0.000000 -0.030091 0.000000
# 6 0.000000 0.000000 0.000000 0.000000 0.000000 0.054744
#
#
# Mechanical properties :
#
#
# Convention : Reuss Voigt Hill
#
# Bulk Modulus (GPa) = 45.09008 72.33329 58.71169
# Shear Modulus (GPa) = 51.23388 28.68134 39.95761
#
# Velocity S-wave (km/s) = 4.73786 3.54490 4.18411
# Velocity P-wave (km/s) = 7.04878 6.96037 7.00472
#
# Compressibility (1/GPa) = 0.02217783
#
# Stress axis : x y z
#
# Youngs Moduli (GPa) = 50.64083 134.35341 170.26410
#
# Poissons Ratio (x) = 0.59918 -0.28048
# Poissons Ratio (y) = 0.22585 0.44783
# Poissons Ratio (z) = -0.08342 0.35338
#
# Static dielectric constant tensor:
#      x y z
#    x 3.743720 0.000000 0.000000 
#    y 0.000000 4.268670 0.000000 
#    z 0.000000 0.000000 4.842190 
# 
# 
# High freq. dielectric constant tensor:
#      x y z
#    x 1.890810 0.000000 0.000000 
#    y 0.000000 1.905090 0.000000 
#    z 0.000000 0.000000 1.932830 
# 
# From -- ./inp_files/778.got.cif
#   From: 2010.03.12/outbox.cif.g09.slc.cpg/sg54_1_cif.got.tgz:778.got - 2010.04.16 15:00:50.
