data_PCOD8222814
_publ_section_title
;
Structure prediction by ZEFSAII (Michael W. Deem and Ramdas Pophale) SiO2 
 PCOD8222814
Probable space group: P C C A
;
_chemical_formula_sum "Si O2"
_cell_formula_units_Z 48
_cell_length_a 17.160245
_cell_length_b 13.616131
_cell_length_c 9.165733
_cell_angle_alpha 90.000000
_cell_angle_beta 90.000000
_cell_angle_gamma 90.000000
_cell_volume 2141.629829
_symmetry_space_group_name_H-M "P C C A"
_symmetry_group_IT_number 54
_symmetry_cell_setting 'orthorhombic'
loop_
_space_group_symop_operation_xyz
x,y,z
1/2-x,-y,z
1/2+x,-y,1/2-z
-x,y,1/2-z
-x,-y,-z
1/2+x,y,-z
1/2-x,y,1/2+z
x,-y,1/2+z
loop_
_atom_site_type_symbol
_atom_site_label
_atom_site_fract_x
_atom_site_fract_y
_atom_site_fract_z
Si Si1 0.418706 0.029358 0.189098
Si Si2 0.667313 0.545709 0.375244
Si Si3 0.925342 0.254932 0.841594
Si Si4 0.868576 0.375780 0.086938
Si Si5 0.201265 0.287780 0.899880
Si Si6 0.678474 0.065809 0.039446
O O1 0.500000 0.988508 0.250000
O O2 0.430483 0.139293 0.130308
O O3 0.347656 0.030812 0.302066
O O4 0.395394 0.952654 0.064450
O O5 0.750000 0.500000 0.317450
O O6 0.630295 0.459610 0.466906
O O7 0.669030 0.641113 0.476416
O O8 0.608849 0.573186 0.240697
O O9 0.924961 0.296936 0.008224
O O10 0.848585 0.288918 0.750602
O O11 0.000000 0.291305 0.750000
O O12 0.788005 0.323401 0.134551
O O13 0.202510 0.179089 0.967268
O O14 0.750000 0.000000 0.985446
#
# Coordination Sequence:
#
# PCOD8222814 Si02
#       6
#     8   8   8   8   8   8
#     4  10  22  40  59  81 117 161 193 227 289 355
#     4  10  20  35  59  88 115 149 192 234 282 345
#     4  10  22  40  60  85 119 154 189 237 293 340
#     4  11  20  36  61  85 113 151 193 235 282 342
#     4  10  21  37  57  85 117 150 194 238 282 341
#     4  11  22  36  58  88 116 145 193 249 286 325
#
# _framework density 22.412835999999999
#
# number of rings (size 3 to 8) (size 9 to 14) (size 15 to 20)
#    0.000    1.667    0.000    6.500    0.000    5.333 
#    0.000    4.167    0.000    0.000    0.000    0.000 
#    0.000    0.000    0.000    0.000    0.000    0.000 
#
# Total GULP energy -594896.375276 kJ/mol
# GULP energy per Si atom -12393.674485 kJ/mol
# Density = 2.236182 g / cm^3
# Si number density = 22.412836 Si / 1000 Ang^3
#
#
#
# Elastic Constant Matrix: (Units=GPa)
#
#
# Indices 1 2 3 4 5 6 
#
# 1 47.3481 16.8326 -11.2158 0.0000 0.0000 0.0000
# 2 16.8326 100.8242 24.7801 0.0000 0.0000 0.0000
# 3 -11.2158 24.7801 59.2789 0.0000 0.0000 0.0000
# 4 0.0000 0.0000 0.0000 23.9686 0.0000 0.0000
# 5 0.0000 0.0000 0.0000 0.0000 29.6068 0.0000
# 6 0.0000 0.0000 0.0000 0.0000 0.0000 22.1823
#
#
#
# Elastic Compliance Matrix: (Units=1/GPa)
#
#
# Indices 1 2 3 4 5 6 
#
# 1 0.024934 -0.005932 0.007197 0.000000 0.000000 0.000000
# 2 -0.005932 0.012465 -0.006333 0.000000 0.000000 0.000000
# 3 0.007197 -0.006333 0.020878 0.000000 0.000000 0.000000
# 4 0.000000 0.000000 0.000000 0.041721 0.000000 0.000000
# 5 0.000000 0.000000 0.000000 0.000000 0.033776 0.000000
# 6 0.000000 0.000000 0.000000 0.000000 0.000000 0.045081
#
#
# Mechanical properties :
#
#
# Convention : Reuss Voigt Hill
#
# Bulk Modulus (GPa) = 20.77174 29.80499 25.28837
# Shear Modulus (GPa) = 24.38575 26.95516 25.67045
#
# Velocity S-wave (km/s) = 3.30210 3.47171 3.38797
# Velocity P-wave (km/s) = 4.88123 5.42194 5.15867
#
# Compressibility (1/GPa) = 0.04814233
#
# Stress axis : x y z
#
# Youngs Moduli (GPa) = 40.10636 80.22454 47.89627
#
# Poissons Ratio (x) = 0.47586 -0.34471
# Poissons Ratio (y) = 0.23789 0.30333
# Poissons Ratio (z) = -0.28865 0.50806
#
# Static dielectric constant tensor:
#      x y z
#    x 3.837880 0.000000 0.000000 
#    y 0.000000 4.211010 0.000000 
#    z 0.000000 0.000000 4.078140 
# 
# 
# High freq. dielectric constant tensor:
#      x y z
#    x 1.850630 0.000000 0.000000 
#    y 0.000000 1.896570 0.000000 
#    z 0.000000 0.000000 1.889370 
# 
# From -- ./inp_files/4209.got.cif
#   From: 2010.03.12/outbox.cif.g09.slc.cpg/sg54_3_cif.got.tgz:4209.got - 2010.04.16 15:00:50.
