data_PCOD8222431
_publ_section_title
;
Structure prediction by ZEFSAII (Michael W. Deem and Ramdas Pophale) SiO2 
 PCOD8222431
Probable space group: P C C A
;
_chemical_formula_sum "Si O2"
_cell_formula_units_Z 56
_cell_length_a 23.262818
_cell_length_b 6.059698
_cell_length_c 20.629329
_cell_angle_alpha 90.000000
_cell_angle_beta 90.000000
_cell_angle_gamma 90.000000
_cell_volume 2908.026807
_symmetry_space_group_name_H-M "P C C A"
_symmetry_group_IT_number 54
_symmetry_cell_setting 'orthorhombic'
loop_
_space_group_symop_operation_xyz
x,y,z
1/2-x,-y,z
1/2+x,-y,1/2-z
-x,y,1/2-z
-x,-y,-z
1/2+x,y,-z
1/2-x,y,1/2+z
x,-y,1/2+z
loop_
_atom_site_type_symbol
_atom_site_label
_atom_site_fract_x
_atom_site_fract_y
_atom_site_fract_z
Si Si1 0.475771 0.289103 0.949275
Si Si2 0.692059 0.112256 0.982390
Si Si3 0.576930 0.061676 0.672665
Si Si4 0.305975 0.886918 0.384743
Si Si5 0.000000 0.344143 0.250000
Si Si6 0.750000 0.500000 0.543429
Si Si7 0.425108 0.962354 0.558382
Si Si8 0.998502 0.325849 0.635910
O O1 0.450321 0.206092 0.882906
O O2 0.485412 0.553277 0.934811
O O3 0.536132 0.168593 0.964183
O O4 0.428741 0.231526 0.004127
O O5 0.707137 0.368052 0.995015
O O6 0.750000 0.000000 0.955026
O O7 0.673300 0.020210 0.052229
O O8 0.639568 0.058645 0.933262
O O9 0.645501 0.093940 0.670283
O O10 0.553908 0.178799 0.738055
O O11 0.557242 0.806053 0.663486
O O12 0.290339 0.642147 0.408868
O O13 0.250000 0.000000 0.353460
O O14 0.982124 0.495902 0.311027
O O15 0.449636 0.850540 0.624576
#
# Coordination Sequence:
#
# PCOD8222431 Si02
#       8
#     8   8   8   8   4   4   8   8
#     4   9  19  30  49  81 109 146 173 209 277 327
#     4   9  18  31  48  76 112 152 180 213 263 321
#     4  10  19  36  52  78 114 137 182 233 270 337
#     4   9  18  32  50  78 109 146 175 217 269 327
#     4  10  22  36  54  80 102 140 188 236 294 324
#     4   8  18  32  48  74 110 152 184 200 268 330
#     4  10  18  33  49  80 116 139 182 224 257 338
#     4  10  21  35  55  78 103 148 179 225 287 332
#
# _framework density 19.257045000000002
#
# number of rings (size 3 to 8) (size 9 to 14) (size 15 to 20)
#    0.000    2.857    1.429    0.857    0.000    6.857 
#    0.000    0.000    0.000    0.000    0.000   32.000 
#    0.000    0.000    0.000    0.000    0.000    0.000 
#
# Total GULP energy -693766.973407 kJ/mol
# GULP energy per Si atom -12388.695954 kJ/mol
# Density = 1.921322 g / cm^3
# Si number density = 19.257045 Si / 1000 Ang^3
#
#
#
# Elastic Constant Matrix: (Units=GPa)
#
#
# Indices 1 2 3 4 5 6 
#
# 1 146.5489 52.0333 33.6027 0.0000 0.0000 0.0000
# 2 52.0333 127.5428 30.0259 0.0000 0.0000 0.0000
# 3 33.6027 30.0259 35.0062 0.0000 0.0000 0.0000
# 4 0.0000 0.0000 0.0000 25.1842 0.0000 0.0000
# 5 0.0000 0.0000 0.0000 0.0000 26.0735 0.0000
# 6 0.0000 0.0000 0.0000 0.0000 0.0000 18.5516
#
#
#
# Elastic Compliance Matrix: (Units=1/GPa)
#
#
# Indices 1 2 3 4 5 6 
#
# 1 0.009174 -0.002092 -0.007012 0.000000 0.000000 0.000000
# 2 -0.002092 0.010301 -0.006828 0.000000 0.000000 0.000000
# 3 -0.007012 -0.006828 0.041153 0.000000 0.000000 0.000000
# 4 0.000000 0.000000 0.000000 0.039708 0.000000 0.000000
# 5 0.000000 0.000000 0.000000 0.000000 0.038353 0.000000
# 6 0.000000 0.000000 0.000000 0.000000 0.000000 0.053904
#
#
# Mechanical properties :
#
#
# Convention : Reuss Voigt Hill
#
# Bulk Modulus (GPa) = 34.76359 60.04685 47.40522
# Shear Modulus (GPa) = 21.36339 26.85759 24.11049
#
# Velocity S-wave (km/s) = 3.33435 3.73860 3.54225
# Velocity P-wave (km/s) = 5.73720 7.06298 6.43433
#
# Compressibility (1/GPa) = 0.02876573
#
# Stress axis : x y z
#
# Youngs Moduli (GPa) = 109.00051 97.07487 24.29930
#
# Poissons Ratio (x) = 0.20308 0.17039
# Poissons Ratio (y) = 0.22803 0.16591
# Poissons Ratio (z) = 0.76431 0.66279
#
# Static dielectric constant tensor:
#      x y z
#    x 3.639350 0.000000 0.000000 
#    y 0.000000 3.973080 0.000000 
#    z 0.000000 0.000000 3.316890 
# 
# 
# High freq. dielectric constant tensor:
#      x y z
#    x 1.731130 0.000000 0.000000 
#    y 0.000000 1.768380 0.000000 
#    z 0.000000 0.000000 1.703330 
# 
# From -- ./inp_files/24762.got.cif
#   From: 2010.03.12/outbox.cif.g09.slc.cpg/sg54_13_cif.got.tgz:24762.got - 2010.04.16 15:00:50.
