data_PCOD8222490
_publ_section_title
;
Structure prediction by ZEFSAII (Michael W. Deem and Ramdas Pophale) SiO2 
 PCOD8222490
Probable space group: P C C A
;
_chemical_formula_sum "Si O2"
_cell_formula_units_Z 48
_cell_length_a 8.013939
_cell_length_b 11.322362
_cell_length_c 21.595581
_cell_angle_alpha 90.000000
_cell_angle_beta 90.000000
_cell_angle_gamma 90.000000
_cell_volume 1959.512152
_symmetry_space_group_name_H-M "P C C A"
_symmetry_group_IT_number 54
_symmetry_cell_setting 'orthorhombic'
loop_
_space_group_symop_operation_xyz
x,y,z
1/2-x,-y,z
1/2+x,-y,1/2-z
-x,y,1/2-z
-x,-y,-z
1/2+x,y,-z
1/2-x,y,1/2+z
x,-y,1/2+z
loop_
_atom_site_type_symbol
_atom_site_label
_atom_site_fract_x
_atom_site_fract_y
_atom_site_fract_z
Si Si1 0.704436 0.249809 0.303333
Si Si2 0.868658 0.223451 0.049900
Si Si3 0.414633 0.922512 0.134152
Si Si4 0.994556 0.277789 0.575335
Si Si5 0.750000 0.500000 0.805346
Si Si6 0.433960 0.527296 0.392182
Si Si7 0.500000 0.063177 0.250000
O O1 0.870532 0.206037 0.337339
O O2 0.560651 0.258918 0.355422
O O3 0.723519 0.376873 0.268101
O O4 0.661096 0.149384 0.253136
O O5 0.678150 0.206648 0.069719
O O6 0.941921 0.348609 0.072762
O O7 0.970714 0.109489 0.075525
O O8 0.878420 0.223417 0.975075
O O9 0.250000 0.000000 0.115771
O O10 0.519195 0.989174 0.187282
O O11 0.968246 0.417354 0.561214
O O12 0.583337 0.472518 0.843322
O O13 0.250000 0.500000 0.361929
#
# Coordination Sequence:
#
# PCOD8222490 Si02
#       7
#     8   8   8   8   4   8   4
#     4  10  21  42  66  96 131 172 226 276 351 411
#     4  11  20  37  59  94 136 177 226 274 340 413
#     4  10  22  42  67  92 125 177 237 282 339 407
#     4  10  22  34  61  95 136 174 214 282 344 420
#     4  10  18  36  70  94 134 176 208 292 338 410
#     4   9  19  33  57  98 137 179 219 263 342 424
#     4  10  24  44  70  90 120 172 230 290 334 406
#
# _framework density 24.495892999999999
#
# number of rings (size 3 to 8) (size 9 to 14) (size 15 to 20)
#    0.000    2.000    1.667    1.500    2.333    4.000 
#    1.500   10.833   14.667    0.000    0.000    0.000 
#    0.000    0.000    0.000    0.000    0.000    0.667 
#
# Total GULP energy -594637.330623 kJ/mol
# GULP energy per Si atom -12388.277721 kJ/mol
# Density = 2.444014 g / cm^3
# Si number density = 24.495893 Si / 1000 Ang^3
#
#
#
# Elastic Constant Matrix: (Units=GPa)
#
#
# Indices 1 2 3 4 5 6 
#
# 1 89.4843 28.5005 25.3380 0.0000 0.0000 0.0000
# 2 28.5005 135.0923 31.8504 0.0000 0.0000 0.0000
# 3 25.3380 31.8504 49.9414 0.0000 0.0000 0.0000
# 4 0.0000 0.0000 0.0000 33.6954 0.0000 0.0000
# 5 0.0000 0.0000 0.0000 0.0000 29.8460 0.0000
# 6 0.0000 0.0000 0.0000 0.0000 0.0000 31.0790
#
#
#
# Elastic Compliance Matrix: (Units=1/GPa)
#
#
# Indices 1 2 3 4 5 6 
#
# 1 0.013280 -0.001428 -0.005827 0.000000 0.000000 0.000000
# 2 -0.001428 0.008866 -0.004930 0.000000 0.000000 0.000000
# 3 -0.005827 -0.004930 0.026124 0.000000 0.000000 0.000000
# 4 0.000000 0.000000 0.000000 0.029678 0.000000 0.000000
# 5 0.000000 0.000000 0.000000 0.000000 0.033505 0.000000
# 6 0.000000 0.000000 0.000000 0.000000 0.000000 0.032176
#
#
# Mechanical properties :
#
#
# Convention : Reuss Voigt Hill
#
# Bulk Modulus (GPa) = 41.84054 49.54397 45.69226
# Shear Modulus (GPa) = 28.41481 31.51271 29.96376
#
# Velocity S-wave (km/s) = 3.40955 3.59060 3.50124
# Velocity P-wave (km/s) = 5.71119 6.12039 5.91933
#
# Compressibility (1/GPa) = 0.02390027
#
# Stress axis : x y z
#
# Youngs Moduli (GPa) = 75.30208 112.79207 38.27922
#
# Poissons Ratio (x) = 0.16105 0.22305
# Poissons Ratio (y) = 0.10752 0.18871
# Poissons Ratio (z) = 0.43878 0.55605
#
# Static dielectric constant tensor:
#      x y z
#    x 4.463460 0.000000 0.000000 
#    y 0.000000 4.933760 0.000000 
#    z 0.000000 0.000000 3.956140 
# 
# 
# High freq. dielectric constant tensor:
#      x y z
#    x 1.973960 0.000000 0.000000 
#    y 0.000000 1.994310 0.000000 
#    z 0.000000 0.000000 1.931600 
# 
# From -- ./inp_files/23549.got.cif
#   From: 2010.03.12/outbox.cif.g09.slc.cpg/sg54_12_cif.got.tgz:23549.got - 2010.04.16 15:00:50.
