data_PCOD8222111
_publ_section_title
;
Structure prediction by ZEFSAII (Michael W. Deem and Ramdas Pophale) SiO2 
 PCOD8222111
Probable space group: P M N A
;
_chemical_formula_sum "Si O2"
_cell_formula_units_Z 56
_cell_length_a 8.965683
_cell_length_b 21.271233
_cell_length_c 14.926997
_cell_angle_alpha 90.000000
_cell_angle_beta 90.000000
_cell_angle_gamma 90.000000
_cell_volume 2846.744497
_symmetry_space_group_name_H-M "P M N A"
_symmetry_group_IT_number 53
_symmetry_cell_setting 'orthorhombic'
loop_
_space_group_symop_operation_xyz
x,y,z
1/2-x,-y,1/2+z
x,-y,-z
1/2-x,y,1/2-z
-x,-y,-z
1/2+x,y,1/2-z
-x,y,z
1/2+x,-y,1/2+z
loop_
_atom_site_type_symbol
_atom_site_label
_atom_site_fract_x
_atom_site_fract_y
_atom_site_fract_z
Si Si1 0.675368 0.902993 0.011598
Si Si2 0.176997 0.703966 0.660210
Si Si3 0.174006 0.687132 0.165129
Si Si4 0.326090 0.990314 0.847918
Si Si5 0.323758 0.434880 0.891021
Si Si6 0.824111 0.427991 0.405857
Si Si7 0.824630 0.772706 0.999225
O O1 0.500000 0.887041 0.012662
O O2 0.775922 0.842137 0.026808
O O3 0.718140 0.933181 0.914877
O O4 0.715826 0.947079 0.096380
O O5 0.250000 0.729943 0.750000
O O6 0.241224 0.633155 0.644173
O O7 0.229080 0.752017 0.585254
O O8 0.000000 0.705206 0.666863
O O9 0.250000 0.721447 0.250000
O O10 0.233661 0.615733 0.165386
O O11 0.000000 0.686229 0.180144
O O12 0.220514 0.724929 0.077474
O O13 0.250000 0.986363 0.750000
O O14 0.500000 0.988426 0.827945
O O15 0.500000 0.422871 0.881398
O O16 0.279424 0.505812 0.858748
O O17 0.267201 0.427373 0.992643
O O18 0.000000 0.422765 0.408530
O O19 0.000000 0.770598 0.978435
#
# Coordination Sequence:
#
# PCOD8222111 Si02
#       7
#     8   8   8   8   8   8   8
#     4   9  20  39  61  86 119 159 192 224 278 339
#     4  11  22  38  59  83 112 151 192 237 292 348
#     4  11  24  39  56  81 112 148 193 241 291 347
#     4   9  19  37  62  92 123 153 189 230 274 328
#     4   9  16  33  58  82 108 141 185 234 291 354
#     4   8  16  31  56  83 108 142 183 231 291 353
#     4  11  24  41  59  84 117 152 196 244 283 333
#
# _framework density 19.671593000000001
#
# number of rings (size 3 to 8) (size 9 to 14) (size 15 to 20)
#    0.000    2.286    1.429    3.000    0.000    4.571 
#    0.000   10.000    0.000    0.000    0.000    0.000 
#    0.000    0.000    0.000    0.000    0.000    0.000 
#
# Total GULP energy -694142.076175 kJ/mol
# GULP energy per Si atom -12395.394217 kJ/mol
# Density = 1.962682 g / cm^3
# Si number density = 19.671593 Si / 1000 Ang^3
#
#
#
# Elastic Constant Matrix: (Units=GPa)
#
#
# Indices 1 2 3 4 5 6 
#
# 1 58.7579 30.6894 38.8797 0.0000 0.0000 0.0000
# 2 30.6894 90.8979 21.4985 0.0000 0.0000 0.0000
# 3 38.8797 21.4985 109.6107 0.0000 0.0000 0.0000
# 4 0.0000 0.0000 0.0000 -4.3759 0.0000 0.0000
# 5 0.0000 0.0000 0.0000 0.0000 31.8821 0.0000
# 6 0.0000 0.0000 0.0000 0.0000 0.0000 23.3653
#
#
#
# Elastic Compliance Matrix: (Units=1/GPa)
#
#
# Indices 1 2 3 4 5 6 
#
# 1 0.025753 -0.006852 -0.007791 0.000000 0.000000 0.000000
# 2 -0.006852 0.013360 -0.000190 0.000000 0.000000 0.000000
# 3 -0.007791 -0.000190 0.011924 0.000000 0.000000 0.000000
# 4 0.000000 0.000000 0.000000 -0.228527 0.000000 0.000000
# 5 0.000000 0.000000 0.000000 0.000000 0.031366 0.000000
# 6 0.000000 0.000000 0.000000 0.000000 0.000000 0.042798
#
#
# Mechanical properties :
#
#
# Convention : Reuss Voigt Hill
#
# Bulk Modulus (GPa) = 46.79242 49.04463 47.91852
# Shear Modulus (GPa) = -75.14652 21.38757 -26.87947
#
# Velocity S-wave (km/s) = -6.18736 3.30090 -3.70051
# Velocity P-wave (km/s) = 5.21595 6.28599 2.48068
#
# Compressibility (1/GPa) = 0.02137098
#
# Stress axis : x y z
#
# Youngs Moduli (GPa) = 38.83026 74.85188 83.86525
#
# Poissons Ratio (x) = 0.51290 0.65338
# Poissons Ratio (y) = 0.26607 0.01591
# Poissons Ratio (z) = 0.30252 0.01420
#
# Static dielectric constant tensor:
#      x y z
#    x 3.312620 0.000000 0.000000 
#    y 0.000000 3.732920 0.000000 
#    z 0.000000 0.000000 3.748590 
# 
# 
# High freq. dielectric constant tensor:
#      x y z
#    x 1.749830 0.000000 0.000000 
#    y 0.000000 1.767100 0.000000 
#    z 0.000000 0.000000 1.772000 
# 
# From -- ./inp_files/20522.got.cif
#   From: 2010.03.12/outbox.cif.g09.slc.cpg/sg53_11_cif.got.tgz:20522.got - 2010.04.16 14:36:59.
