data_PCOD8222516
_publ_section_title
;
Structure prediction by ZEFSAII (Michael W. Deem and Ramdas Pophale) SiO2 
 PCOD8222516
Probable space group: P C C A
;
_chemical_formula_sum "Si O2"
_cell_formula_units_Z 56
_cell_length_a 26.919635
_cell_length_b 23.886196
_cell_length_c 5.320823
_cell_angle_alpha 90.000000
_cell_angle_beta 90.000000
_cell_angle_gamma 90.000000
_cell_volume 3421.330042
_symmetry_space_group_name_H-M "P C C A"
_symmetry_group_IT_number 54
_symmetry_cell_setting 'orthorhombic'
loop_
_space_group_symop_operation_xyz
x,y,z
1/2-x,-y,z
1/2+x,-y,1/2-z
-x,y,1/2-z
-x,-y,-z
1/2+x,y,-z
1/2-x,y,1/2+z
x,-y,1/2+z
loop_
_atom_site_type_symbol
_atom_site_label
_atom_site_fract_x
_atom_site_fract_y
_atom_site_fract_z
Si Si1 0.263300 0.247018 0.750736
Si Si2 0.941203 0.156845 0.750009
Si Si3 0.860639 0.308028 0.249230
Si Si4 0.941161 0.778830 0.750009
Si Si5 0.195592 0.476548 0.723521
Si Si6 0.440740 0.030868 0.250008
Si Si7 0.317136 0.651814 0.750732
O O1 0.250020 0.211925 0.500710
O O2 0.321489 0.257303 0.750891
O O3 0.229520 0.304748 0.750677
O O4 0.922979 0.188221 0.498552
O O5 0.919626 0.094011 0.749971
O O6 0.000000 0.153944 0.750000
O O7 0.922981 0.188202 0.001515
O O8 0.915723 0.282096 0.249983
O O9 0.851830 0.343057 0.502936
O O10 0.852066 0.342871 0.994775
O O11 0.000000 0.769407 0.750000
O O12 0.250000 0.500000 0.676916
O O13 0.167576 0.495506 0.464530
O O14 0.203398 0.410487 0.751507
O O15 0.500000 0.030832 0.250000
O O16 0.420747 0.999997 0.500001
#
# Coordination Sequence:
#
# PCOD8222516 Si02
#       7
#     8   8   8   8   8   8   8
#     4   8  16  25  42  56  81 109 135 160 200 246
#     4   9  17  28  42  58  85 116 144 189 230 252
#     4  10  19  29  46  60  83 117 150 178 208 254
#     4  10  19  31  44  62  85 114 156 194 223 242
#     4  10  21  27  43  64  92 121 132 154 203 254
#     4   9  15  23  37  58  81 108 145 178 212 264
#     4  10  19  31  44  64  91 115 138 165 208 266
#
# _framework density 16.367905
#
# number of rings (size 3 to 8) (size 9 to 14) (size 15 to 20)
#    0.000    2.571    0.000    2.571   12.000    3.429 
#    0.000    0.000    0.000    0.000    0.000    0.000 
#    0.000   11.429    0.000    0.000    0.000  450.000 
#
# Total GULP energy -693816.789906 kJ/mol
# GULP energy per Si atom -12389.585534 kJ/mol
# Density = 1.633065 g / cm^3
# Si number density = 16.367905 Si / 1000 Ang^3
#
#
#
# Elastic Constant Matrix: (Units=GPa)
#
#
# Indices 1 2 3 4 5 6 
#
# 1 32.0179 23.2418 18.5825 0.0000 0.0000 0.0000
# 2 23.2418 65.2880 24.2186 0.0000 0.0000 0.0000
# 3 18.5825 24.2186 166.3016 0.0000 0.0000 0.0000
# 4 0.0000 0.0000 0.0000 26.9642 0.0000 0.0000
# 5 0.0000 0.0000 0.0000 0.0000 10.3271 0.0000
# 6 0.0000 0.0000 0.0000 0.0000 0.0000 7.1558
#
#
#
# Elastic Compliance Matrix: (Units=1/GPa)
#
#
# Indices 1 2 3 4 5 6 
#
# 1 0.043265 -0.014386 -0.002739 0.000000 0.000000 0.000000
# 2 -0.014386 0.020975 -0.001447 0.000000 0.000000 0.000000
# 3 -0.002739 -0.001447 0.006530 0.000000 0.000000 0.000000
# 4 0.000000 0.000000 0.000000 0.037086 0.000000 0.000000
# 5 0.000000 0.000000 0.000000 0.000000 0.096833 0.000000
# 6 0.000000 0.000000 0.000000 0.000000 0.000000 0.139747
#
#
# Mechanical properties :
#
#
# Convention : Reuss Voigt Hill
#
# Bulk Modulus (GPa) = 29.73949 43.96591 36.85270
# Shear Modulus (GPa) = 12.72951 22.06041 17.39496
#
# Velocity S-wave (km/s) = 2.79177 3.67520 3.26352
# Velocity P-wave (km/s) = 5.34798 6.70290 6.06340
#
# Compressibility (1/GPa) = 0.03362532
#
# Stress axis : x y z
#
# Youngs Moduli (GPa) = 23.11340 47.67658 153.13896
#
# Poissons Ratio (x) = 0.68586 0.41951
# Poissons Ratio (y) = 0.33250 0.22161
# Poissons Ratio (z) = 0.06332 0.06899
#
# Static dielectric constant tensor:
#      x y z
#    x 2.618190 0.000000 0.000000 
#    y 0.000000 2.856270 0.000000 
#    z 0.000000 0.000000 4.151690 
# 
# 
# High freq. dielectric constant tensor:
#      x y z
#    x 1.562260 0.000000 0.000000 
#    y 0.000000 1.595670 0.000000 
#    z 0.000000 0.000000 1.673840 
# 
# From -- ./inp_files/1690.got.cif
#   From: 2010.03.12/outbox.cif.g09.slc.cpg/sg54_1_cif.got.tgz:1690.got - 2010.04.16 15:00:50.
