data_PCOD8222678
_publ_section_title
;
Structure prediction by ZEFSAII (Michael W. Deem and Ramdas Pophale) SiO2 
 PCOD8222678
Probable space group: P C C A
;
_chemical_formula_sum "Si O2"
_cell_formula_units_Z 64
_cell_length_a 12.181931
_cell_length_b 15.063401
_cell_length_c 15.863243
_cell_angle_alpha 90.000000
_cell_angle_beta 90.000000
_cell_angle_gamma 90.000000
_cell_volume 2910.925897
_symmetry_space_group_name_H-M "P C C A"
_symmetry_group_IT_number 54
_symmetry_cell_setting 'orthorhombic'
loop_
_space_group_symop_operation_xyz
x,y,z
1/2-x,-y,z
1/2+x,-y,1/2-z
-x,y,1/2-z
-x,-y,-z
1/2+x,y,-z
1/2-x,y,1/2+z
x,-y,1/2+z
loop_
_atom_site_type_symbol
_atom_site_label
_atom_site_fract_x
_atom_site_fract_y
_atom_site_fract_z
Si Si1 0.014622 0.348125 0.654951
Si Si2 0.876089 0.247649 0.242652
Si Si3 0.805542 0.592435 0.095731
Si Si4 0.677915 0.751111 0.054779
Si Si5 0.179319 0.086965 0.980512
Si Si6 0.263666 0.396942 0.208442
Si Si7 0.250431 0.097519 0.664435
Si Si8 0.968016 0.168300 0.913063
O O1 0.145748 0.360863 0.641270
O O2 0.979702 0.243981 0.646908
O O3 0.000000 0.383178 0.750000
O O4 0.939727 0.405661 0.588722
O O5 0.870774 0.270798 0.145038
O O6 0.845710 0.334943 0.300143
O O7 0.794758 0.167810 0.268538
O O8 0.000000 0.216103 0.250000
O O9 0.750000 0.500000 0.072670
O O10 0.750255 0.663551 0.032116
O O11 0.794238 0.618762 0.194003
O O12 0.759307 0.832715 0.062792
O O13 0.580852 0.772866 0.989954
O O14 0.054791 0.093052 0.944023
O O15 0.250000 0.000000 0.955512
O O16 0.172370 0.097143 0.081494
O O17 0.250000 0.500000 0.186927
O O18 0.126122 0.116767 0.636493
O O19 0.250000 0.000000 0.707038
#
# Coordination Sequence:
#
# PCOD8222678 Si02
#       8
#     8   8   8   8   8   8   8   8
#     4  10  19  36  63  87 119 164 212 258 308 364
#     4  11  22  38  60  88 125 162 202 257 316 365
#     4   9  18  35  59  86 122 159 204 257 313 369
#     4  10  22  37  58  87 120 159 201 250 311 373
#     4  10  22  39  62  88 117 160 207 252 312 380
#     4   9  19  34  57  90 121 159 210 255 308 375
#     4  10  23  40  61  89 124 161 207 258 308 374
#     4  11  21  39  65  87 123 164 208 253 313 374
#
# _framework density 21.986132000000001
#
# number of rings (size 3 to 8) (size 9 to 14) (size 15 to 20)
#    0.000    2.000    2.500    0.750    0.000    9.500 
#    0.000    1.875    0.000    0.000    0.000    0.000 
#    0.000    0.000    0.000    0.000    0.000    0.000 
#
# Total GULP energy -792871.489849 kJ/mol
# GULP energy per Si atom -12388.617029 kJ/mol
# Density = 2.193609 g / cm^3
# Si number density = 21.986132 Si / 1000 Ang^3
#
#
#
# Elastic Constant Matrix: (Units=GPa)
#
#
# Indices 1 2 3 4 5 6 
#
# 1 114.1672 39.5682 18.8724 0.0000 0.0000 0.0000
# 2 39.5682 147.0623 13.7792 0.0000 0.0000 0.0000
# 3 18.8724 13.7792 26.0267 0.0000 0.0000 0.0000
# 4 0.0000 0.0000 0.0000 12.5199 0.0000 0.0000
# 5 0.0000 0.0000 0.0000 0.0000 17.5310 0.0000
# 6 0.0000 0.0000 0.0000 0.0000 0.0000 37.1800
#
#
#
# Elastic Compliance Matrix: (Units=1/GPa)
#
#
# Indices 1 2 3 4 5 6 
#
# 1 0.010613 -0.002246 -0.006507 0.000000 0.000000 0.000000
# 2 -0.002246 0.007630 -0.002411 0.000000 0.000000 0.000000
# 3 -0.006507 -0.002411 0.044417 0.000000 0.000000 0.000000
# 4 0.000000 0.000000 0.000000 0.079873 0.000000 0.000000
# 5 0.000000 0.000000 0.000000 0.000000 0.057042 0.000000
# 6 0.000000 0.000000 0.000000 0.000000 0.000000 0.026896
#
#
# Mechanical properties :
#
#
# Convention : Reuss Voigt Hill
#
# Bulk Modulus (GPa) = 24.79383 47.96621 36.38002
# Shear Modulus (GPa) = 19.06638 27.78195 23.42417
#
# Velocity S-wave (km/s) = 2.94802 3.55859 3.26760
# Velocity P-wave (km/s) = 4.78427 6.22484 5.55148
#
# Compressibility (1/GPa) = 0.04033262
#
# Stress axis : x y z
#
# Youngs Moduli (GPa) = 94.22370 131.06142 22.51405
#
# Poissons Ratio (x) = 0.29435 0.14649
# Poissons Ratio (y) = 0.21161 0.05428
# Poissons Ratio (z) = 0.61308 0.31599
#
# Static dielectric constant tensor:
#      x y z
#    x 4.383870 0.000000 0.000000 
#    y 0.000000 3.918500 0.000000 
#    z 0.000000 0.000000 3.646110 
# 
# 
# High freq. dielectric constant tensor:
#      x y z
#    x 1.869260 0.000000 0.000000 
#    y 0.000000 1.865710 0.000000 
#    z 0.000000 0.000000 1.833960 
# 
# From -- ./inp_files/17475.got.cif
#   From: 2010.03.12/outbox.cif.g09.slc.cpg/sg54_9_cif.got.tgz:17475.got - 2010.04.16 15:00:50.
