data_PCOD8222180
_publ_section_title
;
Structure prediction by ZEFSAII (Michael W. Deem and Ramdas Pophale) SiO2 
 PCOD8222180
Probable space group: P M N A
;
_chemical_formula_sum "Si O2"
_cell_formula_units_Z 32
_cell_length_a 17.169231
_cell_length_b 5.084856
_cell_length_c 17.260790
_cell_angle_alpha 90.000000
_cell_angle_beta 90.000000
_cell_angle_gamma 90.000000
_cell_volume 1506.919910
_symmetry_space_group_name_H-M "P M N A"
_symmetry_group_IT_number 53
_symmetry_cell_setting 'orthorhombic'
loop_
_space_group_symop_operation_xyz
x,y,z
1/2-x,-y,1/2+z
x,-y,-z
1/2-x,y,1/2-z
-x,-y,-z
1/2+x,y,1/2-z
-x,y,z
1/2+x,-y,1/2+z
loop_
_atom_site_type_symbol
_atom_site_label
_atom_site_fract_x
_atom_site_fract_y
_atom_site_fract_z
Si Si1 0.915679 0.426107 0.911101
Si Si2 0.087879 0.248943 0.233564
Si Si3 0.827998 0.737983 0.292625
Si Si4 0.742888 0.246266 0.553942
O O1 0.902973 0.685515 0.858188
O O2 0.841033 0.235801 0.900521
O O3 0.000000 0.293971 0.887644
O O4 0.919984 0.500000 0.000000
O O5 0.107500 0.514625 0.280615
O O6 0.000000 0.166929 0.254320
O O7 0.144636 0.014824 0.257554
O O8 0.750000 0.643789 0.250000
O O9 0.812286 0.763012 0.384170
O O10 0.749055 0.500000 0.500000
O O11 0.752325 0.000000 0.500000
#
# Coordination Sequence:
#
# PCOD8222180 Si02
#       4
#     8   8   8   8
#     4   9  20  37  59  91 132 171 203 243 308 393
#     4  11  24  42  65  94 130 171 213 264 325 381
#     4  12  24  41  67  95 128 167 216 270 317 376
#     4  11  24  41  64  93 128 169 213 265 322 381
#
# _framework density 21.235368999999999
#
# number of rings (size 3 to 8) (size 9 to 14) (size 15 to 20)
#    0.000    1.250    2.500    3.000    7.000    0.500 
#    0.000    0.000    0.000   15.000    0.000    0.000 
#    0.000    0.000    0.000    0.000    0.000    0.000 
#
# Total GULP energy -396695.748482 kJ/mol
# GULP energy per Si atom -12396.742140 kJ/mol
# Density = 2.118704 g / cm^3
# Si number density = 21.235369 Si / 1000 Ang^3
#
#
#
# Elastic Constant Matrix: (Units=GPa)
#
#
# Indices 1 2 3 4 5 6 
#
# 1 84.7792 22.6205 59.1028 0.0000 0.0000 0.0000
# 2 22.6205 109.9052 43.5548 0.0000 0.0000 0.0000
# 3 59.1028 43.5548 107.7786 0.0000 0.0000 0.0000
# 4 0.0000 0.0000 0.0000 24.0649 0.0000 0.0000
# 5 0.0000 0.0000 0.0000 0.0000 11.6768 0.0000
# 6 0.0000 0.0000 0.0000 0.0000 0.0000 27.0905
#
#
#
# Elastic Compliance Matrix: (Units=1/GPa)
#
#
# Indices 1 2 3 4 5 6 
#
# 1 0.019102 0.000262 -0.010580 0.000000 0.000000 0.000000
# 2 0.000262 0.010837 -0.004523 0.000000 0.000000 0.000000
# 3 -0.010580 -0.004523 0.016908 0.000000 0.000000 0.000000
# 4 0.000000 0.000000 0.000000 0.041554 0.000000 0.000000
# 5 0.000000 0.000000 0.000000 0.000000 0.085640 0.000000
# 6 0.000000 0.000000 0.000000 0.000000 0.000000 0.036913
#
#
# Mechanical properties :
#
#
# Convention : Reuss Voigt Hill
#
# Bulk Modulus (GPa) = 58.26390 61.44655 59.85522
# Shear Modulus (GPa) = 20.29557 24.37879 22.33718
#
# Velocity S-wave (km/s) = 3.09486 3.39193 3.24680
# Velocity P-wave (km/s) = 6.34568 6.65876 6.50410
#
# Compressibility (1/GPa) = 0.01716329
#
# Stress axis : x y z
#
# Youngs Moduli (GPa) = 52.35155 92.27365 59.14325
#
# Poissons Ratio (x) = -0.02413 0.62576
# Poissons Ratio (y) = -0.01369 0.26750
# Poissons Ratio (z) = 0.55390 0.41735
#
# Static dielectric constant tensor:
#      x y z
#    x 4.475640 0.000000 0.000000 
#    y 0.000000 3.666150 0.000000 
#    z 0.000000 0.000000 3.973410 
# 
# 
# High freq. dielectric constant tensor:
#      x y z
#    x 1.833730 0.000000 0.000000 
#    y 0.000000 1.825390 0.000000 
#    z 0.000000 0.000000 1.837340 
# 
# From -- ./inp_files/23172.got.cif
#   From: 2010.03.12/outbox.cif.g09.slc.cpg/sg53_12_cif.got.tgz:23172.got - 2010.04.16 14:36:59.
