data_PCOD8222071
_publ_section_title
;
Structure prediction by ZEFSAII (Michael W. Deem and Ramdas Pophale) SiO2 
 PCOD8222071
Probable space group: P M N A
;
_chemical_formula_sum "Si O2"
_cell_formula_units_Z 40
_cell_length_a 18.330330
_cell_length_b 8.608347
_cell_length_c 11.619710
_cell_angle_alpha 90.000000
_cell_angle_beta 90.000000
_cell_angle_gamma 90.000000
_cell_volume 1833.518675
_symmetry_space_group_name_H-M "P M N A"
_symmetry_group_IT_number 53
_symmetry_cell_setting 'orthorhombic'
loop_
_space_group_symop_operation_xyz
x,y,z
1/2-x,-y,1/2+z
x,-y,-z
1/2-x,y,1/2-z
-x,-y,-z
1/2+x,y,1/2-z
-x,y,z
1/2+x,-y,1/2+z
loop_
_atom_site_type_symbol
_atom_site_label
_atom_site_fract_x
_atom_site_fract_y
_atom_site_fract_z
Si Si1 0.416272 0.679313 0.162860
Si Si2 0.691797 0.799295 0.585894
Si Si3 0.918429 0.662864 0.753217
Si Si4 0.678735 0.863979 0.329905
Si Si5 0.354475 0.172997 0.053139
O O1 0.500000 0.720671 0.137688
O O2 0.405204 0.500746 0.192531
O O3 0.390000 0.791108 0.265236
O O4 0.369263 0.707116 0.048732
O O5 0.641672 0.669521 0.645521
O O6 0.689406 0.772535 0.448985
O O7 0.777457 0.792378 0.616246
O O8 0.659894 0.960780 0.634238
O O9 0.911120 0.799277 0.657026
O O10 0.000000 0.673734 0.805698
O O11 0.750000 0.850968 0.250000
O O12 0.357610 0.000000 0.000000
#
# Coordination Sequence:
#
# PCOD8222071 Si02
#       5
#     8   8   8   8   8
#     4  11  25  44  66  96 138 179 220 274 330 394
#     4  11  23  41  69  98 132 172 219 279 331 393
#     4  11  26  44  63  98 141 178 220 268 332 403
#     4  11  21  42  68  97 132 171 221 275 329 396
#     4  12  22  43  70  99 132 172 226 283 331 384
#
# _framework density 21.815977
#
# number of rings (size 3 to 8) (size 9 to 14) (size 15 to 20)
#    0.000    0.800    4.000    4.200    0.000    8.800 
#    3.600    4.000    0.000    0.000    0.000    0.000 
#    0.000    0.000    0.000    0.000    0.000    0.000 
#
# Total GULP energy -495978.082436 kJ/mol
# GULP energy per Si atom -12399.452061 kJ/mol
# Density = 2.176632 g / cm^3
# Si number density = 21.815977 Si / 1000 Ang^3
#
#
#
# Elastic Constant Matrix: (Units=GPa)
#
#
# Indices 1 2 3 4 5 6 
#
# 1 111.8960 69.7714 48.6649 0.0000 0.0000 0.0000
# 2 69.7714 64.8457 45.3908 0.0000 0.0000 0.0000
# 3 48.6649 45.3908 124.9414 0.0000 0.0000 0.0000
# 4 0.0000 0.0000 0.0000 30.6380 0.0000 0.0000
# 5 0.0000 0.0000 0.0000 0.0000 38.3891 0.0000
# 6 0.0000 0.0000 0.0000 0.0000 0.0000 33.2970
#
#
#
# Elastic Compliance Matrix: (Units=1/GPa)
#
#
# Indices 1 2 3 4 5 6 
#
# 1 0.027156 -0.029254 0.000051 0.000000 0.000000 0.000000
# 2 -0.029254 0.052195 -0.007568 0.000000 0.000000 0.000000
# 3 0.000051 -0.007568 0.010733 0.000000 0.000000 0.000000
# 4 0.000000 0.000000 0.000000 0.032639 0.000000 0.000000
# 5 0.000000 0.000000 0.000000 0.000000 0.026049 0.000000
# 6 0.000000 0.000000 0.000000 0.000000 0.000000 0.030033
#
#
# Mechanical properties :
#
#
# Convention : Reuss Voigt Hill
#
# Bulk Modulus (GPa) = 60.45318 69.92634 65.18976
# Shear Modulus (GPa) = 19.39030 29.65522 24.52276
#
# Velocity S-wave (km/s) = 2.98453 3.69092 3.35636
# Velocity P-wave (km/s) = 6.29660 7.09128 6.70572
#
# Compressibility (1/GPa) = 0.01654173
#
# Stress axis : x y z
#
# Youngs Moduli (GPa) = 36.82443 19.15904 93.16792
#
# Poissons Ratio (x) = 0.56048 -0.00472
# Poissons Ratio (y) = 1.07727 0.70506
# Poissons Ratio (z) = -0.00187 0.14499
#
# Static dielectric constant tensor:
#      x y z
#    x 3.985860 0.000000 0.000000 
#    y 0.000000 3.818360 0.000000 
#    z 0.000000 0.000000 4.200770 
# 
# 
# High freq. dielectric constant tensor:
#      x y z
#    x 1.855060 0.000000 0.000000 
#    y 0.000000 1.847490 0.000000 
#    z 0.000000 0.000000 1.873960 
# 
# From -- ./inp_files/16708.got.cif
#   From: 2010.03.12/outbox.cif.g09.slc.cpg/sg53_9_cif.got.tgz:16708.got - 2010.04.16 14:36:59.
