data_PCOD8222764
_publ_section_title
;
Structure prediction by ZEFSAII (Michael W. Deem and Ramdas Pophale) SiO2 
 PCOD8222764
Probable space group: P C C A
;
_chemical_formula_sum "Si O2"
_cell_formula_units_Z 44
_cell_length_a 20.610190
_cell_length_b 6.558665
_cell_length_c 17.538587
_cell_angle_alpha 90.000000
_cell_angle_beta 90.000000
_cell_angle_gamma 90.000000
_cell_volume 2370.784317
_symmetry_space_group_name_H-M "P C C A"
_symmetry_group_IT_number 54
_symmetry_cell_setting 'orthorhombic'
loop_
_space_group_symop_operation_xyz
x,y,z
1/2-x,-y,z
1/2+x,-y,1/2-z
-x,y,1/2-z
-x,-y,-z
1/2+x,y,-z
1/2-x,y,1/2+z
x,-y,1/2+z
loop_
_atom_site_type_symbol
_atom_site_label
_atom_site_fract_x
_atom_site_fract_y
_atom_site_fract_z
Si Si1 0.045247 0.662245 0.593898
Si Si2 0.311695 0.613295 0.837337
Si Si3 0.564425 0.337688 0.081033
Si Si4 0.041942 0.959090 0.819316
Si Si5 0.750000 0.000000 0.730673
Si Si6 0.356902 0.295474 0.725380
O O1 0.066251 0.709205 0.508082
O O2 0.109732 0.648660 0.645195
O O3 0.001339 0.458873 0.601804
O O4 0.003857 0.853266 0.619479
O O5 0.250000 0.500000 0.873291
O O6 0.367979 0.555233 0.897942
O O7 0.293989 0.851099 0.822450
O O8 0.330235 0.509696 0.756482
O O9 0.573471 0.141663 0.134684
O O10 0.092774 0.797171 0.786396
O O11 0.000000 0.051182 0.750000
O O12 0.702217 0.134273 0.784308
#
# Coordination Sequence:
#
# PCOD8222764 Si02
#       6
#     8   8   8   8   4   8
#     4  10  23  36  55  89 120 147 185 243 299 344
#     4  10  21  36  58  81 110 150 202 236 279 350
#     4  11  21  37  57  83 120 152 183 239 299 347
#     4  10  20  33  58  85 113 150 190 231 286 345
#     4  10  20  38  60  84 108 156 200 242 280 342
#     4  10  20  37  59  83 113 149 198 239 283 345
#
# _framework density 18.559259000000001
#
# number of rings (size 3 to 8) (size 9 to 14) (size 15 to 20)
#    0.000    1.818    3.636    0.545    2.545    0.000 
#    0.000    3.636    0.000    0.000    0.000    0.000 
#    0.000    0.000    0.000    0.000    0.000    0.000 
#
# Total GULP energy -545339.748959 kJ/mol
# GULP energy per Si atom -12394.085204 kJ/mol
# Density = 1.851702 g / cm^3
# Si number density = 18.559259 Si / 1000 Ang^3
#
#
#
# Elastic Constant Matrix: (Units=GPa)
#
#
# Indices 1 2 3 4 5 6 
#
# 1 115.6374 28.2770 63.2459 0.0000 0.0000 0.0000
# 2 28.2770 75.0201 46.4911 0.0000 0.0000 0.0000
# 3 63.2459 46.4911 123.9114 0.0000 0.0000 0.0000
# 4 0.0000 0.0000 0.0000 19.6837 0.0000 0.0000
# 5 0.0000 0.0000 0.0000 0.0000 18.2342 0.0000
# 6 0.0000 0.0000 0.0000 0.0000 0.0000 98.6909
#
#
#
# Elastic Compliance Matrix: (Units=1/GPa)
#
#
# Indices 1 2 3 4 5 6 
#
# 1 0.012049 -0.000952 -0.005793 0.000000 0.000000 0.000000
# 2 -0.000952 0.017443 -0.006059 0.000000 0.000000 0.000000
# 3 -0.005793 -0.006059 0.013300 0.000000 0.000000 0.000000
# 4 0.000000 0.000000 0.000000 0.050803 0.000000 0.000000
# 5 0.000000 0.000000 0.000000 0.000000 0.054842 0.000000
# 6 0.000000 0.000000 0.000000 0.000000 0.000000 0.010133
#
#
# Mechanical properties :
#
#
# Convention : Reuss Voigt Hill
#
# Bulk Modulus (GPa) = 58.18820 65.62189 61.90505
# Shear Modulus (GPa) = 26.32889 39.09209 32.71049
#
# Velocity S-wave (km/s) = 3.77057 4.59447 4.20275
# Velocity P-wave (km/s) = 7.09767 7.97372 7.54842
#
# Compressibility (1/GPa) = 0.01718561
#
# Stress axis : x y z
#
# Youngs Moduli (GPa) = 82.99673 57.32872 75.18649
#
# Poissons Ratio (x) = 0.05455 0.43554
# Poissons Ratio (y) = 0.07898 0.45555
# Poissons Ratio (z) = 0.48078 0.34735
#
# Static dielectric constant tensor:
#      x y z
#    x 3.685930 0.000000 0.000000 
#    y 0.000000 3.355850 0.000000 
#    z 0.000000 0.000000 3.180730 
# 
# 
# High freq. dielectric constant tensor:
#      x y z
#    x 1.737750 0.000000 0.000000 
#    y 0.000000 1.722270 0.000000 
#    z 0.000000 0.000000 1.694190 
# 
# From -- ./inp_files/19000.got.cif
#   From: 2010.03.12/outbox.cif.g09.slc.cpg/sg54_10_cif.got.tgz:19000.got - 2010.04.16 15:00:50.
