data_PCOD8222098
_publ_section_title
;
Structure prediction by ZEFSAII (Michael W. Deem and Ramdas Pophale) SiO2 
 PCOD8222098
Probable space group: P M N A
;
_chemical_formula_sum "Si O2"
_cell_formula_units_Z 64
_cell_length_a 8.671487
_cell_length_b 17.577618
_cell_length_c 20.122904
_cell_angle_alpha 90.000000
_cell_angle_beta 90.000000
_cell_angle_gamma 90.000000
_cell_volume 3067.215249
_symmetry_space_group_name_H-M "P M N A"
_symmetry_group_IT_number 53
_symmetry_cell_setting 'orthorhombic'
loop_
_space_group_symop_operation_xyz
x,y,z
1/2-x,-y,1/2+z
x,-y,-z
1/2-x,y,1/2-z
-x,-y,-z
1/2+x,y,1/2-z
-x,y,z
1/2+x,-y,1/2+z
loop_
_atom_site_type_symbol
_atom_site_label
_atom_site_fract_x
_atom_site_fract_y
_atom_site_fract_z
Si Si1 0.681305 0.445387 0.313969
Si Si2 0.319677 0.927352 0.957987
Si Si3 0.821733 0.709119 0.648703
Si Si4 0.168240 0.664355 0.980064
Si Si5 0.682406 0.129074 0.321014
Si Si6 0.682904 0.270250 0.678528
Si Si7 0.332313 0.183969 0.555531
Si Si8 0.817824 0.416866 0.896758
O O1 0.750000 0.488875 0.250000
O O2 0.500000 0.434432 0.309227
O O3 0.763582 0.363778 0.312030
O O4 0.733729 0.497840 0.375996
O O5 0.500000 0.932539 0.943674
O O6 0.240919 0.919194 0.885223
O O7 0.286768 0.856590 0.006286
O O8 0.259658 0.000000 0.000000
O O9 0.796599 0.689164 0.571820
O O10 0.725433 0.782707 0.670082
O O11 0.000000 0.726412 0.662654
O O12 0.000000 0.644550 0.945721
O O13 0.137818 0.731342 0.030955
O O14 0.229061 0.594520 0.025725
O O15 0.750000 0.099193 0.250000
O O16 0.500000 0.120723 0.318433
O O17 0.750000 0.251389 0.750000
O O18 0.500000 0.274076 0.683321
O O19 0.730352 0.198128 0.630527
O O20 0.752136 0.350615 0.650962
O O21 0.500000 0.141432 0.554792
O O22 0.000000 0.411140 0.889657
#
# Coordination Sequence:
#
# PCOD8222098 Si02
#       8
#     8   8   8   8   8   8   8   8
#     4  11  22  37  54  75 107 151 199 251 310 368
#     4  11  24  42  66  98 132 163 198 241 293 355
#     4  12  24  38  57  85 119 154 198 253 308 362
#     4   9  17  34  58  83 109 148 197 244 297 361
#     4  12  25  44  70  98 128 164 206 252 302 361
#     4   9  17  31  52  82 114 151 200 251 303 357
#     4   9  18  34  58  85 117 156 202 246 291 354
#     4   8  17  33  54  77 108 150 198 249 305 365
#
# _framework density 20.865834
#
# number of rings (size 3 to 8) (size 9 to 14) (size 15 to 20)
#    0.000    1.875    1.250    5.250    0.000    2.000 
#    0.000    6.875    0.000    1.500    0.000    0.000 
#    0.000    0.000    0.000    0.000    0.000    0.000 
#
# Total GULP energy -792927.003079 kJ/mol
# GULP energy per Si atom -12389.484423 kJ/mol
# Density = 2.081834 g / cm^3
# Si number density = 20.865834 Si / 1000 Ang^3
#
#
#
# Elastic Constant Matrix: (Units=GPa)
#
#
# Indices 1 2 3 4 5 6 
#
# 1 87.0619 27.1949 45.4835 0.0000 0.0000 0.0000
# 2 27.1949 71.1732 41.1272 0.0000 0.0000 0.0000
# 3 45.4835 41.1272 147.1240 0.0000 0.0000 0.0000
# 4 0.0000 0.0000 0.0000 -33.2569 0.0000 0.0000
# 5 0.0000 0.0000 0.0000 0.0000 30.7223 0.0000
# 6 0.0000 0.0000 0.0000 0.0000 0.0000 1290.3702
#
#
#
# Elastic Compliance Matrix: (Units=1/GPa)
#
#
# Indices 1 2 3 4 5 6 
#
# 1 0.014391 -0.003492 -0.003473 0.000000 0.000000 0.000000
# 2 -0.003492 0.017604 -0.003842 0.000000 0.000000 0.000000
# 3 -0.003473 -0.003842 0.008945 0.000000 0.000000 0.000000
# 4 0.000000 0.000000 0.000000 -0.030069 0.000000 0.000000
# 5 0.000000 0.000000 0.000000 0.000000 0.032550 0.000000
# 6 0.000000 0.000000 0.000000 0.000000 0.000000 0.000775
#
#
# Mechanical properties :
#
#
# Convention : Reuss Voigt Hill
#
# Bulk Modulus (GPa) = 51.74080 59.21892 55.47986
# Shear Modulus (GPa) = 69.20329 270.33737 169.77033
#
# Velocity S-wave (km/s) = 5.76523 11.39478 9.02992
# Velocity P-wave (km/s) = 8.31672 14.19732 11.63468
#
# Compressibility (1/GPa) = 0.01932711
#
# Stress axis : x y z
#
# Youngs Moduli (GPa) = 69.48703 56.80419 111.80040
#
# Poissons Ratio (x) = 0.19836 0.38827
# Poissons Ratio (y) = 0.24265 0.42949
# Poissons Ratio (z) = 0.24132 0.21822
#
# Static dielectric constant tensor:
#      x y z
#    x 3.508400 0.000000 0.000000 
#    y 0.000000 3.776010 0.000000 
#    z 0.000000 0.000000 4.274390 
# 
# 
# High freq. dielectric constant tensor:
#      x y z
#    x 1.795560 0.000000 0.000000 
#    y 0.000000 1.795580 0.000000 
#    z 0.000000 0.000000 1.836890 
# 
# From -- ./inp_files/31158.got.cif
#   From: 2010.03.12/outbox.cif.g09.slc.cpg/sg53_16_cif.got.tgz:31158.got - 2010.04.16 14:36:59.
