data_PCOD8222982
_publ_section_title
;
Structure prediction by ZEFSAII (Michael W. Deem and Ramdas Pophale) SiO2 
 PCOD8222982
Probable space group: P C C A
;
_chemical_formula_sum "Si O2"
_cell_formula_units_Z 56
_cell_length_a 20.038961
_cell_length_b 9.059380
_cell_length_c 14.287398
_cell_angle_alpha 90.000000
_cell_angle_beta 90.000000
_cell_angle_gamma 90.000000
_cell_volume 2593.742270
_symmetry_space_group_name_H-M "P C C A"
_symmetry_group_IT_number 54
_symmetry_cell_setting 'orthorhombic'
loop_
_space_group_symop_operation_xyz
x,y,z
1/2-x,-y,z
1/2+x,-y,1/2-z
-x,y,1/2-z
-x,-y,-z
1/2+x,y,-z
1/2-x,y,1/2+z
x,-y,1/2+z
loop_
_atom_site_type_symbol
_atom_site_label
_atom_site_fract_x
_atom_site_fract_y
_atom_site_fract_z
Si Si1 0.020451 0.592331 0.592363
Si Si2 0.820887 0.073814 0.853018
Si Si3 0.644097 0.214657 0.179076
Si Si4 0.595883 0.461251 0.730018
Si Si5 0.379918 0.174275 0.524715
Si Si6 0.242480 0.339879 0.549855
Si Si7 0.778974 0.347470 0.158887
O O1 0.075146 0.515802 0.661470
O O2 0.052091 0.749535 0.561416
O O3 0.000000 0.500000 0.500000
O O4 0.958076 0.612259 0.660707
O O5 0.868812 0.099440 0.763127
O O6 0.805370 0.237787 0.889583
O O7 0.750000 0.000000 0.830683
O O8 0.865626 0.980860 0.925014
O O9 0.613845 0.377659 0.190224
O O10 0.725648 0.218394 0.176858
O O11 0.612907 0.142826 0.086077
O O12 0.654109 0.336120 0.721710
O O13 0.317023 0.280967 0.536797
O O14 0.250000 0.500000 0.598679
O O15 0.204314 0.357176 0.451097
O O16 0.750000 0.500000 0.195100
#
# Coordination Sequence:
#
# PCOD8222982 Si02
#       7
#     8   8   8   8   8   8   8
#     4  11  23  40  66  92 130 175 225 288 333 392
#     4  10  23  36  58  99 140 184 210 267 350 413
#     4  10  20  38  65  94 134 172 216 275 346 410
#     4  10  22  38  65 103 119 169 232 283 336 399
#     4  10  22  42  60  95 137 173 223 273 335 410
#     4   9  19  34  61  98 133 173 217 272 337 399
#     4   8  17  33  58  96 131 154 212 287 333 389
#
# _framework density 21.590426999999998
#
# number of rings (size 3 to 8) (size 9 to 14) (size 15 to 20)
#    0.000    2.286    1.429    0.857    6.000    3.429 
#    0.000    0.000    0.000    6.857    0.000    0.000 
#    0.000    0.000    0.000    0.000    0.000    0.000 
#
# Total GULP energy -693824.683756 kJ/mol
# GULP energy per Si atom -12389.726496 kJ/mol
# Density = 2.154129 g / cm^3
# Si number density = 21.590427 Si / 1000 Ang^3
#
#
#
# Elastic Constant Matrix: (Units=GPa)
#
#
# Indices 1 2 3 4 5 6 
#
# 1 83.0705 29.6953 52.2025 0.0000 0.0000 0.0000
# 2 29.6953 112.8061 58.1007 0.0000 0.0000 0.0000
# 3 52.2025 58.1007 164.9953 0.0000 0.0000 0.0000
# 4 0.0000 0.0000 0.0000 36.0189 0.0000 0.0000
# 5 0.0000 0.0000 0.0000 0.0000 34.7442 0.0000
# 6 0.0000 0.0000 0.0000 0.0000 0.0000 19.4019
#
#
#
# Elastic Compliance Matrix: (Units=1/GPa)
#
#
# Indices 1 2 3 4 5 6 
#
# 1 0.015345 -0.001880 -0.004193 0.000000 0.000000 0.000000
# 2 -0.001880 0.011059 -0.003300 0.000000 0.000000 0.000000
# 3 -0.004193 -0.003300 0.008549 0.000000 0.000000 0.000000
# 4 0.000000 0.000000 0.000000 0.027763 0.000000 0.000000
# 5 0.000000 0.000000 0.000000 0.000000 0.028782 0.000000
# 6 0.000000 0.000000 0.000000 0.000000 0.000000 0.051541
#
#
# Mechanical properties :
#
#
# Convention : Reuss Voigt Hill
#
# Bulk Modulus (GPa) = 61.69597 71.20766 66.45181
# Shear Modulus (GPa) = 29.90665 32.75790 31.33227
#
# Velocity S-wave (km/s) = 3.72584 3.89940 3.81361
# Velocity P-wave (km/s) = 6.86635 7.30250 7.08778
#
# Compressibility (1/GPa) = 0.01620852
#
# Stress axis : x y z
#
# Youngs Moduli (GPa) = 65.16838 90.42384 116.96906
#
# Poissons Ratio (x) = 0.16998 0.49045
# Poissons Ratio (y) = 0.12250 0.38594
# Poissons Ratio (z) = 0.27325 0.29836
#
# Static dielectric constant tensor:
#      x y z
#    x 3.985790 0.000000 0.000000 
#    y 0.000000 3.615470 0.000000 
#    z 0.000000 0.000000 4.262710 
# 
# 
# High freq. dielectric constant tensor:
#      x y z
#    x 1.826620 0.000000 0.000000 
#    y 0.000000 1.818000 0.000000 
#    z 0.000000 0.000000 1.870270 
# 
# From -- ./inp_files/14663.got.cif
#   From: 2010.03.12/outbox.cif.g09.slc.cpg/sg54_8_cif.got.tgz:14663.got - 2010.04.16 15:00:50.
