data_PCOD8222634
_publ_section_title
;
Structure prediction by ZEFSAII (Michael W. Deem and Ramdas Pophale) SiO2 
 PCOD8222634
Probable space group: P C C A
;
_chemical_formula_sum "Si O2"
_cell_formula_units_Z 64
_cell_length_a 11.792998
_cell_length_b 11.909649
_cell_length_c 23.751642
_cell_angle_alpha 90.000000
_cell_angle_beta 90.000000
_cell_angle_gamma 90.000000
_cell_volume 3335.929207
_symmetry_space_group_name_H-M "P C C A"
_symmetry_group_IT_number 54
_symmetry_cell_setting 'orthorhombic'
loop_
_space_group_symop_operation_xyz
x,y,z
1/2-x,-y,z
1/2+x,-y,1/2-z
-x,y,1/2-z
-x,-y,-z
1/2+x,y,-z
1/2-x,y,1/2+z
x,-y,1/2+z
loop_
_atom_site_type_symbol
_atom_site_label
_atom_site_fract_x
_atom_site_fract_y
_atom_site_fract_z
Si Si1 0.201346 0.875871 0.712775
Si Si2 0.986810 0.605642 0.075867
Si Si3 0.267499 0.261413 0.426893
Si Si4 0.190208 0.887710 0.835837
Si Si5 0.330661 0.815715 0.045657
Si Si6 0.870813 0.205772 0.870870
Si Si7 0.523543 0.640871 0.051995
Si Si8 0.958703 0.038292 0.377497
O O1 0.162332 0.831960 0.774621
O O2 0.296360 0.790877 0.686535
O O3 0.093969 0.884175 0.671820
O O4 0.250000 0.000000 0.712542
O O5 0.853458 0.634667 0.076750
O O6 0.996624 0.473162 0.087925
O O7 0.053755 0.681639 0.121821
O O8 0.040310 0.623607 0.014434
O O9 0.278114 0.188683 0.370230
O O10 0.305520 0.183209 0.479231
O O11 0.139008 0.302970 0.427847
O O12 0.087357 0.919736 0.877311
O O13 0.250000 0.000000 0.816626
O O14 0.210794 0.803027 0.075694
O O15 0.413553 0.715116 0.064513
O O16 0.394031 0.931115 0.063936
O O17 0.951610 0.095672 0.869071
#
# Coordination Sequence:
#
# PCOD8222634 Si02
#       8
#     8   8   8   8   8   8   8   8
#     4   8  18  34  56  81 110 146 190 234 283 336
#     4  10  21  35  57  81 112 149 192 240 289 332
#     4  11  21  36  52  84 114 150 192 235 287 350
#     4  11  21  34  53  85 115 151 190 231 287 351
#     4  10  20  35  56  82 114 150 190 229 294 350
#     4  10  19  36  56  86 114 149 190 241 291 344
#     4  10  20  37  55  81 111 150 194 239 280 345
#     4  10  19  35  57  80 116 150 189 233 289 350
#
# _framework density 19.185061000000001
#
# number of rings (size 3 to 8) (size 9 to 14) (size 15 to 20)
#    0.000    2.000    2.500    2.625    0.000    1.500 
#    0.000    4.375    0.000    0.000   19.500    0.000 
#    0.000    0.000    0.000    0.000    0.000    0.000 
#
# Total GULP energy -793161.331562 kJ/mol
# GULP energy per Si atom -12393.145806 kJ/mol
# Density = 1.914139 g / cm^3
# Si number density = 19.185061 Si / 1000 Ang^3
#
#
#
# Elastic Constant Matrix: (Units=GPa)
#
#
# Indices 1 2 3 4 5 6 
#
# 1 65.9176 20.7487 19.3061 0.0000 0.0000 0.0000
# 2 20.7487 81.2436 37.3929 0.0000 0.0000 0.0000
# 3 19.3061 37.3929 81.4748 0.0000 0.0000 0.0000
# 4 0.0000 0.0000 0.0000 17.0126 0.0000 0.0000
# 5 0.0000 0.0000 0.0000 0.0000 23.5562 0.0000
# 6 0.0000 0.0000 0.0000 0.0000 0.0000 28.6016
#
#
#
# Elastic Compliance Matrix: (Units=1/GPa)
#
#
# Indices 1 2 3 4 5 6 
#
# 1 0.016910 -0.003137 -0.002567 0.000000 0.000000 0.000000
# 2 -0.003137 0.016187 -0.006686 0.000000 0.000000 0.000000
# 3 -0.002567 -0.006686 0.015950 0.000000 0.000000 0.000000
# 4 0.000000 0.000000 0.000000 0.058780 0.000000 0.000000
# 5 0.000000 0.000000 0.000000 0.000000 0.042452 0.000000
# 6 0.000000 0.000000 0.000000 0.000000 0.000000 0.034963
#
#
# Mechanical properties :
#
#
# Convention : Reuss Voigt Hill
#
# Bulk Modulus (GPa) = 41.20745 42.61458 41.91101
# Shear Modulus (GPa) = 22.92415 23.91331 23.41873
#
# Velocity S-wave (km/s) = 3.46048 3.53435 3.49761
# Velocity P-wave (km/s) = 6.12308 6.23828 6.18094
#
# Compressibility (1/GPa) = 0.02426746
#
# Stress axis : x y z
#
# Youngs Moduli (GPa) = 59.13749 61.77813 62.69417
#
# Poissons Ratio (x) = 0.19380 0.16095
# Poissons Ratio (y) = 0.18551 0.41915
# Poissons Ratio (z) = 0.15182 0.41303
#
# Static dielectric constant tensor:
#      x y z
#    x 3.518890 0.000000 0.000000 
#    y 0.000000 3.436160 0.000000 
#    z 0.000000 0.000000 3.508310 
# 
# 
# High freq. dielectric constant tensor:
#      x y z
#    x 1.757360 0.000000 0.000000 
#    y 0.000000 1.721450 0.000000 
#    z 0.000000 0.000000 1.727320 
# 
# From -- ./inp_files/24239.got.cif
#   From: 2010.03.12/outbox.cif.g09.slc.cpg/sg54_13_cif.got.tgz:24239.got - 2010.04.16 15:00:50.
