data_PCOD8222150
_publ_section_title
;
Structure prediction by ZEFSAII (Michael W. Deem and Ramdas Pophale) SiO2 
 PCOD8222150
Probable space group: P M N A
;
_chemical_formula_sum "Si O2"
_cell_formula_units_Z 64
_cell_length_a 18.902416
_cell_length_b 9.796334
_cell_length_c 19.241090
_cell_angle_alpha 90.000000
_cell_angle_beta 90.000000
_cell_angle_gamma 90.000000
_cell_volume 3562.956922
_symmetry_space_group_name_H-M "P M N A"
_symmetry_group_IT_number 53
_symmetry_cell_setting 'orthorhombic'
loop_
_space_group_symop_operation_xyz
x,y,z
1/2-x,-y,1/2+z
x,-y,-z
1/2-x,y,1/2-z
-x,-y,-z
1/2+x,y,1/2-z
-x,y,z
1/2+x,-y,1/2+z
loop_
_atom_site_type_symbol
_atom_site_label
_atom_site_fract_x
_atom_site_fract_y
_atom_site_fract_z
Si Si1 0.920102 0.277927 0.269606
Si Si2 0.921599 0.279455 0.107723
Si Si3 0.203194 0.785367 0.318379
Si Si4 0.719211 0.871310 0.456615
Si Si5 0.418900 0.966052 0.232597
Si Si6 0.919860 0.035843 0.894073
Si Si7 0.201924 0.464760 0.316928
Si Si8 0.284448 0.378976 0.449924
O O1 0.917748 0.313088 0.188691
O O2 0.872480 0.387626 0.309482
O O3 0.000000 0.293717 0.297750
O O4 0.893842 0.121979 0.281176
O O5 0.867709 0.377034 0.067633
O O6 0.000000 0.310283 0.079380
O O7 0.900877 0.122427 0.094380
O O8 0.250000 0.810744 0.250000
O O9 0.241106 0.854671 0.383705
O O10 0.128246 0.860822 0.310763
O O11 0.189599 0.624973 0.330809
O O12 0.634775 0.876601 0.440062
O O13 0.739438 0.752006 0.508228
O O14 0.746381 0.000000 0.500000
O O15 0.500000 0.948415 0.208750
O O16 0.411746 0.927690 0.313439
O O17 0.000000 0.067962 0.919103
O O18 0.250000 0.440830 0.250000
O O19 0.240364 0.391263 0.380087
O O20 0.266171 0.500000 0.500000
#
# Coordination Sequence:
#
# PCOD8222150 Si02
#       8
#     8   8   8   8   8   8   8   8
#     4   9  19  36  62  91 114 145 198 246 285 339
#     4   9  18  35  57  83 117 158 197 231 278 348
#     4  11  23  39  60  86 119 154 199 242 287 345
#     4  12  24  37  57  89 117 157 199 237 291 346
#     4   9  19  36  62  91 117 144 191 252 292 333
#     4   9  18  35  57  85 118 155 195 233 283 346
#     4  11  23  39  61  84 115 161 199 239 289 343
#     4  12  24  39  54  82 126 153 192 244 291 341
#
# _framework density 17.962606999999998
#
# number of rings (size 3 to 8) (size 9 to 14) (size 15 to 20)
#    0.000    1.750    5.000    1.500    1.750    2.000 
#    0.000    0.000    0.000    1.500    0.000    0.000 
#    0.000    0.000    0.000    0.000    0.000    0.000 
#
# Total GULP energy -793537.861840 kJ/mol
# GULP energy per Si atom -12399.029091 kJ/mol
# Density = 1.792172 g / cm^3
# Si number density = 17.962607 Si / 1000 Ang^3
#
#
#
# Elastic Constant Matrix: (Units=GPa)
#
#
# Indices 1 2 3 4 5 6 
#
# 1 80.9748 44.3627 42.8725 0.0000 0.0000 0.0000
# 2 44.3627 100.8817 52.6869 0.0000 0.0000 0.0000
# 3 42.8725 52.6869 102.2453 0.0000 0.0000 0.0000
# 4 0.0000 0.0000 0.0000 31.6272 0.0000 0.0000
# 5 0.0000 0.0000 0.0000 0.0000 28.5912 0.0000
# 6 0.0000 0.0000 0.0000 0.0000 0.0000 6.2979
#
#
#
# Elastic Compliance Matrix: (Units=1/GPa)
#
#
# Indices 1 2 3 4 5 6 
#
# 1 0.017771 -0.005368 -0.004686 0.000000 0.000000 0.000000
# 2 -0.005368 0.015184 -0.005574 0.000000 0.000000 0.000000
# 3 -0.004686 -0.005574 0.014617 0.000000 0.000000 0.000000
# 4 0.000000 0.000000 0.000000 0.031618 0.000000 0.000000
# 5 0.000000 0.000000 0.000000 0.000000 0.034976 0.000000
# 6 0.000000 0.000000 0.000000 0.000000 0.000000 0.158784
#
#
# Mechanical properties :
#
#
# Convention : Reuss Voigt Hill
#
# Bulk Modulus (GPa) = 61.28029 62.66066 61.97048
# Shear Modulus (GPa) = 16.14761 22.91522 19.53142
#
# Velocity S-wave (km/s) = 3.00151 3.57559 3.30106
# Velocity P-wave (km/s) = 6.79718 7.21153 7.00742
#
# Compressibility (1/GPa) = 0.01631846
#
# Stress axis : x y z
#
# Youngs Moduli (GPa) = 56.27114 65.85920 68.41272
#
# Poissons Ratio (x) = 0.35351 0.32056
# Poissons Ratio (y) = 0.30205 0.38130
# Poissons Ratio (z) = 0.26367 0.36707
#
# Static dielectric constant tensor:
#      x y z
#    x 3.296710 0.000000 0.000000 
#    y 0.000000 3.234870 0.000000 
#    z 0.000000 0.000000 3.273850 
# 
# 
# High freq. dielectric constant tensor:
#      x y z
#    x 1.688090 0.000000 0.000000 
#    y 0.000000 1.692030 0.000000 
#    z 0.000000 0.000000 1.690880 
# 
# From -- ./inp_files/32842.got.cif
#   From: 2010.03.12/outbox.cif.g09.slc.cpg/sg53_17_cif.got.tgz:32842.got - 2010.04.16 14:36:59.
