data_PCOD8222155
_publ_section_title
;
Structure prediction by ZEFSAII (Michael W. Deem and Ramdas Pophale) SiO2 
 PCOD8222155
Probable space group: P M N A
;
_chemical_formula_sum "Si O2"
_cell_formula_units_Z 48
_cell_length_a 8.783654
_cell_length_b 14.623185
_cell_length_c 18.871552
_cell_angle_alpha 90.000000
_cell_angle_beta 90.000000
_cell_angle_gamma 90.000000
_cell_volume 2423.956448
_symmetry_space_group_name_H-M "P M N A"
_symmetry_group_IT_number 53
_symmetry_cell_setting 'orthorhombic'
loop_
_space_group_symop_operation_xyz
x,y,z
1/2-x,-y,1/2+z
x,-y,-z
1/2-x,y,1/2-z
-x,-y,-z
1/2+x,y,1/2-z
-x,y,z
1/2+x,-y,1/2+z
loop_
_atom_site_type_symbol
_atom_site_label
_atom_site_fract_x
_atom_site_fract_y
_atom_site_fract_z
Si Si1 0.320074 0.634684 0.412090
Si Si2 0.178576 0.788765 0.323362
Si Si3 0.322986 0.469865 0.174002
Si Si4 0.675365 0.674084 0.944581
Si Si5 0.324417 0.135401 0.451047
Si Si6 0.175465 0.055725 0.895826
O O1 0.500000 0.635074 0.405702
O O2 0.253542 0.731264 0.386538
O O3 0.254181 0.554802 0.364338
O O4 0.272745 0.624478 0.494099
O O5 0.250000 0.754520 0.250000
O O6 0.219307 0.895237 0.337163
O O7 0.000000 0.772923 0.321206
O O8 0.250000 0.452620 0.250000
O O9 0.500000 0.492548 0.183121
O O10 0.294981 0.379020 0.128321
O O11 0.500000 0.669047 0.967586
O O12 0.721090 0.778789 0.931026
O O13 0.500000 0.165804 0.447330
O O14 0.284096 0.098612 0.528429
O O15 0.290974 0.052912 0.395919
O O16 0.000000 0.074037 0.876626
#
# Coordination Sequence:
#
# PCOD8222155 Si02
#       6
#     8   8   8   8   8   8
#     4  12  24  40  63  90 120 156 200 248 301 362
#     4  12  24  38  58  86 122 162 201 249 305 362
#     4  11  25  44  63  87 121 158 199 248 300 358
#     4  11  23  39  62  93 124 155 200 252 297 351
#     4   9  18  34  60  88 119 154 194 242 293 348
#     4   9  18  35  57  86 119 155 196 242 293 350
#
# _framework density 19.802336
#
# number of rings (size 3 to 8) (size 9 to 14) (size 15 to 20)
#    0.000    1.333    1.667    6.000    0.000    5.333 
#    0.000    2.500    0.000    2.000    0.000    0.000 
#    0.000    0.000    0.000    0.000    0.000    0.000 
#
# Total GULP energy -595394.227280 kJ/mol
# GULP energy per Si atom -12404.046402 kJ/mol
# Density = 1.975727 g / cm^3
# Si number density = 19.802336 Si / 1000 Ang^3
#
#
#
# Elastic Constant Matrix: (Units=GPa)
#
#
# Indices 1 2 3 4 5 6 
#
# 1 149.2211 54.7818 65.9256 0.0000 0.0000 0.0000
# 2 54.7818 95.3318 58.4059 0.0000 0.0000 0.0000
# 3 65.9256 58.4059 87.9511 0.0000 0.0000 0.0000
# 4 0.0000 0.0000 0.0000 26.3948 0.0000 0.0000
# 5 0.0000 0.0000 0.0000 0.0000 31.1245 0.0000
# 6 0.0000 0.0000 0.0000 0.0000 0.0000 26.1568
#
#
#
# Elastic Compliance Matrix: (Units=1/GPa)
#
#
# Indices 1 2 3 4 5 6 
#
# 1 0.010239 -0.001992 -0.006352 0.000000 0.000000 0.000000
# 2 -0.001992 0.018072 -0.010508 0.000000 0.000000 0.000000
# 3 -0.006352 -0.010508 0.023109 0.000000 0.000000 0.000000
# 4 0.000000 0.000000 0.000000 0.037886 0.000000 0.000000
# 5 0.000000 0.000000 0.000000 0.000000 0.032129 0.000000
# 6 0.000000 0.000000 0.000000 0.000000 0.000000 0.038231
#
#
# Mechanical properties :
#
#
# Convention : Reuss Voigt Hill
#
# Bulk Modulus (GPa) = 72.90589 76.74784 74.82687
# Shear Modulus (GPa) = 24.75940 26.96127 25.86034
#
# Velocity S-wave (km/s) = 3.53983 3.69388 3.61768
# Velocity P-wave (km/s) = 7.32147 7.55209 7.43768
#
# Compressibility (1/GPa) = 0.01371631
#
# Stress axis : x y z
#
# Youngs Moduli (GPa) = 97.66433 55.33323 43.27267
#
# Poissons Ratio (x) = 0.11024 0.27487
# Poissons Ratio (y) = 0.19457 0.45471
# Poissons Ratio (z) = 0.62036 0.58144
#
# Static dielectric constant tensor:
#      x y z
#    x 3.616380 0.000000 0.000000 
#    y 0.000000 3.794400 0.000000 
#    z 0.000000 0.000000 3.512810 
# 
# 
# High freq. dielectric constant tensor:
#      x y z
#    x 1.777780 0.000000 0.000000 
#    y 0.000000 1.780950 0.000000 
#    z 0.000000 0.000000 1.759350 
# 
# From -- ./inp_files/26277.got.cif
#   From: 2010.03.12/outbox.cif.g09.slc.cpg/sg53_14_cif.got.tgz:26277.got - 2010.04.16 14:36:59.
