data_PCOD8222680
_publ_section_title
;
Structure prediction by ZEFSAII (Michael W. Deem and Ramdas Pophale) SiO2 
 PCOD8222680
Probable space group: P C C A
;
_chemical_formula_sum "Si O2"
_cell_formula_units_Z 64
_cell_length_a 16.795917
_cell_length_b 12.141256
_cell_length_c 15.277765
_cell_angle_alpha 90.000000
_cell_angle_beta 90.000000
_cell_angle_gamma 90.000000
_cell_volume 3115.495740
_symmetry_space_group_name_H-M "P C C A"
_symmetry_group_IT_number 54
_symmetry_cell_setting 'orthorhombic'
loop_
_space_group_symop_operation_xyz
x,y,z
1/2-x,-y,z
1/2+x,-y,1/2-z
-x,y,1/2-z
-x,-y,-z
1/2+x,y,-z
1/2-x,y,1/2+z
x,-y,1/2+z
loop_
_atom_site_type_symbol
_atom_site_label
_atom_site_fract_x
_atom_site_fract_y
_atom_site_fract_z
Si Si1 0.907273 0.734430 0.229454
Si Si2 0.907273 0.734430 0.729454
Si Si3 0.656124 0.877006 0.883033
Si Si4 0.409539 0.500000 0.219667
Si Si5 0.156124 0.877006 0.616967
Si Si6 0.841596 0.500000 0.466432
Si Si7 0.842937 0.733566 0.544502
Si Si8 0.657063 0.266434 0.044502
O O1 0.865587 0.822394 0.291316
O O2 0.869014 0.612317 0.244463
O O3 0.891759 0.770299 0.129897
O O4 0.000000 0.732857 0.250000
O O5 0.869014 0.612317 0.744463
O O6 0.865587 0.822394 0.791316
O O7 0.891759 0.770299 0.629897
O O8 0.000000 0.732857 0.750000
O O9 0.750000 0.881952 0.890133
O O10 0.619661 1.000000 0.887209
O O11 0.622982 0.805317 0.963956
O O12 0.500000 0.500000 0.250000
O O13 0.401787 0.500000 0.114858
O O14 0.122982 0.805317 0.536044
O O15 0.750000 0.500000 0.432287
O O16 0.859394 0.605617 0.525654
O O17 0.859394 0.394383 0.525654
O O18 0.750000 0.756228 0.560709
#
# Coordination Sequence:
#
# PCOD8222680 Si02
#       8
#     8   8   8   8   8   8   8   8
#     4  11  23  39  59  90 124 161 197 239 299 365
#     4  11  23  39  59  90 124 161 197 239 299 365
#     4  10  22  41  63  86 115 155 203 254 303 349
#     4  10  21  38  56  90 127 160 192 233 300 364
#     4  10  22  41  63  86 115 155 203 254 303 349
#     4  10  19  36  64  90 117 156 204 252 296 348
#     4  10  21  38  61  88 116 151 198 250 298 352
#     4  10  21  38  61  88 116 151 198 250 298 352
#
# _framework density 20.542476000000001
#
# number of rings (size 3 to 8) (size 9 to 14) (size 15 to 20)
#    0.000    1.750    2.500    1.500    0.000    3.500 
#    0.000    6.250    0.000    0.000    0.000    0.000 
#    0.000    0.000    0.000    0.000    0.000    0.000 
#
# Total GULP energy -793697.774660 kJ/mol
# GULP energy per Si atom -12401.527729 kJ/mol
# Density = 2.049572 g / cm^3
# Si number density = 20.542476 Si / 1000 Ang^3
#
#
#
# Elastic Constant Matrix: (Units=GPa)
#
#
# Indices 1 2 3 4 5 6 
#
# 1 38.1537 16.2518 38.0112 0.0000 0.0000 0.0000
# 2 16.2518 168.2685 67.5336 0.0000 0.0000 0.0000
# 3 38.0112 67.5336 182.3954 0.0000 0.0000 0.0000
# 4 0.0000 0.0000 0.0000 364.1683 0.0000 0.0000
# 5 0.0000 0.0000 0.0000 0.0000 38.6014 0.0000
# 6 0.0000 0.0000 0.0000 0.0000 0.0000 17.7912
#
#
#
# Elastic Compliance Matrix: (Units=1/GPa)
#
#
# Indices 1 2 3 4 5 6 
#
# 1 0.033114 -0.000503 -0.006715 0.000000 0.000000 0.000000
# 2 -0.000503 0.006988 -0.002482 0.000000 0.000000 0.000000
# 3 -0.006715 -0.002482 0.007801 0.000000 0.000000 0.000000
# 4 0.000000 0.000000 0.000000 0.002746 0.000000 0.000000
# 5 0.000000 0.000000 0.000000 0.000000 0.025906 0.000000
# 6 0.000000 0.000000 0.000000 0.000000 0.000000 0.056208
#
#
# Mechanical properties :
#
#
# Convention : Reuss Voigt Hill
#
# Bulk Modulus (GPa) = 35.08539 70.26787 52.67663
# Shear Modulus (GPa) = 30.92854 101.91359 66.42107
#
# Velocity S-wave (km/s) = 3.88440 7.05116 5.69243
# Velocity P-wave (km/s) = 6.10202 10.02857 8.30081
#
# Compressibility (1/GPa) = 0.02850189
#
# Stress axis : x y z
#
# Youngs Moduli (GPa) = 30.19907 143.10666 128.18825
#
# Poissons Ratio (x) = 0.07203 0.86072
# Poissons Ratio (y) = 0.01520 0.31821
# Poissons Ratio (z) = 0.20277 0.35525
#
# Static dielectric constant tensor:
#      x y z
#    x 3.506080 0.000000 0.000000 
#    y 0.000000 4.271960 0.000000 
#    z 0.000000 0.000000 4.001860 
# 
# 
# High freq. dielectric constant tensor:
#      x y z
#    x 1.776590 0.000000 0.000000 
#    y 0.000000 1.810700 0.000000 
#    z 0.000000 0.000000 1.812080 
# 
# From -- ./inp_files/14349.got.cif
#   From: 2010.03.12/outbox.cif.g09.slc.cpg/sg54_8_cif.got.tgz:14349.got - 2010.04.16 15:00:50.
