data_PCOD8222835
_publ_section_title
;
Structure prediction by ZEFSAII (Michael W. Deem and Ramdas Pophale) SiO2 
 PCOD8222835
Probable space group: P C C A
;
_chemical_formula_sum "Si O2"
_cell_formula_units_Z 56
_cell_length_a 22.747125
_cell_length_b 6.166137
_cell_length_c 21.496198
_cell_angle_alpha 90.000000
_cell_angle_beta 90.000000
_cell_angle_gamma 90.000000
_cell_volume 3015.097340
_symmetry_space_group_name_H-M "P C C A"
_symmetry_group_IT_number 54
_symmetry_cell_setting 'orthorhombic'
loop_
_space_group_symop_operation_xyz
x,y,z
1/2-x,-y,z
1/2+x,-y,1/2-z
-x,y,1/2-z
-x,-y,-z
1/2+x,y,-z
1/2-x,y,1/2+z
x,-y,1/2+z
loop_
_atom_site_type_symbol
_atom_site_label
_atom_site_fract_x
_atom_site_fract_y
_atom_site_fract_z
Si Si1 0.250000 0.000000 0.194539
Si Si2 0.500000 0.804706 0.750000
Si Si3 0.071117 0.407460 0.066178
Si Si4 0.492794 0.127672 0.855546
Si Si5 0.525624 0.745118 0.560348
Si Si6 0.809243 0.387250 0.370229
Si Si7 0.918539 0.485227 0.673899
Si Si8 0.309171 0.385912 0.253958
O O1 0.208252 0.143632 0.149711
O O2 0.294156 0.134683 0.239503
O O3 0.552482 0.649398 0.730035
O O4 0.519734 0.956050 0.807167
O O5 0.043291 0.298439 0.127682
O O6 0.141294 0.408852 0.076193
O O7 0.040876 0.644709 0.057741
O O8 0.056628 0.260666 0.006382
O O9 0.437591 0.260018 0.825442
O O10 0.474175 0.994697 0.917441
O O11 0.565582 0.602678 0.606179
O O12 0.750000 0.500000 0.395982
O O13 0.834400 0.510185 0.309588
O O14 0.850474 0.439818 0.687347
O O15 0.250000 0.500000 0.274387
#
# Coordination Sequence:
#
# PCOD8222835 Si02
#       8
#     4   4   8   8   8   8   8   8
#     4   8  18  36  50  82 108 146 184 224 286 328
#     4  10  22  30  50  84 110 140 178 228 286 332
#     4  10  20  36  58  76 114 145 192 232 272 331
#     4  10  21  33  53  82 109 148 180 225 289 338
#     4   9  21  37  52  83 106 151 186 230 277 332
#     4   9  20  33  53  80 108 142 184 228 279 327
#     4  10  21  35  52  79 116 136 186 228 277 340
#     4   9  20  34  54  78 110 145 184 229 284 336
#
# _framework density 18.573197
#
# number of rings (size 3 to 8) (size 9 to 14) (size 15 to 20)
#    0.000    2.857    0.000    0.857   10.000    4.571 
#    0.000    0.714    0.000    0.857    0.000    0.000 
#    0.000    0.000    0.000    0.000    0.000    0.000 
#
# Total GULP energy -694019.258263 kJ/mol
# GULP energy per Si atom -12393.201040 kJ/mol
# Density = 1.853092 g / cm^3
# Si number density = 18.573197 Si / 1000 Ang^3
#
#
#
# Elastic Constant Matrix: (Units=GPa)
#
#
# Indices 1 2 3 4 5 6 
#
# 1 114.7783 41.7917 48.9101 0.0000 0.0000 0.0000
# 2 41.7917 116.6133 28.4247 0.0000 0.0000 0.0000
# 3 48.9101 28.4247 68.6831 0.0000 0.0000 0.0000
# 4 0.0000 0.0000 0.0000 14.5061 0.0000 0.0000
# 5 0.0000 0.0000 0.0000 0.0000 33.9982 0.0000
# 6 0.0000 0.0000 0.0000 0.0000 0.0000 14.2836
#
#
#
# Elastic Compliance Matrix: (Units=1/GPa)
#
#
# Indices 1 2 3 4 5 6 
#
# 1 0.013242 -0.002722 -0.008303 0.000000 0.000000 0.000000
# 2 -0.002722 0.010097 -0.002241 0.000000 0.000000 0.000000
# 3 -0.008303 -0.002241 0.021400 0.000000 0.000000 0.000000
# 4 0.000000 0.000000 0.000000 0.068937 0.000000 0.000000
# 5 0.000000 0.000000 0.000000 0.000000 0.029413 0.000000
# 6 0.000000 0.000000 0.000000 0.000000 0.000000 0.070011
#
#
# Mechanical properties :
#
#
# Convention : Reuss Voigt Hill
#
# Bulk Modulus (GPa) = 54.92235 59.81418 57.36826
# Shear Modulus (GPa) = 20.35016 24.62078 22.48547
#
# Velocity S-wave (km/s) = 3.31369 3.64484 3.48320
# Velocity P-wave (km/s) = 6.65399 7.07019 6.86525
#
# Compressibility (1/GPa) = 0.01820753
#
# Stress axis : x y z
#
# Youngs Moduli (GPa) = 75.51951 99.04091 46.72972
#
# Poissons Ratio (x) = 0.26955 0.38801
# Poissons Ratio (y) = 0.20553 0.10470
# Poissons Ratio (z) = 0.62705 0.22190
#
# Static dielectric constant tensor:
#      x y z
#    x 3.213210 0.000000 0.000000 
#    y 0.000000 3.664700 0.000000 
#    z 0.000000 0.000000 3.309820 
# 
# 
# High freq. dielectric constant tensor:
#      x y z
#    x 1.697390 0.000000 0.000000 
#    y 0.000000 1.733340 0.000000 
#    z 0.000000 0.000000 1.705510 
# 
# From -- ./inp_files/24829.got.cif
#   From: 2010.03.12/outbox.cif.g09.slc.cpg/sg54_13_cif.got.tgz:24829.got - 2010.04.16 15:00:50.
