data_PCOD8222457
_publ_section_title
;
Structure prediction by ZEFSAII (Michael W. Deem and Ramdas Pophale) SiO2 
 PCOD8222457
Probable space group: P C C A
;
_chemical_formula_sum "Si O2"
_cell_formula_units_Z 48
_cell_length_a 8.981642
_cell_length_b 9.884781
_cell_length_c 26.764260
_cell_angle_alpha 90.000000
_cell_angle_beta 90.000000
_cell_angle_gamma 90.000000
_cell_volume 2376.172867
_symmetry_space_group_name_H-M "P C C A"
_symmetry_group_IT_number 54
_symmetry_cell_setting 'orthorhombic'
loop_
_space_group_symop_operation_xyz
x,y,z
1/2-x,-y,z
1/2+x,-y,1/2-z
-x,y,1/2-z
-x,-y,-z
1/2+x,y,-z
1/2-x,y,1/2+z
x,-y,1/2+z
loop_
_atom_site_type_symbol
_atom_site_label
_atom_site_fract_x
_atom_site_fract_y
_atom_site_fract_z
Si Si1 0.630738 0.111155 0.461579
Si Si2 0.575870 0.491097 0.303025
Si Si3 0.885825 0.918870 0.568498
Si Si4 0.425565 0.023146 0.298621
Si Si5 0.557850 0.778732 0.343349
Si Si6 0.897918 0.228122 0.861418
O O1 0.664023 0.165258 0.518170
O O2 0.624673 0.234729 0.421540
O O3 0.750000 0.000000 0.443256
O O4 0.471858 0.041583 0.457027
O O5 0.750000 0.500000 0.292814
O O6 0.500000 0.465821 0.250000
O O7 0.514706 0.624867 0.330441
O O8 0.537703 0.368569 0.340569
O O9 0.978187 0.820372 0.604473
O O10 0.750000 0.000000 0.596146
O O11 0.500000 0.094754 0.250000
O O12 0.492418 0.873020 0.300445
O O13 0.250000 0.000000 0.295372
O O14 0.734148 0.802386 0.340325
O O15 0.483920 0.109421 0.346518
#
# Coordination Sequence:
#
# PCOD8222457 Si02
#       6
#     8   8   8   8   8   8
#     4  10  18  34  59  88 121 157 188 244 294 350
#     4  10  24  42  61  82 115 159 200 241 298 356
#     4  10  20  33  57  92 124 149 194 240 298 350
#     4  12  24  37  58  87 114 145 193 250 298 353
#     4  11  21  39  59  86 118 155 195 244 294 351
#     4  11  21  39  61  85 115 156 200 240 296 350
#
# _framework density 20.20055
#
# number of rings (size 3 to 8) (size 9 to 14) (size 15 to 20)
#    0.000    1.333    3.333    3.000    0.000    4.000 
#    0.000    0.833    0.000    0.000    0.000    0.000 
#    0.000    0.000    0.000    0.000    0.000    0.000 
#
# Total GULP energy -594688.348422 kJ/mol
# GULP energy per Si atom -12389.340592 kJ/mol
# Density = 2.015457 g / cm^3
# Si number density = 20.200550 Si / 1000 Ang^3
#
#
#
# Elastic Constant Matrix: (Units=GPa)
#
#
# Indices 1 2 3 4 5 6 
#
# 1 94.3774 36.8733 15.7611 0.0000 0.0000 0.0000
# 2 36.8733 115.0758 39.8573 0.0000 0.0000 0.0000
# 3 15.7611 39.8573 120.5455 0.0000 0.0000 0.0000
# 4 0.0000 0.0000 0.0000 27.0412 0.0000 0.0000
# 5 0.0000 0.0000 0.0000 0.0000 28.3089 0.0000
# 6 0.0000 0.0000 0.0000 0.0000 0.0000 18.3153
#
#
#
# Elastic Compliance Matrix: (Units=1/GPa)
#
#
# Indices 1 2 3 4 5 6 
#
# 1 0.012124 -0.003767 -0.000340 0.000000 0.000000 0.000000
# 2 -0.003767 0.010984 -0.003139 0.000000 0.000000 0.000000
# 3 -0.000340 -0.003139 0.009378 0.000000 0.000000 0.000000
# 4 0.000000 0.000000 0.000000 0.036981 0.000000 0.000000
# 5 0.000000 0.000000 0.000000 0.000000 0.035325 0.000000
# 6 0.000000 0.000000 0.000000 0.000000 0.000000 0.054599
#
#
# Mechanical properties :
#
#
# Convention : Reuss Voigt Hill
#
# Bulk Modulus (GPa) = 55.57329 57.22025 56.39677
# Shear Modulus (GPa) = 27.79602 30.56686 29.18144
#
# Velocity S-wave (km/s) = 3.71348 3.89417 3.80490
# Velocity P-wave (km/s) = 6.77916 6.97187 6.87619
#
# Compressibility (1/GPa) = 0.01799426
#
# Stress axis : x y z
#
# Youngs Moduli (GPa) = 82.47842 91.03812 106.63242
#
# Poissons Ratio (x) = 0.34297 0.03621
# Poissons Ratio (y) = 0.31073 0.33475
# Poissons Ratio (z) = 0.02801 0.28580
#
# Static dielectric constant tensor:
#      x y z
#    x 3.829190 0.000000 0.000000 
#    y 0.000000 3.511990 0.000000 
#    z 0.000000 0.000000 4.140320 
# 
# 
# High freq. dielectric constant tensor:
#      x y z
#    x 1.801480 0.000000 0.000000 
#    y 0.000000 1.746080 0.000000 
#    z 0.000000 0.000000 1.807760 
# 
# From -- ./inp_files/26184.got.cif
#   From: 2010.03.12/outbox.cif.g09.slc.cpg/sg54_14_cif.got.tgz:26184.got - 2010.04.16 15:00:50.
