data_PCOD8222016
_publ_section_title
;
Structure prediction by ZEFSAII (Michael W. Deem and Ramdas Pophale) SiO2 
 PCOD8222016
Probable space group: P M N A
;
_chemical_formula_sum "Si O2"
_cell_formula_units_Z 48
_cell_length_a 8.968755
_cell_length_b 15.449416
_cell_length_c 18.159490
_cell_angle_alpha 90.000000
_cell_angle_beta 90.000000
_cell_angle_gamma 90.000000
_cell_volume 2516.215744
_symmetry_space_group_name_H-M "P M N A"
_symmetry_group_IT_number 53
_symmetry_cell_setting 'orthorhombic'
loop_
_space_group_symop_operation_xyz
x,y,z
1/2-x,-y,1/2+z
x,-y,-z
1/2-x,y,1/2-z
-x,-y,-z
1/2+x,y,1/2-z
-x,y,z
1/2+x,-y,1/2+z
loop_
_atom_site_type_symbol
_atom_site_label
_atom_site_fract_x
_atom_site_fract_y
_atom_site_fract_z
Si Si1 0.333474 0.335317 0.092581
Si Si2 0.823988 0.004944 0.324972
Si Si3 0.674772 0.143649 0.940208
Si Si4 0.177284 0.840626 0.905079
Si Si5 0.835616 0.668547 0.417745
Si Si6 0.666648 0.503012 0.412059
O O1 0.500000 0.325028 0.125240
O O2 0.231495 0.255134 0.117302
O O3 0.263115 0.424876 0.122220
O O4 0.340167 0.339332 0.005197
O O5 0.750000 0.971043 0.250000
O O6 0.747962 0.095160 0.345766
O O7 0.000000 0.017441 0.315202
O O8 0.786348 0.934752 0.387051
O O9 0.500000 0.146134 0.962143
O O10 0.719153 0.233808 0.899288
O O11 0.768801 0.131146 0.014096
O O12 0.000000 0.844407 0.901634
O O13 0.728051 0.595693 0.383720
O O14 0.000000 0.652258 0.384911
O O15 0.670761 0.500000 0.500000
O O16 0.500000 0.493183 0.382064
#
# Coordination Sequence:
#
# PCOD8222016 Si02
#       6
#     8   8   8   8   8   8
#     4   9  16  27  43  64  94 132 168 202 245 296
#     4  11  23  39  56  75 101 133 170 211 257 306
#     4   9  19  35  54  75 102 136 171 209 253 302
#     4  11  21  33  52  78 105 133 169 212 255 302
#     4   8  14  25  41  63  92 128 165 198 241 295
#     4   9  15  22  35  61  96 129 160 199 246 291
#
# _framework density 19.076266
#
# number of rings (size 3 to 8) (size 9 to 14) (size 15 to 20)
#    0.000    2.500    0.000    4.500    0.000    9.333 
#    0.000    0.000    0.000    0.000    0.000    1.167 
#    0.000    2.667    0.000    0.000    0.000    0.000 
#
# Total GULP energy -595106.555427 kJ/mol
# GULP energy per Si atom -12398.053238 kJ/mol
# Density = 1.903285 g / cm^3
# Si number density = 19.076266 Si / 1000 Ang^3
#
#
#
# Elastic Constant Matrix: (Units=GPa)
#
#
# Indices 1 2 3 4 5 6 
#
# 1 128.2873 48.5273 21.9291 0.0000 0.0000 0.0000
# 2 48.5273 114.3865 13.1882 0.0000 0.0000 0.0000
# 3 21.9291 13.1882 22.6049 0.0000 0.0000 0.0000
# 4 0.0000 0.0000 0.0000 2.0913 0.0000 0.0000
# 5 0.0000 0.0000 0.0000 0.0000 18.4994 0.0000
# 6 0.0000 0.0000 0.0000 0.0000 0.0000 31.2936
#
#
#
# Elastic Compliance Matrix: (Units=1/GPa)
#
#
# Indices 1 2 3 4 5 6 
#
# 1 0.010521 -0.003524 -0.008151 0.000000 0.000000 0.000000
# 2 -0.003524 0.010553 -0.002738 0.000000 0.000000 0.000000
# 3 -0.008151 -0.002738 0.053743 0.000000 0.000000 0.000000
# 4 0.000000 0.000000 0.000000 0.478178 0.000000 0.000000
# 5 0.000000 0.000000 0.000000 0.000000 0.054056 0.000000
# 6 0.000000 0.000000 0.000000 0.000000 0.000000 0.031955
#
#
# Mechanical properties :
#
#
# Convention : Reuss Voigt Hill
#
# Bulk Modulus (GPa) = 21.74328 48.06309 34.90319
# Shear Modulus (GPa) = 7.31889 22.48578 14.90234
#
# Velocity S-wave (km/s) = 1.96086 3.43699 2.79802
# Velocity P-wave (km/s) = 4.06810 6.40316 5.36423
#
# Compressibility (1/GPa) = 0.04599122
#
# Stress axis : x y z
#
# Youngs Moduli (GPa) = 95.04591 94.76031 18.60702
#
# Poissons Ratio (x) = 0.33391 0.15166
# Poissons Ratio (y) = 0.33492 0.05095
# Poissons Ratio (z) = 0.77471 0.25949
#
# Static dielectric constant tensor:
#      x y z
#    x 3.620560 0.000000 0.000000 
#    y 0.000000 3.867170 0.000000 
#    z 0.000000 0.000000 2.886840 
# 
# 
# High freq. dielectric constant tensor:
#      x y z
#    x 1.749600 0.000000 0.000000 
#    y 0.000000 1.763280 0.000000 
#    z 0.000000 0.000000 1.670560 
# 
# From -- ./inp_files/26270.got.cif
#   From: 2010.03.12/outbox.cif.g09.slc.cpg/sg53_14_cif.got.tgz:26270.got - 2010.04.16 14:36:59.
