data_PCOD8222530
_publ_section_title
;
Structure prediction by ZEFSAII (Michael W. Deem and Ramdas Pophale) SiO2 
 PCOD8222530
Probable space group: P C C A
;
_chemical_formula_sum "Si O2"
_cell_formula_units_Z 56
_cell_length_a 26.141619
_cell_length_b 5.128161
_cell_length_c 22.760544
_cell_angle_alpha 90.000000
_cell_angle_beta 90.000000
_cell_angle_gamma 90.000000
_cell_volume 3051.242818
_symmetry_space_group_name_H-M "P C C A"
_symmetry_group_IT_number 54
_symmetry_cell_setting 'orthorhombic'
loop_
_space_group_symop_operation_xyz
x,y,z
1/2-x,-y,z
1/2+x,-y,1/2-z
-x,y,1/2-z
-x,-y,-z
1/2+x,y,-z
1/2-x,y,1/2+z
x,-y,1/2+z
loop_
_atom_site_type_symbol
_atom_site_label
_atom_site_fract_x
_atom_site_fract_y
_atom_site_fract_z
Si Si1 0.376815 0.646972 0.310531
Si Si2 0.282964 0.244697 0.887611
Si Si3 0.446972 0.846225 0.676351
Si Si4 0.439158 0.143995 0.315260
Si Si5 0.191104 0.038057 0.510151
Si Si6 0.689201 0.464070 0.927036
Si Si7 0.884836 0.652763 0.828025
O O1 0.320061 0.657136 0.336517
O O2 0.405895 0.392579 0.334171
O O3 0.370847 0.649955 0.240468
O O4 0.408876 0.888922 0.335114
O O5 0.250000 0.500000 0.907301
O O6 0.314846 0.130195 0.942801
O O7 0.250000 0.000000 0.863038
O O8 0.505431 0.858407 0.653225
O O9 0.447389 0.857396 0.746155
O O10 0.423385 0.576832 0.654398
O O11 0.413014 0.083357 0.652016
O O12 0.165987 0.260122 0.551402
O O13 0.250000 0.000000 0.526180
O O14 0.168608 0.753091 0.525867
O O15 0.750000 0.500000 0.922801
O O16 0.667944 0.385124 0.863165
#
# Coordination Sequence:
#
# PCOD8222530 Si02
#       7
#     8   8   8   8   8   8   8
#     4  10  20  32  49  76 104 130 161 196 246 304
#     4  11  21  35  53  73 100 131 165 204 241 284
#     4   9  17  30  49  71  99 131 164 204 241 281
#     4   9  17  31  49  71  99 130 166 204 239 282
#     4   9  18  33  51  69  89 124 173 211 232 265
#     4  10  19  32  50  72  99 129 162 201 240 284
#     4  10  19  31  48  76 105 129 160 196 247 306
#
# _framework density 18.353179000000001
#
# number of rings (size 3 to 8) (size 9 to 14) (size 15 to 20)
#    0.000    2.286    0.000    4.714    0.000    4.000 
#    0.000    2.143    0.000    0.000    0.000   20.000 
#    0.000    0.000    0.000    0.000    0.000    0.000 
#
# Total GULP energy -694077.760194 kJ/mol
# GULP energy per Si atom -12394.245718 kJ/mol
# Density = 1.831141 g / cm^3
# Si number density = 18.353179 Si / 1000 Ang^3
#
#
#
# Elastic Constant Matrix: (Units=GPa)
#
#
# Indices 1 2 3 4 5 6 
#
# 1 76.8783 41.2204 39.5409 0.0000 0.0000 0.0000
# 2 41.2204 145.1834 33.0543 0.0000 0.0000 0.0000
# 3 39.5409 33.0543 57.8111 0.0000 0.0000 0.0000
# 4 0.0000 0.0000 0.0000 9.3693 0.0000 0.0000
# 5 0.0000 0.0000 0.0000 0.0000 5.7933 0.0000
# 6 0.0000 0.0000 0.0000 0.0000 0.0000 25.0427
#
#
#
# Elastic Compliance Matrix: (Units=1/GPa)
#
#
# Indices 1 2 3 4 5 6 
#
# 1 0.021236 -0.003130 -0.012735 0.000000 0.000000 0.000000
# 2 -0.003130 0.008380 -0.002651 0.000000 0.000000 0.000000
# 3 -0.012735 -0.002651 0.027524 0.000000 0.000000 0.000000
# 4 0.000000 0.000000 0.000000 0.106731 0.000000 0.000000
# 5 0.000000 0.000000 0.000000 0.000000 0.172614 0.000000
# 6 0.000000 0.000000 0.000000 0.000000 0.000000 0.039932
#
#
# Mechanical properties :
#
#
# Convention : Reuss Voigt Hill
#
# Bulk Modulus (GPa) = 49.73073 56.38931 53.06002
# Shear Modulus (GPa) = 11.90051 19.11154 15.50602
#
# Velocity S-wave (km/s) = 2.54917 3.23045 2.90982
# Velocity P-wave (km/s) = 5.98495 6.68623 6.34529
#
# Compressibility (1/GPa) = 0.02010829
#
# Stress axis : x y z
#
# Youngs Moduli (GPa) = 47.09045 119.33257 36.33244
#
# Poissons Ratio (x) = 0.37349 0.46269
# Poissons Ratio (y) = 0.14738 0.09630
# Poissons Ratio (z) = 0.59970 0.31631
#
# Static dielectric constant tensor:
#      x y z
#    x 3.247640 0.000000 0.000000 
#    y 0.000000 3.912800 0.000000 
#    z 0.000000 0.000000 3.072440 
# 
# 
# High freq. dielectric constant tensor:
#      x y z
#    x 1.688950 0.000000 0.000000 
#    y 0.000000 1.742810 0.000000 
#    z 0.000000 0.000000 1.668970 
# 
# From -- ./inp_files/22298.got.cif
#   From: 2010.03.12/outbox.cif.g09.slc.cpg/sg54_12_cif.got.tgz:22298.got - 2010.04.16 15:00:50.
