data_PCOD8222515
_publ_section_title
;
Structure prediction by ZEFSAII (Michael W. Deem and Ramdas Pophale) SiO2 
 PCOD8222515
Probable space group: P C C A
;
_chemical_formula_sum "Si O2"
_cell_formula_units_Z 56
_cell_length_a 30.291741
_cell_length_b 22.122828
_cell_length_c 5.329083
_cell_angle_alpha 90.000000
_cell_angle_beta 90.000000
_cell_angle_gamma 90.000000
_cell_volume 3571.226224
_symmetry_space_group_name_H-M "P C C A"
_symmetry_group_IT_number 54
_symmetry_cell_setting 'orthorhombic'
loop_
_space_group_symop_operation_xyz
x,y,z
1/2-x,-y,z
1/2+x,-y,1/2-z
-x,y,1/2-z
-x,-y,-z
1/2+x,y,-z
1/2-x,y,1/2+z
x,-y,1/2+z
loop_
_atom_site_type_symbol
_atom_site_label
_atom_site_fract_x
_atom_site_fract_y
_atom_site_fract_z
Si Si1 0.947761 0.830892 0.255519
Si Si2 0.447523 0.762133 0.242161
Si Si3 0.902040 0.635155 0.848794
Si Si4 0.551728 0.483803 0.867109
Si Si5 0.052643 0.966915 0.243770
Si Si6 0.869919 0.582737 0.341768
Si Si7 0.768494 0.433444 0.842143
O O1 0.931506 0.792623 0.497183
O O2 0.928859 0.898749 0.274442
O O3 0.000000 0.833307 0.250000
O O4 0.931935 0.802814 0.992353
O O5 0.500000 0.751886 0.250000
O O6 0.423221 0.699385 0.202658
O O7 0.940997 0.587105 0.886200
O O8 0.873466 0.617537 0.605792
O O9 0.875745 0.630918 0.112507
O O10 0.524781 0.493184 0.609515
O O11 0.596604 0.525127 0.825105
O O12 0.000000 0.967431 0.250000
O O13 0.070511 0.997357 0.499782
O O14 0.820730 0.558566 0.319115
O O15 0.750000 0.500000 0.877796
O O16 0.752710 0.399456 0.098985
#
# Coordination Sequence:
#
# PCOD8222515 Si02
#       7
#     8   8   8   8   8   8   8
#     4   9  17  28  42  58  82 106 129 173 219 248
#     4  10  19  31  44  60  78 103 143 184 223 248
#     4  10  19  29  46  58  76 106 137 169 208 256
#     4   8  16  25  42  53  73  91 125 149 199 247
#     4   9  15  23  37  58  81 105 131 155 197 258
#     4  10  19  31  44  61  83 104 131 159 209 270
#     4  10  21  27  43  64  89 105 121 151 199 261
#
# _framework density 15.68089
#
# number of rings (size 3 to 8) (size 9 to 14) (size 15 to 20)
#    0.000    2.571    0.000    2.571   12.000    3.429 
#    0.000    0.000    0.000    7.714    0.000    0.000 
#    0.000    0.000    0.000    0.000    0.000    0.000 
#
# Total GULP energy -693805.732508 kJ/mol
# GULP energy per Si atom -12389.388080 kJ/mol
# Density = 1.564520 g / cm^3
# Si number density = 15.680890 Si / 1000 Ang^3
#
#
#
# Elastic Constant Matrix: (Units=GPa)
#
#
# Indices 1 2 3 4 5 6 
#
# 1 49.1856 16.9658 16.0233 0.0000 0.0000 0.0000
# 2 16.9658 108.8485 45.8111 0.0000 0.0000 0.0000
# 3 16.0233 45.8111 152.5214 0.0000 0.0000 0.0000
# 4 0.0000 0.0000 0.0000 25.4030 0.0000 0.0000
# 5 0.0000 0.0000 0.0000 0.0000 16.5905 0.0000
# 6 0.0000 0.0000 0.0000 0.0000 0.0000 -52.6865
#
#
#
# Elastic Compliance Matrix: (Units=1/GPa)
#
#
# Indices 1 2 3 4 5 6 
#
# 1 0.021763 -0.002782 -0.001451 0.000000 0.000000 0.000000
# 2 -0.002782 0.010872 -0.002973 0.000000 0.000000 0.000000
# 3 -0.001451 -0.002973 0.007602 0.000000 0.000000 0.000000
# 4 0.000000 0.000000 0.000000 0.039365 0.000000 0.000000
# 5 0.000000 0.000000 0.000000 0.000000 0.060275 0.000000
# 6 0.000000 0.000000 0.000000 0.000000 0.000000 -0.018980
#
#
# Mechanical properties :
#
#
# Convention : Reuss Voigt Hill
#
# Bulk Modulus (GPa) = 38.72098 52.01731 45.36914
# Shear Modulus (GPa) = 34.74205 13.31175 24.02690
#
# Velocity S-wave (km/s) = 4.71209 2.91678 3.91863
# Velocity P-wave (km/s) = 7.37236 6.67742 7.03348
#
# Compressibility (1/GPa) = 0.02582579
#
# Stress axis : x y z
#
# Youngs Moduli (GPa) = 45.94898 91.97952 131.54552
#
# Poissons Ratio (x) = 0.25584 0.19086
# Poissons Ratio (y) = 0.12781 0.39112
# Poissons Ratio (z) = 0.06667 0.27348
#
# Static dielectric constant tensor:
#      x y z
#    x 2.590840 0.000000 0.000000 
#    y 0.000000 8.183200 0.000000 
#    z 0.000000 0.000000 4.329270 
# 
# 
# High freq. dielectric constant tensor:
#      x y z
#    x 1.549170 0.000000 0.000000 
#    y 0.000000 1.572490 0.000000 
#    z 0.000000 0.000000 1.649170 
# 
# From -- ./inp_files/2005.got.cif
#   From: 2010.03.12/outbox.cif.g09.slc.cpg/sg54_2_cif.got.tgz:2005.got - 2010.04.16 15:00:50.
