data_PCOD8222092
_publ_section_title
;
Structure prediction by ZEFSAII (Michael W. Deem and Ramdas Pophale) SiO2 
 PCOD8222092
Probable space group: P M N A
;
_chemical_formula_sum "Si O2"
_cell_formula_units_Z 40
_cell_length_a 8.828111
_cell_length_b 7.212085
_cell_length_c 29.782787
_cell_angle_alpha 90.000000
_cell_angle_beta 90.000000
_cell_angle_gamma 90.000000
_cell_volume 1896.242854
_symmetry_space_group_name_H-M "P M N A"
_symmetry_group_IT_number 53
_symmetry_cell_setting 'orthorhombic'
loop_
_space_group_symop_operation_xyz
x,y,z
1/2-x,-y,1/2+z
x,-y,-z
1/2-x,y,1/2-z
-x,-y,-z
1/2+x,y,1/2-z
-x,y,z
1/2+x,-y,1/2+z
loop_
_atom_site_type_symbol
_atom_site_label
_atom_site_fract_x
_atom_site_fract_y
_atom_site_fract_z
Si Si1 0.669378 0.749855 0.036041
Si Si2 0.679888 0.293274 0.868357
Si Si3 0.327583 0.181449 0.058514
Si Si4 0.821533 0.899412 0.853066
Si Si5 0.321375 0.399034 0.203412
O O1 0.500000 0.680029 0.029038
O O2 0.736678 0.648002 0.080655
O O3 0.672645 0.965314 0.047854
O O4 0.743180 0.714810 0.986287
O O5 0.500000 0.255272 0.869452
O O6 0.725891 0.452980 0.834287
O O7 0.762090 0.107912 0.852490
O O8 0.500000 0.247555 0.068904
O O9 0.225839 0.215572 0.102215
O O10 0.748961 0.798401 0.810111
O O11 0.000000 0.899256 0.848466
O O12 0.250000 0.466654 0.250000
O O13 0.500000 0.380638 0.208479
#
# Coordination Sequence:
#
# PCOD8222092 Si02
#       5
#     8   8   8   8   8
#     4   7  11  24  50  80 107 141 186 230 269 319
#     4   9  19  38  62  85 111 147 191 235 281 333
#     4   8  13  26  50  78 110 147 188 229 268 318
#     4  11  22  36  57  85 119 154 187 226 275 334
#     4  11  24  42  63  84 109 142 184 237 288 336
#
# _framework density 21.094344
#
# number of rings (size 3 to 8) (size 9 to 14) (size 15 to 20)
#    0.000    2.800    0.000    4.800    0.000    2.400 
#    0.000   11.000    0.000    6.000    0.000    0.000 
#    0.000    0.000    0.000    0.000    0.000    0.000 
#
# Total GULP energy -495525.158447 kJ/mol
# GULP energy per Si atom -12388.128961 kJ/mol
# Density = 2.104633 g / cm^3
# Si number density = 21.094344 Si / 1000 Ang^3
#
#
#
# Elastic Constant Matrix: (Units=GPa)
#
#
# Indices 1 2 3 4 5 6 
#
# 1 83.0953 29.8844 38.1507 0.0000 0.0000 0.0000
# 2 29.8844 32.7680 27.7052 0.0000 0.0000 0.0000
# 3 38.1507 27.7052 124.0209 0.0000 0.0000 0.0000
# 4 0.0000 0.0000 0.0000 34.6809 0.0000 0.0000
# 5 0.0000 0.0000 0.0000 0.0000 29.2906 0.0000
# 6 0.0000 0.0000 0.0000 0.0000 0.0000 -11.1093
#
#
#
# Elastic Compliance Matrix: (Units=1/GPa)
#
#
# Indices 1 2 3 4 5 6 
#
# 1 0.018453 -0.014831 -0.002363 0.000000 0.000000 0.000000
# 2 -0.014831 0.049544 -0.006505 0.000000 0.000000 0.000000
# 3 -0.002363 -0.006505 0.010243 0.000000 0.000000 0.000000
# 4 0.000000 0.000000 0.000000 0.028834 0.000000 0.000000
# 5 0.000000 0.000000 0.000000 0.000000 0.034141 0.000000
# 6 0.000000 0.000000 0.000000 0.000000 0.000000 -0.090015
#
#
# Mechanical properties :
#
#
# Convention : Reuss Voigt Hill
#
# Bulk Modulus (GPa) = 32.42461 47.92943 40.17702
# Shear Modulus (GPa) = 45.92162 20.18202 33.05182
#
# Velocity S-wave (km/s) = 4.67086 3.09649 3.96265
# Velocity P-wave (km/s) = 6.67037 5.96281 6.32649
#
# Compressibility (1/GPa) = 0.03084077
#
# Stress axis : x y z
#
# Youngs Moduli (GPa) = 54.19064 20.18406 97.62375
#
# Poissons Ratio (x) = 0.29936 0.23072
# Poissons Ratio (y) = 0.80372 0.63508
# Poissons Ratio (z) = 0.12807 0.13131
#
# Static dielectric constant tensor:
#      x y z
#    x 3.409820 0.000000 0.000000 
#    y 0.000000 3.608490 0.000000 
#    z 0.000000 0.000000 4.530810 
# 
# 
# High freq. dielectric constant tensor:
#      x y z
#    x 1.777630 0.000000 0.000000 
#    y 0.000000 1.816700 0.000000 
#    z 0.000000 0.000000 1.848270 
# 
# From -- ./inp_files/36038.got.cif
#   From: 2010.03.12/outbox.cif.g09.slc.cpg/sg53_19_cif.got.tgz:36038.got - 2010.04.16 14:36:59.
