data_PCOD8222138
_publ_section_title
;
Structure prediction by ZEFSAII (Michael W. Deem and Ramdas Pophale) SiO2 
 PCOD8222138
Probable space group: P M N A
;
_chemical_formula_sum "Si O2"
_cell_formula_units_Z 32
_cell_length_a 14.209926
_cell_length_b 10.374550
_cell_length_c 9.510434
_cell_angle_alpha 90.000000
_cell_angle_beta 90.000000
_cell_angle_gamma 90.000000
_cell_volume 1402.043281
_symmetry_space_group_name_H-M "P M N A"
_symmetry_group_IT_number 53
_symmetry_cell_setting 'orthorhombic'
loop_
_space_group_symop_operation_xyz
x,y,z
1/2-x,-y,1/2+z
x,-y,-z
1/2-x,y,1/2-z
-x,-y,-z
1/2+x,y,1/2-z
-x,y,z
1/2+x,-y,1/2+z
loop_
_atom_site_type_symbol
_atom_site_label
_atom_site_fract_x
_atom_site_fract_y
_atom_site_fract_z
Si Si1 0.160551 0.532519 0.159086
Si Si2 0.603948 0.195272 0.666415
Si Si3 0.797782 0.142462 0.543806
Si Si4 0.894215 0.374888 0.406695
O O1 0.250000 0.580724 0.250000
O O2 0.088770 0.651029 0.154219
O O3 0.115357 0.411064 0.241188
O O4 0.190688 0.500000 0.000000
O O5 0.500000 0.133335 0.637751
O O6 0.684254 0.147008 0.559189
O O7 0.640048 0.164153 0.820192
O O8 0.825230 0.254245 0.433096
O O9 0.826825 0.000000 0.500000
O O10 0.867290 0.500000 0.500000
O O11 0.000000 0.330446 0.440173
#
# Coordination Sequence:
#
# PCOD8222138 Si02
#       4
#     8   8   8   8
#     4  12  23  42  71 106 147 187 234 298 361 419
#     4  11  23  44  72 100 138 186 238 297 356 419
#     4  11  24  46  71 100 144 190 233 293 358 429
#     4  11  22  42  74 107 141 187 240 292 353 423
#
# _framework density 22.823830000000001
#
# number of rings (size 3 to 8) (size 9 to 14) (size 15 to 20)
#    0.000    0.750    5.000    3.750    0.000    4.500 
#   13.500    0.000    0.000    0.000    0.000    0.000 
#    0.000    0.000    0.000    0.000    0.000    0.000 
#
# Total GULP energy -396594.848295 kJ/mol
# GULP energy per Si atom -12393.589009 kJ/mol
# Density = 2.277188 g / cm^3
# Si number density = 22.823830 Si / 1000 Ang^3
#
#
#
# Elastic Constant Matrix: (Units=GPa)
#
#
# Indices 1 2 3 4 5 6 
#
# 1 147.3776 26.8099 25.9058 0.0000 0.0000 0.0000
# 2 26.8099 136.8249 47.5536 0.0000 0.0000 0.0000
# 3 25.9058 47.5536 131.1036 0.0000 0.0000 0.0000
# 4 0.0000 0.0000 0.0000 11.7344 0.0000 0.0000
# 5 0.0000 0.0000 0.0000 0.0000 -14.2809 0.0000
# 6 0.0000 0.0000 0.0000 0.0000 0.0000 15.3435
#
#
#
# Elastic Compliance Matrix: (Units=1/GPa)
#
#
# Indices 1 2 3 4 5 6 
#
# 1 0.007157 -0.001042 -0.001036 0.000000 0.000000 0.000000
# 2 -0.001042 0.008515 -0.002882 0.000000 0.000000 0.000000
# 3 -0.001036 -0.002882 0.008878 0.000000 0.000000 0.000000
# 4 0.000000 0.000000 0.000000 0.085220 0.000000 0.000000
# 5 0.000000 0.000000 0.000000 0.000000 -0.070023 0.000000
# 6 0.000000 0.000000 0.000000 0.000000 0.000000 0.065174
#
#
# Mechanical properties :
#
#
# Convention : Reuss Voigt Hill
#
# Bulk Modulus (GPa) = 68.36334 68.42717 68.39525
# Shear Modulus (GPa) = 41.76492 23.56184 32.66338
#
# Velocity S-wave (km/s) = 4.28235 3.21648 3.78710
# Velocity P-wave (km/s) = 7.38031 6.62118 7.01103
#
# Compressibility (1/GPa) = 0.01462772
#
# Stress axis : x y z
#
# Youngs Moduli (GPa) = 139.72287 117.44482 112.64021
#
# Poissons Ratio (x) = 0.12241 0.11671
# Poissons Ratio (y) = 0.14563 0.32468
# Poissons Ratio (z) = 0.14478 0.33853
#
# Static dielectric constant tensor:
#      x y z
#    x 4.240730 0.000000 0.000000 
#    y 0.000000 3.021410 0.000000 
#    z 0.000000 0.000000 4.067480 
# 
# 
# High freq. dielectric constant tensor:
#      x y z
#    x 1.916740 0.000000 0.000000 
#    y 0.000000 1.880230 0.000000 
#    z 0.000000 0.000000 1.888480 
# 
# From -- ./inp_files/7977.got.cif
#   From: 2010.03.12/outbox.cif.g09.slc.cpg/sg53_4_cif.got.tgz:7977.got - 2010.04.16 14:36:59.
