data_PCOD8222158
_publ_section_title
;
Structure prediction by ZEFSAII (Michael W. Deem and Ramdas Pophale) SiO2 
 PCOD8222158
Probable space group: P M N A
;
_chemical_formula_sum "Si O2"
_cell_formula_units_Z 40
_cell_length_a 14.705410
_cell_length_b 14.996904
_cell_length_c 8.778633
_cell_angle_alpha 90.000000
_cell_angle_beta 90.000000
_cell_angle_gamma 90.000000
_cell_volume 1936.001289
_symmetry_space_group_name_H-M "P M N A"
_symmetry_group_IT_number 53
_symmetry_cell_setting 'orthorhombic'
loop_
_space_group_symop_operation_xyz
x,y,z
1/2-x,-y,1/2+z
x,-y,-z
1/2-x,y,1/2-z
-x,-y,-z
1/2+x,y,1/2-z
-x,y,z
1/2+x,-y,1/2+z
loop_
_atom_site_type_symbol
_atom_site_label
_atom_site_fract_x
_atom_site_fract_y
_atom_site_fract_z
Si Si1 0.500000 0.525279 0.674282
Si Si2 0.000000 0.340317 0.665828
Si Si3 0.000000 0.754385 0.650699
Si Si4 0.500000 0.042612 0.160908
Si Si5 0.341946 0.248174 0.656304
Si Si6 0.652306 0.668986 0.673302
Si Si7 0.158869 0.046511 0.843452
O O1 0.500000 0.500000 0.500000
O O2 0.500000 0.445668 0.797407
O O3 0.592986 0.579975 0.697477
O O4 0.000000 0.318010 0.486248
O O5 0.911967 0.297750 0.737728
O O6 0.907439 0.745593 0.747904
O O7 0.000000 0.856090 0.603761
O O8 0.412857 0.014723 0.257011
O O9 0.500000 0.000000 0.000000
O O10 0.250000 0.247659 0.750000
O O11 0.331784 0.303888 0.501340
O O12 0.376645 0.147206 0.626062
O O13 0.750000 0.655803 0.750000
O O14 0.250000 0.051411 0.750000
O O15 0.182890 0.000000 0.000000
#
# Coordination Sequence:
#
# PCOD8222158 Si02
#       7
#     4   4   4   4   8   8   8
#     4  11  23  47  69  96 133 167 214 281 328 397
#     4  12  23  44  67  91 130 166 217 271 337 405
#     4  11  25  42  66  97 130 176 214 276 332 396
#     4  12  24  40  64  94 132 171 223 271 330 390
#     4  11  23  40  65  94 127 173 221 268 331 397
#     4  11  24  44  67  97 132 171 218 274 341 400
#     4  11  24  40  62  92 128 173 220 273 326 392
#
# _framework density 20.661142999999999
#
# number of rings (size 3 to 8) (size 9 to 14) (size 15 to 20)
#    0.000    0.800    2.000    5.700    0.000    8.800 
#    3.600    0.000    0.000    0.000    0.000    0.000 
#    0.000    0.000    0.000    0.000    0.000    0.000 
#
# Total GULP energy -495933.027934 kJ/mol
# GULP energy per Si atom -12398.325698 kJ/mol
# Density = 2.061412 g / cm^3
# Si number density = 20.661143 Si / 1000 Ang^3
#
#
#
# Elastic Constant Matrix: (Units=GPa)
#
#
# Indices 1 2 3 4 5 6 
#
# 1 131.5080 40.1601 40.0836 0.0000 0.0000 0.0000
# 2 40.1601 148.6137 35.6956 0.0000 0.0000 0.0000
# 3 40.0836 35.6956 118.6119 0.0000 0.0000 0.0000
# 4 0.0000 0.0000 0.0000 37.1232 0.0000 0.0000
# 5 0.0000 0.0000 0.0000 0.0000 6.2237 0.0000
# 6 0.0000 0.0000 0.0000 0.0000 0.0000 23.0170
#
#
#
# Elastic Compliance Matrix: (Units=1/GPa)
#
#
# Indices 1 2 3 4 5 6 
#
# 1 0.008910 -0.001816 -0.002465 0.000000 0.000000 0.000000
# 2 -0.001816 0.007623 -0.001681 0.000000 0.000000 0.000000
# 3 -0.002465 -0.001681 0.009769 0.000000 0.000000 0.000000
# 4 0.000000 0.000000 0.000000 0.026937 0.000000 0.000000
# 5 0.000000 0.000000 0.000000 0.000000 0.160677 0.000000
# 6 0.000000 0.000000 0.000000 0.000000 0.000000 0.043446
#
#
# Mechanical properties :
#
#
# Convention : Reuss Voigt Hill
#
# Bulk Modulus (GPa) = 69.53716 70.06801 69.80259
# Shear Modulus (GPa) = 18.24301 32.12574 25.18438
#
# Velocity S-wave (km/s) = 2.97469 3.94748 3.49510
# Velocity P-wave (km/s) = 6.74740 7.40023 7.08134
#
# Compressibility (1/GPa) = 0.01438080
#
# Stress axis : x y z
#
# Youngs Moduli (GPa) = 112.23618 131.17892 102.35979
#
# Poissons Ratio (x) = 0.23819 0.25227
# Poissons Ratio (y) = 0.20379 0.17202
# Poissons Ratio (z) = 0.27661 0.22045
#
# Static dielectric constant tensor:
#      x y z
#    x 3.700700 0.000000 0.000000 
#    y 0.000000 4.164270 0.000000 
#    z 0.000000 0.000000 3.959130 
# 
# 
# High freq. dielectric constant tensor:
#      x y z
#    x 1.821050 0.000000 0.000000 
#    y 0.000000 1.820150 0.000000 
#    z 0.000000 0.000000 1.825590 
# 
# From -- ./inp_files/8489.got.cif
#   From: 2010.03.12/outbox.cif.g09.slc.cpg/sg53_5_cif.got.tgz:8489.got - 2010.04.16 14:36:59.
