data_PCOD8222093
_publ_section_title
;
Structure prediction by ZEFSAII (Michael W. Deem and Ramdas Pophale) SiO2 
 PCOD8222093
Probable space group: P M N A
;
_chemical_formula_sum "Si O2"
_cell_formula_units_Z 56
_cell_length_a 8.611746
_cell_length_b 14.689543
_cell_length_c 22.385437
_cell_angle_alpha 90.000000
_cell_angle_beta 90.000000
_cell_angle_gamma 90.000000
_cell_volume 2831.816277
_symmetry_space_group_name_H-M "P M N A"
_symmetry_group_IT_number 53
_symmetry_cell_setting 'orthorhombic'
loop_
_space_group_symop_operation_xyz
x,y,z
1/2-x,-y,1/2+z
x,-y,-z
1/2-x,y,1/2-z
-x,-y,-z
1/2+x,y,1/2-z
-x,y,z
1/2+x,-y,1/2+z
loop_
_atom_site_type_symbol
_atom_site_label
_atom_site_fract_x
_atom_site_fract_y
_atom_site_fract_z
Si Si1 0.676998 0.099403 0.473738
Si Si2 0.680968 0.800882 0.081460
Si Si3 0.817266 0.081514 0.812557
Si Si4 0.682044 0.696137 0.811854
Si Si5 0.319259 0.894598 0.848461
Si Si6 0.181064 0.583503 0.919489
Si Si7 0.181716 0.620299 0.053971
O O1 0.500000 0.116231 0.452873
O O2 0.721203 0.172156 0.523448
O O3 0.793478 0.110683 0.419107
O O4 0.698707 0.000000 0.500000
O O5 0.500000 0.817081 0.070643
O O6 0.732825 0.860571 0.137134
O O7 0.719691 0.694496 0.091154
O O8 0.750000 0.116647 0.750000
O O9 0.000000 0.098314 0.816257
O O10 0.782644 0.974634 0.819914
O O11 0.750000 0.656948 0.750000
O O12 0.500000 0.693792 0.807202
O O13 0.739732 0.799892 0.820467
O O14 0.728815 0.634494 0.867544
O O15 0.500000 0.913525 0.835521
O O16 0.223051 0.476863 0.917236
O O17 0.000000 0.598853 0.909032
O O18 0.229776 0.622752 0.984103
O O19 0.000000 0.640543 0.060890
#
# Coordination Sequence:
#
# PCOD8222093 Si02
#       7
#     8   8   8   8   8   8   8
#     4  11  22  36  57  86 118 157 197 239 293 346
#     4  12  24  38  59  88 121 156 194 242 292 345
#     4  12  25  42  61  82 112 154 199 244 290 344
#     4  11  24  39  58  86 120 158 200 244 294 351
#     4  11  23  39  60  88 119 155 198 245 296 351
#     4   9  19  38  64  91 120 153 191 239 294 352
#     4   9  19  38  64  92 120 153 192 237 295 357
#
# _framework density 19.775293999999999
#
# number of rings (size 3 to 8) (size 9 to 14) (size 15 to 20)
#    0.000    1.286    1.429    6.000    0.000    7.429 
#    0.000    2.143    0.000    3.429    0.000    0.000 
#    0.000    0.000    0.000    0.000    0.000    0.000 
#
# Total GULP energy -694647.116766 kJ/mol
# GULP energy per Si atom -12404.412799 kJ/mol
# Density = 1.973028 g / cm^3
# Si number density = 19.775294 Si / 1000 Ang^3
#
#
#
# Elastic Constant Matrix: (Units=GPa)
#
#
# Indices 1 2 3 4 5 6 
#
# 1 63.3608 39.7499 24.1239 0.0000 0.0000 0.0000
# 2 39.7499 104.9272 29.6489 0.0000 0.0000 0.0000
# 3 24.1239 29.6489 82.8837 0.0000 0.0000 0.0000
# 4 0.0000 0.0000 0.0000 12.8856 0.0000 0.0000
# 5 0.0000 0.0000 0.0000 0.0000 29.0565 0.0000
# 6 0.0000 0.0000 0.0000 0.0000 0.0000 30.2798
#
#
#
# Elastic Compliance Matrix: (Units=1/GPa)
#
#
# Indices 1 2 3 4 5 6 
#
# 1 0.021705 -0.007161 -0.003756 0.000000 0.000000 0.000000
# 2 -0.007161 0.012965 -0.002553 0.000000 0.000000 0.000000
# 3 -0.003756 -0.002553 0.014072 0.000000 0.000000 0.000000
# 4 0.000000 0.000000 0.000000 0.077606 0.000000 0.000000
# 5 0.000000 0.000000 0.000000 0.000000 0.034416 0.000000
# 6 0.000000 0.000000 0.000000 0.000000 0.000000 0.033025
#
#
# Mechanical properties :
#
#
# Convention : Reuss Voigt Hill
#
# Bulk Modulus (GPa) = 45.86994 48.69078 47.28036
# Shear Modulus (GPa) = 21.93014 24.95433 23.44224
#
# Velocity S-wave (km/s) = 3.33373 3.55617 3.44674
# Velocity P-wave (km/s) = 6.16962 6.44494 6.30878
#
# Compressibility (1/GPa) = 0.02180077
#
# Stress axis : x y z
#
# Youngs Moduli (GPa) = 46.07148 77.13128 71.06501
#
# Poissons Ratio (x) = 0.55237 0.26690
# Poissons Ratio (y) = 0.32994 0.18145
# Poissons Ratio (z) = 0.17303 0.19694
#
# Static dielectric constant tensor:
#      x y z
#    x 3.536460 0.000000 0.000000 
#    y 0.000000 3.766590 0.000000 
#    z 0.000000 0.000000 3.613490 
# 
# 
# High freq. dielectric constant tensor:
#      x y z
#    x 1.774830 0.000000 0.000000 
#    y 0.000000 1.774870 0.000000 
#    z 0.000000 0.000000 1.768810 
# 
# From -- ./inp_files/30776.got.cif
#   From: 2010.03.12/outbox.cif.g09.slc.cpg/sg53_16_cif.got.tgz:30776.got - 2010.04.16 14:36:59.
