data_PCOD8222270
_publ_section_title
;
Structure prediction by ZEFSAII (Michael W. Deem and Ramdas Pophale) SiO2 
 PCOD8222270
Probable space group: P M N A
;
_chemical_formula_sum "Si O2"
_cell_formula_units_Z 48
_cell_length_a 18.000000
_cell_length_b 9.000000
_cell_length_c 15.000000
_cell_angle_alpha 90.000000
_cell_angle_beta 90.000000
_cell_angle_gamma 90.000000
_cell_volume 2430.000000
_symmetry_space_group_name_H-M "P M N A"
_symmetry_group_IT_number 53
_symmetry_cell_setting 'orthorhombic'
loop_
_space_group_symop_operation_xyz
x,y,z
1/2-x,-y,1/2+z
x,-y,-z
1/2-x,y,1/2-z
-x,-y,-z
1/2+x,y,1/2-z
-x,y,z
1/2+x,-y,1/2+z
loop_
_atom_site_type_symbol
_atom_site_label
_atom_site_fract_x
_atom_site_fract_y
_atom_site_fract_z
Si Si1 0.583671 0.111033 0.420824
Si Si2 0.282476 0.914571 0.096672
Si Si3 0.353343 0.427141 0.407818
Si Si4 0.305274 0.433222 0.908953
Si Si5 0.585327 0.597408 0.249738
Si Si6 0.640892 0.077010 0.722229
O O1 0.500000 0.166204 0.441805
O O2 0.640511 0.249427 0.418734
O O3 0.610564 0.000000 0.500000
O O4 0.580881 0.032449 0.322696
O O5 0.287572 0.740003 0.076323
O O6 0.344828 0.960273 0.172346
O O7 0.208381 0.947879 0.152152
O O8 0.290062 0.000000 0.000000
O O9 0.379456 0.500000 0.500000
O O10 0.269334 0.476203 0.383642
O O11 0.407894 0.479227 0.329320
O O12 0.365837 0.459262 0.832889
O O13 0.338682 0.500000 0.000000
O O14 0.500000 0.609438 0.219046
O O15 0.614704 0.753972 0.285765
#
# Coordination Sequence:
#
# PCOD8222270 Si02
#       6
#     8   8   8   8   8   8
#     4  11  24  39  59  91 129 164 204 253 315 383
#     4  10  21  38  62  89 123 157 209 258 309 361
#     4  11  23  39  61  89 126 164 203 257 309 368
#     4  10  23  40  62  91 124 161 209 263 301 371
#     4  11  22  41  66  90 126 166 206 255 316 375
#     4  10  21  38  61  90 121 162 203 253 312 374
#
# _framework density 19.753086
#
# number of rings (size 3 to 8) (size 9 to 14) (size 15 to 20)
#    0.000    1.500    1.667    3.000    7.000    4.333 
#    3.000    0.000    0.000   12.500    0.000    0.000 
#    0.000    0.667    0.000    0.000    0.000    0.000 
#
# Total GULP energy -594955.420348 kJ/mol
# GULP energy per Si atom -12394.904591 kJ/mol
# Density = 1.970813 g / cm^3
# Si number density = 19.753086 Si / 1000 Ang^3
#
#
#
# Elastic Constant Matrix: (Units=GPa)
#
#
# Indices 1 2 3 4 5 6 
#
# 1 86.9019 40.3076 47.3011 0.0000 0.0000 0.0000
# 2 40.3076 125.2949 66.1220 0.0000 0.0000 0.0000
# 3 47.3011 66.1220 168.4208 0.0000 0.0000 0.0000
# 4 0.0000 0.0000 0.0000 43.5600 0.0000 0.0000
# 5 0.0000 0.0000 0.0000 0.0000 27.1478 0.0000
# 6 0.0000 0.0000 0.0000 0.0000 0.0000 21.1069
#
#
#
# Elastic Compliance Matrix: (Units=1/GPa)
#
#
# Indices 1 2 3 4 5 6 
#
# 1 0.014522 -0.003178 -0.002831 0.000000 0.000000 0.000000
# 2 -0.003178 0.010762 -0.003333 0.000000 0.000000 0.000000
# 3 -0.002831 -0.003333 0.008041 0.000000 0.000000 0.000000
# 4 0.000000 0.000000 0.000000 0.022957 0.000000 0.000000
# 5 0.000000 0.000000 0.000000 0.000000 0.036835 0.000000
# 6 0.000000 0.000000 0.000000 0.000000 0.000000 0.047378
#
#
# Mechanical properties :
#
#
# Convention : Reuss Voigt Hill
#
# Bulk Modulus (GPa) = 68.29507 76.45325 72.37416
# Shear Modulus (GPa) = 30.47681 33.48876 31.98278
#
# Velocity S-wave (km/s) = 3.93222 4.12195 4.02820
# Velocity P-wave (km/s) = 7.43411 7.83852 7.63899
#
# Compressibility (1/GPa) = 0.01464234
#
# Stress axis : x y z
#
# Youngs Moduli (GPa) = 68.86072 92.91702 124.36222
#
# Poissons Ratio (x) = 0.29527 0.35206
# Poissons Ratio (y) = 0.21883 0.41447
# Poissons Ratio (z) = 0.19494 0.30967
#
# Static dielectric constant tensor:
#      x y z
#    x 3.521640 0.000000 0.000000 
#    y 0.000000 3.639240 0.000000 
#    z 0.000000 0.000000 4.044360 
# 
# 
# High freq. dielectric constant tensor:
#      x y z
#    x 1.760410 0.000000 0.000000 
#    y 0.000000 1.776240 0.000000 
#    z 0.000000 0.000000 1.795060 
# 
# From -- ./inp_files/23667.got.cif
#   From: 2010.03.12/outbox.ucp.g09.slc.cvg/sg53_12_cif.got.tgz:23667.got - 2010.05.04 19:20:06.
