data_PCOD8222766
_publ_section_title
;
Structure prediction by ZEFSAII (Michael W. Deem and Ramdas Pophale) SiO2 
 PCOD8222766
Probable space group: P C C A
;
_chemical_formula_sum "Si O2"
_cell_formula_units_Z 60
_cell_length_a 11.910984
_cell_length_b 28.627690
_cell_length_c 8.894339
_cell_angle_alpha 90.000000
_cell_angle_beta 90.000000
_cell_angle_gamma 90.000000
_cell_volume 3032.826912
_symmetry_space_group_name_H-M "P C C A"
_symmetry_group_IT_number 54
_symmetry_cell_setting 'orthorhombic'
loop_
_space_group_symop_operation_xyz
x,y,z
1/2-x,-y,z
1/2+x,-y,1/2-z
-x,y,1/2-z
-x,-y,-z
1/2+x,y,-z
1/2-x,y,1/2+z
x,-y,1/2+z
loop_
_atom_site_type_symbol
_atom_site_label
_atom_site_fract_x
_atom_site_fract_y
_atom_site_fract_z
Si Si1 0.123339 0.264703 0.297853
Si Si2 0.874326 0.947138 0.207714
Si Si3 0.252211 0.213521 0.548625
Si Si4 0.376825 0.627211 0.320140
Si Si5 0.374825 0.839037 0.796449
Si Si6 0.250000 0.000000 0.543268
Si Si7 0.281676 0.576032 0.607354
Si Si8 0.917514 0.510875 0.872545
O O1 0.155960 0.233837 0.441298
O O2 0.200845 0.255475 0.152142
O O3 0.130545 0.318037 0.350461
O O4 0.000000 0.249481 0.250000
O O5 0.857811 0.893199 0.166679
O O6 0.845115 0.977464 0.061476
O O7 0.798940 0.959222 0.352054
O O8 0.000000 0.959802 0.250000
O O9 0.204360 0.173467 0.656420
O O10 0.348436 0.190667 0.445630
O O11 0.500000 0.615351 0.250000
O O12 0.354769 0.598824 0.474014
O O13 0.268636 0.615442 0.216495
O O14 0.500000 0.826422 0.750000
O O15 0.360379 0.537269 0.689244
O O16 0.171499 0.547043 0.557523
O O17 0.000000 0.534442 0.750000
O O18 0.000000 0.500000 0.000000
#
# Coordination Sequence:
#
# PCOD8222766 Si02
#       8
#     8   8   8   8   8   4   8   8
#     4  10  21  37  57  80 109 143 178 220 272 327
#     4  10  20  34  52  77 107 144 185 228 276 326
#     4  10  20  36  57  81 108 141 180 224 277 329
#     4  11  23  39  58  83 113 144 182 223 266 323
#     4  10  20  34  55  81 109 140 182 231 276 326
#     4  10  20  34  52  74 108 148 186 226 274 330
#     4  11  22  37  58  81 110 145 178 219 265 311
#     4  11  22  37  57  82 109 140 177 216 259 308
#
# _framework density 19.783522999999999
#
# number of rings (size 3 to 8) (size 9 to 14) (size 15 to 20)
#    0.000    1.600    0.000    5.600    0.000    2.133 
#    0.000    0.000    0.000   20.800    0.000    0.000 
#    0.000    0.000    0.000    0.000    0.000    0.000 
#
# Total GULP energy -743606.343950 kJ/mol
# GULP energy per Si atom -12393.439066 kJ/mol
# Density = 1.973850 g / cm^3
# Si number density = 19.783523 Si / 1000 Ang^3
#
#
#
# Elastic Constant Matrix: (Units=GPa)
#
#
# Indices 1 2 3 4 5 6 
#
# 1 82.2880 21.3691 15.3203 0.0000 0.0000 0.0000
# 2 21.3691 68.0417 16.7198 0.0000 0.0000 0.0000
# 3 15.3203 16.7198 82.9559 0.0000 0.0000 0.0000
# 4 0.0000 0.0000 0.0000 16.6748 0.0000 0.0000
# 5 0.0000 0.0000 0.0000 0.0000 33.8991 0.0000
# 6 0.0000 0.0000 0.0000 0.0000 0.0000 32.7047
#
#
#
# Elastic Compliance Matrix: (Units=1/GPa)
#
#
# Indices 1 2 3 4 5 6 
#
# 1 0.013461 -0.003805 -0.001719 0.000000 0.000000 0.000000
# 2 -0.003805 0.016538 -0.002631 0.000000 0.000000 0.000000
# 3 -0.001719 -0.002631 0.012902 0.000000 0.000000 0.000000
# 4 0.000000 0.000000 0.000000 0.059971 0.000000 0.000000
# 5 0.000000 0.000000 0.000000 0.000000 0.029499 0.000000
# 6 0.000000 0.000000 0.000000 0.000000 0.000000 0.030577
#
#
# Mechanical properties :
#
#
# Convention : Reuss Voigt Hill
#
# Bulk Modulus (GPa) = 37.60538 37.78932 37.69735
# Shear Modulus (GPa) = 26.57863 28.64747 27.61305
#
# Velocity S-wave (km/s) = 3.66932 3.80945 3.74004
# Velocity P-wave (km/s) = 6.08289 6.20420 6.14384
#
# Compressibility (1/GPa) = 0.02659194
#
# Stress axis : x y z
#
# Youngs Moduli (GPa) = 74.29098 60.46584 77.50581
#
# Poissons Ratio (x) = 0.23007 0.13323
# Poissons Ratio (y) = 0.28268 0.20389
# Poissons Ratio (z) = 0.12771 0.15906
#
# Static dielectric constant tensor:
#      x y z
#    x 3.510990 0.000000 0.000000 
#    y 0.000000 5.803630 0.000000 
#    z 0.000000 0.000000 3.573080 
# 
# 
# High freq. dielectric constant tensor:
#      x y z
#    x 1.781400 0.000000 0.000000 
#    y 0.000000 1.775380 0.000000 
#    z 0.000000 0.000000 1.771500 
# 
# From -- ./inp_files/3065.got.cif
#   From: 2010.03.12/outbox.cif.g09.slc.cpg/sg54_2_cif.got.tgz:3065.got - 2010.04.16 15:00:50.
