data_PCOD8222579
_publ_section_title
;
Structure prediction by ZEFSAII (Michael W. Deem and Ramdas Pophale) SiO2 
 PCOD8222579
Probable space group: P C C A
;
_chemical_formula_sum "Si O2"
_cell_formula_units_Z 56
_cell_length_a 5.214189
_cell_length_b 30.778386
_cell_length_c 17.232837
_cell_angle_alpha 90.000000
_cell_angle_beta 90.000000
_cell_angle_gamma 90.000000
_cell_volume 2765.600157
_symmetry_space_group_name_H-M "P C C A"
_symmetry_group_IT_number 54
_symmetry_cell_setting 'orthorhombic'
loop_
_space_group_symop_operation_xyz
x,y,z
1/2-x,-y,z
1/2+x,-y,1/2-z
-x,y,1/2-z
-x,-y,-z
1/2+x,y,-z
1/2-x,y,1/2+z
x,-y,1/2+z
loop_
_atom_site_type_symbol
_atom_site_label
_atom_site_fract_x
_atom_site_fract_y
_atom_site_fract_z
Si Si1 0.808928 0.200781 0.453288
Si Si2 0.777667 0.892813 0.448209
Si Si3 0.749427 0.550993 0.547548
Si Si4 0.749993 0.332551 0.286842
Si Si5 0.250025 0.428833 0.780220
Si Si6 0.750018 0.948756 0.297002
Si Si7 0.223182 0.294732 0.551249
O O1 0.611379 0.200764 0.526553
O O2 0.745104 0.155602 0.409005
O O3 0.744932 0.246217 0.409969
O O4 0.553344 0.899197 0.511508
O O5 0.747754 0.927941 0.381537
O O6 0.750000 0.500000 0.566959
O O7 0.498741 0.564843 0.500326
O O8 0.750238 0.577437 0.627517
O O9 0.500000 0.309462 0.250000
O O10 0.750091 0.383033 0.264462
O O11 0.749735 0.329190 0.379759
O O12 0.000000 0.309528 0.250000
O O13 0.500000 0.454939 0.750000
O O14 0.000000 0.454926 0.750000
O O15 0.500000 0.933488 0.250000
O O16 0.000000 0.933383 0.250000
O O17 0.750000 0.000000 0.310056
O O18 0.448770 0.301980 0.489046
#
# Coordination Sequence:
#
# PCOD8222579 Si02
#       7
#     8   8   8   8   8   8   8
#     4   8  16  30  50  76 103 130 165 215 267 307
#     4  10  19  33  54  78 102 131 174 221 259 308
#     4  10  21  38  60  85 110 140 182 224 260 309
#     4  10  21  38  53  77 113 141 174 219 264 309
#     4  10  21  38  56  80 113 145 174 214 267 314
#     4  10  21  36  51  71 105 142 172 210 262 316
#     4  10  19  35  58  79 102 139 181 215 257 315
#
# _framework density 20.248768999999999
#
# number of rings (size 3 to 8) (size 9 to 14) (size 15 to 20)
#    0.000    2.286    0.000    2.571    0.000    1.143 
#    0.000   18.571    0.000    0.000    0.000    0.000 
#    0.000    0.000    0.000    0.000    0.000    0.000 
#
# Total GULP energy -693958.074034 kJ/mol
# GULP energy per Si atom -12392.108465 kJ/mol
# Density = 2.020268 g / cm^3
# Si number density = 20.248769 Si / 1000 Ang^3
#
#
#
# Elastic Constant Matrix: (Units=GPa)
#
#
# Indices 1 2 3 4 5 6 
#
# 1 179.3404 13.0103 43.7009 0.0000 0.0000 0.0000
# 2 13.0103 56.8109 38.4084 0.0000 0.0000 0.0000
# 3 43.7009 38.4084 108.5710 0.0000 0.0000 0.0000
# 4 0.0000 0.0000 0.0000 4.5210 0.0000 0.0000
# 5 0.0000 0.0000 0.0000 0.0000 35.4227 0.0000
# 6 0.0000 0.0000 0.0000 0.0000 0.0000 21.4506
#
#
#
# Elastic Compliance Matrix: (Units=1/GPa)
#
#
# Indices 1 2 3 4 5 6 
#
# 1 0.006188 0.000351 -0.002615 0.000000 0.000000 0.000000
# 2 0.000351 0.023155 -0.008333 0.000000 0.000000 0.000000
# 3 -0.002615 -0.008333 0.013211 0.000000 0.000000 0.000000
# 4 0.000000 0.000000 0.000000 0.221192 0.000000 0.000000
# 5 0.000000 0.000000 0.000000 0.000000 0.028231 0.000000
# 6 0.000000 0.000000 0.000000 0.000000 0.000000 0.046619
#
#
# Mechanical properties :
#
#
# Convention : Reuss Voigt Hill
#
# Bulk Modulus (GPa) = 46.81524 59.44017 53.12770
# Shear Modulus (GPa) = 13.62738 28.91902 21.27320
#
# Velocity S-wave (km/s) = 2.59703 3.78324 3.24480
# Velocity P-wave (km/s) = 5.67125 6.96437 6.35081
#
# Compressibility (1/GPa) = 0.02136057
#
# Stress axis : x y z
#
# Youngs Moduli (GPa) = 161.61158 43.18632 75.69578
#
# Poissons Ratio (x) = -0.01514 0.19792
# Poissons Ratio (y) = -0.05667 0.63075
# Poissons Ratio (z) = 0.42256 0.35986
#
# Static dielectric constant tensor:
#      x y z
#    x 1.455960 0.000000 0.000000 
#    y 0.000000 3.628070 0.000000 
#    z 0.000000 0.000000 3.298430 
# 
# 
# High freq. dielectric constant tensor:
#      x y z
#    x 1.829130 0.000000 0.000000 
#    y 0.000000 1.775280 0.000000 
#    z 0.000000 0.000000 1.759730 
# 
# From -- ./inp_files/11010.got.cif
#   From: 2010.03.12/outbox.cif.g09.slc.cpg/sg54_6_cif.got.tgz:11010.got - 2010.04.16 15:00:50.
