data_PCOD8222131
_publ_section_title
;
Structure prediction by ZEFSAII (Michael W. Deem and Ramdas Pophale) SiO2 
 PCOD8222131
Probable space group: P M N A
;
_chemical_formula_sum "Si O2"
_cell_formula_units_Z 48
_cell_length_a 30.263608
_cell_length_b 9.265027
_cell_length_c 7.390760
_cell_angle_alpha 90.000000
_cell_angle_beta 90.000000
_cell_angle_gamma 90.000000
_cell_volume 2072.318442
_symmetry_space_group_name_H-M "P M N A"
_symmetry_group_IT_number 53
_symmetry_cell_setting 'orthorhombic'
loop_
_space_group_symop_operation_xyz
x,y,z
1/2-x,-y,1/2+z
x,-y,-z
1/2-x,y,1/2-z
-x,-y,-z
1/2+x,y,1/2-z
-x,y,z
1/2+x,-y,1/2+z
loop_
_atom_site_type_symbol
_atom_site_label
_atom_site_fract_x
_atom_site_fract_y
_atom_site_fract_z
Si Si1 0.099595 0.838113 0.554090
Si Si2 0.243897 0.839905 0.956519
Si Si3 0.707917 0.592133 0.161630
Si Si4 0.048428 0.580221 0.688654
Si Si5 0.357392 0.150202 0.421610
Si Si6 0.882803 0.353714 0.797800
O O1 0.061059 0.748157 0.655297
O O2 0.139531 0.846923 0.701969
O O3 0.113879 0.750285 0.377173
O O4 0.083944 0.000000 0.500000
O O5 0.250000 0.796376 0.750000
O O6 0.191905 0.822800 0.996057
O O7 0.273223 0.744539 0.091166
O O8 0.260602 0.000000 0.000000
O O9 0.750000 0.509057 0.250000
O O10 0.668091 0.596019 0.303429
O O11 0.687783 0.500000 0.000000
O O12 0.045133 0.500000 0.500000
O O13 0.084380 0.490039 0.803893
O O14 0.000000 0.577389 0.783503
O O15 0.390113 0.267879 0.514565
O O16 0.375001 0.000000 0.500000
#
# Coordination Sequence:
#
# PCOD8222131 Si02
#       6
#     8   8   8   8   8   8
#     4  11  22  39  68  97 129 172 221 271 328 398
#     4  11  24  39  59  87 127 173 218 266 316 381
#     4  12  24  40  59  88 127 168 215 267 322 382
#     4   9  21  43  70  99 130 170 217 273 342 406
#     4  11  23  40  64  95 131 175 222 270 329 387
#     4  11  23  44  66  94 133 173 221 273 332 400
#
# _framework density 23.162464
#
# number of rings (size 3 to 8) (size 9 to 14) (size 15 to 20)
#    0.000    1.167    3.333    3.500    2.333    3.667 
#    0.000    1.667    0.000    1.000    0.000    0.000 
#    0.000    0.000    0.000    0.000    0.000    0.000 
#
# Total GULP energy -594935.832302 kJ/mol
# GULP energy per Si atom -12394.496506 kJ/mol
# Density = 2.310975 g / cm^3
# Si number density = 23.162464 Si / 1000 Ang^3
#
#
#
# Elastic Constant Matrix: (Units=GPa)
#
#
# Indices 1 2 3 4 5 6 
#
# 1 127.2713 55.5435 6.2043 0.0000 0.0000 0.0000
# 2 55.5435 142.0230 25.0320 0.0000 0.0000 0.0000
# 3 6.2043 25.0320 84.0733 0.0000 0.0000 0.0000
# 4 0.0000 0.0000 0.0000 38.6607 0.0000 0.0000
# 5 0.0000 0.0000 0.0000 0.0000 8.9213 0.0000
# 6 0.0000 0.0000 0.0000 0.0000 0.0000 33.5987
#
#
#
# Elastic Compliance Matrix: (Units=1/GPa)
#
#
# Indices 1 2 3 4 5 6 
#
# 1 0.009489 -0.003786 0.000427 0.000000 0.000000 0.000000
# 2 -0.003786 0.008942 -0.002383 0.000000 0.000000 0.000000
# 3 0.000427 -0.002383 0.012572 0.000000 0.000000 0.000000
# 4 0.000000 0.000000 0.000000 0.025866 0.000000 0.000000
# 5 0.000000 0.000000 0.000000 0.000000 0.112092 0.000000
# 6 0.000000 0.000000 0.000000 0.000000 0.000000 0.029763
#
#
# Mechanical properties :
#
#
# Convention : Reuss Voigt Hill
#
# Bulk Modulus (GPa) = 51.23259 58.54747 54.89003
# Shear Modulus (GPa) = 23.07183 34.00865 28.54024
#
# Velocity S-wave (km/s) = 3.15951 3.83595 3.51405
# Velocity P-wave (km/s) = 5.95624 6.70456 6.34145
#
# Compressibility (1/GPa) = 0.01951883
#
# Stress axis : x y z
#
# Youngs Moduli (GPa) = 105.38752 111.83356 79.53956
#
# Poissons Ratio (x) = 0.42343 -0.03397
# Poissons Ratio (y) = 0.39902 0.18954
# Poissons Ratio (z) = -0.04501 0.26649
#
# Static dielectric constant tensor:
#      x y z
#    x 4.153470 0.000000 0.000000 
#    y 0.000000 4.305080 0.000000 
#    z 0.000000 0.000000 4.400860 
# 
# 
# High freq. dielectric constant tensor:
#      x y z
#    x 1.885030 0.000000 0.000000 
#    y 0.000000 1.926200 0.000000 
#    z 0.000000 0.000000 1.923910 
# 
# From -- ./inp_files/13042.got.cif
#   From: 2010.03.12/outbox.cif.g09.slc.cpg/sg53_7_cif.got.tgz:13042.got - 2010.04.16 14:36:59.
