data_PCOD8222650
_publ_section_title
;
Structure prediction by ZEFSAII (Michael W. Deem and Ramdas Pophale) SiO2 
 PCOD8222650
Probable space group: P C C A
;
_chemical_formula_sum "Si O2"
_cell_formula_units_Z 60
_cell_length_a 5.523651
_cell_length_b 19.521022
_cell_length_c 26.782487
_cell_angle_alpha 90.000000
_cell_angle_beta 90.000000
_cell_angle_gamma 90.000000
_cell_volume 2887.883600
_symmetry_space_group_name_H-M "P C C A"
_symmetry_group_IT_number 54
_symmetry_cell_setting 'orthorhombic'
loop_
_space_group_symop_operation_xyz
x,y,z
1/2-x,-y,z
1/2+x,-y,1/2-z
-x,y,1/2-z
-x,-y,-z
1/2+x,y,-z
1/2-x,y,1/2+z
x,-y,1/2+z
loop_
_atom_site_type_symbol
_atom_site_label
_atom_site_fract_x
_atom_site_fract_y
_atom_site_fract_z
Si Si1 0.217130 0.732347 0.867476
Si Si2 0.247627 0.131437 0.809728
Si Si3 0.457874 0.381698 0.694403
Si Si4 0.250000 0.500000 0.346517
Si Si5 0.067587 0.616471 0.121768
Si Si6 0.700531 0.400025 0.484416
Si Si7 0.354153 0.247620 0.977498
Si Si8 0.750905 0.920753 0.800060
O O1 0.264427 0.789991 0.826166
O O2 0.042548 0.675745 0.844385
O O3 0.462210 0.692878 0.882196
O O4 0.113930 0.765809 0.918227
O O5 0.500202 0.097282 0.830262
O O6 0.249217 0.125326 0.749820
O O7 0.998640 0.095619 0.830407
O O8 0.500000 0.353752 0.750000
O O9 0.583423 0.455226 0.689985
O O10 0.181690 0.392300 0.677194
O O11 0.382258 0.446592 0.383059
O O12 0.248414 0.608651 0.074919
O O13 0.439622 0.438445 0.493976
O O14 0.658131 0.328612 0.513010
O O15 0.597945 0.215147 0.002840
O O16 0.750000 0.000000 0.784639
#
# Coordination Sequence:
#
# PCOD8222650 Si02
#       8
#     8   8   8   4   8   8   8   8
#     4  11  24  36  60  96 124 155 200 264 314 365
#     4  10  21  32  58  90 126 158 211 243 294 356
#     4  11  26  41  65  79 117 162 208 258 320 367
#     4  10  26  42  60  86 104 160 218 262 304 382
#     4  11  23  42  64  84 121 156 207 261 323 375
#     4  10  19  36  65  89 115 156 193 243 324 385
#     4  10  19  35  60  85 121 164 193 238 320 383
#     4  10  20  39  60  83 128 178 207 244 291 351
#
# _framework density 20.77646
#
# number of rings (size 3 to 8) (size 9 to 14) (size 15 to 20)
#    0.000    1.600    2.667    4.000    7.467    2.667 
#    0.000    0.667    0.000    0.000    0.000    0.000 
#    0.000   18.133    0.000    0.000    0.000    0.000 
#
# Total GULP energy -743301.586060 kJ/mol
# GULP energy per Si atom -12388.359768 kJ/mol
# Density = 2.072917 g / cm^3
# Si number density = 20.776460 Si / 1000 Ang^3
#
#
#
# Elastic Constant Matrix: (Units=GPa)
#
#
# Indices 1 2 3 4 5 6 
#
# 1 152.1564 23.8037 23.4641 0.0000 0.0000 0.0000
# 2 23.8037 92.7650 27.0819 0.0000 0.0000 0.0000
# 3 23.4641 27.0819 103.5978 0.0000 0.0000 0.0000
# 4 0.0000 0.0000 0.0000 -14.5674 0.0000 0.0000
# 5 0.0000 0.0000 0.0000 0.0000 23.1346 0.0000
# 6 0.0000 0.0000 0.0000 0.0000 0.0000 -22.9532
#
#
#
# Elastic Compliance Matrix: (Units=1/GPa)
#
#
# Indices 1 2 3 4 5 6 
#
# 1 0.006983 -0.001440 -0.001205 0.000000 0.000000 0.000000
# 2 -0.001440 0.011968 -0.002802 0.000000 0.000000 0.000000
# 3 -0.001205 -0.002802 0.010658 0.000000 0.000000 0.000000
# 4 0.000000 0.000000 0.000000 -0.068646 0.000000 0.000000
# 5 0.000000 0.000000 0.000000 0.000000 0.043225 0.000000
# 6 0.000000 0.000000 0.000000 0.000000 0.000000 -0.043567
#
#
# Mechanical properties :
#
#
# Convention : Reuss Voigt Hill
#
# Bulk Modulus (GPa) = 53.43618 55.24651 54.34134
# Shear Modulus (GPa) = -224.76555 15.40075 -104.68240
#
# Velocity S-wave (km/s) = -10.41238 2.72556 -7.10595
# Velocity P-wave (km/s) = 10.89869 6.04595 6.41202
#
# Compressibility (1/GPa) = 0.01871391
#
# Stress axis : x y z
#
# Youngs Moduli (GPa) = 143.19813 83.55916 93.82408
#
# Poissons Ratio (x) = 0.12033 0.11308
# Poissons Ratio (y) = 0.20622 0.26292
# Poissons Ratio (z) = 0.17258 0.23416
#
# Static dielectric constant tensor:
#      x y z
#    x 4.848340 0.000000 0.000000 
#    y 0.000000 3.348450 0.000000 
#    z 0.000000 0.000000 3.460520 
# 
# 
# High freq. dielectric constant tensor:
#      x y z
#    x 1.841380 0.000000 0.000000 
#    y 0.000000 1.766020 0.000000 
#    z 0.000000 0.000000 1.784600 
# 
# From -- ./inp_files/25503.got.cif
#   From: 2010.03.12/outbox.cif.g09.slc.cpg/sg54_13_cif.got.tgz:25503.got - 2010.04.16 15:00:50.
