data_PCOD8222387
_publ_section_title
;
Structure prediction by ZEFSAII (Michael W. Deem and Ramdas Pophale) SiO2 
 PCOD8222387
Probable space group: P C C A
;
_chemical_formula_sum "Si O2"
_cell_formula_units_Z 56
_cell_length_a 20.580774
_cell_length_b 8.522154
_cell_length_c 13.601891
_cell_angle_alpha 90.000000
_cell_angle_beta 90.000000
_cell_angle_gamma 90.000000
_cell_volume 2385.670014
_symmetry_space_group_name_H-M "P C C A"
_symmetry_group_IT_number 54
_symmetry_cell_setting 'orthorhombic'
loop_
_space_group_symop_operation_xyz
x,y,z
1/2-x,-y,z
1/2+x,-y,1/2-z
-x,y,1/2-z
-x,-y,-z
1/2+x,y,-z
1/2-x,y,1/2+z
x,-y,1/2+z
loop_
_atom_site_type_symbol
_atom_site_label
_atom_site_fract_x
_atom_site_fract_y
_atom_site_fract_z
Si Si1 0.717319 0.666757 0.785372
Si Si2 0.876530 0.493716 0.153824
Si Si3 0.016924 0.490469 0.113360
Si Si4 0.080554 0.030793 0.426314
Si Si5 0.342076 0.163423 0.761968
Si Si6 0.943918 0.855882 0.893336
Si Si7 0.624695 0.323139 0.453651
O O1 0.750000 0.500000 0.807028
O O2 0.668065 0.636838 0.693488
O O3 0.765017 0.812361 0.756819
O O4 0.687470 0.722374 0.889661
O O5 0.867254 0.336723 0.215733
O O6 0.952183 0.539773 0.173166
O O7 0.859870 0.451947 0.039446
O O8 0.038675 0.317062 0.139525
O O9 0.077745 0.604513 0.131069
O O10 0.000000 0.500000 0.000000
O O11 0.141355 0.042061 0.351120
O O12 0.087749 0.174460 0.502515
O O13 0.009971 0.043937 0.373440
O O14 0.079487 0.872570 0.492173
O O15 0.381731 0.090202 0.670610
#
# Coordination Sequence:
#
# PCOD8222387 Si02
#       7
#     8   8   8   8   8   8   8
#     4  10  21  35  59  92 123 167 217 252 316 387
#     4   9  19  35  59  91 127 161 203 261 318 375
#     4  10  17  33  60  93 124 152 201 259 321 368
#     4  10  22  38  64  90 124 159 211 261 318 381
#     4  10  20  38  61  90 121 168 212 253 314 389
#     4  11  20  37  65  93 119 163 207 258 323 384
#     4  10  20  37  60  91 126 157 204 266 309 379
#
# _framework density 23.473490000000002
#
# number of rings (size 3 to 8) (size 9 to 14) (size 15 to 20)
#    0.000    2.000    4.286    2.143    0.000    4.571 
#    0.000    3.571    6.286    3.429    0.000    0.000 
#    0.000    0.000    0.000    0.000    0.000    0.000 
#
# Total GULP energy -693789.710071 kJ/mol
# GULP energy per Si atom -12389.101966 kJ/mol
# Density = 2.342006 g / cm^3
# Si number density = 23.473490 Si / 1000 Ang^3
#
#
#
# Elastic Constant Matrix: (Units=GPa)
#
#
# Indices 1 2 3 4 5 6 
#
# 1 153.4533 28.1072 69.0084 0.0000 0.0000 0.0000
# 2 28.1072 26.0762 18.0286 0.0000 0.0000 0.0000
# 3 69.0084 18.0286 93.1031 0.0000 0.0000 0.0000
# 4 0.0000 0.0000 0.0000 17.9078 0.0000 0.0000
# 5 0.0000 0.0000 0.0000 0.0000 48.8070 0.0000
# 6 0.0000 0.0000 0.0000 0.0000 0.0000 27.4793
#
#
#
# Elastic Compliance Matrix: (Units=1/GPa)
#
#
# Indices 1 2 3 4 5 6 
#
# 1 0.010790 -0.007044 -0.006634 0.000000 0.000000 0.000000
# 2 -0.007044 0.048876 -0.004243 0.000000 0.000000 0.000000
# 3 -0.006634 -0.004243 0.016479 0.000000 0.000000 0.000000
# 4 0.000000 0.000000 0.000000 0.055842 0.000000 0.000000
# 5 0.000000 0.000000 0.000000 0.000000 0.020489 0.000000
# 6 0.000000 0.000000 0.000000 0.000000 0.000000 0.036391
#
#
# Mechanical properties :
#
#
# Convention : Reuss Voigt Hill
#
# Bulk Modulus (GPa) = 24.81197 55.88010 40.34603
# Shear Modulus (GPa) = 20.99583 29.33805 25.16694
#
# Velocity S-wave (km/s) = 2.99398 3.53914 3.27791
# Velocity P-wave (km/s) = 4.74816 6.36851 5.61707
#
# Compressibility (1/GPa) = 0.04030313
#
# Stress axis : x y z
#
# Youngs Moduli (GPa) = 92.67835 20.46011 60.68232
#
# Poissons Ratio (x) = 0.14412 0.40254
# Poissons Ratio (y) = 0.65284 0.25749
# Poissons Ratio (z) = 0.61479 0.08682
#
# Static dielectric constant tensor:
#      x y z
#    x 2.059160 0.000000 0.000000 
#    y 0.000000 3.504430 0.000000 
#    z 0.000000 0.000000 3.548690 
# 
# 
# High freq. dielectric constant tensor:
#      x y z
#    x 1.930770 0.000000 0.000000 
#    y 0.000000 1.888810 0.000000 
#    z 0.000000 0.000000 1.933640 
# 
# From -- ./inp_files/14668.got.cif
#   From: 2010.03.12/outbox.cif.g09.slc.cpg/sg54_8_cif.got.tgz:14668.got - 2010.04.16 15:00:50.
