data_PCOD8222743
_publ_section_title
;
Structure prediction by ZEFSAII (Michael W. Deem and Ramdas Pophale) SiO2 
 PCOD8222743
Probable space group: P C C A
;
_chemical_formula_sum "Si O2"
_cell_formula_units_Z 40
_cell_length_a 5.237421
_cell_length_b 14.138907
_cell_length_c 29.195288
_cell_angle_alpha 90.000000
_cell_angle_beta 90.000000
_cell_angle_gamma 90.000000
_cell_volume 2161.952196
_symmetry_space_group_name_H-M "P C C A"
_symmetry_group_IT_number 54
_symmetry_cell_setting 'orthorhombic'
loop_
_space_group_symop_operation_xyz
x,y,z
1/2-x,-y,z
1/2+x,-y,1/2-z
-x,y,1/2-z
-x,-y,-z
1/2+x,y,-z
1/2-x,y,1/2+z
x,-y,1/2+z
loop_
_atom_site_type_symbol
_atom_site_label
_atom_site_fract_x
_atom_site_fract_y
_atom_site_fract_z
Si Si1 0.001125 0.939513 0.697089
Si Si2 0.429045 0.259162 0.659781
Si Si3 0.519927 0.605792 0.519594
Si Si4 0.443514 0.641017 0.874844
Si Si5 0.750000 0.500000 0.688650
Si Si6 0.500000 0.350921 0.750000
O O1 0.010307 0.852066 0.661631
O O2 0.000000 0.905503 0.750000
O O3 0.250000 0.000000 0.686693
O O4 0.750000 0.000000 0.685874
O O5 0.672027 0.311969 0.638049
O O6 0.358995 0.287481 0.712148
O O7 0.175315 0.285240 0.631331
O O8 0.500000 0.500000 0.500000
O O9 0.759010 0.658772 0.495260
O O10 0.560084 0.605646 0.573519
O O11 0.472464 0.544777 0.844034
O O12 0.692591 0.414588 0.722031
#
# Coordination Sequence:
#
# PCOD8222743 Si02
#       6
#     8   8   8   8   4   4
#     4  10  20  36  58  82 108 147 189 230 287 345
#     4  11  22  37  53  80 115 142 191 232 275 325
#     4  10  20  35  55  76 104 142 183 229 278 331
#     4  11  23  35  55  79 110 150 187 238 273 321
#     4  10  20  34  48  72 106 154 204 222 262 320
#     4  10  20  32  48  70 104 156 186 228 256 300
#
# _framework density 18.501795999999999
#
# number of rings (size 3 to 8) (size 9 to 14) (size 15 to 20)
#    0.000    1.600    1.000    4.800    0.000    9.600 
#    0.000    0.000    0.000    0.000    0.000    0.000 
#    0.000   56.000    0.000    0.000    0.000    0.000 
#
# Total GULP energy -495587.466285 kJ/mol
# GULP energy per Si atom -12389.686657 kJ/mol
# Density = 1.845968 g / cm^3
# Si number density = 18.501796 Si / 1000 Ang^3
#
#
#
# Elastic Constant Matrix: (Units=GPa)
#
#
# Indices 1 2 3 4 5 6 
#
# 1 151.0612 36.7586 47.8182 0.0000 0.0000 0.0000
# 2 36.7586 87.4056 40.2369 0.0000 0.0000 0.0000
# 3 47.8182 40.2369 131.5754 0.0000 0.0000 0.0000
# 4 0.0000 0.0000 0.0000 15.6305 0.0000 0.0000
# 5 0.0000 0.0000 0.0000 0.0000 32.3653 0.0000
# 6 0.0000 0.0000 0.0000 0.0000 0.0000 18.8226
#
#
#
# Elastic Compliance Matrix: (Units=1/GPa)
#
#
# Indices 1 2 3 4 5 6 
#
# 1 0.007864 -0.002318 -0.002149 0.000000 0.000000 0.000000
# 2 -0.002318 0.013999 -0.003439 0.000000 0.000000 0.000000
# 3 -0.002149 -0.003439 0.009433 0.000000 0.000000 0.000000
# 4 0.000000 0.000000 0.000000 0.063977 0.000000 0.000000
# 5 0.000000 0.000000 0.000000 0.000000 0.030897 0.000000
# 6 0.000000 0.000000 0.000000 0.000000 0.000000 0.053127
#
#
# Mechanical properties :
#
#
# Convention : Reuss Voigt Hill
#
# Bulk Modulus (GPa) = 64.58139 68.85219 66.71679
# Shear Modulus (GPa) = 24.96624 29.71226 27.33925
#
# Velocity S-wave (km/s) = 3.67740 4.01173 3.84820
# Velocity P-wave (km/s) = 7.28095 7.66507 7.47548
#
# Compressibility (1/GPa) = 0.01548434
#
# Stress axis : x y z
#
# Youngs Moduli (GPa) = 127.15842 71.43563 106.01276
#
# Poissons Ratio (x) = 0.16558 0.22785
# Poissons Ratio (y) = 0.29474 0.36453
# Poissons Ratio (z) = 0.27329 0.24563
#
# Static dielectric constant tensor:
#      x y z
#    x 3.413530 0.000000 0.000000 
#    y 0.000000 3.148600 0.000000 
#    z 0.000000 0.000000 3.439090 
# 
# 
# High freq. dielectric constant tensor:
#      x y z
#    x 1.731400 0.000000 0.000000 
#    y 0.000000 1.687770 0.000000 
#    z 0.000000 0.000000 1.707550 
# 
# From -- ./inp_files/25286.got.cif
#   From: 2010.03.12/outbox.cif.g09.slc.cpg/sg54_13_cif.got.tgz:25286.got - 2010.04.16 15:00:50.
