data_PCOD8222499
_publ_section_title
;
Structure prediction by ZEFSAII (Michael W. Deem and Ramdas Pophale) SiO2 
 PCOD8222499
Probable space group: P C C A
;
_chemical_formula_sum "Si O2"
_cell_formula_units_Z 48
_cell_length_a 21.868103
_cell_length_b 7.939795
_cell_length_c 13.613426
_cell_angle_alpha 90.000000
_cell_angle_beta 90.000000
_cell_angle_gamma 90.000000
_cell_volume 2363.675399
_symmetry_space_group_name_H-M "P C C A"
_symmetry_group_IT_number 54
_symmetry_cell_setting 'orthorhombic'
loop_
_space_group_symop_operation_xyz
x,y,z
1/2-x,-y,z
1/2+x,-y,1/2-z
-x,y,1/2-z
-x,-y,-z
1/2+x,y,-z
1/2-x,y,1/2+z
x,-y,1/2+z
loop_
_atom_site_type_symbol
_atom_site_label
_atom_site_fract_x
_atom_site_fract_y
_atom_site_fract_z
Si Si1 0.681792 0.435430 0.544658
Si Si2 0.750000 0.000000 0.896270
Si Si3 0.453556 0.969184 0.085269
Si Si4 0.129205 0.432516 0.248046
Si Si5 0.655750 0.245963 0.947555
Si Si6 0.857563 0.775754 0.362261
Si Si7 0.500000 0.724384 0.250000
O O1 0.750000 0.500000 0.523180
O O2 0.669435 0.385275 0.656720
O O3 0.642462 0.602491 0.521893
O O4 0.660167 0.288802 0.471373
O O5 0.780045 0.852857 0.963738
O O6 0.695215 0.912746 0.831828
O O7 0.397628 0.882470 0.030201
O O8 0.487351 0.845597 0.159377
O O9 0.424916 0.136924 0.136109
O O10 0.500000 0.000000 0.000000
O O11 0.155208 0.310533 0.164776
O O12 0.139519 0.626814 0.217299
O O13 0.057893 0.396536 0.270072
#
# Coordination Sequence:
#
# PCOD8222499 Si02
#       7
#     8   4   8   8   8   8   4
#     4  11  21  36  59  86 116 152 200 247 283 354
#     4  10  18  38  56  76 122 148 188 244 286 354
#     4  10  21  39  64  84 116 158 194 242 295 348
#     4  10  23  38  60  88 116 159 197 240 298 351
#     4   9  21  38  57  83 116 155 190 240 301 336
#     4  10  22  38  60  86 117 160 192 242 305 345
#     4  10  22  42  58  88 126 148 200 254 278 360
#
# _framework density 20.307355999999999
#
# number of rings (size 3 to 8) (size 9 to 14) (size 15 to 20)
#    0.000    2.000    1.667    1.000    2.333    3.333 
#    0.000   11.667    0.000    0.000    0.000    0.000 
#    0.000    0.000    0.000    0.000    0.000    0.000 
#
# Total GULP energy -594921.207860 kJ/mol
# GULP energy per Si atom -12394.191830 kJ/mol
# Density = 2.026114 g / cm^3
# Si number density = 20.307356 Si / 1000 Ang^3
#
#
#
# Elastic Constant Matrix: (Units=GPa)
#
#
# Indices 1 2 3 4 5 6 
#
# 1 96.0970 38.2503 22.2176 0.0000 0.0000 0.0000
# 2 38.2503 100.3307 19.1054 0.0000 0.0000 0.0000
# 3 22.2176 19.1054 74.0657 0.0000 0.0000 0.0000
# 4 0.0000 0.0000 0.0000 23.0508 0.0000 0.0000
# 5 0.0000 0.0000 0.0000 0.0000 24.1643 0.0000
# 6 0.0000 0.0000 0.0000 0.0000 0.0000 35.9948
#
#
#
# Elastic Compliance Matrix: (Units=1/GPa)
#
#
# Indices 1 2 3 4 5 6 
#
# 1 0.012764 -0.004351 -0.002706 0.000000 0.000000 0.000000
# 2 -0.004351 0.011965 -0.001781 0.000000 0.000000 0.000000
# 3 -0.002706 -0.001781 0.014773 0.000000 0.000000 0.000000
# 4 0.000000 0.000000 0.000000 0.043383 0.000000 0.000000
# 5 0.000000 0.000000 0.000000 0.000000 0.041383 0.000000
# 6 0.000000 0.000000 0.000000 0.000000 0.000000 0.027782
#
#
# Mechanical properties :
#
#
# Convention : Reuss Voigt Hill
#
# Bulk Modulus (GPa) = 45.81992 47.73777 46.77885
# Shear Modulus (GPa) = 28.24847 29.36998 28.80923
#
# Velocity S-wave (km/s) = 3.73372 3.80712 3.77060
# Velocity P-wave (km/s) = 6.41870 6.54860 6.48398
#
# Compressibility (1/GPa) = 0.02182457
#
# Stress axis : x y z
#
# Youngs Moduli (GPa) = 78.34766 83.57777 67.69169
#
# Poissons Ratio (x) = 0.36362 0.18320
# Poissons Ratio (y) = 0.34086 0.12058
# Poissons Ratio (z) = 0.21204 0.14888
#
# Static dielectric constant tensor:
#      x y z
#    x 4.085780 0.000000 0.000000 
#    y 0.000000 4.031610 0.000000 
#    z 0.000000 0.000000 3.349080 
# 
# 
# High freq. dielectric constant tensor:
#      x y z
#    x 1.804110 0.000000 0.000000 
#    y 0.000000 1.812960 0.000000 
#    z 0.000000 0.000000 1.760340 
# 
# From -- ./inp_files/9925.got.cif
#   From: 2010.03.12/outbox.cif.g09.slc.cpg/sg54_5_cif.got.tgz:9925.got - 2010.04.16 15:00:50.
