data_PCOD8222839
_publ_section_title
;
Structure prediction by ZEFSAII (Michael W. Deem and Ramdas Pophale) SiO2 
 PCOD8222839
Probable space group: P C C A
;
_chemical_formula_sum "Si O2"
_cell_formula_units_Z 36
_cell_length_a 8.751592
_cell_length_b 19.026165
_cell_length_c 10.481011
_cell_angle_alpha 90.000000
_cell_angle_beta 90.000000
_cell_angle_gamma 90.000000
_cell_volume 1745.185107
_symmetry_space_group_name_H-M "P C C A"
_symmetry_group_IT_number 54
_symmetry_cell_setting 'orthorhombic'
loop_
_space_group_symop_operation_xyz
x,y,z
1/2-x,-y,z
1/2+x,-y,1/2-z
-x,y,1/2-z
-x,-y,-z
1/2+x,y,-z
1/2-x,y,1/2+z
x,-y,1/2+z
loop_
_atom_site_type_symbol
_atom_site_label
_atom_site_fract_x
_atom_site_fract_y
_atom_site_fract_z
Si Si1 0.574453 0.244279 0.110528
Si Si2 0.085178 0.530573 0.877190
Si Si3 0.994903 0.093436 0.893258
Si Si4 0.090100 0.304177 0.376325
Si Si5 0.750000 0.000000 0.003059
O O1 0.500000 0.255798 0.250000
O O2 0.540925 0.167536 0.043118
O O3 0.754248 0.259249 0.120472
O O4 0.503105 0.296213 0.007403
O O5 0.250000 0.500000 0.876255
O O6 0.114654 0.613285 0.872385
O O7 0.000000 0.504935 0.750000
O O8 0.000000 0.500000 0.000000
O O9 0.000000 0.117019 0.750000
O O10 0.116559 0.031517 0.911365
O O11 0.825410 0.063794 0.923312
O O12 0.000000 0.278211 0.250000
#
# Coordination Sequence:
#
# PCOD8222839 Si02
#       5
#     8   8   8   8   4
#     4  11  23  40  62  89 123 160 203 250 301 362
#     4  11  24  41  63  90 121 158 202 251 304 362
#     4  10  21  37  57  84 114 150 193 238 289 344
#     4  11  24  41  62  90 122 160 202 249 305 363
#     4  10  20  36  58  82 114 150 190 238 290 344
#
# _framework density 20.628184000000001
#
# number of rings (size 3 to 8) (size 9 to 14) (size 15 to 20)
#    0.000    1.333    0.000    5.333    0.000    8.889 
#    0.000    5.556    0.000    0.000    0.000    0.000 
#    0.000    0.000    0.000    0.000    0.000    0.000 
#
# Total GULP energy -446167.271759 kJ/mol
# GULP energy per Si atom -12393.535327 kJ/mol
# Density = 2.058123 g / cm^3
# Si number density = 20.628184 Si / 1000 Ang^3
#
#
#
# Elastic Constant Matrix: (Units=GPa)
#
#
# Indices 1 2 3 4 5 6 
#
# 1 169.6765 54.5711 59.6180 0.0000 0.0000 0.0000
# 2 54.5711 85.6026 32.6756 0.0000 0.0000 0.0000
# 3 59.6180 32.6756 132.8106 0.0000 0.0000 0.0000
# 4 0.0000 0.0000 0.0000 25.7213 0.0000 0.0000
# 5 0.0000 0.0000 0.0000 0.0000 33.5629 0.0000
# 6 0.0000 0.0000 0.0000 0.0000 0.0000 47.4916
#
#
#
# Elastic Compliance Matrix: (Units=1/GPa)
#
#
# Indices 1 2 3 4 5 6 
#
# 1 0.008171 -0.004204 -0.002634 0.000000 0.000000 0.000000
# 2 -0.004204 0.015055 -0.001817 0.000000 0.000000 0.000000
# 3 -0.002634 -0.001817 0.009159 0.000000 0.000000 0.000000
# 4 0.000000 0.000000 0.000000 0.038878 0.000000 0.000000
# 5 0.000000 0.000000 0.000000 0.000000 0.029795 0.000000
# 6 0.000000 0.000000 0.000000 0.000000 0.000000 0.021056
#
#
# Mechanical properties :
#
#
# Convention : Reuss Voigt Hill
#
# Bulk Modulus (GPa) = 66.32935 75.75766 71.04351
# Shear Modulus (GPa) = 34.61439 37.43681 36.02560
#
# Velocity S-wave (km/s) = 4.10080 4.26471 4.18356
# Velocity P-wave (km/s) = 7.39234 7.81380 7.60599
#
# Compressibility (1/GPa) = 0.01507628
#
# Stress axis : x y z
#
# Youngs Moduli (GPa) = 122.38570 66.42202 109.18436
#
# Poissons Ratio (x) = 0.27921 0.28755
# Poissons Ratio (y) = 0.51446 0.19840
# Poissons Ratio (z) = 0.32232 0.12070
#
# Static dielectric constant tensor:
#      x y z
#    x 3.869710 0.000000 0.000000 
#    y 0.000000 3.596860 0.000000 
#    z 0.000000 0.000000 3.817180 
# 
# 
# High freq. dielectric constant tensor:
#      x y z
#    x 1.819230 0.000000 0.000000 
#    y 0.000000 1.823370 0.000000 
#    z 0.000000 0.000000 1.808780 
# 
# From -- ./inp_files/2472.got.cif
#   From: 2010.03.12/outbox.cif.g09.slc.cpg/sg54_2_cif.got.tgz:2472.got - 2010.04.16 15:00:50.
