data_PCOD8222471
_publ_section_title
;
Structure prediction by ZEFSAII (Michael W. Deem and Ramdas Pophale) SiO2 
 PCOD8222471
Probable space group: P C C A
;
_chemical_formula_sum "Si O2"
_cell_formula_units_Z 40
_cell_length_a 13.459414
_cell_length_b 22.315703
_cell_length_c 5.293387
_cell_angle_alpha 90.000000
_cell_angle_beta 90.000000
_cell_angle_gamma 90.000000
_cell_volume 1589.902056
_symmetry_space_group_name_H-M "P C C A"
_symmetry_group_IT_number 54
_symmetry_cell_setting 'orthorhombic'
loop_
_space_group_symop_operation_xyz
x,y,z
1/2-x,-y,z
1/2+x,-y,1/2-z
-x,y,1/2-z
-x,-y,-z
1/2+x,y,-z
1/2-x,y,1/2+z
x,-y,1/2+z
loop_
_atom_site_type_symbol
_atom_site_label
_atom_site_fract_x
_atom_site_fract_y
_atom_site_fract_z
Si Si1 0.617418 0.466385 0.228546
Si Si2 0.814436 0.150400 0.135920
Si Si3 0.856196 0.667939 0.131864
Si Si4 0.889626 0.975013 0.532986
Si Si5 0.865326 0.282072 0.128526
O O1 0.500000 0.460275 0.250000
O O2 0.653821 0.488798 0.504653
O O3 0.663225 0.402734 0.151959
O O4 0.766769 0.147889 0.413817
O O5 0.889880 0.095346 0.096209
O O6 0.879611 0.210719 0.121654
O O7 0.751319 0.701948 0.124272
O O8 0.916787 0.689446 0.379686
O O9 0.915373 0.688118 0.878073
O O10 0.835557 0.989139 0.264628
O O11 0.000000 0.000000 0.500000
#
# Coordination Sequence:
#
# PCOD8222471 Si02
#       5
#     8   8   8   8   8
#     4  10  21  37  57  82 112 157 204 244 292 356
#     4  12  21  37  65  93 120 158 211 253 299 383
#     4  10  18  35  58  80 119 149 188 247 293 351
#     4  10  23  42  62  87 126 167 197 252 313 363
#     4  10  19  35  55  86 115 151 186 241 305 351
#
# _framework density 25.15878
#
# number of rings (size 3 to 8) (size 9 to 14) (size 15 to 20)
#    0.000    1.600    4.000    2.400    0.000    2.400 
#    0.000   12.000   13.200    0.000    0.000    0.000 
#    0.000    0.000    0.000    0.000    0.000    0.000 
#
# Total GULP energy -495776.274890 kJ/mol
# GULP energy per Si atom -12394.406872 kJ/mol
# Density = 2.510152 g / cm^3
# Si number density = 25.158780 Si / 1000 Ang^3
#
#
#
# Elastic Constant Matrix: (Units=GPa)
#
#
# Indices 1 2 3 4 5 6 
#
# 1 30.2907 14.5868 7.4466 0.0000 0.0000 0.0000
# 2 14.5868 217.7239 66.3192 0.0000 0.0000 0.0000
# 3 7.4466 66.3192 264.2744 0.0000 0.0000 0.0000
# 4 0.0000 0.0000 0.0000 50.6551 0.0000 0.0000
# 5 0.0000 0.0000 0.0000 0.0000 8.7976 0.0000
# 6 0.0000 0.0000 0.0000 0.0000 0.0000 4.2651
#
#
#
# Elastic Compliance Matrix: (Units=1/GPa)
#
#
# Indices 1 2 3 4 5 6 
#
# 1 0.034157 -0.002160 -0.000420 0.000000 0.000000 0.000000
# 2 -0.002160 0.005110 -0.001221 0.000000 0.000000 0.000000
# 3 -0.000420 -0.001221 0.004102 0.000000 0.000000 0.000000
# 4 0.000000 0.000000 0.000000 0.019741 0.000000 0.000000
# 5 0.000000 0.000000 0.000000 0.000000 0.113668 0.000000
# 6 0.000000 0.000000 0.000000 0.000000 0.000000 0.234458
#
#
# Mechanical properties :
#
#
# Convention : Reuss Voigt Hill
#
# Bulk Modulus (GPa) = 27.96034 76.55491 52.25763
# Shear Modulus (GPa) = 11.60732 41.00598 26.30665
#
# Velocity S-wave (km/s) = 2.15027 4.04157 3.23712
# Velocity P-wave (km/s) = 4.15963 7.23006 5.89815
#
# Compressibility (1/GPa) = 0.03576494
#
# Stress axis : x y z
#
# Youngs Moduli (GPa) = 29.27647 195.70401 243.76570
#
# Poissons Ratio (x) = 0.42280 0.10246
# Poissons Ratio (y) = 0.06325 0.29774
# Poissons Ratio (z) = 0.01231 0.23903
#
# Static dielectric constant tensor:
#      x y z
#    x 3.634450 0.000000 0.000000 
#    y 0.000000 4.578580 0.000000 
#    z 0.000000 0.000000 10.192590 
# 
# 
# High freq. dielectric constant tensor:
#      x y z
#    x 1.976670 0.000000 0.000000 
#    y 0.000000 2.003590 0.000000 
#    z 0.000000 0.000000 2.047310 
# 
# From -- ./inp_files/921.got.cif
#   From: 2010.03.12/outbox.cif.g09.slc.cpg/sg54_1_cif.got.tgz:921.got - 2010.04.16 15:00:50.
