data_PCOD8222979
_publ_section_title
;
Structure prediction by ZEFSAII (Michael W. Deem and Ramdas Pophale) SiO2 
 PCOD8222979
Probable space group: P C C A
;
_chemical_formula_sum "Si O2"
_cell_formula_units_Z 48
_cell_length_a 24.649337
_cell_length_b 5.343264
_cell_length_c 15.052975
_cell_angle_alpha 90.000000
_cell_angle_beta 90.000000
_cell_angle_gamma 90.000000
_cell_volume 1982.595952
_symmetry_space_group_name_H-M "P C C A"
_symmetry_group_IT_number 54
_symmetry_cell_setting 'orthorhombic'
loop_
_space_group_symop_operation_xyz
x,y,z
1/2-x,-y,z
1/2+x,-y,1/2-z
-x,y,1/2-z
-x,-y,-z
1/2+x,y,-z
1/2-x,y,1/2+z
x,-y,1/2+z
loop_
_atom_site_type_symbol
_atom_site_label
_atom_site_fract_x
_atom_site_fract_y
_atom_site_fract_z
Si Si1 0.888774 0.999985 0.195382
Si Si2 0.625245 0.000013 0.984158
Si Si3 0.644445 0.499987 0.662230
Si Si4 0.024688 0.500002 0.902880
Si Si5 0.028607 0.000003 0.651987
Si Si6 0.310806 0.500009 0.514656
O O1 0.855396 0.749356 0.223499
O O2 0.944932 0.999996 0.249499
O O3 0.893108 0.999969 0.087409
O O4 0.855391 0.250605 0.223493
O O5 0.659045 0.754151 0.955628
O O6 0.659036 0.245894 0.955618
O O7 0.570722 0.999978 0.928115
O O8 0.590069 0.499970 0.599213
O O9 0.694041 0.500008 0.593401
O O10 0.007081 0.250019 0.852388
O O11 0.007072 0.749964 0.852385
O O12 0.000000 0.500000 0.000000
O O13 0.250000 0.500000 0.553910
#
# Coordination Sequence:
#
# PCOD8222979 Si02
#       6
#     8   8   8   8   8   8
#     4  10  21  38  58  83 116 153 189 232 281 334
#     4  10  21  40  61  88 121 146 194 246 278 346
#     4  10  21  37  56  85 120 147 194 245 275 341
#     4  12  23  37  57  87 121 159 196 231 283 346
#     4  12  24  38  62  86 120 163 190 227 293 346
#     4  10  20  38  65  86 109 153 194 240 301 339
#
# _framework density 24.210681000000001
#
# number of rings (size 3 to 8) (size 9 to 14) (size 15 to 20)
#    0.000    1.333    0.000    8.000    0.000    4.000 
#    0.000    0.000    0.000   24.000    0.000    0.000 
#    0.000    0.000    0.000    0.000    0.000    0.000 
#
# Total GULP energy -594801.546024 kJ/mol
# GULP energy per Si atom -12391.698875 kJ/mol
# Density = 2.415558 g / cm^3
# Si number density = 24.210681 Si / 1000 Ang^3
#
#
#
# Elastic Constant Matrix: (Units=GPa)
#
#
# Indices 1 2 3 4 5 6 
#
# 1 69.8952 15.8461 2.6458 0.0000 0.0000 0.0000
# 2 15.8461 246.2079 14.4498 0.0000 0.0000 0.0000
# 3 2.6458 14.4498 77.3149 0.0000 0.0000 0.0000
# 4 0.0000 0.0000 0.0000 30.4875 0.0000 0.0000
# 5 0.0000 0.0000 0.0000 0.0000 21.6452 0.0000
# 6 0.0000 0.0000 0.0000 0.0000 0.0000 40.7122
#
#
#
# Elastic Compliance Matrix: (Units=1/GPa)
#
#
# Indices 1 2 3 4 5 6 
#
# 1 0.014527 -0.000916 -0.000326 0.000000 0.000000 0.000000
# 2 -0.000916 0.004164 -0.000747 0.000000 0.000000 0.000000
# 3 -0.000326 -0.000747 0.013085 0.000000 0.000000 0.000000
# 4 0.000000 0.000000 0.000000 0.032800 0.000000 0.000000
# 5 0.000000 0.000000 0.000000 0.000000 0.046200 0.000000
# 6 0.000000 0.000000 0.000000 0.000000 0.000000 0.024563
#
#
# Mechanical properties :
#
#
# Convention : Reuss Voigt Hill
#
# Bulk Modulus (GPa) = 35.97273 51.03348 43.50310
# Shear Modulus (GPa) = 33.65129 42.60074 38.12601
#
# Velocity S-wave (km/s) = 3.73223 4.19929 3.97263
# Velocity P-wave (km/s) = 5.78474 6.68107 6.24900
#
# Compressibility (1/GPa) = 0.02779884
#
# Stress axis : x y z
#
# Youngs Moduli (GPa) = 68.83683 240.13108 76.42408
#
# Poissons Ratio (x) = 0.21992 0.02491
# Poissons Ratio (y) = 0.06304 0.05709
# Poissons Ratio (z) = 0.02244 0.17937
#
# Static dielectric constant tensor:
#      x y z
#    x 3.983110 0.000000 0.000000 
#    y 0.000000 6.095450 0.000000 
#    z 0.000000 0.000000 4.022330 
# 
# 
# High freq. dielectric constant tensor:
#      x y z
#    x 1.929170 0.000000 0.000000 
#    y 0.000000 2.016210 0.000000 
#    z 0.000000 0.000000 1.934890 
# 
# From -- ./inp_files/19059.got.cif
#   From: 2010.03.12/outbox.cif.g09.slc.cpg/sg54_10_cif.got.tgz:19059.got - 2010.04.16 15:00:50.
