data_PCOD8222708
_publ_section_title
;
Structure prediction by ZEFSAII (Michael W. Deem and Ramdas Pophale) SiO2 
 PCOD8222708
Probable space group: P C C A
;
_chemical_formula_sum "Si O2"
_cell_formula_units_Z 64
_cell_length_a 17.185634
_cell_length_b 6.355601
_cell_length_c 30.056517
_cell_angle_alpha 90.000000
_cell_angle_beta 90.000000
_cell_angle_gamma 90.000000
_cell_volume 3282.924050
_symmetry_space_group_name_H-M "P C C A"
_symmetry_group_IT_number 54
_symmetry_cell_setting 'orthorhombic'
loop_
_space_group_symop_operation_xyz
x,y,z
1/2-x,-y,z
1/2+x,-y,1/2-z
-x,y,1/2-z
-x,-y,-z
1/2+x,y,-z
1/2-x,y,1/2+z
x,-y,1/2+z
loop_
_atom_site_type_symbol
_atom_site_label
_atom_site_fract_x
_atom_site_fract_y
_atom_site_fract_z
Si Si1 0.525650 0.838883 0.799227
Si Si2 0.160896 0.059963 0.160841
Si Si3 0.919440 0.545404 0.857408
Si Si4 0.169457 0.896784 0.985573
Si Si5 0.556794 0.149712 0.638427
Si Si6 0.113039 0.796160 0.077288
Si Si7 0.162813 0.570328 0.907724
Si Si8 0.436100 0.176326 0.437011
O O1 0.500000 0.778359 0.750000
O O2 0.534139 0.620099 0.826147
O O3 0.610478 0.948272 0.800427
O O4 0.461250 0.005882 0.818146
O O5 0.148606 0.312972 0.165557
O O6 0.250000 0.000000 0.167800
O O7 0.128330 0.982055 0.112812
O O8 0.876563 0.426070 0.897646
O O9 0.981942 0.712905 0.874668
O O10 0.157467 0.703940 0.952676
O O11 0.250000 0.000000 0.972371
O O12 0.103630 0.080255 0.981410
O O13 0.172389 0.813886 0.036395
O O14 0.631557 0.307773 0.637132
O O15 0.578669 0.994256 0.599959
O O16 0.027403 0.793339 0.055631
O O17 0.250000 0.500000 0.896656
O O18 0.104810 0.382372 0.918581
#
# Coordination Sequence:
#
# PCOD8222708 Si02
#       8
#     8   8   8   8   8   8   8   8
#     4  10  21  38  66  98 123 154 202 247 302 375
#     4  10  22  41  64  92 128 164 195 245 314 368
#     4  10  19  38  63  91 118 158 202 244 303 370
#     4  11  24  37  53  83 124 160 207 268 316 353
#     4  10  19  38  64  88 119 155 204 246 302 370
#     4  11  21  37  58  90 117 159 211 255 302 375
#     4  11  22  38  60  85 119 168 212 262 311 357
#     4  11  20  39  58  82 116 157 209 255 302 364
#
# _framework density 19.494814000000002
#
# number of rings (size 3 to 8) (size 9 to 14) (size 15 to 20)
#    0.000    1.500    6.250    0.750    0.000    5.500 
#    2.250    0.000    5.500    0.000    0.000    0.000 
#    0.000    0.000    0.000    0.000    0.000    0.000 
#
# Total GULP energy -792867.711492 kJ/mol
# GULP energy per Si atom -12388.557992 kJ/mol
# Density = 1.945044 g / cm^3
# Si number density = 19.494814 Si / 1000 Ang^3
#
#
#
# Elastic Constant Matrix: (Units=GPa)
#
#
# Indices 1 2 3 4 5 6 
#
# 1 95.0568 41.4726 28.6327 0.0000 0.0000 0.0000
# 2 41.4726 123.7804 37.2082 0.0000 0.0000 0.0000
# 3 28.6327 37.2082 75.7537 0.0000 0.0000 0.0000
# 4 0.0000 0.0000 0.0000 14.0908 0.0000 0.0000
# 5 0.0000 0.0000 0.0000 0.0000 -45.3994 0.0000
# 6 0.0000 0.0000 0.0000 0.0000 0.0000 33.9497
#
#
#
# Elastic Compliance Matrix: (Units=1/GPa)
#
#
# Indices 1 2 3 4 5 6 
#
# 1 0.012968 -0.003369 -0.003247 0.000000 0.000000 0.000000
# 2 -0.003369 0.010353 -0.003812 0.000000 0.000000 0.000000
# 3 -0.003247 -0.003812 0.016300 0.000000 0.000000 0.000000
# 4 0.000000 0.000000 0.000000 0.070968 0.000000 0.000000
# 5 0.000000 0.000000 0.000000 0.000000 -0.022027 0.000000
# 6 0.000000 0.000000 0.000000 0.000000 0.000000 0.029455
#
#
# Mechanical properties :
#
#
# Convention : Reuss Voigt Hill
#
# Bulk Modulus (GPa) = 53.28729 56.57975 54.93352
# Shear Modulus (GPa) = 34.45206 13.01338 23.73272
#
# Velocity S-wave (km/s) = 4.20842 2.58646 3.49289
# Velocity P-wave (km/s) = 7.14198 6.16488 6.67134
#
# Compressibility (1/GPa) = 0.01876620
#
# Stress axis : x y z
#
# Youngs Moduli (GPa) = 77.11390 96.58618 61.34893
#
# Poissons Ratio (x) = 0.32539 0.19918
# Poissons Ratio (y) = 0.25979 0.23386
# Poissons Ratio (z) = 0.25037 0.36819
#
# Static dielectric constant tensor:
#      x y z
#    x 3.897220 0.000000 0.000000 
#    y 0.000000 4.102490 0.000000 
#    z 0.000000 0.000000 3.206860 
# 
# 
# High freq. dielectric constant tensor:
#      x y z
#    x 1.758570 0.000000 0.000000 
#    y 0.000000 1.783860 0.000000 
#    z 0.000000 0.000000 1.717400 
# 
# From -- ./inp_files/28353.got.cif
#   From: 2010.03.12/outbox.cif.g09.slc.cpg/sg54_15_cif.got.tgz:28353.got - 2010.04.16 15:00:50.
