data_PCOD8222831
_publ_section_title
;
Structure prediction by ZEFSAII (Michael W. Deem and Ramdas Pophale) SiO2 
 PCOD8222831
Probable space group: P C C A
;
_chemical_formula_sum "Si O2"
_cell_formula_units_Z 36
_cell_length_a 20.428538
_cell_length_b 8.834760
_cell_length_c 9.863329
_cell_angle_alpha 90.000000
_cell_angle_beta 90.000000
_cell_angle_gamma 90.000000
_cell_volume 1780.145754
_symmetry_space_group_name_H-M "P C C A"
_symmetry_group_IT_number 54
_symmetry_cell_setting 'orthorhombic'
loop_
_space_group_symop_operation_xyz
x,y,z
1/2-x,-y,z
1/2+x,-y,1/2-z
-x,y,1/2-z
-x,-y,-z
1/2+x,y,-z
1/2-x,y,1/2+z
x,-y,1/2+z
loop_
_atom_site_type_symbol
_atom_site_label
_atom_site_fract_x
_atom_site_fract_y
_atom_site_fract_z
Si Si1 0.320607 0.568063 0.541004
Si Si2 0.428570 0.088489 0.800294
Si Si3 0.106461 0.431272 0.276579
Si Si4 0.397344 0.145926 0.098646
Si Si5 0.000000 0.657107 0.250000
O O1 0.250000 0.500000 0.574663
O O2 0.333715 0.551368 0.381350
O O3 0.371429 0.468345 0.625278
O O4 0.333419 0.744772 0.582424
O O5 0.500000 0.036920 0.750000
O O6 0.420115 0.263137 0.768890
O O7 0.380038 0.979961 0.712760
O O8 0.415017 0.059279 0.958896
O O9 0.050771 0.547352 0.328209
O O10 0.461495 0.243125 0.139496
#
# Coordination Sequence:
#
# PCOD8222831 Si02
#       5
#     8   8   8   8   4
#     4  10  22  41  60  84 113 159 207 251 289 349
#     4  11  21  35  55  90 125 158 185 240 305 364
#     4  10  22  35  63  86 120 153 202 249 303 353
#     4  10  23  35  59  86 123 156 194 241 300 356
#     4  10  20  36  56  94 118 154 200 248 304 358
#
# _framework density 20.223064000000001
#
# number of rings (size 3 to 8) (size 9 to 14) (size 15 to 20)
#    0.000    1.778    2.222    1.333    3.111    4.444 
#    0.000    1.111    0.000    5.333    0.000    0.000 
#    0.000    0.000    0.000    0.000    0.000    0.000 
#
# Total GULP energy -446196.708813 kJ/mol
# GULP energy per Si atom -12394.353023 kJ/mol
# Density = 2.017704 g / cm^3
# Si number density = 20.223064 Si / 1000 Ang^3
#
#
#
# Elastic Constant Matrix: (Units=GPa)
#
#
# Indices 1 2 3 4 5 6 
#
# 1 76.8067 29.7118 32.6102 0.0000 0.0000 0.0000
# 2 29.7118 111.5090 72.2777 0.0000 0.0000 0.0000
# 3 32.6102 72.2777 115.9226 0.0000 0.0000 0.0000
# 4 0.0000 0.0000 0.0000 32.0203 0.0000 0.0000
# 5 0.0000 0.0000 0.0000 0.0000 19.9130 0.0000
# 6 0.0000 0.0000 0.0000 0.0000 0.0000 19.1258
#
#
#
# Elastic Compliance Matrix: (Units=1/GPa)
#
#
# Indices 1 2 3 4 5 6 
#
# 1 0.015081 -0.002129 -0.002915 0.000000 0.000000 0.000000
# 2 -0.002129 0.015351 -0.008972 0.000000 0.000000 0.000000
# 3 -0.002915 -0.008972 0.015041 0.000000 0.000000 0.000000
# 4 0.000000 0.000000 0.000000 0.031230 0.000000 0.000000
# 5 0.000000 0.000000 0.000000 0.000000 0.050218 0.000000
# 6 0.000000 0.000000 0.000000 0.000000 0.000000 0.052285
#
#
# Mechanical properties :
#
#
# Convention : Reuss Voigt Hill
#
# Bulk Modulus (GPa) = 57.33981 63.71529 60.52755
# Shear Modulus (GPa) = 23.46842 25.52106 24.49474
#
# Velocity S-wave (km/s) = 3.41027 3.55629 3.48405
# Velocity P-wave (km/s) = 6.62736 6.95971 6.79556
#
# Compressibility (1/GPa) = 0.01743989
#
# Stress axis : x y z
#
# Youngs Moduli (GPa) = 66.30915 65.14319 66.48607
#
# Poissons Ratio (x) = 0.13868 0.19381
# Poissons Ratio (y) = 0.14116 0.59654
# Poissons Ratio (z) = 0.19330 0.58449
#
# Static dielectric constant tensor:
#      x y z
#    x 3.416400 0.000000 0.000000 
#    y 0.000000 3.830540 0.000000 
#    z 0.000000 0.000000 3.739150 
# 
# 
# High freq. dielectric constant tensor:
#      x y z
#    x 1.753530 0.000000 0.000000 
#    y 0.000000 1.803510 0.000000 
#    z 0.000000 0.000000 1.797060 
# 
# From -- ./inp_files/4537.got.cif
#   From: 2010.03.12/outbox.cif.g09.slc.cpg/sg54_3_cif.got.tgz:4537.got - 2010.04.16 15:00:50.
