data_PCOD8222220
_publ_section_title
;
Structure prediction by ZEFSAII (Michael W. Deem and Ramdas Pophale) SiO2 
 PCOD8222220
Probable space group: P M N A
;
_chemical_formula_sum "Si O2"
_cell_formula_units_Z 24
_cell_length_a 15.394929
_cell_length_b 14.386793
_cell_length_c 4.911155
_cell_angle_alpha 90.000000
_cell_angle_beta 90.000000
_cell_angle_gamma 90.000000
_cell_volume 1087.740568
_symmetry_space_group_name_H-M "P M N A"
_symmetry_group_IT_number 53
_symmetry_cell_setting 'orthorhombic'
loop_
_space_group_symop_operation_xyz
x,y,z
1/2-x,-y,1/2+z
x,-y,-z
1/2-x,y,1/2-z
-x,-y,-z
1/2+x,y,1/2-z
-x,y,z
1/2+x,-y,1/2+z
loop_
_atom_site_type_symbol
_atom_site_label
_atom_site_fract_x
_atom_site_fract_y
_atom_site_fract_z
Si Si1 0.500000 0.432685 0.244572
Si Si2 0.897976 0.826917 0.264637
Si Si3 0.848717 0.287590 0.233202
Si Si4 0.304243 0.000000 0.500000
O O1 0.500000 0.500000 0.500000
O O2 0.586170 0.371300 0.210351
O O3 0.500000 0.500000 0.000000
O O4 0.863260 0.799997 0.563792
O O5 0.000000 0.838630 0.275804
O O6 0.868845 0.743639 0.072122
O O7 0.860045 0.922975 0.155313
O O8 0.750000 0.323861 0.250000
O O9 0.250000 0.046227 0.250000
#
# Coordination Sequence:
#
# PCOD8222220 Si02
#       4
#     4   8   8   4
#     4  12  26  46  72 101 138 169 222 290 348 416
#     4  12  23  44  68  99 139 186 230 280 337 401
#     4  12  25  45  72 101 136 182 226 277 346 413
#     4  12  25  40  63 102 142 184 240 285 330 395
#
# _framework density 22.064084000000001
#
# number of rings (size 3 to 8) (size 9 to 14) (size 15 to 20)
#    0.000    0.000    3.333    8.500    0.000    1.333 
#    0.000    5.000    0.000    0.000    0.000    0.000 
#    0.000    0.000    0.000    0.000    0.000    0.000 
#
# Total GULP energy -297614.788463 kJ/mol
# GULP energy per Si atom -12400.616186 kJ/mol
# Density = 2.201387 g / cm^3
# Si number density = 22.064084 Si / 1000 Ang^3
#
#
#
# Elastic Constant Matrix: (Units=GPa)
#
#
# Indices 1 2 3 4 5 6 
#
# 1 213.0863 64.1173 38.4862 0.0000 0.0000 0.0000
# 2 64.1173 114.0585 19.3890 0.0000 0.0000 0.0000
# 3 38.4862 19.3890 100.1455 0.0000 0.0000 0.0000
# 4 0.0000 0.0000 0.0000 58.3239 0.0000 0.0000
# 5 0.0000 0.0000 0.0000 0.0000 29.0796 0.0000
# 6 0.0000 0.0000 0.0000 0.0000 0.0000 48.3772
#
#
#
# Elastic Compliance Matrix: (Units=1/GPa)
#
#
# Indices 1 2 3 4 5 6 
#
# 1 0.005911 -0.003036 -0.001684 0.000000 0.000000 0.000000
# 2 -0.003036 0.010626 -0.000890 0.000000 0.000000 0.000000
# 3 -0.001684 -0.000890 0.010805 0.000000 0.000000 0.000000
# 4 0.000000 0.000000 0.000000 0.017146 0.000000 0.000000
# 5 0.000000 0.000000 0.000000 0.000000 0.034388 0.000000
# 6 0.000000 0.000000 0.000000 0.000000 0.000000 0.020671
#
#
# Mechanical properties :
#
#
# Convention : Reuss Voigt Hill
#
# Bulk Modulus (GPa) = 62.03283 74.58615 68.30949
# Shear Modulus (GPa) = 43.05136 47.50933 45.28035
#
# Velocity S-wave (km/s) = 4.42203 4.64534 4.53506
# Velocity P-wave (km/s) = 7.36534 7.91517 7.64520
#
# Compressibility (1/GPa) = 0.01612050
#
# Stress axis : x y z
#
# Youngs Moduli (GPa) = 169.18529 94.11148 92.55100
#
# Poissons Ratio (x) = 0.28576 0.15582
# Poissons Ratio (y) = 0.51372 0.08240
# Poissons Ratio (z) = 0.28484 0.08379
#
# Static dielectric constant tensor:
#      x y z
#    x 4.142100 0.000000 0.000000 
#    y 0.000000 3.874930 0.000000 
#    z 0.000000 0.000000 4.184850 
# 
# 
# High freq. dielectric constant tensor:
#      x y z
#    x 1.886740 0.000000 0.000000 
#    y 0.000000 1.861180 0.000000 
#    z 0.000000 0.000000 1.895750 
# 
# From -- ./inp_files/1110.got.cif
#   From: 2010.03.12/outbox.cif.g09.slc.cpg/sg53_1_cif.got.tgz:1110.got - 2010.04.16 14:36:59.
