data_PCOD8222602
_publ_section_title
;
Structure prediction by ZEFSAII (Michael W. Deem and Ramdas Pophale) SiO2 
 PCOD8222602
Probable space group: P C C A
;
_chemical_formula_sum "Si O2"
_cell_formula_units_Z 64
_cell_length_a 18.114813
_cell_length_b 9.668347
_cell_length_c 20.007836
_cell_angle_alpha 90.000000
_cell_angle_beta 90.000000
_cell_angle_gamma 90.000000
_cell_volume 3504.178358
_symmetry_space_group_name_H-M "P C C A"
_symmetry_group_IT_number 54
_symmetry_cell_setting 'orthorhombic'
loop_
_space_group_symop_operation_xyz
x,y,z
1/2-x,-y,z
1/2+x,-y,1/2-z
-x,y,1/2-z
-x,-y,-z
1/2+x,y,-z
1/2-x,y,1/2+z
x,-y,1/2+z
loop_
_atom_site_type_symbol
_atom_site_label
_atom_site_fract_x
_atom_site_fract_y
_atom_site_fract_z
Si Si1 0.085146 0.315317 0.397318
Si Si2 0.353334 0.235409 0.546369
Si Si3 0.602232 0.734349 0.884825
Si Si4 0.918579 0.786818 0.746821
Si Si5 0.066354 0.435811 0.142704
Si Si6 0.789322 0.643088 0.500016
Si Si7 0.335286 0.985377 0.160148
Si Si8 0.999791 0.839957 0.492146
O O1 0.108861 0.244951 0.327878
O O2 0.160975 0.369819 0.432389
O O3 0.050877 0.203080 0.445997
O O4 0.018798 0.425919 0.384162
O O5 0.374313 0.371553 0.590252
O O6 0.278665 0.247382 0.502291
O O7 0.352053 0.097367 0.591971
O O8 0.418101 0.219386 0.493214
O O9 0.582941 0.597021 0.842456
O O10 0.631263 0.859848 0.839441
O O11 0.661997 0.688452 0.938300
O O12 0.529555 0.788184 0.921525
O O13 0.922144 0.643601 0.787938
O O14 0.864660 0.900518 0.776854
O O15 0.000000 0.853600 0.750000
O O16 0.750000 0.500000 0.486401
O O17 0.250000 0.000000 0.171988
O O18 0.000000 0.000000 0.500000
#
# Coordination Sequence:
#
# PCOD8222602 Si02
#       8
#     8   8   8   8   8   8   8   8
#     4   9  21  38  59  79 114 156 194 229 290 355
#     4  10  19  34  54  83 116 154 181 224 296 347
#     4  11  21  33  57  94 116 141 193 247 285 333
#     4   9  20  42  64  75 109 163 199 230 286 347
#     4   9  19  36  60  83 106 149 199 239 273 338
#     4  11  21  33  56  88 123 149 182 238 300 349
#     4  11  21  36  60  87 116 150 196 239 282 344
#     4  10  20  33  57  87 118 145 187 235 291 348
#
# _framework density 18.263911
#
# number of rings (size 3 to 8) (size 9 to 14) (size 15 to 20)
#    0.000    2.000    3.750    0.750    1.750    1.500 
#    0.000    4.375    0.000    0.000    0.000    0.000 
#    0.000    0.000    0.000    0.000    0.000    0.000 
#
# Total GULP energy -793079.302078 kJ/mol
# GULP energy per Si atom -12391.864095 kJ/mol
# Density = 1.822234 g / cm^3
# Si number density = 18.263911 Si / 1000 Ang^3
#
#
#
# Elastic Constant Matrix: (Units=GPa)
#
#
# Indices 1 2 3 4 5 6 
#
# 1 101.2779 25.0390 28.5904 0.0000 0.0000 0.0000
# 2 25.0390 118.1619 17.5993 0.0000 0.0000 0.0000
# 3 28.5904 17.5993 60.0309 0.0000 0.0000 0.0000
# 4 0.0000 0.0000 0.0000 12.8698 0.0000 0.0000
# 5 0.0000 0.0000 0.0000 0.0000 123.0209 0.0000
# 6 0.0000 0.0000 0.0000 0.0000 0.0000 27.6140
#
#
#
# Elastic Compliance Matrix: (Units=1/GPa)
#
#
# Indices 1 2 3 4 5 6 
#
# 1 0.011736 -0.001730 -0.005082 0.000000 0.000000 0.000000
# 2 -0.001730 0.009104 -0.001845 0.000000 0.000000 0.000000
# 3 -0.005082 -0.001845 0.019620 0.000000 0.000000 0.000000
# 4 0.000000 0.000000 0.000000 0.077701 0.000000 0.000000
# 5 0.000000 0.000000 0.000000 0.000000 0.008129 0.000000
# 6 0.000000 0.000000 0.000000 0.000000 0.000000 0.036214
#
#
# Mechanical properties :
#
#
# Convention : Reuss Voigt Hill
#
# Bulk Modulus (GPa) = 43.20562 46.88089 45.04326
# Shear Modulus (GPa) = 26.66187 46.58376 36.62282
#
# Velocity S-wave (km/s) = 3.82489 5.05582 4.48281
# Velocity P-wave (km/s) = 6.57374 7.73344 7.17705
#
# Compressibility (1/GPa) = 0.02314514
#
# Stress axis : x y z
#
# Youngs Moduli (GPa) = 85.20606 109.83720 50.96949
#
# Poissons Ratio (x) = 0.19002 0.25904
# Poissons Ratio (y) = 0.14741 0.09405
# Poissons Ratio (z) = 0.43305 0.20267
#
# Static dielectric constant tensor:
#      x y z
#    x 3.781020 0.000000 0.000000 
#    y 0.000000 3.330980 0.000000 
#    z 0.000000 0.000000 3.207350 
# 
# 
# High freq. dielectric constant tensor:
#      x y z
#    x 1.719410 0.000000 0.000000 
#    y 0.000000 1.708050 0.000000 
#    z 0.000000 0.000000 1.679830 
# 
# From -- ./inp_files/24656.got.cif
#   From: 2010.03.12/outbox.cif.g09.slc.cpg/sg54_13_cif.got.tgz:24656.got - 2010.04.16 15:00:50.
