data_PCOD8222699
_publ_section_title
;
Structure prediction by ZEFSAII (Michael W. Deem and Ramdas Pophale) SiO2 
 PCOD8222699
Probable space group: P C C A
;
_chemical_formula_sum "Si O2"
_cell_formula_units_Z 48
_cell_length_a 14.885250
_cell_length_b 5.967822
_cell_length_c 26.603281
_cell_angle_alpha 90.000000
_cell_angle_beta 90.000000
_cell_angle_gamma 90.000000
_cell_volume 2363.236556
_symmetry_space_group_name_H-M "P C C A"
_symmetry_group_IT_number 54
_symmetry_cell_setting 'orthorhombic'
loop_
_space_group_symop_operation_xyz
x,y,z
1/2-x,-y,z
1/2+x,-y,1/2-z
-x,y,1/2-z
-x,-y,-z
1/2+x,y,-z
1/2-x,y,1/2+z
x,-y,1/2+z
loop_
_atom_site_type_symbol
_atom_site_label
_atom_site_fract_x
_atom_site_fract_y
_atom_site_fract_z
Si Si1 0.843071 0.568946 0.717730
Si Si2 0.454919 0.805868 0.834887
Si Si3 0.497762 0.502203 0.917399
Si Si4 0.149613 0.187150 0.379049
Si Si5 0.426039 0.198030 0.503913
Si Si6 0.500000 0.129537 0.750000
Si Si7 0.750000 0.000000 0.534892
O O1 0.750000 0.500000 0.746701
O O2 0.902514 0.357032 0.702562
O O3 0.803440 0.708835 0.670009
O O4 0.908482 0.724728 0.750999
O O5 0.525673 0.678342 0.872978
O O6 0.380610 0.930462 0.869470
O O7 0.508351 0.982793 0.800646
O O8 0.438206 0.329413 0.887406
O O9 0.572735 0.348083 0.944806
O O10 0.440131 0.632057 0.958624
O O11 0.212716 0.194877 0.428161
O O12 0.500000 0.000000 0.500000
O O13 0.327424 0.091855 0.501436
#
# Coordination Sequence:
#
# PCOD8222699 Si02
#       7
#     8   8   8   8   8   4   4
#     4  10  21  35  59  92 130 156 200 250 319 380
#     4  10  19  38  58  89 128 159 200 256 319 377
#     4  10  20  37  56  81 127 164 200 249 315 370
#     4  10  20  33  56  89 123 159 188 257 319 363
#     4  11  22  37  53  87 125 168 205 253 309 368
#     4  10  22  36  58  94 126 164 202 254 320 382
#     4  12  20  34  58  86 130 160 208 254 310 366
#
# _framework density 20.311126999999999
#
# number of rings (size 3 to 8) (size 9 to 14) (size 15 to 20)
#    0.000    1.667    3.333    1.500    2.333    2.000 
#    0.000    0.000    0.000    0.000    0.000  105.000 
#    0.000    0.000    0.000    0.000    0.000    0.000 
#
# Total GULP energy -594639.980272 kJ/mol
# GULP energy per Si atom -12388.332922 kJ/mol
# Density = 2.026490 g / cm^3
# Si number density = 20.311127 Si / 1000 Ang^3
#
#
#
# Elastic Constant Matrix: (Units=GPa)
#
#
# Indices 1 2 3 4 5 6 
#
# 1 121.0555 52.2450 55.0632 0.0000 0.0000 0.0000
# 2 52.2450 112.3511 43.2276 0.0000 0.0000 0.0000
# 3 55.0632 43.2276 74.8117 0.0000 0.0000 0.0000
# 4 0.0000 0.0000 0.0000 35.5067 0.0000 0.0000
# 5 0.0000 0.0000 0.0000 0.0000 31.1460 0.0000
# 6 0.0000 0.0000 0.0000 0.0000 0.0000 23.4315
#
#
#
# Elastic Compliance Matrix: (Units=1/GPa)
#
#
# Indices 1 2 3 4 5 6 
#
# 1 0.013201 -0.003086 -0.007933 0.000000 0.000000 0.000000
# 2 -0.003086 0.012167 -0.004758 0.000000 0.000000 0.000000
# 3 -0.007933 -0.004758 0.021955 0.000000 0.000000 0.000000
# 4 0.000000 0.000000 0.000000 0.028164 0.000000 0.000000
# 5 0.000000 0.000000 0.000000 0.000000 0.032107 0.000000
# 6 0.000000 0.000000 0.000000 0.000000 0.000000 0.042678
#
#
# Mechanical properties :
#
#
# Convention : Reuss Voigt Hill
#
# Bulk Modulus (GPa) = 63.42197 67.69889 65.56043
# Shear Modulus (GPa) = 26.72616 28.52902 27.62759
#
# Velocity S-wave (km/s) = 3.63138 3.75187 3.69212
# Velocity P-wave (km/s) = 6.99111 7.22302 7.10801
#
# Compressibility (1/GPa) = 0.01576741
#
# Stress axis : x y z
#
# Youngs Moduli (GPa) = 75.75134 82.19104 45.54723
#
# Poissons Ratio (x) = 0.25368 0.36132
# Poissons Ratio (y) = 0.23381 0.21673
# Poissons Ratio (z) = 0.60093 0.39110
#
# Static dielectric constant tensor:
#      x y z
#    x 3.426490 0.000000 0.000000 
#    y 0.000000 4.260040 0.000000 
#    z 0.000000 0.000000 3.799740 
# 
# 
# High freq. dielectric constant tensor:
#      x y z
#    x 1.752050 0.000000 0.000000 
#    y 0.000000 1.821600 0.000000 
#    z 0.000000 0.000000 1.778410 
# 
# From -- ./inp_files/26511.got.cif
#   From: 2010.03.12/outbox.cif.g09.slc.cpg/sg54_14_cif.got.tgz:26511.got - 2010.04.16 15:00:50.
