data_PCOD8222632
_publ_section_title
;
Structure prediction by ZEFSAII (Michael W. Deem and Ramdas Pophale) SiO2 
 PCOD8222632
Probable space group: P C C A
;
_chemical_formula_sum "Si O2"
_cell_formula_units_Z 60
_cell_length_a 14.913703
_cell_length_b 12.920783
_cell_length_c 16.968969
_cell_angle_alpha 90.000000
_cell_angle_beta 90.000000
_cell_angle_gamma 90.000000
_cell_volume 3269.864671
_symmetry_space_group_name_H-M "P C C A"
_symmetry_group_IT_number 54
_symmetry_cell_setting 'orthorhombic'
loop_
_space_group_symop_operation_xyz
x,y,z
1/2-x,-y,z
1/2+x,-y,1/2-z
-x,y,1/2-z
-x,-y,-z
1/2+x,y,-z
1/2-x,y,1/2+z
x,-y,1/2+z
loop_
_atom_site_type_symbol
_atom_site_label
_atom_site_fract_x
_atom_site_fract_y
_atom_site_fract_z
Si Si1 0.599428 0.606269 0.243557
Si Si2 0.250000 0.500000 0.845015
Si Si3 0.754027 0.298596 0.553298
Si Si4 0.676809 0.918218 0.594799
Si Si5 0.931563 0.755397 0.602989
Si Si6 0.840633 0.946754 0.911360
Si Si7 0.481273 0.023924 0.840089
Si Si8 0.630292 0.716166 0.401249
O O1 0.500000 0.557388 0.250000
O O2 0.663229 0.518265 0.208763
O O3 0.592955 0.706340 0.187459
O O4 0.641264 0.640662 0.327049
O O5 0.272206 0.598891 0.897595
O O6 0.792187 0.200452 0.601652
O O7 0.647374 0.275489 0.541343
O O8 0.801963 0.317610 0.469923
O O9 0.653356 0.943771 0.504997
O O10 0.750000 0.000000 0.626491
O O11 0.588463 0.929934 0.648977
O O12 0.938145 0.878206 0.614493
O O13 0.026298 0.712345 0.569652
O O14 0.845378 0.832213 0.874095
O O15 0.925478 0.011343 0.880036
O O16 0.750000 0.000000 0.881207
O O17 0.500000 0.051077 0.750000
#
# Coordination Sequence:
#
# PCOD8222632 Si02
#       8
#     8   4   8   8   8   8   8   8
#     4   9  18  37  59  79 104 143 192 232 274 330
#     4  10  22  38  58  78 114 154 176 236 296 334
#     4  10  20  37  56  84 111 143 191 230 281 333
#     4  10  19  35  56  79 109 149 182 224 276 323
#     4   9  17  34  58  78 111 150 186 226 267 334
#     4   9  19  34  52  79 114 145 180 224 274 330
#     4  11  20  32  52  82 112 153 188 218 267 332
#     4   9  18  34  58  84 103 140 197 235 263 329
#
# _framework density 18.349383
#
# number of rings (size 3 to 8) (size 9 to 14) (size 15 to 20)
#    0.000    2.400    1.333    2.400    0.000    1.067 
#    4.800    8.000    0.000    0.000    0.000    0.000 
#    0.000    0.000    0.000    0.000    0.000    0.000 
#
# Total GULP energy -743894.936479 kJ/mol
# GULP energy per Si atom -12398.248941 kJ/mol
# Density = 1.830762 g / cm^3
# Si number density = 18.349383 Si / 1000 Ang^3
#
#
#
# Elastic Constant Matrix: (Units=GPa)
#
#
# Indices 1 2 3 4 5 6 
#
# 1 160.0674 58.7746 63.6131 0.0000 0.0000 0.0000
# 2 58.7746 91.3381 35.8286 0.0000 0.0000 0.0000
# 3 63.6131 35.8286 73.4312 0.0000 0.0000 0.0000
# 4 0.0000 0.0000 0.0000 15.9397 0.0000 0.0000
# 5 0.0000 0.0000 0.0000 0.0000 31.0627 0.0000
# 6 0.0000 0.0000 0.0000 0.0000 0.0000 30.4628
#
#
#
# Elastic Compliance Matrix: (Units=1/GPa)
#
#
# Indices 1 2 3 4 5 6 
#
# 1 0.010577 -0.003972 -0.007225 0.000000 0.000000 0.000000
# 2 -0.003972 0.015031 -0.003893 0.000000 0.000000 0.000000
# 3 -0.007225 -0.003893 0.021777 0.000000 0.000000 0.000000
# 4 0.000000 0.000000 0.000000 0.062736 0.000000 0.000000
# 5 0.000000 0.000000 0.000000 0.000000 0.032193 0.000000
# 6 0.000000 0.000000 0.000000 0.000000 0.000000 0.032827
#
#
# Mechanical properties :
#
#
# Convention : Reuss Voigt Hill
#
# Bulk Modulus (GPa) = 58.12269 71.25214 64.68742
# Shear Modulus (GPa) = 23.69033 26.60107 25.14570
#
# Velocity S-wave (km/s) = 3.59704 3.81162 3.70589
# Velocity P-wave (km/s) = 6.99971 7.63455 7.32401
#
# Compressibility (1/GPa) = 0.01720498
#
# Stress axis : x y z
#
# Youngs Moduli (GPa) = 94.54333 66.52696 45.92098
#
# Poissons Ratio (x) = 0.26426 0.33177
# Poissons Ratio (y) = 0.37554 0.17877
# Poissons Ratio (z) = 0.68306 0.25899
#
# Static dielectric constant tensor:
#      x y z
#    x 3.784600 0.000000 0.000000 
#    y 0.000000 3.200660 0.000000 
#    z 0.000000 0.000000 3.159950 
# 
# 
# High freq. dielectric constant tensor:
#      x y z
#    x 1.728330 0.000000 0.000000 
#    y 0.000000 1.689270 0.000000 
#    z 0.000000 0.000000 1.691950 
# 
# From -- ./inp_files/17438.got.cif
#   From: 2010.03.12/outbox.cif.g09.slc.cpg/sg54_9_cif.got.tgz:17438.got - 2010.04.16 15:00:50.
