data_PCOD8222721
_publ_section_title
;
Structure prediction by ZEFSAII (Michael W. Deem and Ramdas Pophale) SiO2 
 PCOD8222721
Probable space group: P C C A
;
_chemical_formula_sum "Si O2"
_cell_formula_units_Z 64
_cell_length_a 14.238548
_cell_length_b 9.902667
_cell_length_c 21.937940
_cell_angle_alpha 90.000000
_cell_angle_beta 90.000000
_cell_angle_gamma 90.000000
_cell_volume 3093.240752
_symmetry_space_group_name_H-M "P C C A"
_symmetry_group_IT_number 54
_symmetry_cell_setting 'orthorhombic'
loop_
_space_group_symop_operation_xyz
x,y,z
1/2-x,-y,z
1/2+x,-y,1/2-z
-x,y,1/2-z
-x,-y,-z
1/2+x,y,-z
1/2-x,y,1/2+z
x,-y,1/2+z
loop_
_atom_site_type_symbol
_atom_site_label
_atom_site_fract_x
_atom_site_fract_y
_atom_site_fract_z
Si Si1 0.460136 0.377777 0.089773
Si Si2 0.129225 0.349364 0.107854
Si Si3 0.195103 0.819564 0.119180
Si Si4 0.890462 0.356986 0.252340
Si Si5 0.649650 0.020096 0.494886
Si Si6 0.916147 0.362040 0.703410
Si Si7 0.263312 0.848038 0.760093
Si Si8 0.006085 0.789122 0.521743
O O1 0.390009 0.504063 0.078807
O O2 0.401144 0.261429 0.122424
O O3 0.547010 0.398323 0.135798
O O4 0.501860 0.336511 0.024469
O O5 0.223952 0.272229 0.086078
O O6 0.140014 0.371315 0.178555
O O7 0.038641 0.260021 0.088385
O O8 0.171701 0.949573 0.076862
O O9 0.221595 0.862524 0.187363
O O10 0.862822 0.500134 0.222443
O O11 0.831371 0.234388 0.223554
O O12 0.000000 0.322192 0.250000
O O13 0.597067 0.145905 0.526631
O O14 0.750000 0.000000 0.528559
O O15 0.583683 0.891808 0.504241
O O16 0.848240 0.231422 0.706393
O O17 0.000000 0.334119 0.750000
O O18 0.250000 0.000000 0.786384
#
# Coordination Sequence:
#
# PCOD8222721 Si02
#       8
#     8   8   8   8   8   8   8   8
#     4  11  21  38  62  91 122 158 204 253 315 372
#     4  11  19  36  63  92 120 148 205 262 301 353
#     4  10  20  34  64  93 116 153 202 264 310 356
#     4  10  21  40  64  90 124 166 205 255 318 373
#     4  10  19  40  59  81 125 163 198 241 312 374
#     4  11  20  41  64  88 126 169 200 255 322 381
#     4  11  23  36  61  97 122 158 214 263 306 367
#     4  10  23  35  60  94 118 160 202 253 307 370
#
# _framework density 20.690275
#
# number of rings (size 3 to 8) (size 9 to 14) (size 15 to 20)
#    0.000    1.500    5.000    1.500    1.750    2.500 
#    0.000    1.875    0.000    0.000    0.000    0.000 
#    0.000    0.000    0.000    0.000    0.000    0.000 
#
# Total GULP energy -793175.965835 kJ/mol
# GULP energy per Si atom -12393.374466 kJ/mol
# Density = 2.064318 g / cm^3
# Si number density = 20.690275 Si / 1000 Ang^3
#
#
#
# Elastic Constant Matrix: (Units=GPa)
#
#
# Indices 1 2 3 4 5 6 
#
# 1 91.7578 32.5578 7.6077 0.0000 0.0000 0.0000
# 2 32.5578 108.4283 8.8507 0.0000 0.0000 0.0000
# 3 7.6077 8.8507 33.2912 0.0000 0.0000 0.0000
# 4 0.0000 0.0000 0.0000 22.5551 0.0000 0.0000
# 5 0.0000 0.0000 0.0000 0.0000 23.8859 0.0000
# 6 0.0000 0.0000 0.0000 0.0000 0.0000 38.8638
#
#
#
# Elastic Compliance Matrix: (Units=1/GPa)
#
#
# Indices 1 2 3 4 5 6 
#
# 1 0.012311 -0.003544 -0.001871 0.000000 0.000000 0.000000
# 2 -0.003544 0.010447 -0.001968 0.000000 0.000000 0.000000
# 3 -0.001871 -0.001968 0.030989 0.000000 0.000000 0.000000
# 4 0.000000 0.000000 0.000000 0.044336 0.000000 0.000000
# 5 0.000000 0.000000 0.000000 0.000000 0.041866 0.000000
# 6 0.000000 0.000000 0.000000 0.000000 0.000000 0.025731
#
#
# Mechanical properties :
#
#
# Convention : Reuss Voigt Hill
#
# Bulk Modulus (GPa) = 25.65308 36.83440 31.24374
# Shear Modulus (GPa) = 25.84800 29.35836 27.60318
#
# Velocity S-wave (km/s) = 3.53835 3.77098 3.65651
# Velocity P-wave (km/s) = 5.39618 6.06644 5.74110
#
# Compressibility (1/GPa) = 0.03898168
#
# Stress axis : x y z
#
# Youngs Moduli (GPa) = 81.22931 95.71746 32.26984
#
# Poissons Ratio (x) = 0.33921 0.06038
# Poissons Ratio (y) = 0.28786 0.06350
# Poissons Ratio (z) = 0.15199 0.18834
#
# Static dielectric constant tensor:
#      x y z
#    x 4.211270 0.000000 0.000000 
#    y 0.000000 4.008460 0.000000 
#    z 0.000000 0.000000 3.420630 
# 
# 
# High freq. dielectric constant tensor:
#      x y z
#    x 1.815180 0.000000 0.000000 
#    y 0.000000 1.820500 0.000000 
#    z 0.000000 0.000000 1.771790 
# 
# From -- ./inp_files/24537.got.cif
#   From: 2010.03.12/outbox.cif.g09.slc.cpg/sg54_13_cif.got.tgz:24537.got - 2010.04.16 15:00:50.
