data_PCOD8222343
_publ_section_title
;
Structure prediction by ZEFSAII (Michael W. Deem and Ramdas Pophale) SiO2 
 PCOD8222343
Probable space group: P C C A
;
_chemical_formula_sum "Si O2"
_cell_formula_units_Z 32
_cell_length_a 15.349777
_cell_length_b 18.523781
_cell_length_c 5.136560
_cell_angle_alpha 90.000000
_cell_angle_beta 90.000000
_cell_angle_gamma 90.000000
_cell_volume 1460.508449
_symmetry_space_group_name_H-M "P C C A"
_symmetry_group_IT_number 54
_symmetry_cell_setting 'orthorhombic'
loop_
_space_group_symop_operation_xyz
x,y,z
1/2-x,-y,z
1/2+x,-y,1/2-z
-x,y,1/2-z
-x,-y,-z
1/2+x,y,-z
1/2-x,y,1/2+z
x,-y,1/2+z
loop_
_atom_site_type_symbol
_atom_site_label
_atom_site_fract_x
_atom_site_fract_y
_atom_site_fract_z
Si Si1 0.555233 0.309517 0.001922
Si Si2 0.805421 0.807653 0.838472
Si Si3 0.398567 0.044263 0.742135
Si Si4 0.902300 0.468486 0.525819
O O1 0.500000 0.280638 0.250000
O O2 0.500000 0.330491 0.750000
O O3 0.620366 0.248242 0.910875
O O4 0.602648 0.383267 0.086618
O O5 0.771839 0.795681 0.545401
O O6 0.843896 0.887539 0.850272
O O7 0.500000 0.065123 0.750000
O O8 0.374738 0.982222 0.532223
O O9 0.853110 0.510276 0.759855
O O10 0.000000 0.500000 0.500000
#
# Coordination Sequence:
#
# PCOD8222343 Si02
#       4
#     8   8   8   8
#     4  12  22  38  66  93 120 163 213 269 311 363
#     4  12  27  43  60  92 137 174 206 250 319 398
#     4  10  22  42  69  95 121 157 213 270 307 355
#     4  10  16  31  56  94 114 140 202 278 305 354
#
# _framework density 21.910177000000001
#
# number of rings (size 3 to 8) (size 9 to 14) (size 15 to 20)
#    0.000    1.000    5.000    3.750    0.000    6.000 
#    0.000    0.000    0.000    4.500    0.000    0.000 
#    0.000    0.000    0.000    0.000    0.000    0.000 
#
# Total GULP energy -396707.152227 kJ/mol
# GULP energy per Si atom -12397.098507 kJ/mol
# Density = 2.186031 g / cm^3
# Si number density = 21.910177 Si / 1000 Ang^3
#
#
#
# Elastic Constant Matrix: (Units=GPa)
#
#
# Indices 1 2 3 4 5 6 
#
# 1 38.9846 31.1484 23.1971 0.0000 0.0000 0.0000
# 2 31.1484 97.7557 20.0809 0.0000 0.0000 0.0000
# 3 23.1971 20.0809 160.0653 0.0000 0.0000 0.0000
# 4 0.0000 0.0000 0.0000 31.5910 0.0000 0.0000
# 5 0.0000 0.0000 0.0000 0.0000 32.4854 0.0000
# 6 0.0000 0.0000 0.0000 0.0000 0.0000 -18.9196
#
#
#
# Elastic Compliance Matrix: (Units=1/GPa)
#
#
# Indices 1 2 3 4 5 6 
#
# 1 0.036697 -0.010881 -0.003953 0.000000 0.000000 0.000000
# 2 -0.010881 0.013726 -0.000145 0.000000 0.000000 0.000000
# 3 -0.003953 -0.000145 0.006839 0.000000 0.000000 0.000000
# 4 0.000000 0.000000 0.000000 0.031655 0.000000 0.000000
# 5 0.000000 0.000000 0.000000 0.000000 0.030783 0.000000
# 6 0.000000 0.000000 0.000000 0.000000 0.000000 -0.052855
#
#
# Mechanical properties :
#
#
# Convention : Reuss Voigt Hill
#
# Bulk Modulus (GPa) = 36.62517 49.51762 43.07139
# Shear Modulus (GPa) = 47.21245 23.85665 35.53455
#
# Velocity S-wave (km/s) = 4.64704 3.30334 4.03156
# Velocity P-wave (km/s) = 6.74875 6.09907 6.43212
#
# Compressibility (1/GPa) = 0.02730363
#
# Stress axis : x y z
#
# Youngs Moduli (GPa) = 27.25006 72.85214 146.22948
#
# Poissons Ratio (x) = 0.79270 0.57807
# Poissons Ratio (y) = 0.29651 0.02123
# Poissons Ratio (z) = 0.10772 0.01057
#
# Static dielectric constant tensor:
#      x y z
#    x 3.727640 0.000000 0.000000 
#    y 0.000000 3.867650 0.000000 
#    z 0.000000 0.000000 5.957990 
# 
# 
# High freq. dielectric constant tensor:
#      x y z
#    x 1.822070 0.000000 0.000000 
#    y 0.000000 1.867060 0.000000 
#    z 0.000000 0.000000 1.895780 
# 
# From -- ./inp_files/381.got.cif
#   From: 2010.03.12/outbox.cif.g09.slc.cpg/sg54_1_cif.got.tgz:381.got - 2010.04.16 15:00:50.
