data_PCOD8222894
_publ_section_title
;
Structure prediction by ZEFSAII (Michael W. Deem and Ramdas Pophale) SiO2 
 PCOD8222894
Probable space group: P C C A
;
_chemical_formula_sum "Si O2"
_cell_formula_units_Z 44
_cell_length_a 17.307622
_cell_length_b 10.199740
_cell_length_c 13.287196
_cell_angle_alpha 90.000000
_cell_angle_beta 90.000000
_cell_angle_gamma 90.000000
_cell_volume 2345.631819
_symmetry_space_group_name_H-M "P C C A"
_symmetry_group_IT_number 54
_symmetry_cell_setting 'orthorhombic'
loop_
_space_group_symop_operation_xyz
x,y,z
1/2-x,-y,z
1/2+x,-y,1/2-z
-x,y,1/2-z
-x,-y,-z
1/2+x,y,-z
1/2-x,y,1/2+z
x,-y,1/2+z
loop_
_atom_site_type_symbol
_atom_site_label
_atom_site_fract_x
_atom_site_fract_y
_atom_site_fract_z
Si Si1 0.318036 0.731010 0.035708
Si Si2 0.500000 0.230264 0.750000
Si Si3 0.807223 0.332255 0.690896
Si Si4 0.806811 0.881448 0.343377
Si Si5 0.357530 0.404522 0.733591
Si Si6 0.063415 0.945702 0.574188
O O1 0.235489 0.786042 0.075688
O O2 0.350999 0.623163 0.113921
O O3 0.376607 0.850748 0.018700
O O4 0.313596 0.660746 0.928941
O O5 0.429276 0.325187 0.779866
O O6 0.480069 0.135239 0.659245
O O7 0.828527 0.193055 0.740024
O O8 0.863291 0.440489 0.743091
O O9 0.717707 0.353600 0.711155
O O10 0.750000 0.000000 0.314266
O O11 0.888497 0.931070 0.384354
O O12 0.000000 0.000000 0.500000
#
# Coordination Sequence:
#
# PCOD8222894 Si02
#       6
#     8   4   8   8   8   8
#     4   9  20  39  57  85 117 145 200 244 281 349
#     4  10  22  42  56  80 134 148 190 248 300 350
#     4  10  20  36  66  83 109 158 204 237 287 349
#     4   9  20  37  56  87 116 147 193 244 285 348
#     4   9  21  40  57  87 114 157 190 244 297 339
#     4  10  22  37  57  85 118 158 186 234 305 353
#
# _framework density 18.758272000000002
#
# number of rings (size 3 to 8) (size 9 to 14) (size 15 to 20)
#    0.000    2.545    0.000    1.091    5.091    8.000 
#    3.273    1.818    0.000    0.000    0.000    0.000 
#    0.000    0.000    0.000    0.000    0.000    0.000 
#
# Total GULP energy -545481.355976 kJ/mol
# GULP energy per Si atom -12397.303545 kJ/mol
# Density = 1.871558 g / cm^3
# Si number density = 18.758272 Si / 1000 Ang^3
#
#
#
# Elastic Constant Matrix: (Units=GPa)
#
#
# Indices 1 2 3 4 5 6 
#
# 1 102.7746 38.5107 42.1254 0.0000 0.0000 0.0000
# 2 38.5107 106.8419 56.4101 0.0000 0.0000 0.0000
# 3 42.1254 56.4101 119.1931 0.0000 0.0000 0.0000
# 4 0.0000 0.0000 0.0000 23.5163 0.0000 0.0000
# 5 0.0000 0.0000 0.0000 0.0000 22.7317 0.0000
# 6 0.0000 0.0000 0.0000 0.0000 0.0000 24.1532
#
#
#
# Elastic Compliance Matrix: (Units=1/GPa)
#
#
# Indices 1 2 3 4 5 6 
#
# 1 0.011964 -0.002773 -0.002916 0.000000 0.000000 0.000000
# 2 -0.002773 0.013120 -0.005229 0.000000 0.000000 0.000000
# 3 -0.002916 -0.005229 0.011895 0.000000 0.000000 0.000000
# 4 0.000000 0.000000 0.000000 0.042524 0.000000 0.000000
# 5 0.000000 0.000000 0.000000 0.000000 0.043991 0.000000
# 6 0.000000 0.000000 0.000000 0.000000 0.000000 0.041402
#
#
# Mechanical properties :
#
#
# Convention : Reuss Voigt Hill
#
# Bulk Modulus (GPa) = 66.03703 66.98912 66.51307
# Shear Modulus (GPa) = 26.07137 26.86447 26.46792
#
# Velocity S-wave (km/s) = 3.73213 3.78847 3.76040
# Velocity P-wave (km/s) = 7.33842 7.41120 7.37490
#
# Compressibility (1/GPa) = 0.01514302
#
# Stress axis : x y z
#
# Youngs Moduli (GPa) = 83.58193 76.21937 84.06732
#
# Poissons Ratio (x) = 0.21134 0.24515
# Poissons Ratio (y) = 0.23176 0.43961
# Poissons Ratio (z) = 0.24374 0.39857
#
# Static dielectric constant tensor:
#      x y z
#    x 3.494730 0.000000 0.000000 
#    y 0.000000 3.897700 0.000000 
#    z 0.000000 0.000000 3.420580 
# 
# 
# High freq. dielectric constant tensor:
#      x y z
#    x 1.723360 0.000000 0.000000 
#    y 0.000000 1.736300 0.000000 
#    z 0.000000 0.000000 1.720440 
# 
# From -- ./inp_files/8867.got.cif
#   From: 2010.03.12/outbox.cif.g09.slc.cpg/sg54_5_cif.got.tgz:8867.got - 2010.04.16 15:00:50.
