data_PCOD8222017
_publ_section_title
;
Structure prediction by ZEFSAII (Michael W. Deem and Ramdas Pophale) SiO2 
 PCOD8222017
Probable space group: P M N A
;
_chemical_formula_sum "Si O2"
_cell_formula_units_Z 56
_cell_length_a 8.628186
_cell_length_b 19.051364
_cell_length_c 17.313929
_cell_angle_alpha 90.000000
_cell_angle_beta 90.000000
_cell_angle_gamma 90.000000
_cell_volume 2846.041351
_symmetry_space_group_name_H-M "P M N A"
_symmetry_group_IT_number 53
_symmetry_cell_setting 'orthorhombic'
loop_
_space_group_symop_operation_xyz
x,y,z
1/2-x,-y,1/2+z
x,-y,-z
1/2-x,y,1/2-z
-x,-y,-z
1/2+x,y,1/2-z
-x,y,z
1/2+x,-y,1/2+z
loop_
_atom_site_type_symbol
_atom_site_label
_atom_site_fract_x
_atom_site_fract_y
_atom_site_fract_z
Si Si1 0.683845 0.165726 0.665400
Si Si2 0.318665 0.643967 0.830701
Si Si3 0.184575 0.577060 0.982561
Si Si4 0.821329 0.772382 0.900863
Si Si5 0.317559 0.712798 0.438016
Si Si6 0.181789 0.036457 0.578917
Si Si7 0.320302 0.083469 0.329040
O O1 0.750000 0.149479 0.750000
O O2 0.500000 0.162704 0.670420
O O3 0.743541 0.243392 0.636584
O O4 0.736801 0.109659 0.600693
O O5 0.250000 0.616662 0.750000
O O6 0.500000 0.631219 0.831205
O O7 0.242080 0.599373 0.898823
O O8 0.280027 0.726406 0.841522
O O9 0.000000 0.576496 0.981116
O O10 0.252255 0.500000 0.000000
O O11 0.243655 0.632589 0.049139
O O12 0.794525 0.854766 0.890363
O O13 0.000000 0.751181 0.886975
O O14 0.766459 0.756825 0.987264
O O15 0.500000 0.710016 0.431232
O O16 0.000000 0.050216 0.572436
O O17 0.246058 0.000000 0.500000
O O18 0.220292 0.983706 0.648028
O O19 0.250000 0.112310 0.250000
O O20 0.500000 0.062563 0.321345
#
# Coordination Sequence:
#
# PCOD8222017 Si02
#       7
#     8   8   8   8   8   8   8
#     4  11  22  38  59  81 110 146 188 235 282 334
#     4  11  21  33  52  79 112 147 183 223 269 324
#     4   9  18  36  61  85 112 146 183 225 276 333
#     4   9  18  34  55  79 106 138 179 221 265 322
#     4   8  16  33  57  82 106 138 179 218 263 323
#     4  11  24  40  57  78 105 137 180 232 283 335
#     4  11  22  35  53  77 107 141 176 217 267 321
#
# _framework density 19.676454
#
# number of rings (size 3 to 8) (size 9 to 14) (size 15 to 20)
#    0.000    2.000    0.000    5.143    0.000    4.857 
#    0.000    7.857    0.000    1.714    0.000    0.000 
#    0.000    0.000    0.000    0.000    0.000    0.000 
#
# Total GULP energy -694118.157582 kJ/mol
# GULP energy per Si atom -12394.967100 kJ/mol
# Density = 1.963167 g / cm^3
# Si number density = 19.676454 Si / 1000 Ang^3
#
#
#
# Elastic Constant Matrix: (Units=GPa)
#
#
# Indices 1 2 3 4 5 6 
#
# 1 47.1262 30.5039 21.5323 0.0000 0.0000 0.0000
# 2 30.5039 132.4238 49.8719 0.0000 0.0000 0.0000
# 3 21.5323 49.8719 92.1270 0.0000 0.0000 0.0000
# 4 0.0000 0.0000 0.0000 21.0059 0.0000 0.0000
# 5 0.0000 0.0000 0.0000 0.0000 25.1382 0.0000
# 6 0.0000 0.0000 0.0000 0.0000 0.0000 18.5542
#
#
#
# Elastic Compliance Matrix: (Units=1/GPa)
#
#
# Indices 1 2 3 4 5 6 
#
# 1 0.025824 -0.004617 -0.003536 0.000000 0.000000 0.000000
# 2 -0.004617 0.010311 -0.004503 0.000000 0.000000 0.000000
# 3 -0.003536 -0.004503 0.014119 0.000000 0.000000 0.000000
# 4 0.000000 0.000000 0.000000 0.047606 0.000000 0.000000
# 5 0.000000 0.000000 0.000000 0.000000 0.039780 0.000000
# 6 0.000000 0.000000 0.000000 0.000000 0.000000 0.053896
#
#
# Mechanical properties :
#
#
# Convention : Reuss Voigt Hill
#
# Bulk Modulus (GPa) = 40.09362 52.83256 46.46309
# Shear Modulus (GPa) = 22.20644 24.25760 23.23202
#
# Velocity S-wave (km/s) = 3.36308 3.51497 3.43986
# Velocity P-wave (km/s) = 5.95828 6.58652 6.28026
#
# Compressibility (1/GPa) = 0.02494162
#
# Stress axis : x y z
#
# Youngs Moduli (GPa) = 38.72411 96.98712 70.82889
#
# Poissons Ratio (x) = 0.44776 0.25048
# Poissons Ratio (y) = 0.17878 0.31891
# Poissons Ratio (z) = 0.13695 0.43669
#
# Static dielectric constant tensor:
#      x y z
#    x 3.397350 0.000000 0.000000 
#    y 0.000000 3.924990 0.000000 
#    z 0.000000 0.000000 3.686800 
# 
# 
# High freq. dielectric constant tensor:
#      x y z
#    x 1.751850 0.000000 0.000000 
#    y 0.000000 1.766160 0.000000 
#    z 0.000000 0.000000 1.763410 
# 
# From -- ./inp_files/20452.got.cif
#   From: 2010.03.12/outbox.cif.g09.slc.cpg/sg53_11_cif.got.tgz:20452.got - 2010.04.16 14:36:59.
