data_PCOD8222798
_publ_section_title
;
Structure prediction by ZEFSAII (Michael W. Deem and Ramdas Pophale) SiO2 
 PCOD8222798
Probable space group: P C C A
;
_chemical_formula_sum "Si O2"
_cell_formula_units_Z 60
_cell_length_a 23.250668
_cell_length_b 14.635750
_cell_length_c 9.102467
_cell_angle_alpha 90.000000
_cell_angle_beta 90.000000
_cell_angle_gamma 90.000000
_cell_volume 3097.487272
_symmetry_space_group_name_H-M "P C C A"
_symmetry_group_IT_number 54
_symmetry_cell_setting 'orthorhombic'
loop_
_space_group_symop_operation_xyz
x,y,z
1/2-x,-y,z
1/2+x,-y,1/2-z
-x,y,1/2-z
-x,-y,-z
1/2+x,y,-z
1/2-x,y,1/2+z
x,-y,1/2+z
loop_
_atom_site_type_symbol
_atom_site_label
_atom_site_fract_x
_atom_site_fract_y
_atom_site_fract_z
Si Si1 0.219178 0.122735 0.593260
Si Si2 0.391099 0.223252 0.123759
Si Si3 0.671681 0.003880 0.658096
Si Si4 0.851138 0.873727 0.909016
Si Si5 0.517574 0.084816 0.406344
Si Si6 0.065801 0.248260 0.947675
Si Si7 0.466254 0.622305 0.507419
Si Si8 0.000000 0.507406 0.750000
O O1 0.177233 0.211289 0.598798
O O2 0.209726 0.056955 0.731859
O O3 0.284676 0.156684 0.597103
O O4 0.212616 0.065937 0.443317
O O5 0.415901 0.120079 0.090445
O O6 0.404524 0.255141 0.289014
O O7 0.417352 0.299555 0.015255
O O8 0.634096 0.937304 0.552585
O O9 0.631810 0.070744 0.760054
O O10 0.888181 0.781130 0.926972
O O11 0.500000 0.048441 0.250000
O O12 0.484196 0.174798 0.450542
O O13 0.500000 0.000000 0.500000
O O14 0.032768 0.341527 0.986511
O O15 0.459072 0.553959 0.645595
O O16 0.458906 0.569963 0.353045
#
# Coordination Sequence:
#
# PCOD8222798 Si02
#       8
#     8   8   8   8   8   8   8   4
#     4  11  20  32  49  70  99 147 191 237 272 299
#     4  10  20  35  53  73 113 139 177 225 267 318
#     4  10  21  32  44  67 100 141 208 244 253 288
#     4  11  20  32  49  70  99 147 191 237 272 299
#     4   9  20  33  45  66  97 146 181 206 261 313
#     4  10  20  35  53  73 113 139 177 225 267 318
#     4  10  20  40  59  93 109 136 163 217 270 335
#     4  10  20  36  70  86 112 128 172 206 272 342
#
# _framework density 19.370540999999999
#
# number of rings (size 3 to 8) (size 9 to 14) (size 15 to 20)
#    0.000    1.867    2.667    4.000    3.733    1.067 
#    4.800    0.000    0.000    0.000    0.000    5.600 
#    0.000    0.000    0.000    0.000    0.000    0.000 
#
# Total GULP energy -743631.923056 kJ/mol
# GULP energy per Si atom -12393.865384 kJ/mol
# Density = 1.932645 g / cm^3
# Si number density = 19.370541 Si / 1000 Ang^3
#
#
#
# Elastic Constant Matrix: (Units=GPa)
#
#
# Indices 1 2 3 4 5 6 
#
# 1 70.7175 29.0520 17.3013 0.0000 0.0000 0.0000
# 2 29.0520 81.1496 40.5824 0.0000 0.0000 0.0000
# 3 17.3013 40.5824 100.1994 0.0000 0.0000 0.0000
# 4 0.0000 0.0000 0.0000 -58.0313 0.0000 0.0000
# 5 0.0000 0.0000 0.0000 0.0000 17.8582 0.0000
# 6 0.0000 0.0000 0.0000 0.0000 0.0000 19.5110
#
#
#
# Elastic Compliance Matrix: (Units=1/GPa)
#
#
# Indices 1 2 3 4 5 6 
#
# 1 0.016606 -0.005657 -0.000576 0.000000 0.000000 0.000000
# 2 -0.005657 0.017380 -0.006062 0.000000 0.000000 0.000000
# 3 -0.000576 -0.006062 0.012535 0.000000 0.000000 0.000000
# 4 0.000000 0.000000 0.000000 -0.017232 0.000000 0.000000
# 5 0.000000 0.000000 0.000000 0.000000 0.055997 0.000000
# 6 0.000000 0.000000 0.000000 0.000000 0.000000 0.051253
#
#
# Mechanical properties :
#
#
# Convention : Reuss Voigt Hill
#
# Bulk Modulus (GPa) = 45.60012 47.32644 46.46328
# Shear Modulus (GPa) = 29.68437 6.87628 18.28032
#
# Velocity S-wave (km/s) = 3.91890 1.88615 3.07533
# Velocity P-wave (km/s) = 6.63845 5.40635 6.05383
#
# Compressibility (1/GPa) = 0.02192977
#
# Stress axis : x y z
#
# Youngs Moduli (GPa) = 60.22052 57.53800 79.77693
#
# Poissons Ratio (x) = 0.32548 0.04597
# Poissons Ratio (y) = 0.34065 0.48364
# Poissons Ratio (z) = 0.03470 0.34882
#
# Static dielectric constant tensor:
#      x y z
#    x 6.377860 0.000000 0.000000 
#    y 0.000000 3.394530 0.000000 
#    z 0.000000 0.000000 5.007440 
# 
# 
# High freq. dielectric constant tensor:
#      x y z
#    x 1.733910 0.000000 0.000000 
#    y 0.000000 1.718290 0.000000 
#    z 0.000000 0.000000 1.769700 
# 
# From -- ./inp_files/5285.got.cif
#   From: 2010.03.12/outbox.cif.g09.slc.cpg/sg54_3_cif.got.tgz:5285.got - 2010.04.16 15:00:50.
