data_PCOD8222479
_publ_section_title
;
Structure prediction by ZEFSAII (Michael W. Deem and Ramdas Pophale) SiO2 
 PCOD8222479
Probable space group: P C C A
;
_chemical_formula_sum "Si O2"
_cell_formula_units_Z 64
_cell_length_a 14.892055
_cell_length_b 13.154794
_cell_length_c 17.910966
_cell_angle_alpha 90.000000
_cell_angle_beta 90.000000
_cell_angle_gamma 90.000000
_cell_volume 3508.792553
_symmetry_space_group_name_H-M "P C C A"
_symmetry_group_IT_number 54
_symmetry_cell_setting 'orthorhombic'
loop_
_space_group_symop_operation_xyz
x,y,z
1/2-x,-y,z
1/2+x,-y,1/2-z
-x,y,1/2-z
-x,-y,-z
1/2+x,y,-z
1/2-x,y,1/2+z
x,-y,1/2+z
loop_
_atom_site_type_symbol
_atom_site_label
_atom_site_fract_x
_atom_site_fract_y
_atom_site_fract_z
Si Si1 0.452495 0.298884 0.964371
Si Si2 0.158176 0.046367 0.575602
Si Si3 0.429516 0.359780 0.130874
Si Si4 0.587572 0.868943 0.525940
Si Si5 0.519803 0.139334 0.332070
Si Si6 0.268246 0.768046 0.489005
Si Si7 0.266388 0.387149 0.611611
Si Si8 0.042130 0.416811 0.171085
O O1 0.492636 0.365069 0.898195
O O2 0.441399 0.362772 0.041007
O O3 0.517959 0.203018 0.980989
O O4 0.349054 0.274801 0.936984
O O5 0.110483 0.078838 0.651349
O O6 0.172725 0.151625 0.534182
O O7 0.250000 0.000000 0.603403
O O8 0.102252 0.968635 0.524191
O O9 0.477836 0.261905 0.165396
O O10 0.324251 0.352729 0.154361
O O11 0.472416 0.461985 0.164336
O O12 0.549612 0.901441 0.605987
O O13 0.683343 0.819763 0.550303
O O14 0.500000 0.101301 0.250000
O O15 0.218849 0.685350 0.541072
O O16 0.250000 0.500000 0.579703
O O17 0.352451 0.385310 0.666921
O O18 0.000000 0.380257 0.250000
#
# Coordination Sequence:
#
# PCOD8222479 Si02
#       8
#     8   8   8   8   8   8   8   8
#     4  10  19  34  60  83 110 148 195 233 272 335
#     4  10  20  36  63  81 106 147 190 231 280 346
#     4   9  19  37  60  77 109 155 200 227 262 344
#     4  10  20  36  62  82 109 145 191 240 273 335
#     4  11  21  37  58  86 113 147 183 235 291 339
#     4  10  18  36  57  87 106 147 199 230 274 327
#     4   9  17  32  57  78 108 150 190 228 275 338
#     4  11  21  34  54  85 122 152 179 233 297 335
#
# _framework density 18.239892999999999
#
# number of rings (size 3 to 8) (size 9 to 14) (size 15 to 20)
#    0.000    2.000    5.000    1.125    0.000    0.000 
#    2.250    2.500    2.750    0.000    0.000    0.000 
#    0.000    0.000    0.000    0.000    0.000    0.000 
#
# Total GULP energy -792868.256860 kJ/mol
# GULP energy per Si atom -12388.566513 kJ/mol
# Density = 1.819838 g / cm^3
# Si number density = 18.239893 Si / 1000 Ang^3
#
#
#
# Elastic Constant Matrix: (Units=GPa)
#
#
# Indices 1 2 3 4 5 6 
#
# 1 105.1904 34.4967 55.2181 0.0000 0.0000 0.0000
# 2 34.4967 74.0629 35.9942 0.0000 0.0000 0.0000
# 3 55.2181 35.9942 101.2933 0.0000 0.0000 0.0000
# 4 0.0000 0.0000 0.0000 22.3460 0.0000 0.0000
# 5 0.0000 0.0000 0.0000 0.0000 -28.7659 0.0000
# 6 0.0000 0.0000 0.0000 0.0000 0.0000 27.1527
#
#
#
# Elastic Compliance Matrix: (Units=1/GPa)
#
#
# Indices 1 2 3 4 5 6 
#
# 1 0.013990 -0.003396 -0.006420 0.000000 0.000000 0.000000
# 2 -0.003396 0.017145 -0.004241 0.000000 0.000000 0.000000
# 3 -0.006420 -0.004241 0.014879 0.000000 0.000000 0.000000
# 4 0.000000 0.000000 0.000000 0.044751 0.000000 0.000000
# 5 0.000000 0.000000 0.000000 0.000000 -0.034763 0.000000
# 6 0.000000 0.000000 0.000000 0.000000 0.000000 0.036829
#
#
# Mechanical properties :
#
#
# Convention : Reuss Voigt Hill
#
# Bulk Modulus (GPa) = 55.86519 59.10717 57.48618
# Shear Modulus (GPa) = 39.39768 14.46908 26.93338
#
# Velocity S-wave (km/s) = 4.65259 2.81955 3.84685
# Velocity P-wave (km/s) = 7.71730 6.56320 7.16353
#
# Compressibility (1/GPa) = 0.01790024
#
# Stress axis : x y z
#
# Youngs Moduli (GPa) = 71.47807 58.32575 67.20942
#
# Poissons Ratio (x) = 0.19810 0.43146
# Poissons Ratio (y) = 0.24277 0.28503
# Poissons Ratio (z) = 0.45886 0.24736
#
# Static dielectric constant tensor:
#      x y z
#    x 2.939550 0.000000 0.000000 
#    y 0.000000 2.616210 0.000000 
#    z 0.000000 0.000000 2.976030 
# 
# 
# High freq. dielectric constant tensor:
#      x y z
#    x 1.728090 0.000000 0.000000 
#    y 0.000000 1.715360 0.000000 
#    z 0.000000 0.000000 1.660410 
# 
# From -- ./inp_files/18276.got.cif
#   From: 2010.03.12/outbox.cif.g09.slc.cpg/sg54_10_cif.got.tgz:18276.got - 2010.04.16 15:00:50.
