data_PCOD8222023
_publ_section_title
;
Structure prediction by ZEFSAII (Michael W. Deem and Ramdas Pophale) SiO2 
 PCOD8222023
Probable space group: P M N A
;
_chemical_formula_sum "Si O2"
_cell_formula_units_Z 64
_cell_length_a 8.678710
_cell_length_b 21.679013
_cell_length_c 17.829621
_cell_angle_alpha 90.000000
_cell_angle_beta 90.000000
_cell_angle_gamma 90.000000
_cell_volume 3354.569500
_symmetry_space_group_name_H-M "P M N A"
_symmetry_group_IT_number 53
_symmetry_cell_setting 'orthorhombic'
loop_
_space_group_symop_operation_xyz
x,y,z
1/2-x,-y,1/2+z
x,-y,-z
1/2-x,y,1/2-z
-x,-y,-z
1/2+x,y,1/2-z
-x,y,z
1/2+x,-y,1/2+z
loop_
_atom_site_type_symbol
_atom_site_label
_atom_site_fract_x
_atom_site_fract_y
_atom_site_fract_z
Si Si1 0.320057 0.118554 0.096810
Si Si2 0.182331 0.311033 0.952592
Si Si3 0.179445 0.373169 0.172704
Si Si4 0.681726 0.105357 0.923496
Si Si5 0.315951 0.566365 0.521969
Si Si6 0.317961 0.997552 0.669262
Si Si7 0.817958 0.782136 0.168092
Si Si8 0.819472 0.246320 0.101828
O O1 0.500000 0.105527 0.108689
O O2 0.223453 0.072359 0.148519
O O3 0.278231 0.186817 0.125569
O O4 0.270898 0.111042 0.010237
O O5 0.236792 0.280373 0.874676
O O6 0.000000 0.312356 0.958795
O O7 0.241992 0.381561 0.962188
O O8 0.241449 0.268229 0.020474
O O9 0.250000 0.396996 0.250000
O O10 0.245669 0.414146 0.104147
O O11 0.216506 0.300935 0.160478
O O12 0.000000 0.384270 0.176698
O O13 0.500000 0.109722 0.912587
O O14 0.760739 0.158747 0.876202
O O15 0.742259 0.040108 0.894212
O O16 0.245193 0.500000 0.500000
O O17 0.500000 0.563616 0.522011
O O18 0.250000 0.015667 0.750000
O O19 0.500000 0.007275 0.671038
O O20 0.750000 0.780054 0.250000
O O21 0.000000 0.785961 0.173362
O O22 0.000000 0.229749 0.100187
#
# Coordination Sequence:
#
# PCOD8222023 Si02
#       8
#     8   8   8   8   8   8   8   8
#     4  11  23  38  59  86 113 141 178 225 275 327
#     4   8  15  29  50  74 102 137 179 224 265 316
#     4   9  18  31  51  79 110 143 180 227 272 320
#     4  11  23  40  60  83 111 141 181 227 273 327
#     4   8  14  28  52  79 105 141 189 229 263 312
#     4  12  26  43  61  80 108 145 184 226 276 328
#     4  11  21  34  54  79 109 142 181 227 278 330
#     4   9  17  33  54  76 103 139 183 222 264 319
#
# _framework density 19.078455000000002
#
# number of rings (size 3 to 8) (size 9 to 14) (size 15 to 20)
#    0.000    2.125    1.250    4.500    0.000    4.000 
#    0.000    1.875    0.000    0.375    0.000    0.000 
#    0.000    0.000    0.000    0.000    0.000    0.000 
#
# Total GULP energy -793530.870821 kJ/mol
# GULP energy per Si atom -12398.919857 kJ/mol
# Density = 1.903503 g / cm^3
# Si number density = 19.078455 Si / 1000 Ang^3
#
#
#
# Elastic Constant Matrix: (Units=GPa)
#
#
# Indices 1 2 3 4 5 6 
#
# 1 36.4775 10.0881 25.7409 0.0000 0.0000 0.0000
# 2 10.0881 111.8095 25.0369 0.0000 0.0000 0.0000
# 3 25.7409 25.0369 79.4695 0.0000 0.0000 0.0000
# 4 0.0000 0.0000 0.0000 23.7889 0.0000 0.0000
# 5 0.0000 0.0000 0.0000 0.0000 23.0389 0.0000
# 6 0.0000 0.0000 0.0000 0.0000 0.0000 13.1708
#
#
#
# Elastic Compliance Matrix: (Units=1/GPa)
#
#
# Indices 1 2 3 4 5 6 
#
# 1 0.035584 -0.000677 -0.011313 0.000000 0.000000 0.000000
# 2 -0.000677 0.009636 -0.002816 0.000000 0.000000 0.000000
# 3 -0.011313 -0.002816 0.017135 0.000000 0.000000 0.000000
# 4 0.000000 0.000000 0.000000 0.042036 0.000000 0.000000
# 5 0.000000 0.000000 0.000000 0.000000 0.043405 0.000000
# 6 0.000000 0.000000 0.000000 0.000000 0.000000 0.075926
#
#
# Mechanical properties :
#
#
# Convention : Reuss Voigt Hill
#
# Bulk Modulus (GPa) = 30.54164 38.83205 34.68685
# Shear Modulus (GPa) = 18.92157 23.12576 21.02366
#
# Velocity S-wave (km/s) = 3.15267 3.48536 3.32318
# Velocity P-wave (km/s) = 5.41254 6.04938 5.73980
#
# Compressibility (1/GPa) = 0.03274218
#
# Stress axis : x y z
#
# Youngs Moduli (GPa) = 28.10213 103.78257 58.36011
#
# Poissons Ratio (x) = 0.07031 0.66021
# Poissons Ratio (y) = 0.01904 0.16436
# Poissons Ratio (z) = 0.31791 0.29228
#
# Static dielectric constant tensor:
#      x y z
#    x 3.239610 0.000000 0.000000 
#    y 0.000000 3.779690 0.000000 
#    z 0.000000 0.000000 3.954430 
# 
# 
# High freq. dielectric constant tensor:
#      x y z
#    x 1.720100 0.000000 0.000000 
#    y 0.000000 1.744020 0.000000 
#    z 0.000000 0.000000 1.741240 
# 
# From -- ./inp_files/26983.got.cif
#   From: 2010.03.12/outbox.cif.g09.slc.cpg/sg53_14_cif.got.tgz:26983.got - 2010.04.16 14:36:59.
