data_PCOD8222318
_publ_section_title
;
Structure prediction by ZEFSAII (Michael W. Deem and Ramdas Pophale) SiO2 
 PCOD8222318
Probable space group: P C C A
;
_chemical_formula_sum "Si O2"
_cell_formula_units_Z 64
_cell_length_a 16.192923
_cell_length_b 36.496025
_cell_length_c 5.286294
_cell_angle_alpha 90.000000
_cell_angle_beta 90.000000
_cell_angle_gamma 90.000000
_cell_volume 3124.079875
_symmetry_space_group_name_H-M "P C C A"
_symmetry_group_IT_number 54
_symmetry_cell_setting 'orthorhombic'
loop_
_space_group_symop_operation_xyz
x,y,z
1/2-x,-y,z
1/2+x,-y,1/2-z
-x,y,1/2-z
-x,-y,-z
1/2+x,y,-z
1/2-x,y,1/2+z
x,-y,1/2+z
loop_
_atom_site_type_symbol
_atom_site_label
_atom_site_fract_x
_atom_site_fract_y
_atom_site_fract_z
Si Si1 0.657582 0.175199 0.768521
Si Si2 0.301733 0.711723 0.717334
Si Si3 0.097786 0.020228 0.248936
Si Si4 0.803474 0.092080 0.253532
Si Si5 0.343304 0.793706 0.731387
Si Si6 0.343037 0.484446 0.753247
Si Si7 0.403363 0.360538 0.249460
Si Si8 0.097706 0.404310 0.249401
O O1 0.654248 0.131621 0.754715
O O2 0.749974 0.191269 0.783947
O O3 0.611446 0.192022 0.523154
O O4 0.611573 0.188967 0.023207
O O5 0.267410 0.708912 0.433362
O O6 0.348771 0.750049 0.748384
O O7 0.365891 0.679528 0.759798
O O8 0.124573 0.062286 0.244423
O O9 0.000000 0.019135 0.250000
O O10 0.133012 0.000403 0.500426
O O11 0.748796 0.086983 0.501071
O O12 0.250000 0.500000 0.753303
O O13 0.388874 0.499999 0.503245
O O14 0.347340 0.440765 0.753505
O O15 0.500000 0.354989 0.250000
O O16 0.375326 0.382651 0.498196
O O17 0.375373 0.381490 0.995964
O O18 0.000000 0.413482 0.250000
#
# Coordination Sequence:
#
# PCOD8222318 Si02
#       8
#     8   8   8   8   8   8   8   8
#     4  10  16  30  48  78 109 145 174 224 278 332
#     4  12  21  35  57  92 111 146 198 236 270 331
#     4  10  23  42  57  74 110 154 183 220 288 352
#     4  12  21  32  58  88 108 138 187 240 281 317
#     4  10  16  30  51  75 113 148 173 221 275 338
#     4  10  21  38  56  84 117 144 178 233 286 319
#     4  10  23  42  59  83 120 153 189 234 281 328
#     4  10  21  41  63  80 109 159 193 218 275 347
#
# _framework density 20.486032000000002
#
# number of rings (size 3 to 8) (size 9 to 14) (size 15 to 20)
#    0.000    1.500    5.000    2.250    0.000    2.000 
#   13.500    0.000    0.000    1.500    0.000    0.000 
#    0.000    0.000    0.000    0.000    0.000    0.000 
#
# Total GULP energy -793445.312654 kJ/mol
# GULP energy per Si atom -12397.583010 kJ/mol
# Density = 2.043940 g / cm^3
# Si number density = 20.486032 Si / 1000 Ang^3
#
#
#
# Elastic Constant Matrix: (Units=GPa)
#
#
# Indices 1 2 3 4 5 6 
#
# 1 15.2817 32.7237 15.9406 0.0000 0.0000 0.0000
# 2 32.7237 197.0641 64.9598 0.0000 0.0000 0.0000
# 3 15.9406 64.9598 208.6315 0.0000 0.0000 0.0000
# 4 0.0000 0.0000 0.0000 41.5364 0.0000 0.0000
# 5 0.0000 0.0000 0.0000 0.0000 -0.4032 0.0000
# 6 0.0000 0.0000 0.0000 0.0000 0.0000 7.4537
#
#
#
# Elastic Compliance Matrix: (Units=1/GPa)
#
#
# Indices 1 2 3 4 5 6 
#
# 1 0.103030 -0.016174 -0.002836 0.000000 0.000000 0.000000
# 2 -0.016174 0.008194 -0.001315 0.000000 0.000000 0.000000
# 3 -0.002836 -0.001315 0.005419 0.000000 0.000000 0.000000
# 4 0.000000 0.000000 0.000000 0.024075 0.000000 0.000000
# 5 0.000000 0.000000 0.000000 0.000000 -2.479982 0.000000
# 6 0.000000 0.000000 0.000000 0.000000 0.000000 0.134161
#
#
# Mechanical properties :
#
#
# Convention : Reuss Voigt Hill
#
# Bulk Modulus (GPa) = 13.15921 72.02503 42.59212
# Shear Modulus (GPa) = -2.33741 30.20759 13.93509
#
# Velocity S-wave (km/s) = -1.06932 3.84415 2.61094
# Velocity P-wave (km/s) = 2.21649 7.41200 5.47040
#
# Compressibility (1/GPa) = 0.07599238
#
# Stress axis : x y z
#
# Youngs Moduli (GPa) = 9.70591 122.04214 184.52124
#
# Poissons Ratio (x) = 1.97389 0.52333
# Poissons Ratio (y) = 0.15698 0.24274
# Poissons Ratio (z) = 0.02753 0.16055
#
# Static dielectric constant tensor:
#      x y z
#    x 3.095280 0.000000 0.000000 
#    y 0.000000 3.834980 0.000000 
#    z 0.000000 0.000000 6.230620 
# 
# 
# High freq. dielectric constant tensor:
#      x y z
#    x 1.740660 0.000000 0.000000 
#    y 0.000000 1.815860 0.000000 
#    z 0.000000 0.000000 1.841920 
# 
# From -- ./inp_files/1091.got.cif
#   From: 2010.03.12/outbox.cif.g09.slc.cpg/sg54_1_cif.got.tgz:1091.got - 2010.04.16 15:00:50.
