data_PCOD8222171
_publ_section_title
;
Structure prediction by ZEFSAII (Michael W. Deem and Ramdas Pophale) SiO2 
 PCOD8222171
Probable space group: P M N A
;
_chemical_formula_sum "Si O2"
_cell_formula_units_Z 56
_cell_length_a 15.296825
_cell_length_b 11.121250
_cell_length_c 14.675913
_cell_angle_alpha 90.000000
_cell_angle_beta 90.000000
_cell_angle_gamma 90.000000
_cell_volume 2496.663605
_symmetry_space_group_name_H-M "P M N A"
_symmetry_group_IT_number 53
_symmetry_cell_setting 'orthorhombic'
loop_
_space_group_symop_operation_xyz
x,y,z
1/2-x,-y,1/2+z
x,-y,-z
1/2-x,y,1/2-z
-x,-y,-z
1/2+x,y,1/2-z
-x,y,z
1/2+x,-y,1/2+z
loop_
_atom_site_type_symbol
_atom_site_label
_atom_site_fract_x
_atom_site_fract_y
_atom_site_fract_z
Si Si1 0.599636 0.688908 0.893270
Si Si2 0.098610 0.889465 0.251146
Si Si3 0.600139 0.672115 0.567883
Si Si4 0.248864 0.484049 0.356078
Si Si5 0.601923 0.153208 0.272614
Si Si6 0.693185 0.740726 0.394402
Si Si7 0.854460 0.129400 0.544917
O O1 0.500000 0.644646 0.874825
O O2 0.663295 0.573927 0.903630
O O3 0.639924 0.765396 0.809028
O O4 0.600295 0.770054 0.982866
O O5 0.154547 0.788020 0.200444
O O6 0.097661 0.865594 0.358366
O O7 0.000000 0.883810 0.213647
O O8 0.142561 0.019470 0.229443
O O9 0.500000 0.629961 0.581248
O O10 0.662668 0.563193 0.596490
O O11 0.622144 0.787275 0.630393
O O12 0.614913 0.709175 0.463468
O O13 0.250000 0.452903 0.250000
O O14 0.245780 0.626308 0.372776
O O15 0.500000 0.139843 0.252368
O O16 0.752111 0.842153 0.442477
O O17 0.867248 0.000000 0.500000
#
# Coordination Sequence:
#
# PCOD8222171 Si02
#       7
#     8   8   8   8   8   8   8
#     4  11  23  44  73 104 139 185 238 294 353 415
#     4  11  24  44  70 101 143 186 230 292 359 427
#     4  11  24  44  73 103 138 188 240 289 351 420
#     4  12  25  46  72  99 144 186 238 300 345 416
#     4   9  20  40  69 104 136 177 236 289 342 418
#     4  12  28  46  64 103 147 185 236 288 355 424
#     4  12  25  43  71 104 143 187 234 292 364 428
#
# _framework density 22.429933999999999
#
# number of rings (size 3 to 8) (size 9 to 14) (size 15 to 20)
#    0.000    0.857    4.286    2.571    2.000    2.286 
#    2.571    5.714    0.000    0.000    0.000    0.000 
#    0.000    0.000    0.000    0.000    0.000    0.000 
#
# Total GULP energy -694667.970543 kJ/mol
# GULP energy per Si atom -12404.785188 kJ/mol
# Density = 2.237888 g / cm^3
# Si number density = 22.429934 Si / 1000 Ang^3
#
#
#
# Elastic Constant Matrix: (Units=GPa)
#
#
# Indices 1 2 3 4 5 6 
#
# 1 110.3868 46.2607 26.2473 0.0000 0.0000 0.0000
# 2 46.2607 132.8615 55.9591 0.0000 0.0000 0.0000
# 3 26.2473 55.9591 128.7219 0.0000 0.0000 0.0000
# 4 0.0000 0.0000 0.0000 34.7139 0.0000 0.0000
# 5 0.0000 0.0000 0.0000 0.0000 30.2584 0.0000
# 6 0.0000 0.0000 0.0000 0.0000 0.0000 16.7786
#
#
#
# Elastic Compliance Matrix: (Units=1/GPa)
#
#
# Indices 1 2 3 4 5 6 
#
# 1 0.010656 -0.003422 -0.000685 0.000000 0.000000 0.000000
# 2 -0.003422 0.010312 -0.003785 0.000000 0.000000 0.000000
# 3 -0.000685 -0.003785 0.009554 0.000000 0.000000 0.000000
# 4 0.000000 0.000000 0.000000 0.028807 0.000000 0.000000
# 5 0.000000 0.000000 0.000000 0.000000 0.033049 0.000000
# 6 0.000000 0.000000 0.000000 0.000000 0.000000 0.059600
#
#
# Mechanical properties :
#
#
# Convention : Reuss Voigt Hill
#
# Bulk Modulus (GPa) = 67.85345 69.87828 68.86587
# Shear Modulus (GPa) = 28.95613 32.58371 30.76992
#
# Velocity S-wave (km/s) = 3.59689 3.81555 3.70783
# Velocity P-wave (km/s) = 6.89689 7.11568 7.00714
#
# Compressibility (1/GPa) = 0.01473764
#
# Stress axis : x y z
#
# Youngs Moduli (GPa) = 93.84449 96.97129 104.66770
#
# Poissons Ratio (x) = 0.33180 0.07173
# Poissons Ratio (y) = 0.32110 0.39621
# Poissons Ratio (z) = 0.06432 0.36707
#
# Static dielectric constant tensor:
#      x y z
#    x 3.900570 0.000000 0.000000 
#    y 0.000000 4.057400 0.000000 
#    z 0.000000 0.000000 4.098680 
# 
# 
# High freq. dielectric constant tensor:
#      x y z
#    x 1.877240 0.000000 0.000000 
#    y 0.000000 1.882650 0.000000 
#    z 0.000000 0.000000 1.896760 
# 
# From -- ./inp_files/22854.got.cif
#   From: 2010.03.12/outbox.cif.g09.slc.cpg/sg53_12_cif.got.tgz:22854.got - 2010.04.16 14:36:59.
