data_PCOD8222476
_publ_section_title
;
Structure prediction by ZEFSAII (Michael W. Deem and Ramdas Pophale) SiO2 
 PCOD8222476
Probable space group: P C C A
;
_chemical_formula_sum "Si O2"
_cell_formula_units_Z 48
_cell_length_a 9.319768
_cell_length_b 8.411531
_cell_length_c 28.303791
_cell_angle_alpha 90.000000
_cell_angle_beta 90.000000
_cell_angle_gamma 90.000000
_cell_volume 2218.833734
_symmetry_space_group_name_H-M "P C C A"
_symmetry_group_IT_number 54
_symmetry_cell_setting 'orthorhombic'
loop_
_space_group_symop_operation_xyz
x,y,z
1/2-x,-y,z
1/2+x,-y,1/2-z
-x,y,1/2-z
-x,-y,-z
1/2+x,y,-z
1/2-x,y,1/2+z
x,-y,1/2+z
loop_
_atom_site_type_symbol
_atom_site_label
_atom_site_fract_x
_atom_site_fract_y
_atom_site_fract_z
Si Si1 0.272365 0.311593 0.321528
Si Si2 0.625844 0.608626 0.520120
Si Si3 0.651058 0.643993 0.271418
Si Si4 0.015795 0.295542 0.135140
Si Si5 0.716755 0.822048 0.434293
Si Si6 0.519678 0.665388 0.888184
O O1 0.250000 0.500000 0.316361
O O2 0.239906 0.250154 0.267766
O O3 0.429161 0.267698 0.342702
O O4 0.149971 0.249130 0.356980
O O5 0.750000 0.500000 0.541924
O O6 0.500000 0.500000 0.500000
O O7 0.702672 0.718123 0.481224
O O8 0.566690 0.709322 0.563980
O O9 0.750000 0.500000 0.289124
O O10 0.500000 0.578068 0.250000
O O11 0.609395 0.743521 0.317859
O O12 0.065841 0.179638 0.093292
O O13 0.039251 0.477123 0.118108
O O14 0.828292 0.750821 0.395528
O O15 0.750000 0.000000 0.450210
#
# Coordination Sequence:
#
# PCOD8222476 Si02
#       6
#     8   8   8   8   8   8
#     4   8  17  31  56  90 116 147 196 253 304 351
#     4  12  22  41  66  90 117 156 205 246 298 368
#     4   9  16  27  50  88 122 145 189 252 306 353
#     4  10  18  35  60  84 116 156 197 247 304 365
#     4  12  26  40  55  86 122 157 202 252 312 358
#     4  11  21  38  63  86 119 161 204 250 300 369
#
# _framework density 21.632985999999999
#
# number of rings (size 3 to 8) (size 9 to 14) (size 15 to 20)
#    0.000    1.667    3.333    4.000    0.000    0.667 
#    0.000    0.833    0.000    6.000    0.000    0.000 
#    0.000    0.000    0.000    0.000    0.000    0.000 
#
# Total GULP energy -594757.016753 kJ/mol
# GULP energy per Si atom -12390.771182 kJ/mol
# Density = 2.158375 g / cm^3
# Si number density = 21.632986 Si / 1000 Ang^3
#
#
#
# Elastic Constant Matrix: (Units=GPa)
#
#
# Indices 1 2 3 4 5 6 
#
# 1 71.7088 13.4211 21.4726 0.0000 0.0000 0.0000
# 2 13.4211 50.1653 9.5764 0.0000 0.0000 0.0000
# 3 21.4726 9.5764 97.3947 0.0000 0.0000 0.0000
# 4 0.0000 0.0000 0.0000 9.1616 0.0000 0.0000
# 5 0.0000 0.0000 0.0000 0.0000 48.3009 0.0000
# 6 0.0000 0.0000 0.0000 0.0000 0.0000 12.2449
#
#
#
# Elastic Compliance Matrix: (Units=1/GPa)
#
#
# Indices 1 2 3 4 5 6 
#
# 1 0.015534 -0.003569 -0.003074 0.000000 0.000000 0.000000
# 2 -0.003569 0.021135 -0.001291 0.000000 0.000000 0.000000
# 3 -0.003074 -0.001291 0.011072 0.000000 0.000000 0.000000
# 4 0.000000 0.000000 0.000000 0.109152 0.000000 0.000000
# 5 0.000000 0.000000 0.000000 0.000000 0.020704 0.000000
# 6 0.000000 0.000000 0.000000 0.000000 0.000000 0.081666
#
#
# Mechanical properties :
#
#
# Convention : Reuss Voigt Hill
#
# Bulk Modulus (GPa) = 31.37447 34.24543 32.80995
# Shear Modulus (GPa) = 17.49747 25.59473 21.54610
#
# Velocity S-wave (km/s) = 2.84708 3.44340 3.15934
# Velocity P-wave (km/s) = 5.03412 5.62796 5.33930
#
# Compressibility (1/GPa) = 0.03187305
#
# Stress axis : x y z
#
# Youngs Moduli (GPa) = 64.37614 47.31383 90.31677
#
# Poissons Ratio (x) = 0.16887 0.27761
# Poissons Ratio (y) = 0.22976 0.11662
# Poissons Ratio (z) = 0.19788 0.06110
#
# Static dielectric constant tensor:
#      x y z
#    x 4.423210 0.000000 0.000000 
#    y 0.000000 3.115450 0.000000 
#    z 0.000000 0.000000 4.384420 
# 
# 
# High freq. dielectric constant tensor:
#      x y z
#    x 1.870090 0.000000 0.000000 
#    y 0.000000 1.758960 0.000000 
#    z 0.000000 0.000000 1.870580 
# 
# From -- ./inp_files/27716.got.cif
#   From: 2010.03.12/outbox.cif.g09.slc.cpg/sg54_14_cif.got.tgz:27716.got - 2010.04.16 15:00:50.
