data_PCOD8222919
_publ_section_title
;
Structure prediction by ZEFSAII (Michael W. Deem and Ramdas Pophale) SiO2 
 PCOD8222919
Probable space group: P C C A
;
_chemical_formula_sum "Si O2"
_cell_formula_units_Z 60
_cell_length_a 9.324963
_cell_length_b 13.903301
_cell_length_c 22.211575
_cell_angle_alpha 90.000000
_cell_angle_beta 90.000000
_cell_angle_gamma 90.000000
_cell_volume 2879.681109
_symmetry_space_group_name_H-M "P C C A"
_symmetry_group_IT_number 54
_symmetry_cell_setting 'orthorhombic'
loop_
_space_group_symop_operation_xyz
x,y,z
1/2-x,-y,z
1/2+x,-y,1/2-z
-x,y,1/2-z
-x,-y,-z
1/2+x,y,-z
1/2-x,y,1/2+z
x,-y,1/2+z
loop_
_atom_site_type_symbol
_atom_site_label
_atom_site_fract_x
_atom_site_fract_y
_atom_site_fract_z
Si Si1 0.912288 0.805711 0.435220
Si Si2 0.250000 0.500000 0.001341
Si Si3 0.885099 0.057937 0.698971
Si Si4 0.904033 0.781046 0.955406
Si Si5 0.050750 0.743150 0.318096
Si Si6 0.092328 0.468234 0.810110
Si Si7 0.591695 0.988310 0.398174
Si Si8 0.991996 0.411509 0.076871
O O1 0.764575 0.760833 0.458410
O O2 0.039346 0.765153 0.476601
O O3 0.926251 0.773090 0.365453
O O4 0.915447 0.921467 0.443744
O O5 0.344103 0.429508 0.959126
O O6 0.135949 0.443389 0.041945
O O7 0.838029 0.166165 0.677780
O O8 0.000000 0.075840 0.750000
O O9 0.750000 0.000000 0.723637
O O10 0.960297 0.995113 0.647778
O O11 0.932914 0.887970 0.931372
O O12 0.986005 0.703196 0.913190
O O13 0.111008 0.639593 0.337739
O O14 0.000000 0.730278 0.250000
O O15 0.250000 0.500000 0.792448
O O16 0.000000 0.472036 0.750000
O O17 0.015783 0.535636 0.859063
O O18 0.750000 0.000000 0.367089
#
# Coordination Sequence:
#
# PCOD8222919 Si02
#       8
#     8   4   8   8   8   8   8   8
#     4  10  22  39  64  92 128 167 204 254 314 379
#     4  10  24  42  62  90 126 162 204 272 312 362
#     4  10  20  37  62  90 119 161 206 257 308 368
#     4  11  23  36  62  96 126 166 206 254 311 377
#     4   9  22  43  66  87 119 164 209 250 313 374
#     4  11  26  45  66  90 124 165 210 264 317 377
#     4   9  20  39  56  86 130 164 202 252 310 374
#     4  11  24  41  64  91 126 162 216 258 316 368
#
# _framework density 20.835640999999999
#
# number of rings (size 3 to 8) (size 9 to 14) (size 15 to 20)
#    0.000    1.867    0.667    1.600    6.533    6.400 
#    0.000    2.000    0.000    0.000    0.000    0.000 
#    0.000    0.000    0.000    0.000    0.000    0.000 
#
# Total GULP energy -743470.745338 kJ/mol
# GULP energy per Si atom -12391.179089 kJ/mol
# Density = 2.078822 g / cm^3
# Si number density = 20.835641 Si / 1000 Ang^3
#
#
#
# Elastic Constant Matrix: (Units=GPa)
#
#
# Indices 1 2 3 4 5 6 
#
# 1 125.5000 64.7365 45.6320 0.0000 0.0000 0.0000
# 2 64.7365 154.4479 53.3863 0.0000 0.0000 0.0000
# 3 45.6320 53.3863 107.1432 0.0000 0.0000 0.0000
# 4 0.0000 0.0000 0.0000 24.5666 0.0000 0.0000
# 5 0.0000 0.0000 0.0000 0.0000 28.6903 0.0000
# 6 0.0000 0.0000 0.0000 0.0000 0.0000 22.3057
#
#
#
# Elastic Compliance Matrix: (Units=1/GPa)
#
#
# Indices 1 2 3 4 5 6 
#
# 1 0.010838 -0.003560 -0.002842 0.000000 0.000000 0.000000
# 2 -0.003560 0.008991 -0.002964 0.000000 0.000000 0.000000
# 3 -0.002842 -0.002964 0.012020 0.000000 0.000000 0.000000
# 4 0.000000 0.000000 0.000000 0.040706 0.000000 0.000000
# 5 0.000000 0.000000 0.000000 0.000000 0.034855 0.000000
# 6 0.000000 0.000000 0.000000 0.000000 0.000000 0.044832
#
#
# Mechanical properties :
#
#
# Convention : Reuss Voigt Hill
#
# Bulk Modulus (GPa) = 76.23248 79.40008 77.81628
# Shear Modulus (GPa) = 28.51490 30.00160 29.25825
#
# Velocity S-wave (km/s) = 3.70342 3.79874 3.75138
# Velocity P-wave (km/s) = 7.41310 7.57833 7.49617
#
# Compressibility (1/GPa) = 0.01311777
#
# Stress axis : x y z
#
# Youngs Moduli (GPa) = 92.26813 111.21633 83.19186
#
# Poissons Ratio (x) = 0.39598 0.23642
# Poissons Ratio (y) = 0.32851 0.24657
# Poissons Ratio (z) = 0.26221 0.32962
#
# Static dielectric constant tensor:
#      x y z
#    x 3.682610 0.000000 0.000000 
#    y 0.000000 4.202140 0.000000 
#    z 0.000000 0.000000 3.623730 
# 
# 
# High freq. dielectric constant tensor:
#      x y z
#    x 1.806010 0.000000 0.000000 
#    y 0.000000 1.837580 0.000000 
#    z 0.000000 0.000000 1.805780 
# 
# From -- ./inp_files/23635.got.cif
#   From: 2010.03.12/outbox.cif.g09.slc.cpg/sg54_12_cif.got.tgz:23635.got - 2010.04.16 15:00:50.
