data_PCOD8222423
_publ_section_title
;
Structure prediction by ZEFSAII (Michael W. Deem and Ramdas Pophale) SiO2 
 PCOD8222423
Probable space group: P C C A
;
_chemical_formula_sum "Si O2"
_cell_formula_units_Z 32
_cell_length_a 7.817836
_cell_length_b 10.230439
_cell_length_c 19.059562
_cell_angle_alpha 90.000000
_cell_angle_beta 90.000000
_cell_angle_gamma 90.000000
_cell_volume 1524.381754
_symmetry_space_group_name_H-M "P C C A"
_symmetry_group_IT_number 54
_symmetry_cell_setting 'orthorhombic'
loop_
_space_group_symop_operation_xyz
x,y,z
1/2-x,-y,z
1/2+x,-y,1/2-z
-x,y,1/2-z
-x,-y,-z
1/2+x,y,-z
1/2-x,y,1/2+z
x,-y,1/2+z
loop_
_atom_site_type_symbol
_atom_site_label
_atom_site_fract_x
_atom_site_fract_y
_atom_site_fract_z
Si Si1 0.111679 0.895344 0.059372
Si Si2 0.099225 0.729199 0.533368
Si Si3 0.123237 0.117342 0.813587
Si Si4 0.273422 0.642902 0.394564
O O1 0.227266 0.764749 0.075726
O O2 0.997092 0.936836 0.124698
O O3 0.250000 0.000000 0.036920
O O4 0.998150 0.863994 0.990472
O O5 0.148974 0.651903 0.462244
O O6 0.972867 0.649888 0.583508
O O7 0.228209 0.245268 0.837991
O O8 0.000000 0.156666 0.750000
O O9 0.250000 0.000000 0.791417
O O10 0.250000 0.500000 0.359996
#
# Coordination Sequence:
#
# PCOD8222423 Si02
#       4
#     8   8   8   8
#     4  10  18  32  54  83 114 148 189 235 287 344
#     4   9  19  32  55  88 120 149 181 231 294 352
#     4  11  24  41  58  79 110 152 198 243 288 342
#     4  10  20  37  60  88 120 153 190 235 290 352
#
# _framework density 20.992117
#
# number of rings (size 3 to 8) (size 9 to 14) (size 15 to 20)
#    0.000    2.000    0.000    3.750    0.000    7.000 
#    0.000    3.750    0.000    0.000    0.000    0.000 
#    0.000    0.000    0.000    0.000    0.000    0.000 
#
# Total GULP energy -396627.059794 kJ/mol
# GULP energy per Si atom -12394.595619 kJ/mol
# Density = 2.094434 g / cm^3
# Si number density = 20.992117 Si / 1000 Ang^3
#
#
#
# Elastic Constant Matrix: (Units=GPa)
#
#
# Indices 1 2 3 4 5 6 
#
# 1 112.7747 24.5166 26.6001 0.0000 0.0000 0.0000
# 2 24.5166 98.3603 20.0018 0.0000 0.0000 0.0000
# 3 26.6001 20.0018 59.0057 0.0000 0.0000 0.0000
# 4 0.0000 0.0000 0.0000 14.2372 0.0000 0.0000
# 5 0.0000 0.0000 0.0000 0.0000 30.1840 0.0000
# 6 0.0000 0.0000 0.0000 0.0000 0.0000 21.0438
#
#
#
# Elastic Compliance Matrix: (Units=1/GPa)
#
#
# Indices 1 2 3 4 5 6 
#
# 1 0.010187 -0.001724 -0.004008 0.000000 0.000000 0.000000
# 2 -0.001724 0.011211 -0.003023 0.000000 0.000000 0.000000
# 3 -0.004008 -0.003023 0.019779 0.000000 0.000000 0.000000
# 4 0.000000 0.000000 0.000000 0.070238 0.000000 0.000000
# 5 0.000000 0.000000 0.000000 0.000000 0.033130 0.000000
# 6 0.000000 0.000000 0.000000 0.000000 0.000000 0.047520
#
#
# Mechanical properties :
#
#
# Convention : Reuss Voigt Hill
#
# Bulk Modulus (GPa) = 42.25287 45.81974 44.03631
# Shear Modulus (GPa) = 22.99208 26.36114 24.67661
#
# Velocity S-wave (km/s) = 3.31308 3.54752 3.43230
# Velocity P-wave (km/s) = 5.89975 6.21726 6.06058
#
# Compressibility (1/GPa) = 0.02366703
#
# Stress axis : x y z
#
# Youngs Moduli (GPa) = 98.15992 89.19630 50.55827
#
# Poissons Ratio (x) = 0.15379 0.20264
# Poissons Ratio (y) = 0.16925 0.15284
# Poissons Ratio (z) = 0.39343 0.26965
#
# Static dielectric constant tensor:
#      x y z
#    x 4.417890 0.000000 0.000000 
#    y 0.000000 3.713810 0.000000 
#    z 0.000000 0.000000 3.329200 
# 
# 
# High freq. dielectric constant tensor:
#      x y z
#    x 1.854960 0.000000 0.000000 
#    y 0.000000 1.815230 0.000000 
#    z 0.000000 0.000000 1.770520 
# 
# From -- ./inp_files/23152.got.cif
#   From: 2010.03.12/outbox.cif.g09.slc.cpg/sg54_12_cif.got.tgz:23152.got - 2010.04.16 15:00:50.
