data_PCOD8222484
_publ_section_title
;
Structure prediction by ZEFSAII (Michael W. Deem and Ramdas Pophale) SiO2 
 PCOD8222484
Probable space group: P C C A
;
_chemical_formula_sum "Si O2"
_cell_formula_units_Z 56
_cell_length_a 10.692498
_cell_length_b 16.972603
_cell_length_c 14.587272
_cell_angle_alpha 90.000000
_cell_angle_beta 90.000000
_cell_angle_gamma 90.000000
_cell_volume 2647.291174
_symmetry_space_group_name_H-M "P C C A"
_symmetry_group_IT_number 54
_symmetry_cell_setting 'orthorhombic'
loop_
_space_group_symop_operation_xyz
x,y,z
1/2-x,-y,z
1/2+x,-y,1/2-z
-x,y,1/2-z
-x,-y,-z
1/2+x,y,-z
1/2-x,y,1/2+z
x,-y,1/2+z
loop_
_atom_site_type_symbol
_atom_site_label
_atom_site_fract_x
_atom_site_fract_y
_atom_site_fract_z
Si Si1 0.989431 0.841772 0.353068
Si Si2 0.819000 0.292459 0.902455
Si Si3 0.376405 0.463629 0.131835
Si Si4 0.374514 0.050707 0.010816
Si Si5 0.374224 0.473859 0.832842
Si Si6 0.258999 0.192151 0.919413
Si Si7 0.362370 0.703292 0.262526
O O1 0.118154 0.841334 0.411285
O O2 0.000000 0.871372 0.250000
O O3 0.928984 0.755943 0.354452
O O4 0.890383 0.902716 0.394930
O O5 0.883382 0.377367 0.912882
O O6 0.699834 0.301092 0.836793
O O7 0.773405 0.254550 0.997802
O O8 0.250000 0.500000 0.089966
O O9 0.503955 0.510032 0.104032
O O10 0.372777 0.468459 0.243189
O O11 0.250000 0.000000 0.018841
O O12 0.352569 0.117323 0.931883
O O13 0.500000 0.000000 0.000000
O O14 0.250000 0.500000 0.889252
O O15 0.372167 0.382931 0.805861
O O16 0.286400 0.236727 0.825457
O O17 0.500000 0.738754 0.250000
#
# Coordination Sequence:
#
# PCOD8222484 Si02
#       7
#     8   8   8   8   8   8   8
#     4  11  24  45  71 107 137 179 235 278 353 422
#     4  11  24  40  68  95 143 186 231 297 347 416
#     4  10  18  36  60  87 128 186 233 281 343 397
#     4  11  24  50  77  99 145 181 215 286 348 416
#     4  10  19  33  59  91 127 183 235 286 350 387
#     4  11  27  44  70 107 136 183 230 286 355 422
#     4  12  23  41  66  96 140 185 237 291 346 420
#
# _framework density 21.153697999999999
#
# number of rings (size 3 to 8) (size 9 to 14) (size 15 to 20)
#    0.000    1.143    7.143    0.000    8.000    0.000 
#    2.571    1.429    0.000    0.000    0.000    0.000 
#    0.000    0.000    0.000    0.000    0.000    0.000 
#
# Total GULP energy -694075.778245 kJ/mol
# GULP energy per Si atom -12394.210326 kJ/mol
# Density = 2.110555 g / cm^3
# Si number density = 21.153698 Si / 1000 Ang^3
#
#
#
# Elastic Constant Matrix: (Units=GPa)
#
#
# Indices 1 2 3 4 5 6 
#
# 1 164.2907 48.7242 10.6724 0.0000 0.0000 0.0000
# 2 48.7242 128.0767 23.0580 0.0000 0.0000 0.0000
# 3 10.6724 23.0580 53.0566 0.0000 0.0000 0.0000
# 4 0.0000 0.0000 0.0000 12.5972 0.0000 0.0000
# 5 0.0000 0.0000 0.0000 0.0000 22.9138 0.0000
# 6 0.0000 0.0000 0.0000 0.0000 0.0000 41.9187
#
#
#
# Elastic Compliance Matrix: (Units=1/GPa)
#
#
# Indices 1 2 3 4 5 6 
#
# 1 0.006864 -0.002563 -0.000267 0.000000 0.000000 0.000000
# 2 -0.002563 0.009428 -0.003582 0.000000 0.000000 0.000000
# 3 -0.000267 -0.003582 0.020458 0.000000 0.000000 0.000000
# 4 0.000000 0.000000 0.000000 0.079383 0.000000 0.000000
# 5 0.000000 0.000000 0.000000 0.000000 0.043642 0.000000
# 6 0.000000 0.000000 0.000000 0.000000 0.000000 0.023856
#
#
# Mechanical properties :
#
#
# Convention : Reuss Voigt Hill
#
# Bulk Modulus (GPa) = 41.79440 56.70370 49.24905
# Shear Modulus (GPa) = 24.45830 33.01723 28.73776
#
# Velocity S-wave (km/s) = 3.40401 3.95501 3.68981
# Velocity P-wave (km/s) = 5.93718 6.90796 6.44089
#
# Compressibility (1/GPa) = 0.02392665
#
# Stress axis : x y z
#
# Youngs Moduli (GPa) = 145.68073 106.06905 48.88058
#
# Poissons Ratio (x) = 0.27189 0.01304
# Poissons Ratio (y) = 0.37343 0.17507
# Poissons Ratio (z) = 0.03886 0.37990
#
# Static dielectric constant tensor:
#      x y z
#    x 4.569430 0.000000 0.000000 
#    y 0.000000 3.954540 0.000000 
#    z 0.000000 0.000000 3.512800 
# 
# 
# High freq. dielectric constant tensor:
#      x y z
#    x 1.853580 0.000000 0.000000 
#    y 0.000000 1.832020 0.000000 
#    z 0.000000 0.000000 1.802120 
# 
# From -- ./inp_files/12737.got.cif
#   From: 2010.03.12/outbox.cif.g09.slc.cpg/sg54_7_cif.got.tgz:12737.got - 2010.04.16 15:00:50.
