data_PCOD8222417
_publ_section_title
;
Structure prediction by ZEFSAII (Michael W. Deem and Ramdas Pophale) SiO2 
 PCOD8222417
Probable space group: P C C A
;
_chemical_formula_sum "Si O2"
_cell_formula_units_Z 48
_cell_length_a 9.533382
_cell_length_b 10.758154
_cell_length_c 25.924613
_cell_angle_alpha 90.000000
_cell_angle_beta 90.000000
_cell_angle_gamma 90.000000
_cell_volume 2658.869573
_symmetry_space_group_name_H-M "P C C A"
_symmetry_group_IT_number 54
_symmetry_cell_setting 'orthorhombic'
loop_
_space_group_symop_operation_xyz
x,y,z
1/2-x,-y,z
1/2+x,-y,1/2-z
-x,y,1/2-z
-x,-y,-z
1/2+x,y,-z
1/2-x,y,1/2+z
x,-y,1/2+z
loop_
_atom_site_type_symbol
_atom_site_label
_atom_site_fract_x
_atom_site_fract_y
_atom_site_fract_z
Si Si1 0.563903 0.205348 0.354294
Si Si2 0.913943 0.636886 0.948923
Si Si3 0.500000 0.655278 0.750000
Si Si4 0.625237 0.280689 0.842140
Si Si5 0.412573 0.972021 0.200917
Si Si6 0.913410 0.346554 0.953873
Si Si7 0.250000 0.500000 0.221076
O O1 0.502394 0.268441 0.302905
O O2 0.728727 0.222153 0.357966
O O3 0.511432 0.266400 0.407909
O O4 0.536835 0.057055 0.348032
O O5 0.962523 0.693997 0.894158
O O6 0.941267 0.490671 0.943140
O O7 0.752720 0.672762 0.960273
O O8 0.010391 0.695230 0.993517
O O9 0.642418 0.575960 0.743726
O O10 0.549501 0.173186 0.808879
O O11 0.651169 0.410573 0.813156
O O12 0.500000 0.016374 0.250000
O O13 0.250000 0.000000 0.213468
#
# Coordination Sequence:
#
# PCOD8222417 Si02
#       7
#     8   8   4   8   8   8   4
#     4   9  17  33  52  71  99 140 172 203 252 310
#     4   9  16  31  50  74  97 128 167 212 256 305
#     4  10  18  32  50  72 104 132 170 210 254 310
#     4   9  18  32  52  73 101 134 171 206 254 315
#     4  10  20  35  54  74 100 139 179 211 250 308
#     4   9  17  30  52  72  99 131 168 209 255 306
#     4  10  20  32  50  76 102 136 166 212 264 308
#
# _framework density 18.052783999999999
#
# number of rings (size 3 to 8) (size 9 to 14) (size 15 to 20)
#    0.000    2.667    0.833    3.000    1.167    0.000 
#    0.000    7.500    0.000    0.000    0.000    0.000 
#    0.000    0.000    0.000    0.000    0.000    0.000 
#
# Total GULP energy -594666.773445 kJ/mol
# GULP energy per Si atom -12388.891113 kJ/mol
# Density = 1.801170 g / cm^3
# Si number density = 18.052784 Si / 1000 Ang^3
#
#
#
# Elastic Constant Matrix: (Units=GPa)
#
#
# Indices 1 2 3 4 5 6 
#
# 1 45.0355 22.2201 41.2944 0.0000 0.0000 0.0000
# 2 22.2201 95.8250 49.2666 0.0000 0.0000 0.0000
# 3 41.2944 49.2666 121.0658 0.0000 0.0000 0.0000
# 4 0.0000 0.0000 0.0000 135.3819 0.0000 0.0000
# 5 0.0000 0.0000 0.0000 0.0000 30.0470 0.0000
# 6 0.0000 0.0000 0.0000 0.0000 0.0000 12.8046
#
#
#
# Elastic Compliance Matrix: (Units=1/GPa)
#
#
# Indices 1 2 3 4 5 6 
#
# 1 0.032719 -0.002338 -0.010209 0.000000 0.000000 0.000000
# 2 -0.002338 0.013364 -0.004641 0.000000 0.000000 0.000000
# 3 -0.010209 -0.004641 0.013630 0.000000 0.000000 0.000000
# 4 0.000000 0.000000 0.000000 0.007387 0.000000 0.000000
# 5 0.000000 0.000000 0.000000 0.000000 0.033281 0.000000
# 6 0.000000 0.000000 0.000000 0.000000 0.000000 0.078097
#
#
# Mechanical properties :
#
#
# Convention : Reuss Voigt Hill
#
# Bulk Modulus (GPa) = 39.46637 54.16541 46.81589
# Shear Modulus (GPa) = 22.59386 45.58972 34.09179
#
# Velocity S-wave (km/s) = 3.54156 5.03074 4.35035
# Velocity P-wave (km/s) = 6.21551 7.98834 7.15703
#
# Compressibility (1/GPa) = 0.02533803
#
# Stress axis : x y z
#
# Youngs Moduli (GPa) = 30.56329 74.82872 73.36493
#
# Poissons Ratio (x) = 0.17498 0.74895
# Poissons Ratio (y) = 0.07147 0.34046
# Poissons Ratio (z) = 0.31201 0.34726
#
# Static dielectric constant tensor:
#      x y z
#    x 3.120660 0.000000 0.000000 
#    y 0.000000 3.682380 0.000000 
#    z 0.000000 0.000000 3.507840 
# 
# 
# High freq. dielectric constant tensor:
#      x y z
#    x 1.666540 0.000000 0.000000 
#    y 0.000000 1.698290 0.000000 
#    z 0.000000 0.000000 1.695510 
# 
# From -- ./inp_files/24172.got.cif
#   From: 2010.03.12/outbox.cif.g09.slc.cpg/sg54_13_cif.got.tgz:24172.got - 2010.04.16 15:00:50.
