data_PCOD8222357
_publ_section_title
;
Structure prediction by ZEFSAII (Michael W. Deem and Ramdas Pophale) SiO2 
 PCOD8222357
Probable space group: P C C A
;
_chemical_formula_sum "Si O2"
_cell_formula_units_Z 44
_cell_length_a 13.214994
_cell_length_b 8.695223
_cell_length_c 17.868125
_cell_angle_alpha 90.000000
_cell_angle_beta 90.000000
_cell_angle_gamma 90.000000
_cell_volume 2053.178353
_symmetry_space_group_name_H-M "P C C A"
_symmetry_group_IT_number 54
_symmetry_cell_setting 'orthorhombic'
loop_
_space_group_symop_operation_xyz
x,y,z
1/2-x,-y,z
1/2+x,-y,1/2-z
-x,y,1/2-z
-x,-y,-z
1/2+x,y,-z
1/2-x,y,1/2+z
x,-y,1/2+z
loop_
_atom_site_type_symbol
_atom_site_label
_atom_site_fract_x
_atom_site_fract_y
_atom_site_fract_z
Si Si1 0.078995 0.627522 0.974650
Si Si2 0.851469 0.294284 0.729504
Si Si3 0.435644 0.786223 0.132531
Si Si4 0.500000 0.965543 0.750000
Si Si5 0.776536 0.677086 0.395614
Si Si6 0.250000 0.500000 0.873662
Si Si7 0.500000 0.548083 0.250000
O O1 0.154430 0.528669 0.924990
O O2 0.022222 0.764678 0.929959
O O3 0.138661 0.714229 0.041867
O O4 0.000000 0.500000 0.000000
O O5 0.910976 0.136753 0.712037
O O6 0.822901 0.286144 0.815599
O O7 0.758059 0.338857 0.675324
O O8 0.921025 0.439953 0.707867
O O9 0.324090 0.783082 0.094511
O O10 0.438248 0.643895 0.189439
O O11 0.453695 0.938738 0.181283
O O12 0.750000 0.500000 0.404238
#
# Coordination Sequence:
#
# PCOD8222357 Si02
#       7
#     8   8   8   4   8   4   4
#     4  12  23  40  69 106 141 173 234 301 352 412
#     4  11  22  41  68 105 129 178 240 293 349 406
#     4  11  22  43  65 100 139 185 225 285 363 415
#     4  10  28  44  70  98 152 184 230 298 360 438
#     4  12  22  40  70 104 134 177 232 302 352 412
#     4  12  22  38  74 104 126 174 242 304 334 416
#     4  10  16  34  68  94 126 164 228 296 328 392
#
# _framework density 21.43019
#
# number of rings (size 3 to 8) (size 9 to 14) (size 15 to 20)
#    0.000    0.727    7.273    0.000    5.091    0.727 
#    0.000    0.909    4.000    0.000    0.000    0.000 
#    0.000    0.000    0.000    0.000    0.000    0.000 
#
# Total GULP energy -545415.673932 kJ/mol
# GULP energy per Si atom -12395.810771 kJ/mol
# Density = 2.138141 g / cm^3
# Si number density = 21.430190 Si / 1000 Ang^3
#
#
#
# Elastic Constant Matrix: (Units=GPa)
#
#
# Indices 1 2 3 4 5 6 
#
# 1 140.8091 54.0849 73.2920 0.0000 0.0000 0.0000
# 2 54.0849 106.2600 39.2628 0.0000 0.0000 0.0000
# 3 73.2920 39.2628 126.5007 0.0000 0.0000 0.0000
# 4 0.0000 0.0000 0.0000 10.5580 0.0000 0.0000
# 5 0.0000 0.0000 0.0000 0.0000 43.9334 0.0000
# 6 0.0000 0.0000 0.0000 0.0000 0.0000 32.5014
#
#
#
# Elastic Compliance Matrix: (Units=1/GPa)
#
#
# Indices 1 2 3 4 5 6 
#
# 1 0.011376 -0.003789 -0.005415 0.000000 0.000000 0.000000
# 2 -0.003789 0.011892 -0.001496 0.000000 0.000000 0.000000
# 3 -0.005415 -0.001496 0.011506 0.000000 0.000000 0.000000
# 4 0.000000 0.000000 0.000000 0.094714 0.000000 0.000000
# 5 0.000000 0.000000 0.000000 0.000000 0.022762 0.000000
# 6 0.000000 0.000000 0.000000 0.000000 0.000000 0.030768
#
#
# Mechanical properties :
#
#
# Convention : Reuss Voigt Hill
#
# Bulk Modulus (GPa) = 74.76598 78.53878 76.65238
# Shear Modulus (GPa) = 23.93762 31.19392 27.56577
#
# Velocity S-wave (km/s) = 3.34579 3.81938 3.59040
# Velocity P-wave (km/s) = 7.06326 7.49523 7.28245
#
# Compressibility (1/GPa) = 0.01337507
#
# Stress axis : x y z
#
# Youngs Moduli (GPa) = 87.90653 84.08855 86.90753
#
# Poissons Ratio (x) = 0.31864 0.47058
# Poissons Ratio (y) = 0.33311 0.12998
# Poissons Ratio (z) = 0.47599 0.12576
#
# Static dielectric constant tensor:
#      x y z
#    x 4.966460 0.000000 0.000000 
#    y 0.000000 3.597150 0.000000 
#    z 0.000000 0.000000 4.447350 
# 
# 
# High freq. dielectric constant tensor:
#      x y z
#    x 1.863580 0.000000 0.000000 
#    y 0.000000 1.804900 0.000000 
#    z 0.000000 0.000000 1.844330 
# 
# From -- ./inp_files/17957.got.cif
#   From: 2010.03.12/outbox.cif.g09.slc.cpg/sg54_9_cif.got.tgz:17957.got - 2010.04.16 15:00:50.
