data_PCOD8222125
_publ_section_title
;
Structure prediction by ZEFSAII (Michael W. Deem and Ramdas Pophale) SiO2 
 PCOD8222125
Probable space group: P M N A
;
_chemical_formula_sum "Si O2"
_cell_formula_units_Z 24
_cell_length_a 27.926740
_cell_length_b 8.148433
_cell_length_c 4.895065
_cell_angle_alpha 90.000000
_cell_angle_beta 90.000000
_cell_angle_gamma 90.000000
_cell_volume 1113.916928
_symmetry_space_group_name_H-M "P M N A"
_symmetry_group_IT_number 53
_symmetry_cell_setting 'orthorhombic'
loop_
_space_group_symop_operation_xyz
x,y,z
1/2-x,-y,1/2+z
x,-y,-z
1/2-x,y,1/2-z
-x,-y,-z
1/2+x,y,1/2-z
-x,y,z
1/2+x,-y,1/2+z
loop_
_atom_site_type_symbol
_atom_site_label
_atom_site_fract_x
_atom_site_fract_y
_atom_site_fract_z
Si Si1 0.201393 0.183197 0.392521
Si Si2 0.448358 0.615766 0.246938
Si Si3 0.349674 0.687272 0.401675
O O1 0.250000 0.247973 0.250000
O O2 0.187850 0.293924 0.653216
O O3 0.207699 0.000000 0.500000
O O4 0.161369 0.192787 0.155650
O O5 0.456388 0.500000 0.500000
O O6 0.500000 0.706519 0.189930
O O7 0.403420 0.737177 0.300066
O O8 0.432967 0.500000 0.000000
O O9 0.347634 0.500000 0.500000
#
# Coordination Sequence:
#
# PCOD8222125 Si02
#       3
#     8   8   8
#     4  12  25  43  61  81 118 164 199 234 296 366
#     4   9  17  32  56  87 121 152 185 232 292 352
#     4  11  22  39  64  93 118 147 197 253 291 331
#
# _framework density 21.545590000000001
#
# number of rings (size 3 to 8) (size 9 to 14) (size 15 to 20)
#    0.000    1.333    0.000    9.000    0.000    2.667 
#    0.000    3.333    0.000    6.000    0.000    0.000 
#    0.000    0.000    0.000    0.000    0.000    0.000 
#
# Total GULP energy -297399.853017 kJ/mol
# GULP energy per Si atom -12391.660542 kJ/mol
# Density = 2.149655 g / cm^3
# Si number density = 21.545590 Si / 1000 Ang^3
#
#
#
# Elastic Constant Matrix: (Units=GPa)
#
#
# Indices 1 2 3 4 5 6 
#
# 1 140.7894 44.0730 50.6834 0.0000 0.0000 0.0000
# 2 44.0730 34.7844 23.6198 0.0000 0.0000 0.0000
# 3 50.6834 23.6198 154.1398 0.0000 0.0000 0.0000
# 4 0.0000 0.0000 0.0000 41.8257 0.0000 0.0000
# 5 0.0000 0.0000 0.0000 0.0000 36.4777 0.0000
# 6 0.0000 0.0000 0.0000 0.0000 0.0000 7.6356
#
#
#
# Elastic Compliance Matrix: (Units=1/GPa)
#
#
# Indices 1 2 3 4 5 6 
#
# 1 0.012221 -0.014237 -0.001837 0.000000 0.000000 0.000000
# 2 -0.014237 0.048673 -0.002777 0.000000 0.000000 0.000000
# 3 -0.001837 -0.002777 0.007517 0.000000 0.000000 0.000000
# 4 0.000000 0.000000 0.000000 0.023909 0.000000 0.000000
# 5 0.000000 0.000000 0.000000 0.000000 0.027414 0.000000
# 6 0.000000 0.000000 0.000000 0.000000 0.000000 0.130965
#
#
# Mechanical properties :
#
#
# Convention : Reuss Voigt Hill
#
# Bulk Modulus (GPa) = 32.56357 62.94065 47.75211
# Shear Modulus (GPa) = 16.74276 31.27696 24.00986
#
# Velocity S-wave (km/s) = 2.79065 3.81420 3.34185
# Velocity P-wave (km/s) = 5.05275 6.97666 6.09114
#
# Compressibility (1/GPa) = 0.03070916
#
# Stress axis : x y z
#
# Youngs Moduli (GPa) = 81.82789 20.54535 133.02946
#
# Poissons Ratio (x) = 0.29250 0.24434
# Poissons Ratio (y) = 1.16497 0.36944
# Poissons Ratio (z) = 0.15030 0.05706
#
# Static dielectric constant tensor:
#      x y z
#    x 4.814670 0.000000 0.000000 
#    y 0.000000 3.283240 0.000000 
#    z 0.000000 0.000000 4.343110 
# 
# 
# High freq. dielectric constant tensor:
#      x y z
#    x 1.869260 0.000000 0.000000 
#    y 0.000000 1.774560 0.000000 
#    z 0.000000 0.000000 1.883410 
# 
# From -- ./inp_files/4069.got.cif
#   From: 2010.03.12/outbox.cif.g09.slc.cpg/sg53_3_cif.got.tgz:4069.got - 2010.04.16 14:36:59.
