data_PCOD8222297
_publ_section_title
;
Structure prediction by ZEFSAII (Michael W. Deem and Ramdas Pophale) SiO2 
 PCOD8222297
Probable space group: P C C A
;
_chemical_formula_sum "Si O2"
_cell_formula_units_Z 40
_cell_length_a 12.140499
_cell_length_b 22.180652
_cell_length_c 5.424818
_cell_angle_alpha 90.000000
_cell_angle_beta 90.000000
_cell_angle_gamma 90.000000
_cell_volume 1460.817685
_symmetry_space_group_name_H-M "P C C A"
_symmetry_group_IT_number 54
_symmetry_cell_setting 'orthorhombic'
loop_
_space_group_symop_operation_xyz
x,y,z
1/2-x,-y,z
1/2+x,-y,1/2-z
-x,y,1/2-z
-x,-y,-z
1/2+x,y,-z
1/2-x,y,1/2+z
x,-y,1/2+z
loop_
_atom_site_type_symbol
_atom_site_label
_atom_site_fract_x
_atom_site_fract_y
_atom_site_fract_z
Si Si1 0.375335 0.524216 0.608683
Si Si2 0.370079 0.165925 0.607880
Si Si3 0.379076 0.025560 0.515971
Si Si4 0.318508 0.343822 0.052328
Si Si5 0.621217 0.214030 0.392802
O O1 0.250000 0.500000 0.645238
O O2 0.431049 0.512318 0.878797
O O3 0.387553 0.594725 0.547775
O O4 0.367651 0.096640 0.537036
O O5 0.432241 0.200809 0.380174
O O6 0.248901 0.194465 0.648683
O O7 0.428611 0.174818 0.877123
O O8 0.500000 0.000000 0.500000
O O9 0.321872 0.994828 0.757367
O O10 0.248400 0.342396 0.804858
O O11 0.394704 0.284597 0.047173
#
# Coordination Sequence:
#
# PCOD8222297 Si02
#       5
#     8   8   8   8   8
#     4  10  16  22  31  49  73 108 153 198 222 235
#     4  10  18  32  48  65  90 112 142 182 222 272
#     4  10  21  37  54  70  87 111 142 179 220 274
#     4  12  16  25  38  53  82 114 151 193 221 259
#     4  10  19  30  43  67  90 119 148 184 228 264
#
# _framework density 27.381926
#
# number of rings (size 3 to 8) (size 9 to 14) (size 15 to 20)
#    0.000    1.600    8.000    1.200    0.000    0.000 
#    0.000   12.000    0.000    0.000    0.000    0.000 
#    0.000    0.000    0.000    0.000    0.000    0.000 
#
# Total GULP energy -495870.517159 kJ/mol
# GULP energy per Si atom -12396.762929 kJ/mol
# Density = 2.731960 g / cm^3
# Si number density = 27.381926 Si / 1000 Ang^3
#
#
#
# Elastic Constant Matrix: (Units=GPa)
#
#
# Indices 1 2 3 4 5 6 
#
# 1 80.0971 -4.2626 19.1922 0.0000 0.0000 0.0000
# 2 -4.2626 230.1003 53.1013 0.0000 0.0000 0.0000
# 3 19.1922 53.1013 307.3040 0.0000 0.0000 0.0000
# 4 0.0000 0.0000 0.0000 59.3602 0.0000 0.0000
# 5 0.0000 0.0000 0.0000 0.0000 238.2996 0.0000
# 6 0.0000 0.0000 0.0000 0.0000 0.0000 23.1659
#
#
#
# Elastic Compliance Matrix: (Units=1/GPa)
#
#
# Indices 1 2 3 4 5 6 
#
# 1 0.012716 0.000436 -0.000870 0.000000 0.000000 0.000000
# 2 0.000436 0.004541 -0.000812 0.000000 0.000000 0.000000
# 3 -0.000870 -0.000812 0.003449 0.000000 0.000000 0.000000
# 4 0.000000 0.000000 0.000000 0.016846 0.000000 0.000000
# 5 0.000000 0.000000 0.000000 0.000000 0.004196 0.000000
# 6 0.000000 0.000000 0.000000 0.000000 0.000000 0.043167
#
#
# Mechanical properties :
#
#
# Convention : Reuss Voigt Hill
#
# Bulk Modulus (GPa) = 54.89705 83.72926 69.31316
# Shear Modulus (GPa) = 53.48809 100.79651 77.14230
#
# Velocity S-wave (km/s) = 4.42453 6.07382 5.31356
# Velocity P-wave (km/s) = 6.79663 8.93493 7.93811
#
# Compressibility (1/GPa) = 0.01821591
#
# Stress axis : x y z
#
# Youngs Moduli (GPa) = 78.63852 220.19654 289.96243
#
# Poissons Ratio (x) = -0.09606 0.25214
# Poissons Ratio (y) = -0.03431 0.23545
# Poissons Ratio (z) = 0.06838 0.17880
#
# Static dielectric constant tensor:
#      x y z
#    x 0.000000 0.000000 0.000000 
#    y 0.000000 0.000000 0.000000 
#    z 0.000000 0.000000 0.000000 
# 
# 
# High freq. dielectric constant tensor:
#      x y z
#    x 2.156210 0.000000 0.000000 
#    y 0.000000 2.087320 0.000000 
#    z 0.000000 0.000000 2.167300 
# 
# From -- ./inp_files/975.got.cif
#   From: 2010.03.12/outbox.cif.g09.slc.cpg/sg54_1_cif.got.tgz:975.got - 2010.04.16 15:00:50.
