data_PCOD8222642
_publ_section_title
;
Structure prediction by ZEFSAII (Michael W. Deem and Ramdas Pophale) SiO2 
 PCOD8222642
Probable space group: P C C A
;
_chemical_formula_sum "Si O2"
_cell_formula_units_Z 56
_cell_length_a 15.993228
_cell_length_b 32.714157
_cell_length_c 5.082392
_cell_angle_alpha 90.000000
_cell_angle_beta 90.000000
_cell_angle_gamma 90.000000
_cell_volume 2659.132763
_symmetry_space_group_name_H-M "P C C A"
_symmetry_group_IT_number 54
_symmetry_cell_setting 'orthorhombic'
loop_
_space_group_symop_operation_xyz
x,y,z
1/2-x,-y,z
1/2+x,-y,1/2-z
-x,y,1/2-z
-x,-y,-z
1/2+x,y,-z
1/2-x,y,1/2+z
x,-y,1/2+z
loop_
_atom_site_type_symbol
_atom_site_label
_atom_site_fract_x
_atom_site_fract_y
_atom_site_fract_z
Si Si1 0.943648 0.171875 0.503564
Si Si2 0.535731 0.545785 0.499491
Si Si3 0.307796 0.760563 0.041174
Si Si4 0.301907 0.672595 0.131054
Si Si5 0.404255 0.026072 0.248174
Si Si6 0.193397 0.106928 0.843667
Si Si7 0.197754 0.583930 0.590328
O O1 0.883990 0.208830 0.417518
O O2 0.887694 0.134310 0.603664
O O3 0.000000 0.159397 0.250000
O O4 0.000000 0.185771 0.750000
O O5 0.500000 0.570076 0.250000
O O6 0.500000 0.500000 0.500000
O O7 0.635383 0.547407 0.486934
O O8 0.500000 0.569646 0.750000
O O9 0.236567 0.767523 0.261155
O O10 0.349603 0.714907 0.063192
O O11 0.279719 0.673266 0.440136
O O12 0.346397 0.629061 0.062319
O O13 0.500000 0.042162 0.250000
O O14 0.339388 0.060752 0.332689
O O15 0.387824 0.989116 0.451573
O O16 0.237523 0.116119 0.565962
O O17 0.274409 0.578705 0.390765
#
# Coordination Sequence:
#
# PCOD8222642 Si02
#       7
#     8   8   8   8   8   8   8
#     4  12  25  41  60  85 120 155 192 238 285 340
#     4  10  21  38  53  74 110 145 177 225 288 334
#     4  10  19  37  61  85 114 149 187 229 280 339
#     4   8  16  30  54  83 110 139 179 230 279 327
#     4  10  22  40  62  88 120 154 187 233 296 351
#     4  12  25  41  63  89 117 155 202 244 287 340
#     4  10  19  35  58  83 106 142 192 233 271 333
#
# _framework density 21.059494999999998
#
# number of rings (size 3 to 8) (size 9 to 14) (size 15 to 20)
#    0.000    1.714    0.000    4.714    0.000    3.429 
#    0.000   10.000    0.000    0.000    0.000    0.000 
#    0.000    0.000    0.000    0.000    0.000    0.000 
#
# Total GULP energy -693797.698257 kJ/mol
# GULP energy per Si atom -12389.244612 kJ/mol
# Density = 2.101156 g / cm^3
# Si number density = 21.059495 Si / 1000 Ang^3
#
#
#
# Elastic Constant Matrix: (Units=GPa)
#
#
# Indices 1 2 3 4 5 6 
#
# 1 79.8022 43.0066 21.9614 0.0000 0.0000 0.0000
# 2 43.0066 87.1108 8.0010 0.0000 0.0000 0.0000
# 3 21.9614 8.0010 128.1526 0.0000 0.0000 0.0000
# 4 0.0000 0.0000 0.0000 -263.7611 0.0000 0.0000
# 5 0.0000 0.0000 0.0000 0.0000 38.1163 0.0000
# 6 0.0000 0.0000 0.0000 0.0000 0.0000 20.1587
#
#
#
# Elastic Compliance Matrix: (Units=1/GPa)
#
#
# Indices 1 2 3 4 5 6 
#
# 1 0.017850 -0.008581 -0.002523 0.000000 0.000000 0.000000
# 2 -0.008581 0.015671 0.000492 0.000000 0.000000 0.000000
# 3 -0.002523 0.000492 0.008205 0.000000 0.000000 0.000000
# 4 0.000000 0.000000 0.000000 -0.003791 0.000000 0.000000
# 5 0.000000 0.000000 0.000000 0.000000 0.026235 0.000000
# 6 0.000000 0.000000 0.000000 0.000000 0.000000 0.049606
#
#
# Mechanical properties :
#
#
# Convention : Reuss Voigt Hill
#
# Bulk Modulus (GPa) = 48.77625 49.00040 48.88832
# Shear Modulus (GPa) = 35.25277 -26.29077 4.48100
#
# Velocity S-wave (km/s) = 4.09585 -3.53711 1.46027
# Velocity P-wave (km/s) = 6.75125 2.57616 5.10960
#
# Compressibility (1/GPa) = 0.02050178
#
# Stress axis : x y z
#
# Youngs Moduli (GPa) = 56.02391 63.81353 121.87897
#
# Poissons Ratio (x) = 0.54756 0.30752
# Poissons Ratio (y) = 0.48072 -0.05997
# Poissons Ratio (z) = 0.14136 -0.03140
#
# Static dielectric constant tensor:
#      x y z
#    x 3.615140 0.000000 0.000000 
#    y 0.000000 3.894550 0.000000 
#    z 0.000000 0.000000 4.456520 
# 
# 
# High freq. dielectric constant tensor:
#      x y z
#    x 1.791840 0.000000 0.000000 
#    y 0.000000 1.823650 0.000000 
#    z 0.000000 0.000000 1.856220 
# 
# From -- ./inp_files/721.got.cif
#   From: 2010.03.12/outbox.cif.g09.slc.cpg/sg54_1_cif.got.tgz:721.got - 2010.04.16 15:00:50.
