data_PCOD8222076
_publ_section_title
;
Structure prediction by ZEFSAII (Michael W. Deem and Ramdas Pophale) SiO2 
 PCOD8222076
Probable space group: P M N A
;
_chemical_formula_sum "Si O2"
_cell_formula_units_Z 40
_cell_length_a 17.214363
_cell_length_b 9.104960
_cell_length_c 12.071311
_cell_angle_alpha 90.000000
_cell_angle_beta 90.000000
_cell_angle_gamma 90.000000
_cell_volume 1892.010046
_symmetry_space_group_name_H-M "P M N A"
_symmetry_group_IT_number 53
_symmetry_cell_setting 'orthorhombic'
loop_
_space_group_symop_operation_xyz
x,y,z
1/2-x,-y,1/2+z
x,-y,-z
1/2-x,y,1/2-z
-x,-y,-z
1/2+x,y,1/2-z
-x,y,z
1/2+x,-y,1/2+z
loop_
_atom_site_type_symbol
_atom_site_label
_atom_site_fract_x
_atom_site_fract_y
_atom_site_fract_z
Si Si1 0.157429 0.670686 0.107484
Si Si2 0.908985 0.639888 0.870628
Si Si3 0.668085 0.154665 0.196033
Si Si4 0.090527 0.850616 0.301692
Si Si5 0.328498 0.665391 0.025381
O O1 0.133850 0.512705 0.157135
O O2 0.132111 0.799524 0.189172
O O3 0.249906 0.671504 0.096494
O O4 0.116172 0.699436 0.990376
O O5 0.887519 0.758565 0.779255
O O6 0.000000 0.609922 0.869318
O O7 0.750000 0.115682 0.250000
O O8 0.625221 0.006083 0.161397
O O9 0.684609 0.249813 0.088188
O O10 0.103577 0.737171 0.401894
O O11 0.000000 0.865208 0.278056
O O12 0.353887 0.500000 0.000000
#
# Coordination Sequence:
#
# PCOD8222076 Si02
#       5
#     8   8   8   8   8
#     4  11  21  44  67 100 133 168 224 266 329 395
#     4  11  22  40  71 102 135 170 212 275 331 386
#     4  12  24  44  66  97 137 177 223 268 328 397
#     4  12  28  44  65  97 136 177 220 274 332 387
#     4  12  24  44  73  98 128 176 224 273 325 395
#
# _framework density 21.141538000000001
#
# number of rings (size 3 to 8) (size 9 to 14) (size 15 to 20)
#    0.000    0.400    4.000    6.600    0.000    3.600 
#    0.000    2.000    0.000    0.000    0.000    0.000 
#    0.000    0.000    0.000    0.000    0.000    0.000 
#
# Total GULP energy -496369.415760 kJ/mol
# GULP energy per Si atom -12409.235394 kJ/mol
# Density = 2.109342 g / cm^3
# Si number density = 21.141538 Si / 1000 Ang^3
#
#
#
# Elastic Constant Matrix: (Units=GPa)
#
#
# Indices 1 2 3 4 5 6 
#
# 1 56.0648 30.0692 10.5949 0.0000 0.0000 0.0000
# 2 30.0692 126.8931 34.5271 0.0000 0.0000 0.0000
# 3 10.5949 34.5271 59.0687 0.0000 0.0000 0.0000
# 4 0.0000 0.0000 0.0000 33.4217 0.0000 0.0000
# 5 0.0000 0.0000 0.0000 0.0000 30.4734 0.0000
# 6 0.0000 0.0000 0.0000 0.0000 0.0000 24.1586
#
#
#
# Elastic Compliance Matrix: (Units=1/GPa)
#
#
# Indices 1 2 3 4 5 6 
#
# 1 0.020482 -0.004583 -0.000995 0.000000 0.000000 0.000000
# 2 -0.004583 0.010396 -0.005255 0.000000 0.000000 0.000000
# 3 -0.000995 -0.005255 0.020180 0.000000 0.000000 0.000000
# 4 0.000000 0.000000 0.000000 0.029921 0.000000 0.000000
# 5 0.000000 0.000000 0.000000 0.000000 0.032815 0.000000
# 6 0.000000 0.000000 0.000000 0.000000 0.000000 0.041393
#
#
# Mechanical properties :
#
#
# Convention : Reuss Voigt Hill
#
# Bulk Modulus (GPa) = 34.02205 43.60102 38.81153
# Shear Modulus (GPa) = 26.78793 28.73311 27.76052
#
# Velocity S-wave (km/s) = 3.56346 3.69057 3.62758
# Velocity P-wave (km/s) = 5.74965 6.23126 5.99529
#
# Compressibility (1/GPa) = 0.02939271
#
# Stress axis : x y z
#
# Youngs Moduli (GPa) = 48.82222 96.18631 49.55501
#
# Poissons Ratio (x) = 0.44081 0.04931
# Poissons Ratio (y) = 0.22375 0.26041
# Poissons Ratio (z) = 0.04858 0.50546
#
# Static dielectric constant tensor:
#      x y z
#    x 3.837110 0.000000 0.000000 
#    y 0.000000 3.890690 0.000000 
#    z 0.000000 0.000000 3.941440 
# 
# 
# High freq. dielectric constant tensor:
#      x y z
#    x 1.837500 0.000000 0.000000 
#    y 0.000000 1.835180 0.000000 
#    z 0.000000 0.000000 1.839310 
# 
# From -- ./inp_files/16664.got.cif
#   From: 2010.03.12/outbox.cif.g09.slc.cpg/sg53_9_cif.got.tgz:16664.got - 2010.04.16 14:36:59.
