data_PCOD8222875
_publ_section_title
;
Structure prediction by ZEFSAII (Michael W. Deem and Ramdas Pophale) SiO2 
 PCOD8222875
Probable space group: P C C A
;
_chemical_formula_sum "Si O2"
_cell_formula_units_Z 48
_cell_length_a 17.021448
_cell_length_b 14.429073
_cell_length_c 8.836069
_cell_angle_alpha 90.000000
_cell_angle_beta 90.000000
_cell_angle_gamma 90.000000
_cell_volume 2170.171379
_symmetry_space_group_name_H-M "P C C A"
_symmetry_group_IT_number 54
_symmetry_cell_setting 'orthorhombic'
loop_
_space_group_symop_operation_xyz
x,y,z
1/2-x,-y,z
1/2+x,-y,1/2-z
-x,y,1/2-z
-x,-y,-z
1/2+x,y,-z
1/2-x,y,1/2+z
x,-y,1/2+z
loop_
_atom_site_type_symbol
_atom_site_label
_atom_site_fract_x
_atom_site_fract_y
_atom_site_fract_z
Si Si1 0.586732 0.249306 0.720848
Si Si2 0.409041 0.544566 0.781826
Si Si3 0.336169 0.310244 0.478164
Si Si4 0.337523 0.615181 0.473051
Si Si5 0.314150 0.893668 0.897622
Si Si6 0.346549 0.064197 0.739997
O O1 0.500000 0.287242 0.750000
O O2 0.618521 0.287267 0.560361
O O3 0.584364 0.137185 0.723157
O O4 0.645973 0.287501 0.848508
O O5 0.500000 0.522341 0.750000
O O6 0.404251 0.625863 0.906972
O O7 0.363230 0.575981 0.633191
O O8 0.364596 0.453459 0.839534
O O9 0.255597 0.368242 0.469285
O O10 0.336109 0.214379 0.383172
O O11 0.225223 0.903874 0.845140
O O12 0.369370 0.958763 0.789128
O O13 0.322374 0.932615 0.066210
#
# Coordination Sequence:
#
# PCOD8222875 Si02
#       6
#     8   8   8   8   8   8
#     4  11  23  42  65  96 135 173 215 270 333 386
#     4  12  26  43  66  97 131 169 210 268 336 388
#     4  11  24  42  64  97 126 173 223 267 312 393
#     4  12  24  43  68  91 129 171 219 269 318 389
#     4  10  20  36  61  92 126 164 223 264 316 373
#     4  10  20  36  62  92 127 168 213 269 319 379
#
# _framework density 22.118068999999998
#
# number of rings (size 3 to 8) (size 9 to 14) (size 15 to 20)
#    0.000    1.000    1.667    6.500    2.333    2.667 
#    0.000    4.167    0.000    0.000    0.000    0.000 
#    0.000    0.000    0.000    0.000    0.000    0.000 
#
# Total GULP energy -595132.493722 kJ/mol
# GULP energy per Si atom -12398.593619 kJ/mol
# Density = 2.206773 g / cm^3
# Si number density = 22.118069 Si / 1000 Ang^3
#
#
#
# Elastic Constant Matrix: (Units=GPa)
#
#
# Indices 1 2 3 4 5 6 
#
# 1 91.2450 46.8099 22.4272 0.0000 0.0000 0.0000
# 2 46.8099 127.4618 35.0632 0.0000 0.0000 0.0000
# 3 22.4272 35.0632 85.4927 0.0000 0.0000 0.0000
# 4 0.0000 0.0000 0.0000 38.9622 0.0000 0.0000
# 5 0.0000 0.0000 0.0000 0.0000 25.2566 0.0000
# 6 0.0000 0.0000 0.0000 0.0000 0.0000 28.8639
#
#
#
# Elastic Compliance Matrix: (Units=1/GPa)
#
#
# Indices 1 2 3 4 5 6 
#
# 1 0.013727 -0.004566 -0.001728 0.000000 0.000000 0.000000
# 2 -0.004566 0.010362 -0.003052 0.000000 0.000000 0.000000
# 3 -0.001728 -0.003052 0.013402 0.000000 0.000000 0.000000
# 4 0.000000 0.000000 0.000000 0.025666 0.000000 0.000000
# 5 0.000000 0.000000 0.000000 0.000000 0.039594 0.000000
# 6 0.000000 0.000000 0.000000 0.000000 0.000000 0.034645
#
#
# Mechanical properties :
#
#
# Convention : Reuss Voigt Hill
#
# Bulk Modulus (GPa) = 53.19598 56.97780 55.08689
# Shear Modulus (GPa) = 30.79705 31.94315 31.37010
#
# Velocity S-wave (km/s) = 3.73553 3.80440 3.77012
# Velocity P-wave (km/s) = 6.53519 6.71674 6.62659
#
# Compressibility (1/GPa) = 0.01879841
#
# Stress axis : x y z
#
# Youngs Moduli (GPa) = 72.85167 96.50889 74.61561
#
# Poissons Ratio (x) = 0.44062 0.12896
# Poissons Ratio (y) = 0.33261 0.22773
# Poissons Ratio (z) = 0.12592 0.29454
#
# Static dielectric constant tensor:
#      x y z
#    x 3.721600 0.000000 0.000000 
#    y 0.000000 4.783060 0.000000 
#    z 0.000000 0.000000 4.059730 
# 
# 
# High freq. dielectric constant tensor:
#      x y z
#    x 1.844990 0.000000 0.000000 
#    y 0.000000 1.894860 0.000000 
#    z 0.000000 0.000000 1.876080 
# 
# From -- ./inp_files/4217.got.cif
#   From: 2010.03.12/outbox.cif.g09.slc.cpg/sg54_3_cif.got.tgz:4217.got - 2010.04.16 15:00:50.
