data_PCOD8222003
_publ_section_title
;
Structure prediction by ZEFSAII (Michael W. Deem and Ramdas Pophale) SiO2 
 PCOD8222003
Probable space group: P M N A
;
_chemical_formula_sum "Si O2"
_cell_formula_units_Z 40
_cell_length_a 27.594317
_cell_length_b 17.800047
_cell_length_c 5.101617
_cell_angle_alpha 90.000000
_cell_angle_beta 90.000000
_cell_angle_gamma 90.000000
_cell_volume 2505.812950
_symmetry_space_group_name_H-M "P M N A"
_symmetry_group_IT_number 53
_symmetry_cell_setting 'orthorhombic'
loop_
_space_group_symop_operation_xyz
x,y,z
1/2-x,-y,1/2+z
x,-y,-z
1/2-x,y,1/2-z
-x,-y,-z
1/2+x,y,1/2-z
-x,y,z
1/2+x,-y,1/2+z
loop_
_atom_site_type_symbol
_atom_site_label
_atom_site_fract_x
_atom_site_fract_y
_atom_site_fract_z
Si Si1 0.597633 0.086271 0.583557
Si Si2 0.557580 0.672449 0.016943
Si Si3 0.443899 0.840842 0.924531
Si Si4 0.301939 0.051800 0.747689
Si Si5 0.442143 0.584650 0.516129
O O1 0.587086 0.135329 0.327655
O O2 0.651742 0.105029 0.694192
O O3 0.591393 0.000000 0.500000
O O4 0.561824 0.104793 0.824235
O O5 0.500000 0.670236 0.017898
O O6 0.575066 0.758361 0.003638
O O7 0.578055 0.624317 0.775570
O O8 0.578433 0.633653 0.276655
O O9 0.500000 0.840608 0.840179
O O10 0.250000 0.096484 0.750000
O O11 0.295802 0.000000 0.500000
O O12 0.312461 0.000000 0.000000
O O13 0.421834 0.500000 0.500000
O O14 0.500000 0.583316 0.513150
#
# Coordination Sequence:
#
# PCOD8222003 Si02
#       5
#     8   8   8   8   8
#     4  11  21  33  47  64  83 109 152 194 223 257
#     4   9  17  28  39  54  78 108 141 173 210 254
#     4  11  22  33  44  59  86 123 155 184 217 252
#     4   9  17  31  50  68  84 101 128 178 237 281
#     4   9  15  24  40  59  76  97 133 180 217 246
#
# _framework density 15.962884000000001
#
# number of rings (size 3 to 8) (size 9 to 14) (size 15 to 20)
#    0.000    2.200    0.000    5.400    0.000    8.000 
#    0.000    0.000    0.000    0.000    0.000    0.000 
#    0.000    0.000    0.000    0.000    0.000   56.000 
#
# Total GULP energy -495726.531219 kJ/mol
# GULP energy per Si atom -12393.163280 kJ/mol
# Density = 1.592655 g / cm^3
# Si number density = 15.962884 Si / 1000 Ang^3
#
#
#
# Elastic Constant Matrix: (Units=GPa)
#
#
# Indices 1 2 3 4 5 6 
#
# 1 47.3912 31.2512 19.6396 0.0000 0.0000 0.0000
# 2 31.2512 79.5133 32.4779 0.0000 0.0000 0.0000
# 3 19.6396 32.4779 116.7577 0.0000 0.0000 0.0000
# 4 0.0000 0.0000 0.0000 31.9475 0.0000 0.0000
# 5 0.0000 0.0000 0.0000 0.0000 19.2968 0.0000
# 6 0.0000 0.0000 0.0000 0.0000 0.0000 0.5240
#
#
#
# Elastic Compliance Matrix: (Units=1/GPa)
#
#
# Indices 1 2 3 4 5 6 
#
# 1 0.028859 -0.010559 -0.001917 0.000000 0.000000 0.000000
# 2 -0.010559 0.018052 -0.003245 0.000000 0.000000 0.000000
# 3 -0.001917 -0.003245 0.009790 0.000000 0.000000 0.000000
# 4 0.000000 0.000000 0.000000 0.031301 0.000000 0.000000
# 5 0.000000 0.000000 0.000000 0.000000 0.051822 0.000000
# 6 0.000000 0.000000 0.000000 0.000000 0.000000 1.908367
#
#
# Mechanical properties :
#
#
# Convention : Reuss Voigt Hill
#
# Bulk Modulus (GPa) = 39.59234 45.59997 42.59616
# Shear Modulus (GPa) = 2.39457 21.03991 11.71724
#
# Velocity S-wave (km/s) = 1.22611 3.63444 2.71224
# Velocity P-wave (km/s) = 5.18277 6.80003 6.04572
#
# Compressibility (1/GPa) = 0.02525741
#
# Stress axis : x y z
#
# Youngs Moduli (GPa) = 34.65182 55.39479 102.14565
#
# Poissons Ratio (x) = 0.58493 0.19581
# Poissons Ratio (y) = 0.36590 0.33150
# Poissons Ratio (z) = 0.06643 0.17978
#
# Static dielectric constant tensor:
#      x y z
#    x 3.128600 0.000000 0.000000 
#    y 0.000000 3.015390 0.000000 
#    z 0.000000 0.000000 3.287440 
# 
# 
# High freq. dielectric constant tensor:
#      x y z
#    x 1.558050 0.000000 0.000000 
#    y 0.000000 1.595100 0.000000 
#    z 0.000000 0.000000 1.644180 
# 
# From -- ./inp_files/4377.got.cif
#   From: 2010.03.12/outbox.cif.g09.slc.cpg/sg53_3_cif.got.tgz:4377.got - 2010.04.16 14:36:59.
