data_PCOD8222566
_publ_section_title
;
Structure prediction by ZEFSAII (Michael W. Deem and Ramdas Pophale) SiO2 
 PCOD8222566
Probable space group: P C C A
;
_chemical_formula_sum "Si O2"
_cell_formula_units_Z 60
_cell_length_a 26.720792
_cell_length_b 14.262560
_cell_length_c 8.943872
_cell_angle_alpha 90.000000
_cell_angle_beta 90.000000
_cell_angle_gamma 90.000000
_cell_volume 3408.571324
_symmetry_space_group_name_H-M "P C C A"
_symmetry_group_IT_number 54
_symmetry_cell_setting 'orthorhombic'
loop_
_space_group_symop_operation_xyz
x,y,z
1/2-x,-y,z
1/2+x,-y,1/2-z
-x,y,1/2-z
-x,-y,-z
1/2+x,y,-z
1/2-x,y,1/2+z
x,-y,1/2+z
loop_
_atom_site_type_symbol
_atom_site_label
_atom_site_fract_x
_atom_site_fract_y
_atom_site_fract_z
Si Si1 0.703352 0.117724 0.772201
Si Si2 0.689885 0.423118 0.986295
Si Si3 0.639300 0.237400 0.962646
Si Si4 0.837724 0.963289 0.470974
Si Si5 0.000000 0.007671 0.750000
Si Si6 0.814083 0.194670 0.771087
Si Si7 0.065055 0.914906 0.505857
Si Si8 0.794129 0.602571 0.330292
O O1 0.691737 0.076865 0.610984
O O2 0.757394 0.162078 0.781540
O O3 0.699921 0.034470 0.891351
O O4 0.662656 0.198123 0.809191
O O5 0.643131 0.350914 0.963043
O O6 0.706360 0.428970 0.157887
O O7 0.674425 0.526624 0.927832
O O8 0.737231 0.390024 0.887943
O O9 0.672464 0.196920 0.097875
O O10 0.583510 0.193918 0.981436
O O11 0.850227 0.877195 0.358361
O O12 0.889006 0.013449 0.517094
O O13 0.036892 0.939860 0.658927
O O14 0.970636 0.075936 0.637143
O O15 0.820387 0.296675 0.847486
#
# Coordination Sequence:
#
# PCOD8222566 Si02
#       8
#     8   8   8   8   4   8   8   8
#     4  11  21  33  45  67 100 146 176 210 240 285
#     4  10  19  33  49  70  98 138 175 223 239 293
#     4  10  20  34  52  72 103 129 179 215 251 291
#     4  11  22  32  50  69 104 132 179 213 254 292
#     4  10  20  36  58  70 102 128 166 202 286 336
#     4  11  21  32  46  70 101 142 179 209 241 292
#     4  10  20  36  52  77  97 133 160 215 261 324
#     4  10  20  31  49  67  99 137 185 204 254 275
#
# _framework density 17.602682000000001
#
# number of rings (size 3 to 8) (size 9 to 14) (size 15 to 20)
#    0.000    1.600    1.333    6.800    1.867    3.200 
#    0.000    0.000    0.000    0.000    0.000    0.000 
#    0.000   36.267    0.000    0.000    0.000    0.000 
#
# Total GULP energy -743820.040181 kJ/mol
# GULP energy per Si atom -12397.000670 kJ/mol
# Density = 1.756262 g / cm^3
# Si number density = 17.602682 Si / 1000 Ang^3
#
#
#
# Elastic Constant Matrix: (Units=GPa)
#
#
# Indices 1 2 3 4 5 6 
#
# 1 50.4137 39.4275 16.0678 0.0000 0.0000 0.0000
# 2 39.4275 116.2778 34.3013 0.0000 0.0000 0.0000
# 3 16.0678 34.3013 83.6085 0.0000 0.0000 0.0000
# 4 0.0000 0.0000 0.0000 29.6446 0.0000 0.0000
# 5 0.0000 0.0000 0.0000 0.0000 21.3218 0.0000
# 6 0.0000 0.0000 0.0000 0.0000 0.0000 -10.5707
#
#
#
# Elastic Compliance Matrix: (Units=1/GPa)
#
#
# Indices 1 2 3 4 5 6 
#
# 1 0.027191 -0.008736 -0.001642 0.000000 0.000000 0.000000
# 2 -0.008736 0.012591 -0.003487 0.000000 0.000000 0.000000
# 3 -0.001642 -0.003487 0.013706 0.000000 0.000000 0.000000
# 4 0.000000 0.000000 0.000000 0.033733 0.000000 0.000000
# 5 0.000000 0.000000 0.000000 0.000000 0.046900 0.000000
# 6 0.000000 0.000000 0.000000 0.000000 0.000000 -0.094601
#
#
# Mechanical properties :
#
#
# Convention : Reuss Voigt Hill
#
# Bulk Modulus (GPa) = 38.81946 47.76591 43.29268
# Shear Modulus (GPa) = 65.93234 18.77936 42.35585
#
# Velocity S-wave (km/s) = 6.12676 3.26980 4.91064
# Velocity P-wave (km/s) = 8.49415 6.43817 7.53660
#
# Compressibility (1/GPa) = 0.02576028
#
# Stress axis : x y z
#
# Youngs Moduli (GPa) = 36.77674 79.42339 72.95839
#
# Poissons Ratio (x) = 0.69382 0.11977
# Poissons Ratio (y) = 0.32127 0.25438
# Poissons Ratio (z) = 0.06037 0.27692
#
# Static dielectric constant tensor:
#      x y z
#    x 3.013310 0.000000 0.000000 
#    y 0.000000 3.636750 0.000000 
#    z 0.000000 0.000000 3.484570 
# 
# 
# High freq. dielectric constant tensor:
#      x y z
#    x 1.630590 0.000000 0.000000 
#    y 0.000000 1.680990 0.000000 
#    z 0.000000 0.000000 1.701670 
# 
# From -- ./inp_files/5631.got.cif
#   From: 2010.03.12/outbox.cif.g09.slc.cpg/sg54_3_cif.got.tgz:5631.got - 2010.04.16 15:00:50.
