data_PCOD8222091
_publ_section_title
;
Structure prediction by ZEFSAII (Michael W. Deem and Ramdas Pophale) SiO2 
 PCOD8222091
Probable space group: P M N A
;
_chemical_formula_sum "Si O2"
_cell_formula_units_Z 32
_cell_length_a 17.812843
_cell_length_b 9.071328
_cell_length_c 10.248197
_cell_angle_alpha 90.000000
_cell_angle_beta 90.000000
_cell_angle_gamma 90.000000
_cell_volume 1655.966610
_symmetry_space_group_name_H-M "P M N A"
_symmetry_group_IT_number 53
_symmetry_cell_setting 'orthorhombic'
loop_
_space_group_symop_operation_xyz
x,y,z
1/2-x,-y,1/2+z
x,-y,-z
1/2-x,y,1/2-z
-x,-y,-z
1/2+x,y,1/2-z
-x,y,z
1/2+x,-y,1/2+z
loop_
_atom_site_type_symbol
_atom_site_label
_atom_site_fract_x
_atom_site_fract_y
_atom_site_fract_z
Si Si1 0.837676 0.642638 0.770831
Si Si2 0.666553 0.329387 0.990196
Si Si3 0.320829 0.172874 0.517839
Si Si4 0.087792 0.664923 0.228114
O O1 0.750000 0.606940 0.750000
O O2 0.867385 0.711622 0.633171
O O3 0.853065 0.759312 0.884113
O O4 0.879871 0.493952 0.811446
O O5 0.603866 0.302376 0.880508
O O6 0.691972 0.500000 0.000000
O O7 0.738163 0.232855 0.951372
O O8 0.374828 0.210825 0.638095
O O9 0.316908 0.000000 0.500000
O O10 0.000000 0.667654 0.203120
#
# Coordination Sequence:
#
# PCOD8222091 Si02
#       4
#     8   8   8   8
#     4   9  19  37  59  84 109 139 187 239 277 318
#     4   9  19  37  60  84 109 138 186 239 278 322
#     4  11  22  36  58  84 112 148 188 228 271 323
#     4  11  22  36  57  84 114 147 181 224 280 335
#
# _framework density 19.324062999999999
#
# number of rings (size 3 to 8) (size 9 to 14) (size 15 to 20)
#    0.000    2.000    0.000    6.000    0.000   13.000 
#    0.000    0.000    0.000    5.250    0.000    0.000 
#    0.000    0.000    0.000    0.000    0.000    0.000 
#
# Total GULP energy -396792.385530 kJ/mol
# GULP energy per Si atom -12399.762048 kJ/mol
# Density = 1.928008 g / cm^3
# Si number density = 19.324063 Si / 1000 Ang^3
#
#
#
# Elastic Constant Matrix: (Units=GPa)
#
#
# Indices 1 2 3 4 5 6 
#
# 1 72.8745 46.3910 17.7955 0.0000 0.0000 0.0000
# 2 46.3910 103.6825 38.0483 0.0000 0.0000 0.0000
# 3 17.7955 38.0483 107.8450 0.0000 0.0000 0.0000
# 4 0.0000 0.0000 0.0000 13.8642 0.0000 0.0000
# 5 0.0000 0.0000 0.0000 0.0000 13.5920 0.0000
# 6 0.0000 0.0000 0.0000 0.0000 0.0000 1.3079
#
#
#
# Elastic Compliance Matrix: (Units=1/GPa)
#
#
# Indices 1 2 3 4 5 6 
#
# 1 0.019190 -0.008528 -0.000158 0.000000 0.000000 0.000000
# 2 -0.008528 0.014869 -0.003839 0.000000 0.000000 0.000000
# 3 -0.000158 -0.003839 0.010653 0.000000 0.000000 0.000000
# 4 0.000000 0.000000 0.000000 0.072128 0.000000 0.000000
# 5 0.000000 0.000000 0.000000 0.000000 0.073573 0.000000
# 6 0.000000 0.000000 0.000000 0.000000 0.000000 0.764556
#
#
# Mechanical properties :
#
#
# Convention : Reuss Voigt Hill
#
# Bulk Modulus (GPa) = 50.85789 54.31906 52.58848
# Shear Modulus (GPa) = 5.06805 17.89730 11.48268
#
# Velocity S-wave (km/s) = 1.62122 3.04660 2.44030
# Velocity P-wave (km/s) = 5.46626 6.36760 5.93407
#
# Compressibility (1/GPa) = 0.01966263
#
# Stress axis : x y z
#
# Youngs Moduli (GPa) = 52.11126 67.25238 93.87107
#
# Poissons Ratio (x) = 0.57355 0.01480
# Poissons Ratio (y) = 0.44442 0.36035
# Poissons Ratio (z) = 0.00822 0.25816
#
# Static dielectric constant tensor:
#      x y z
#    x 3.215140 0.000000 0.000000 
#    y 0.000000 3.272680 0.000000 
#    z 0.000000 0.000000 4.314820 
# 
# 
# High freq. dielectric constant tensor:
#      x y z
#    x 1.723360 0.000000 0.000000 
#    y 0.000000 1.728670 0.000000 
#    z 0.000000 0.000000 1.782430 
# 
# From -- ./inp_files/15395.got.cif
#   From: 2010.03.12/outbox.cif.g09.slc.cpg/sg53_8_cif.got.tgz:15395.got - 2010.04.16 14:36:59.
