data_PCOD8222973
_publ_section_title
;
Structure prediction by ZEFSAII (Michael W. Deem and Ramdas Pophale) SiO2 
 PCOD8222973
Probable space group: P C C A
;
_chemical_formula_sum "Si O2"
_cell_formula_units_Z 64
_cell_length_a 19.421370
_cell_length_b 9.095624
_cell_length_c 18.755815
_cell_angle_alpha 90.000000
_cell_angle_beta 90.000000
_cell_angle_gamma 90.000000
_cell_volume 3313.204950
_symmetry_space_group_name_H-M "P C C A"
_symmetry_group_IT_number 54
_symmetry_cell_setting 'orthorhombic'
loop_
_space_group_symop_operation_xyz
x,y,z
1/2-x,-y,z
1/2+x,-y,1/2-z
-x,y,1/2-z
-x,-y,-z
1/2+x,y,-z
1/2-x,y,1/2+z
x,-y,1/2+z
loop_
_atom_site_type_symbol
_atom_site_label
_atom_site_fract_x
_atom_site_fract_y
_atom_site_fract_z
Si Si1 0.067209 0.890240 0.562913
Si Si2 0.183677 0.592577 0.113497
Si Si3 0.177763 0.070863 0.639143
Si Si4 0.683663 0.587113 0.719321
Si Si5 0.047950 0.546682 0.566016
Si Si6 0.678883 0.081621 0.203189
Si Si7 0.554682 0.922441 0.603008
Si Si8 0.035130 0.386436 0.824205
O O1 0.065894 0.716601 0.569985
O O2 0.067392 0.928853 0.480482
O O3 0.138101 0.959545 0.588892
O O4 0.007635 0.962114 0.612424
O O5 0.250000 0.500000 0.086091
O O6 0.188181 0.768713 0.103557
O O7 0.173544 0.559090 0.196797
O O8 0.119566 0.542109 0.064987
O O9 0.143932 0.072814 0.718221
O O10 0.250000 0.000000 0.654125
O O11 0.750000 0.500000 0.690054
O O12 0.699441 0.750167 0.693539
O O13 0.611187 0.543597 0.683355
O O14 0.000000 0.500000 0.500000
O O15 0.008647 0.512469 0.638823
O O16 0.622124 0.025612 0.146474
O O17 0.750000 0.000000 0.190118
O O18 0.532756 0.759837 0.627457
O O19 0.000000 0.342594 0.750000
#
# Coordination Sequence:
#
# PCOD8222973 Si02
#       8
#     8   8   8   8   8   8   8   8
#     4  11  24  39  60  89 127 165 207 256 308 377
#     4  10  20  38  64  90 120 162 209 256 307 370
#     4  10  21  39  64  93 122 160 209 261 311 373
#     4   9  19  35  62  90 117 157 203 253 307 369
#     4  12  24  41  61  91 129 164 208 261 311 373
#     4   9  20  38  61  90 121 155 202 263 313 361
#     4  10  23  40  62  87 120 166 207 251 316 372
#     4  11  21  41  66  90 122 167 210 253 320 374
#
# _framework density 19.316642999999999
#
# number of rings (size 3 to 8) (size 9 to 14) (size 15 to 20)
#    0.000    1.750    2.500    1.500    5.250    2.500 
#    2.250    0.625    2.750    0.000    0.000    0.000 
#    0.000    0.000    0.000    0.000    0.000    0.000 
#
# Total GULP energy -793231.240075 kJ/mol
# GULP energy per Si atom -12394.238126 kJ/mol
# Density = 1.927268 g / cm^3
# Si number density = 19.316643 Si / 1000 Ang^3
#
#
#
# Elastic Constant Matrix: (Units=GPa)
#
#
# Indices 1 2 3 4 5 6 
#
# 1 124.9530 46.8772 46.4478 0.0000 0.0000 0.0000
# 2 46.8772 100.1598 23.7857 0.0000 0.0000 0.0000
# 3 46.4478 23.7857 70.2174 0.0000 0.0000 0.0000
# 4 0.0000 0.0000 0.0000 28.5039 0.0000 0.0000
# 5 0.0000 0.0000 0.0000 0.0000 36.2179 0.0000
# 6 0.0000 0.0000 0.0000 0.0000 0.0000 42.0945
#
#
#
# Elastic Compliance Matrix: (Units=1/GPa)
#
#
# Indices 1 2 3 4 5 6 
#
# 1 0.011948 -0.004040 -0.006535 0.000000 0.000000 0.000000
# 2 -0.004040 0.012224 -0.001468 0.000000 0.000000 0.000000
# 3 -0.006535 -0.001468 0.019061 0.000000 0.000000 0.000000
# 4 0.000000 0.000000 0.000000 0.035083 0.000000 0.000000
# 5 0.000000 0.000000 0.000000 0.000000 0.027611 0.000000
# 6 0.000000 0.000000 0.000000 0.000000 0.000000 0.023756
#
#
# Mechanical properties :
#
#
# Convention : Reuss Voigt Hill
#
# Bulk Modulus (GPa) = 52.22804 58.83908 55.53356
# Shear Modulus (GPa) = 31.22060 33.24456 32.23258
#
# Velocity S-wave (km/s) = 4.02463 4.15303 4.08933
# Velocity P-wave (km/s) = 6.97806 7.31596 7.14901
#
# Compressibility (1/GPa) = 0.01914680
#
# Stress axis : x y z
#
# Youngs Moduli (GPa) = 83.69768 81.80938 52.46183
#
# Poissons Ratio (x) = 0.33051 0.34283
# Poissons Ratio (y) = 0.33814 0.07703
# Poissons Ratio (z) = 0.54694 0.12012
#
# Static dielectric constant tensor:
#      x y z
#    x 3.761110 0.000000 0.000000 
#    y 0.000000 3.543390 0.000000 
#    z 0.000000 0.000000 3.529530 
# 
# 
# High freq. dielectric constant tensor:
#      x y z
#    x 1.764770 0.000000 0.000000 
#    y 0.000000 1.752620 0.000000 
#    z 0.000000 0.000000 1.741330 
# 
# From -- ./inp_files/18949.got.cif
#   From: 2010.03.12/outbox.cif.g09.slc.cpg/sg54_10_cif.got.tgz:18949.got - 2010.04.16 15:00:50.
