data_PCOD8222879
_publ_section_title
;
Structure prediction by ZEFSAII (Michael W. Deem and Ramdas Pophale) SiO2 
 PCOD8222879
Probable space group: P C C A
;
_chemical_formula_sum "Si O2"
_cell_formula_units_Z 48
_cell_length_a 13.055850
_cell_length_b 7.193552
_cell_length_c 25.726502
_cell_angle_alpha 90.000000
_cell_angle_beta 90.000000
_cell_angle_gamma 90.000000
_cell_volume 2416.179965
_symmetry_space_group_name_H-M "P C C A"
_symmetry_group_IT_number 54
_symmetry_cell_setting 'orthorhombic'
loop_
_space_group_symop_operation_xyz
x,y,z
1/2-x,-y,z
1/2+x,-y,1/2-z
-x,y,1/2-z
-x,-y,-z
1/2+x,y,-z
1/2-x,y,1/2+z
x,-y,1/2+z
loop_
_atom_site_type_symbol
_atom_site_label
_atom_site_fract_x
_atom_site_fract_y
_atom_site_fract_z
Si Si1 0.338296 0.625598 0.999694
Si Si2 0.590049 0.919405 0.132983
Si Si3 0.000877 0.702061 0.335582
Si Si4 0.750000 0.000000 0.215325
Si Si5 0.750000 0.000000 0.546038
Si Si6 0.660128 0.353850 0.247541
Si Si7 0.517076 0.568504 0.078097
O O1 0.250000 0.500000 0.025780
O O2 0.379769 0.508752 0.949690
O O3 0.284055 0.823198 0.988322
O O4 0.434065 0.650704 0.038167
O O5 0.649354 0.967233 0.080127
O O6 0.534982 0.725888 0.121507
O O7 0.508964 0.078236 0.150814
O O8 0.669045 0.889005 0.179735
O O9 0.916608 0.634167 0.295180
O O10 0.974066 0.605683 0.389932
O O11 0.108114 0.633130 0.309758
O O12 0.702052 0.147027 0.254030
O O13 0.750000 0.500000 0.253369
#
# Coordination Sequence:
#
# PCOD8222879 Si02
#       7
#     8   8   8   4   4   8   8
#     4  11  24  39  60  89 120 158 204 256 300 368
#     4  10  20  36  62  89 118 154 200 255 301 355
#     4  10  22  39  59  91 123 155 204 253 301 361
#     4   9  20  36  60  93 116 156 201 246 297 358
#     4  11  20  38  62  87 116 156 203 254 301 348
#     4  10  21  38  62  88 122 161 200 247 301 366
#     4  11  23  39  61  87 122 160 201 249 312 362
#
# _framework density 19.866071000000002
#
# number of rings (size 3 to 8) (size 9 to 14) (size 15 to 20)
#    0.000    1.667    3.333    1.000    0.000    4.667 
#    0.000    3.333    0.000    0.000    0.000    0.000 
#    0.000    0.000    0.000    0.000    0.000    0.000 
#
# Total GULP energy -594858.232723 kJ/mol
# GULP energy per Si atom -12392.879848 kJ/mol
# Density = 1.982086 g / cm^3
# Si number density = 19.866071 Si / 1000 Ang^3
#
#
#
# Elastic Constant Matrix: (Units=GPa)
#
#
# Indices 1 2 3 4 5 6 
#
# 1 77.3126 49.6420 16.7971 0.0000 0.0000 0.0000
# 2 49.6420 99.4696 24.5323 0.0000 0.0000 0.0000
# 3 16.7971 24.5323 51.0298 0.0000 0.0000 0.0000
# 4 0.0000 0.0000 0.0000 76.3223 0.0000 0.0000
# 5 0.0000 0.0000 0.0000 0.0000 52.2207 0.0000
# 6 0.0000 0.0000 0.0000 0.0000 0.0000 32.4606
#
#
#
# Elastic Compliance Matrix: (Units=1/GPa)
#
#
# Indices 1 2 3 4 5 6 
#
# 1 0.019202 -0.009104 -0.001944 0.000000 0.000000 0.000000
# 2 -0.009104 0.015722 -0.004562 0.000000 0.000000 0.000000
# 3 -0.001944 -0.004562 0.022429 0.000000 0.000000 0.000000
# 4 0.000000 0.000000 0.000000 0.013102 0.000000 0.000000
# 5 0.000000 0.000000 0.000000 0.000000 0.019149 0.000000
# 6 0.000000 0.000000 0.000000 0.000000 0.000000 0.030807
#
#
# Mechanical properties :
#
#
# Convention : Reuss Voigt Hill
#
# Bulk Modulus (GPa) = 38.26352 45.52830 41.89591
# Shear Modulus (GPa) = 31.18332 41.32341 36.25337
#
# Velocity S-wave (km/s) = 3.96621 4.56576 4.27651
# Velocity P-wave (km/s) = 6.34642 7.12476 6.74682
#
# Compressibility (1/GPa) = 0.02613455
#
# Stress axis : x y z
#
# Youngs Moduli (GPa) = 52.07688 63.60621 44.58464
#
# Poissons Ratio (x) = 0.57906 0.08668
# Poissons Ratio (y) = 0.47410 0.20337
# Poissons Ratio (z) = 0.10124 0.29014
#
# Static dielectric constant tensor:
#      x y z
#    x 3.568640 0.000000 0.000000 
#    y 0.000000 3.643380 0.000000 
#    z 0.000000 0.000000 3.444210 
# 
# 
# High freq. dielectric constant tensor:
#      x y z
#    x 1.767360 0.000000 0.000000 
#    y 0.000000 1.783030 0.000000 
#    z 0.000000 0.000000 1.762720 
# 
# From -- ./inp_files/26504.got.cif
#   From: 2010.03.12/outbox.cif.g09.slc.cpg/sg54_14_cif.got.tgz:26504.got - 2010.04.16 15:00:50.
