data_PCOD8222787
_publ_section_title
;
Structure prediction by ZEFSAII (Michael W. Deem and Ramdas Pophale) SiO2 
 PCOD8222787
Probable space group: P C C A
;
_chemical_formula_sum "Si O2"
_cell_formula_units_Z 48
_cell_length_a 28.493787
_cell_length_b 8.301536
_cell_length_c 9.384372
_cell_angle_alpha 90.000000
_cell_angle_beta 90.000000
_cell_angle_gamma 90.000000
_cell_volume 2219.799985
_symmetry_space_group_name_H-M "P C C A"
_symmetry_group_IT_number 54
_symmetry_cell_setting 'orthorhombic'
loop_
_space_group_symop_operation_xyz
x,y,z
1/2-x,-y,z
1/2+x,-y,1/2-z
-x,y,1/2-z
-x,-y,-z
1/2+x,y,-z
1/2-x,y,1/2+z
x,-y,1/2+z
loop_
_atom_site_type_symbol
_atom_site_label
_atom_site_fract_x
_atom_site_fract_y
_atom_site_fract_z
Si Si1 0.144326 0.682165 0.268491
Si Si2 0.956968 0.679224 0.827267
Si Si3 0.188978 0.171306 0.505330
Si Si4 0.295830 0.803376 0.007010
Si Si5 0.457588 0.659222 0.835447
Si Si6 0.143774 0.688747 0.744495
O O1 0.168533 0.808636 0.163064
O O2 0.175041 0.679728 0.411241
O O3 0.091961 0.746134 0.305248
O O4 0.144104 0.500920 0.208929
O O5 0.954090 0.517459 0.732558
O O6 0.906322 0.764046 0.806590
O O7 0.000000 0.777882 0.750000
O O8 0.967580 0.650782 0.994731
O O9 0.241341 0.243070 0.498038
O O10 0.152508 0.271708 0.409381
O O11 0.192351 0.985349 0.461067
O O12 0.312984 0.776687 0.167796
O O13 0.500000 0.750192 0.750000
#
# Coordination Sequence:
#
# PCOD8222787 Si02
#       6
#     8   8   8   8   8   8
#     4  11  23  38  63  95 123 154 206 260 305 352
#     4  10  20  34  59  90 126 159 198 250 307 369
#     4  11  25  39  66  83 122 174 201 251 302 375
#     4  11  23  45  58  89 122 164 215 239 310 377
#     4  10  20  34  59  90 126 159 198 250 307 369
#     4  11  23  38  63  95 123 154 206 260 305 352
#
# _framework density 21.623570999999998
#
# number of rings (size 3 to 8) (size 9 to 14) (size 15 to 20)
#    0.000    1.333    1.667    5.000    9.333    6.667 
#    0.000    0.000    0.000    6.000    0.000    0.000 
#    0.000    0.000    0.000    0.000    0.000    0.000 
#
# Total GULP energy -594993.661435 kJ/mol
# GULP energy per Si atom -12395.701280 kJ/mol
# Density = 2.157435 g / cm^3
# Si number density = 21.623571 Si / 1000 Ang^3
#
#
#
# Elastic Constant Matrix: (Units=GPa)
#
#
# Indices 1 2 3 4 5 6 
#
# 1 180.8480 25.5880 65.4922 0.0000 0.0000 0.0000
# 2 25.5880 30.2043 15.5059 0.0000 0.0000 0.0000
# 3 65.4922 15.5059 132.4193 0.0000 0.0000 0.0000
# 4 0.0000 0.0000 0.0000 25.4102 0.0000 0.0000
# 5 0.0000 0.0000 0.0000 0.0000 48.0191 0.0000
# 6 0.0000 0.0000 0.0000 0.0000 0.0000 9.7723
#
#
#
# Elastic Compliance Matrix: (Units=1/GPa)
#
#
# Indices 1 2 3 4 5 6 
#
# 1 0.007291 -0.004602 -0.003067 0.000000 0.000000 0.000000
# 2 -0.004602 0.038130 -0.002189 0.000000 0.000000 0.000000
# 3 -0.003067 -0.002189 0.009325 0.000000 0.000000 0.000000
# 4 0.000000 0.000000 0.000000 0.039354 0.000000 0.000000
# 5 0.000000 0.000000 0.000000 0.000000 0.020825 0.000000
# 6 0.000000 0.000000 0.000000 0.000000 0.000000 0.102330
#
#
# Mechanical properties :
#
#
# Convention : Reuss Voigt Hill
#
# Bulk Modulus (GPa) = 28.54680 61.84931 45.19806
# Shear Modulus (GPa) = 20.10856 32.43268 26.27062
#
# Velocity S-wave (km/s) = 3.05280 3.87702 3.48933
# Velocity P-wave (km/s) = 5.06522 6.97901 6.09766
#
# Compressibility (1/GPa) = 0.03503019
#
# Stress axis : x y z
#
# Youngs Moduli (GPa) = 137.14618 26.22576 107.23761
#
# Poissons Ratio (x) = 0.12070 0.32893
# Poissons Ratio (y) = 0.63121 0.23471
# Poissons Ratio (z) = 0.42067 0.05740
#
# Static dielectric constant tensor:
#      x y z
#    x 4.968470 0.000000 0.000000 
#    y 0.000000 3.246170 0.000000 
#    z 0.000000 0.000000 3.839300 
# 
# 
# High freq. dielectric constant tensor:
#      x y z
#    x 1.877290 0.000000 0.000000 
#    y 0.000000 1.795260 0.000000 
#    z 0.000000 0.000000 1.863550 
# 
# From -- ./inp_files/4173.got.cif
#   From: 2010.03.12/outbox.cif.g09.slc.cpg/sg54_3_cif.got.tgz:4173.got - 2010.04.16 15:00:50.
