data_PCOD8222089
_publ_section_title
;
Structure prediction by ZEFSAII (Michael W. Deem and Ramdas Pophale) SiO2 
 PCOD8222089
Probable space group: P M N A
;
_chemical_formula_sum "Si O2"
_cell_formula_units_Z 48
_cell_length_a 8.894133
_cell_length_b 21.381824
_cell_length_c 14.148965
_cell_angle_alpha 90.000000
_cell_angle_beta 90.000000
_cell_angle_gamma 90.000000
_cell_volume 2690.748099
_symmetry_space_group_name_H-M "P M N A"
_symmetry_group_IT_number 53
_symmetry_cell_setting 'orthorhombic'
loop_
_space_group_symop_operation_xyz
x,y,z
1/2-x,-y,1/2+z
x,-y,-z
1/2-x,y,1/2-z
-x,-y,-z
1/2+x,y,1/2-z
-x,y,z
1/2+x,-y,1/2+z
loop_
_atom_site_type_symbol
_atom_site_label
_atom_site_fract_x
_atom_site_fract_y
_atom_site_fract_z
Si Si1 0.321518 0.663651 0.648001
Si Si2 0.821864 0.098924 0.493295
Si Si3 0.175278 0.571924 0.506353
Si Si4 0.179065 0.760346 0.513259
Si Si5 0.322184 0.995767 0.149025
Si Si6 0.173353 0.668604 0.350528
O O1 0.250000 0.655956 0.750000
O O2 0.500000 0.667537 0.655686
O O3 0.274922 0.603248 0.587313
O O4 0.258254 0.726814 0.601127
O O5 0.757568 0.169059 0.490318
O O6 0.769672 0.060318 0.400853
O O7 0.000000 0.101435 0.496242
O O8 0.764808 0.063039 0.586906
O O9 0.222050 0.500000 0.500000
O O10 0.209754 0.604108 0.405386
O O11 0.000000 0.580753 0.532678
O O12 0.226808 0.726541 0.415741
O O13 0.000000 0.756572 0.528227
O O14 0.250000 0.990450 0.250000
O O15 0.500000 0.994392 0.159022
O O16 0.250000 0.669826 0.250000
O O17 0.000000 0.675209 0.328742
#
# Coordination Sequence:
#
# PCOD8222089 Si02
#       6
#     8   8   8   8   8   8
#     4  11  22  36  54  77 105 136 171 212 256 304
#     4   8  16  32  52  70  96 133 168 202 249 306
#     4   9  19  37  57  77 103 135 171 211 253 298
#     4   9  18  35  54  72  97 133 174 214 255 299
#     4   9  17  31  50  73  99 130 165 203 249 301
#     4   9  18  31  49  72  99 129 161 201 248 296
#
# _framework density 17.838905
#
# number of rings (size 3 to 8) (size 9 to 14) (size 15 to 20)
#    0.000    2.833    0.000    3.500    0.000    5.000 
#    0.000    6.667    0.000    0.000    0.000    0.000 
#    0.000    0.000    0.000    0.000    0.000    0.000 
#
# Total GULP energy -595081.159069 kJ/mol
# GULP energy per Si atom -12397.524147 kJ/mol
# Density = 1.779830 g / cm^3
# Si number density = 17.838905 Si / 1000 Ang^3
#
#
#
# Elastic Constant Matrix: (Units=GPa)
#
#
# Indices 1 2 3 4 5 6 
#
# 1 51.3617 28.2386 35.7126 0.0000 0.0000 0.0000
# 2 28.2386 152.0934 43.3694 0.0000 0.0000 0.0000
# 3 35.7126 43.3694 118.7197 0.0000 0.0000 0.0000
# 4 0.0000 0.0000 0.0000 13.2959 0.0000 0.0000
# 5 0.0000 0.0000 0.0000 0.0000 37.1934 0.0000
# 6 0.0000 0.0000 0.0000 0.0000 0.0000 19.6713
#
#
#
# Elastic Compliance Matrix: (Units=1/GPa)
#
#
# Indices 1 2 3 4 5 6 
#
# 1 0.025691 -0.002865 -0.006682 0.000000 0.000000 0.000000
# 2 -0.002865 0.007659 -0.001936 0.000000 0.000000 0.000000
# 3 -0.006682 -0.001936 0.011140 0.000000 0.000000 0.000000
# 4 0.000000 0.000000 0.000000 0.075211 0.000000 0.000000
# 5 0.000000 0.000000 0.000000 0.000000 0.026886 0.000000
# 6 0.000000 0.000000 0.000000 0.000000 0.000000 0.050835
#
#
# Mechanical properties :
#
#
# Convention : Reuss Voigt Hill
#
# Bulk Modulus (GPa) = 46.45739 59.64623 53.05181
# Shear Modulus (GPa) = 21.97197 28.35573 25.16385
#
# Velocity S-wave (km/s) = 3.51335 3.99123 3.75989
# Velocity P-wave (km/s) = 6.52361 7.39923 6.97517
#
# Compressibility (1/GPa) = 0.02152510
#
# Stress axis : x y z
#
# Youngs Moduli (GPa) = 38.92477 130.56775 89.76324
#
# Poissons Ratio (x) = 0.37403 0.59977
# Poissons Ratio (y) = 0.11150 0.17379
# Poissons Ratio (z) = 0.26008 0.25280
#
# Static dielectric constant tensor:
#      x y z
#    x 3.073190 0.000000 0.000000 
#    y 0.000000 3.685150 0.000000 
#    z 0.000000 0.000000 3.987130 
# 
# 
# High freq. dielectric constant tensor:
#      x y z
#    x 1.668160 0.000000 0.000000 
#    y 0.000000 1.697960 0.000000 
#    z 0.000000 0.000000 1.693770 
# 
# From -- ./inp_files/20345.got.cif
#   From: 2010.03.12/outbox.cif.g09.slc.cpg/sg53_11_cif.got.tgz:20345.got - 2010.04.16 14:36:59.
