data_PCOD8222012
_publ_section_title
;
Structure prediction by ZEFSAII (Michael W. Deem and Ramdas Pophale) SiO2 
 PCOD8222012
Probable space group: P M N A
;
_chemical_formula_sum "Si O2"
_cell_formula_units_Z 40
_cell_length_a 9.099076
_cell_length_b 18.431473
_cell_length_c 13.458266
_cell_angle_alpha 90.000000
_cell_angle_beta 90.000000
_cell_angle_gamma 90.000000
_cell_volume 2257.077361
_symmetry_space_group_name_H-M "P M N A"
_symmetry_group_IT_number 53
_symmetry_cell_setting 'orthorhombic'
loop_
_space_group_symop_operation_xyz
x,y,z
1/2-x,-y,1/2+z
x,-y,-z
1/2-x,y,1/2-z
-x,-y,-z
1/2+x,y,1/2-z
-x,y,z
1/2+x,-y,1/2+z
loop_
_atom_site_type_symbol
_atom_site_label
_atom_site_fract_x
_atom_site_fract_y
_atom_site_fract_z
Si Si1 0.324882 0.243893 0.644908
Si Si2 0.826066 0.542779 0.850646
Si Si3 0.173892 0.394498 0.944601
Si Si4 0.328530 0.113376 0.952662
Si Si5 0.669750 0.033047 0.151121
O O1 0.250000 0.229739 0.750000
O O2 0.500000 0.242836 0.656411
O O3 0.265204 0.319731 0.600295
O O4 0.273866 0.181512 0.570138
O O5 0.750000 0.569935 0.750000
O O6 0.775224 0.595369 0.940896
O O7 0.000000 0.545239 0.835790
O O8 0.770877 0.461368 0.876898
O O9 0.000000 0.394897 0.943318
O O10 0.500000 0.131608 0.934787
O O11 0.277248 0.046410 0.883826
O O12 0.299631 0.092604 0.066831
O O13 0.750000 0.058611 0.250000
O O14 0.500000 0.028598 0.175854
#
# Coordination Sequence:
#
# PCOD8222012 Si02
#       5
#     8   8   8   8   8
#     4  11  21  33  50  73  99 128 159 196 241 290
#     4   9  16  31  52  71  93 125 161 198 236 278
#     4   8  17  32  49  69  97 129 159 191 236 288
#     4   9  19  35  51  72 100 129 160 198 240 285
#     4   9  18  33  53  73  97 127 162 201 240 281
#
# _framework density 17.722034000000001
#
# number of rings (size 3 to 8) (size 9 to 14) (size 15 to 20)
#    0.000    2.800    0.000    4.200    0.000    3.200 
#    0.000    8.000    0.000    4.800    0.000    0.000 
#    0.000    0.000    0.000    0.000    0.000    0.000 
#
# Total GULP energy -495922.885438 kJ/mol
# GULP energy per Si atom -12398.072136 kJ/mol
# Density = 1.768170 g / cm^3
# Si number density = 17.722034 Si / 1000 Ang^3
#
#
#
# Elastic Constant Matrix: (Units=GPa)
#
#
# Indices 1 2 3 4 5 6 
#
# 1 46.3838 29.0660 35.3671 0.0000 0.0000 0.0000
# 2 29.0660 87.0286 28.1089 0.0000 0.0000 0.0000
# 3 35.3671 28.1089 112.9388 0.0000 0.0000 0.0000
# 4 0.0000 0.0000 0.0000 21.9445 0.0000 0.0000
# 5 0.0000 0.0000 0.0000 0.0000 35.1295 0.0000
# 6 0.0000 0.0000 0.0000 0.0000 0.0000 3.3897
#
#
#
# Elastic Compliance Matrix: (Units=1/GPa)
#
#
# Indices 1 2 3 4 5 6 
#
# 1 0.033137 -0.008390 -0.008289 0.000000 0.000000 0.000000
# 2 -0.008390 0.014619 -0.001011 0.000000 0.000000 0.000000
# 3 -0.008289 -0.001011 0.011702 0.000000 0.000000 0.000000
# 4 0.000000 0.000000 0.000000 0.045569 0.000000 0.000000
# 5 0.000000 0.000000 0.000000 0.000000 0.028466 0.000000
# 6 0.000000 0.000000 0.000000 0.000000 0.000000 0.295015
#
#
# Mechanical properties :
#
#
# Convention : Reuss Voigt Hill
#
# Bulk Modulus (GPa) = 41.53189 47.93725 44.73457
# Shear Modulus (GPa) = 10.59517 22.34669 16.47093
#
# Velocity S-wave (km/s) = 2.44776 3.55485 3.05192
# Velocity P-wave (km/s) = 5.61023 6.63004 6.14134
#
# Compressibility (1/GPa) = 0.02407788
#
# Stress axis : x y z
#
# Youngs Moduli (GPa) = 30.17796 68.40332 85.45806
#
# Poissons Ratio (x) = 0.57390 0.70834
# Poissons Ratio (y) = 0.25319 0.08641
# Poissons Ratio (z) = 0.25014 0.06917
#
# Static dielectric constant tensor:
#      x y z
#    x 2.997840 0.000000 0.000000 
#    y 0.000000 3.406770 0.000000 
#    z 0.000000 0.000000 3.479010 
# 
# 
# High freq. dielectric constant tensor:
#      x y z
#    x 1.664770 0.000000 0.000000 
#    y 0.000000 1.675560 0.000000 
#    z 0.000000 0.000000 1.694300 
# 
# From -- ./inp_files/13892.got.cif
#   From: 2010.03.12/outbox.cif.g09.slc.cpg/sg53_7_cif.got.tgz:13892.got - 2010.04.16 14:36:59.
