data_PCOD8222607
_publ_section_title
;
Structure prediction by ZEFSAII (Michael W. Deem and Ramdas Pophale) SiO2 
 PCOD8222607
Probable space group: P C C A
;
_chemical_formula_sum "Si O2"
_cell_formula_units_Z 52
_cell_length_a 4.976470
_cell_length_b 20.369152
_cell_length_c 24.985610
_cell_angle_alpha 90.000000
_cell_angle_beta 90.000000
_cell_angle_gamma 90.000000
_cell_volume 2532.703183
_symmetry_space_group_name_H-M "P C C A"
_symmetry_group_IT_number 54
_symmetry_cell_setting 'orthorhombic'
loop_
_space_group_symop_operation_xyz
x,y,z
1/2-x,-y,z
1/2+x,-y,1/2-z
-x,y,1/2-z
-x,-y,-z
1/2+x,y,-z
1/2-x,y,1/2+z
x,-y,1/2+z
loop_
_atom_site_type_symbol
_atom_site_label
_atom_site_fract_x
_atom_site_fract_y
_atom_site_fract_z
Si Si1 0.750000 0.000000 0.366923
Si Si2 0.211011 0.358679 0.462603
Si Si3 0.250000 0.500000 0.462275
Si Si4 0.750000 0.000000 0.566503
Si Si5 0.530011 0.249360 0.619676
Si Si6 0.470316 0.758276 0.690196
Si Si7 0.740984 0.897516 0.782814
Si Si8 0.619750 0.142819 0.533036
O O1 0.499360 0.028445 0.400019
O O2 0.644045 0.941047 0.330586
O O3 0.504759 0.350374 0.488165
O O4 0.219530 0.430139 0.431319
O O5 0.137029 0.305129 0.419366
O O6 0.500000 0.500000 0.500000
O O7 0.621629 0.062628 0.535538
O O8 0.246245 0.270861 0.647321
O O9 0.532767 0.179207 0.588005
O O10 0.731425 0.245371 0.668524
O O11 0.500000 0.725960 0.750000
O O12 0.395764 0.833766 0.693774
O O13 0.500000 0.935059 0.750000
O O14 0.000000 0.875957 0.750000
O O15 0.411848 0.165470 0.486910
#
# Coordination Sequence:
#
# PCOD8222607 Si02
#       8
#     4   8   4   4   8   8   8   8
#     4  12  22  36  54  78  98 128 178 223 274 345
#     4  10  19  34  55  87 122 153 184 224 271 329
#     4   8  16  30  52  80 120 156 180 214 268 322
#     4  12  24  38  54  72 104 144 178 219 268 327
#     4  12  22  37  59  84 110 147 187 230 278 326
#     4  11  23  39  56  79 110 144 183 231 281 332
#     4  11  21  36  54  74 100 131 170 230 291 336
#     4  12  24  40  57  79 108 144 186 230 273 327
#
# _framework density 20.531421000000002
#
# number of rings (size 3 to 8) (size 9 to 14) (size 15 to 20)
#    0.000    0.923    0.000    9.692    0.000    0.000 
#    0.000    0.000    0.000    0.000    0.000    2.154 
#    0.000    1.231    0.000    0.000    0.000    0.000 
#
# Total GULP energy -644179.074028 kJ/mol
# GULP energy per Si atom -12388.059116 kJ/mol
# Density = 2.048469 g / cm^3
# Si number density = 20.531421 Si / 1000 Ang^3
#
#
#
# Elastic Constant Matrix: (Units=GPa)
#
#
# Indices 1 2 3 4 5 6 
#
# 1 97.3568 0.5183 15.8421 0.0000 0.0000 0.0000
# 2 0.5183 79.3056 21.5718 0.0000 0.0000 0.0000
# 3 15.8421 21.5718 77.9395 0.0000 0.0000 0.0000
# 4 0.0000 0.0000 0.0000 7.7815 0.0000 0.0000
# 5 0.0000 0.0000 0.0000 0.0000 43.3358 0.0000
# 6 0.0000 0.0000 0.0000 0.0000 0.0000 22.3411
#
#
#
# Elastic Compliance Matrix: (Units=1/GPa)
#
#
# Indices 1 2 3 4 5 6 
#
# 1 0.010646 0.000561 -0.002319 0.000000 0.000000 0.000000
# 2 0.000561 0.013666 -0.003896 0.000000 0.000000 0.000000
# 3 -0.002319 -0.003896 0.014380 0.000000 0.000000 0.000000
# 4 0.000000 0.000000 0.000000 0.128510 0.000000 0.000000
# 5 0.000000 0.000000 0.000000 0.000000 0.023076 0.000000
# 6 0.000000 0.000000 0.000000 0.000000 0.000000 0.044760
#
#
# Mechanical properties :
#
#
# Convention : Reuss Voigt Hill
#
# Bulk Modulus (GPa) = 36.51890 36.71849 36.61870
# Shear Modulus (GPa) = 19.57145 29.13634 24.35389
#
# Velocity S-wave (km/s) = 3.09081 3.77119 3.44783
# Velocity P-wave (km/s) = 5.52838 6.07334 5.80725
#
# Compressibility (1/GPa) = 0.02738308
#
# Stress axis : x y z
#
# Youngs Moduli (GPa) = 93.93287 73.17628 69.53956
#
# Poissons Ratio (x) = -0.04107 0.16128
# Poissons Ratio (y) = -0.05272 0.27095
# Poissons Ratio (z) = 0.21785 0.28512
#
# Static dielectric constant tensor:
#      x y z
#    x 4.202090 0.000000 0.000000 
#    y 0.000000 3.942040 0.000000 
#    z 0.000000 0.000000 3.895140 
# 
# 
# High freq. dielectric constant tensor:
#      x y z
#    x 1.834290 0.000000 0.000000 
#    y 0.000000 1.773190 0.000000 
#    z 0.000000 0.000000 1.787960 
# 
# From -- ./inp_files/19834.got.cif
#   From: 2010.03.12/outbox.cif.g09.slc.cpg/sg54_10_cif.got.tgz:19834.got - 2010.04.16 15:00:50.
