data_PCOD8222045
_publ_section_title
;
Structure prediction by ZEFSAII (Michael W. Deem and Ramdas Pophale) SiO2 
 PCOD8222045
Probable space group: P M N A
;
_chemical_formula_sum "Si O2"
_cell_formula_units_Z 48
_cell_length_a 8.321866
_cell_length_b 9.576027
_cell_length_c 30.344513
_cell_angle_alpha 90.000000
_cell_angle_beta 90.000000
_cell_angle_gamma 90.000000
_cell_volume 2418.166789
_symmetry_space_group_name_H-M "P M N A"
_symmetry_group_IT_number 53
_symmetry_cell_setting 'orthorhombic'
loop_
_space_group_symop_operation_xyz
x,y,z
1/2-x,-y,1/2+z
x,-y,-z
1/2-x,y,1/2-z
-x,-y,-z
1/2+x,y,1/2-z
-x,y,z
1/2+x,-y,1/2+z
loop_
_atom_site_type_symbol
_atom_site_label
_atom_site_fract_x
_atom_site_fract_y
_atom_site_fract_z
Si Si1 0.185840 0.203806 0.887307
Si Si2 0.187250 0.085143 0.363307
Si Si3 0.186229 0.500767 0.368563
Si Si4 0.313764 0.849127 0.018033
Si Si5 0.686886 0.298149 0.298213
Si Si6 0.187596 0.709171 0.935163
O O1 0.248990 0.071864 0.859668
O O2 0.285888 0.334813 0.869600
O O3 0.000000 0.229123 0.877250
O O4 0.209546 0.182758 0.939183
O O5 0.000000 0.086331 0.375149
O O6 0.219227 0.163741 0.317340
O O7 0.281785 0.162074 0.402378
O O8 0.283810 0.433945 0.328182
O O9 0.245461 0.433956 0.414538
O O10 0.000000 0.465865 0.361707
O O11 0.500000 0.845918 0.031414
O O12 0.277723 0.733108 0.981234
O O13 0.261940 0.000000 0.000000
O O14 0.750000 0.332692 0.250000
O O15 0.500000 0.262372 0.297406
O O16 0.000000 0.694337 0.944281
#
# Coordination Sequence:
#
# PCOD8222045 Si02
#       6
#     8   8   8   8   8   8
#     4  12  24  39  59  87 121 158 200 248 300 352
#     4  11  21  37  60  88 119 155 195 240 292 348
#     4  11  23  41  62  87 121 160 198 243 300 358
#     4  11  22  36  57  84 117 158 206 253 297 347
#     4  11  22  41  67  95 121 153 194 239 290 352
#     4  11  21  36  58  85 116 156 203 249 293 345
#
# _framework density 19.849747000000001
#
# number of rings (size 3 to 8) (size 9 to 14) (size 15 to 20)
#    0.000    0.833    1.667   10.000    0.000    1.333 
#    0.000    4.167    0.000    0.000    0.000    0.000 
#    0.000    0.000    0.000    0.000    0.000    0.000 
#
# Total GULP energy -595565.373624 kJ/mol
# GULP energy per Si atom -12407.611951 kJ/mol
# Density = 1.980457 g / cm^3
# Si number density = 19.849747 Si / 1000 Ang^3
#
#
#
# Elastic Constant Matrix: (Units=GPa)
#
#
# Indices 1 2 3 4 5 6 
#
# 1 89.8862 10.6107 4.3585 0.0000 0.0000 0.0000
# 2 10.6107 121.0625 28.3630 0.0000 0.0000 0.0000
# 3 4.3585 28.3630 86.6509 0.0000 0.0000 0.0000
# 4 0.0000 0.0000 0.0000 11.6554 0.0000 0.0000
# 5 0.0000 0.0000 0.0000 0.0000 31.4915 0.0000
# 6 0.0000 0.0000 0.0000 0.0000 0.0000 31.4626
#
#
#
# Elastic Compliance Matrix: (Units=1/GPa)
#
#
# Indices 1 2 3 4 5 6 
#
# 1 0.011247 -0.000924 -0.000263 0.000000 0.000000 0.000000
# 2 -0.000924 0.009022 -0.002907 0.000000 0.000000 0.000000
# 3 -0.000263 -0.002907 0.012505 0.000000 0.000000 0.000000
# 4 0.000000 0.000000 0.000000 0.085797 0.000000 0.000000
# 5 0.000000 0.000000 0.000000 0.000000 0.031755 0.000000
# 6 0.000000 0.000000 0.000000 0.000000 0.000000 0.031784
#
#
# Mechanical properties :
#
#
# Convention : Reuss Voigt Hill
#
# Bulk Modulus (GPa) = 40.67295 42.69603 41.68449
# Shear Modulus (GPa) = 25.18975 31.87306 28.53141
#
# Velocity S-wave (km/s) = 3.56620 4.01149 3.79538
# Velocity P-wave (km/s) = 6.12306 6.55838 6.34446
#
# Compressibility (1/GPa) = 0.02458636
#
# Stress axis : x y z
#
# Youngs Moduli (GPa) = 88.91239 110.83795 79.96649
#
# Poissons Ratio (x) = 0.10242 0.02105
# Poissons Ratio (y) = 0.08216 0.23244
# Poissons Ratio (z) = 0.02341 0.32217
#
# Static dielectric constant tensor:
#      x y z
#    x 3.694990 0.000000 0.000000 
#    y 0.000000 3.655260 0.000000 
#    z 0.000000 0.000000 3.593120 
# 
# 
# High freq. dielectric constant tensor:
#      x y z
#    x 1.793940 0.000000 0.000000 
#    y 0.000000 1.773800 0.000000 
#    z 0.000000 0.000000 1.757600 
# 
# From -- ./inp_files/37767.got.cif
#   From: 2010.03.12/outbox.cif.g09.slc.cpg/sg53_19_cif.got.tgz:37767.got - 2010.04.16 14:36:59.
