data_PCOD8222844
_publ_section_title
;
Structure prediction by ZEFSAII (Michael W. Deem and Ramdas Pophale) SiO2 
 PCOD8222844
Probable space group: P C C A
;
_chemical_formula_sum "Si O2"
_cell_formula_units_Z 40
_cell_length_a 4.994309
_cell_length_b 17.210950
_cell_length_c 23.117924
_cell_angle_alpha 90.000000
_cell_angle_beta 90.000000
_cell_angle_gamma 90.000000
_cell_volume 1987.142827
_symmetry_space_group_name_H-M "P C C A"
_symmetry_group_IT_number 54
_symmetry_cell_setting 'orthorhombic'
loop_
_space_group_symop_operation_xyz
x,y,z
1/2-x,-y,z
1/2+x,-y,1/2-z
-x,y,1/2-z
-x,-y,-z
1/2+x,y,-z
1/2-x,y,1/2+z
x,-y,1/2+z
loop_
_atom_site_type_symbol
_atom_site_label
_atom_site_fract_x
_atom_site_fract_y
_atom_site_fract_z
Si Si1 0.082093 0.747852 0.847869
Si Si2 0.250000 0.500000 0.901246
Si Si3 0.250000 0.000000 0.210446
Si Si4 0.750000 0.500000 0.321835
Si Si5 0.178912 0.342917 0.462826
Si Si6 0.500000 0.368588 0.750000
Si Si7 0.565463 0.160057 0.316908
O O1 0.093656 0.711652 0.910718
O O2 0.151133 0.684539 0.797979
O O3 0.290611 0.819240 0.849127
O O4 0.785572 0.778340 0.836163
O O5 0.497084 0.523266 0.860710
O O6 0.345507 0.431202 0.942421
O O7 0.338627 0.071967 0.169711
O O8 0.500000 0.972442 0.250000
O O9 0.711451 0.575979 0.282244
O O10 0.479324 0.326436 0.483965
O O11 0.500000 0.166673 0.250000
#
# Coordination Sequence:
#
# PCOD8222844 Si02
#       7
#     8   4   4   4   8   4   8
#     4  12  25  39  65  93 125 169 207 260 323 369
#     4  12  25  45  64  86 118 167 221 268 332 374
#     4  10  20  36  58  94 140 176 198 234 298 400
#     4  12  27  41  60  92 126 173 207 262 322 394
#     4  12  26  46  64  87 120 164 223 278 318 369
#     4  12  26  42  62  94 134 166 214 260 322 394
#     4  11  21  38  61  97 133 168 197 244 310 390
#
# _framework density 20.129404999999998
#
# number of rings (size 3 to 8) (size 9 to 14) (size 15 to 20)
#    0.000    0.400    4.000    6.000    2.800    1.600 
#    0.000    0.000    0.000    0.000    0.000   14.000 
#    0.000    0.000    0.000    0.000    0.000    0.000 
#
# Total GULP energy -496120.795315 kJ/mol
# GULP energy per Si atom -12403.019883 kJ/mol
# Density = 2.008359 g / cm^3
# Si number density = 20.129405 Si / 1000 Ang^3
#
#
#
# Elastic Constant Matrix: (Units=GPa)
#
#
# Indices 1 2 3 4 5 6 
#
# 1 105.9178 19.6144 28.3596 0.0000 0.0000 0.0000
# 2 19.6144 106.1964 42.8625 0.0000 0.0000 0.0000
# 3 28.3596 42.8625 94.9467 0.0000 0.0000 0.0000
# 4 0.0000 0.0000 0.0000 -4.2039 0.0000 0.0000
# 5 0.0000 0.0000 0.0000 0.0000 277.6513 0.0000
# 6 0.0000 0.0000 0.0000 0.0000 0.0000 36.2627
#
#
#
# Elastic Compliance Matrix: (Units=1/GPa)
#
#
# Indices 1 2 3 4 5 6 
#
# 1 0.010319 -0.000809 -0.002717 0.000000 0.000000 0.000000
# 2 -0.000809 0.011578 -0.004985 0.000000 0.000000 0.000000
# 3 -0.002717 -0.004985 0.013594 0.000000 0.000000 0.000000
# 4 0.000000 0.000000 0.000000 -0.237874 0.000000 0.000000
# 5 0.000000 0.000000 0.000000 0.000000 0.003602 0.000000
# 6 0.000000 0.000000 0.000000 0.000000 0.000000 0.027577
#
#
# Mechanical properties :
#
#
# Convention : Reuss Voigt Hill
#
# Bulk Modulus (GPa) = 54.14592 54.30376 54.22484
# Shear Modulus (GPa) = -33.77772 76.35697 21.28963
#
# Velocity S-wave (km/s) = -4.10082 6.16566 3.25566
# Velocity P-wave (km/s) = 2.12956 8.81607 6.41319
#
# Compressibility (1/GPa) = 0.01846861
#
# Stress axis : x y z
#
# Youngs Moduli (GPa) = 96.91279 86.37050 73.56138
#
# Poissons Ratio (x) = 0.06990 0.19984
# Poissons Ratio (y) = 0.07844 0.36670
# Poissons Ratio (z) = 0.26328 0.43056
#
# Static dielectric constant tensor:
#      x y z
#    x 3.798270 0.000000 0.000000 
#    y 0.000000 3.940240 0.000000 
#    z 0.000000 0.000000 3.659370 
# 
# 
# High freq. dielectric constant tensor:
#      x y z
#    x 1.805990 0.000000 0.000000 
#    y 0.000000 1.782440 0.000000 
#    z 0.000000 0.000000 1.762940 
# 
# From -- ./inp_files/22859.got.cif
#   From: 2010.03.12/outbox.cif.g09.slc.cpg/sg54_12_cif.got.tgz:22859.got - 2010.04.16 15:00:50.
