data_PCOD8222413
_publ_section_title
;
Structure prediction by ZEFSAII (Michael W. Deem and Ramdas Pophale) SiO2 
 PCOD8222413
Probable space group: P C C A
;
_chemical_formula_sum "Si O2"
_cell_formula_units_Z 44
_cell_length_a 32.214451
_cell_length_b 6.010060
_cell_length_c 8.237566
_cell_angle_alpha 90.000000
_cell_angle_beta 90.000000
_cell_angle_gamma 90.000000
_cell_volume 1594.881606
_symmetry_space_group_name_H-M "P C C A"
_symmetry_group_IT_number 54
_symmetry_cell_setting 'orthorhombic'
loop_
_space_group_symop_operation_xyz
x,y,z
1/2-x,-y,z
1/2+x,-y,1/2-z
-x,y,1/2-z
-x,-y,-z
1/2+x,y,-z
1/2-x,y,1/2+z
x,-y,1/2+z
loop_
_atom_site_type_symbol
_atom_site_label
_atom_site_fract_x
_atom_site_fract_y
_atom_site_fract_z
Si Si1 0.000000 0.887435 0.250000
Si Si2 0.122733 0.575053 0.824509
Si Si3 0.216074 0.211332 0.880047
Si Si4 0.632912 0.161179 0.996730
Si Si5 0.442367 0.833436 0.480722
Si Si6 0.199969 0.700112 0.004994
O O1 0.026138 0.042592 0.366307
O O2 0.032528 0.746007 0.140390
O O3 0.130826 0.648351 0.640782
O O4 0.128257 0.307525 0.837004
O O5 0.153388 0.725989 0.934655
O O6 0.075774 0.624212 0.883985
O O7 0.203938 0.242510 0.694265
O O8 0.180343 0.058841 0.979300
O O9 0.211719 0.442186 0.977288
O O10 0.265790 0.149395 0.901548
O O11 0.595906 0.991987 0.966459
#
# Coordination Sequence:
#
# PCOD8222413 Si02
#       6
#     4   8   8   8   8   8
#     4  10  24  46  70  90 120 166 200 258 326 380
#     4  11  23  39  65  96 127 166 210 254 306 368
#     4  10  18  31  54  85 126 167 207 252 298 356
#     4  11  23  39  65  96 127 166 210 254 306 368
#     4  11  24  46  69  90 128 160 205 258 318 379
#     4  10  18  31  54  85 126 167 207 252 298 356
#
# _framework density 27.588255
#
# number of rings (size 3 to 8) (size 9 to 14) (size 15 to 20)
#    0.000    1.455    1.818    7.636    5.091    0.000 
#    0.000    6.364    0.000    4.364    0.000    0.000 
#    0.000    0.000    0.000    0.000    0.000    0.000 
#
# Total GULP energy -545363.243230 kJ/mol
# GULP energy per Si atom -12394.619164 kJ/mol
# Density = 2.752546 g / cm^3
# Si number density = 27.588255 Si / 1000 Ang^3
#
#
#
# Elastic Constant Matrix: (Units=GPa)
#
#
# Indices 1 2 3 4 5 6 
#
# 1 135.7804 11.2617 19.2357 0.0000 0.0000 0.0000
# 2 11.2617 36.4682 -10.5207 0.0000 0.0000 0.0000
# 3 19.2357 -10.5207 110.6621 0.0000 0.0000 0.0000
# 4 0.0000 0.0000 0.0000 51.6069 0.0000 0.0000
# 5 0.0000 0.0000 0.0000 0.0000 50.3025 0.0000
# 6 0.0000 0.0000 0.0000 0.0000 0.0000 26.3356
#
#
#
# Elastic Compliance Matrix: (Units=1/GPa)
#
#
# Indices 1 2 3 4 5 6 
#
# 1 0.007837 -0.002892 -0.001637 0.000000 0.000000 0.000000
# 2 -0.002892 0.029262 0.003285 0.000000 0.000000 0.000000
# 3 -0.001637 0.003285 0.009633 0.000000 0.000000 0.000000
# 4 0.000000 0.000000 0.000000 0.019377 0.000000 0.000000
# 5 0.000000 0.000000 0.000000 0.000000 0.019880 0.000000
# 6 0.000000 0.000000 0.000000 0.000000 0.000000 0.037971
#
#
# Mechanical properties :
#
#
# Convention : Reuss Voigt Hill
#
# Bulk Modulus (GPa) = 22.60279 35.87380 29.23829
# Shear Modulus (GPa) = 35.41141 43.17792 39.29467
#
# Velocity S-wave (km/s) = 3.58658 3.96041 3.77812
# Velocity P-wave (km/s) = 5.03608 5.82620 5.44549
#
# Compressibility (1/GPa) = 0.04424233
#
# Stress axis : x y z
#
# Youngs Moduli (GPa) = 127.60542 34.17412 103.80580
#
# Poissons Ratio (x) = 0.09884 0.16995
# Poissons Ratio (y) = 0.36908 -0.34097
# Poissons Ratio (z) = 0.20891 -0.11225
#
# Static dielectric constant tensor:
#      x y z
#    x 6.343500 0.000000 0.000000 
#    y 0.000000 5.236580 0.000000 
#    z 0.000000 0.000000 4.979480 
# 
# 
# High freq. dielectric constant tensor:
#      x y z
#    x 2.152970 0.000000 0.000000 
#    y 0.000000 2.136250 0.000000 
#    z 0.000000 0.000000 2.109850 
# 
# From -- ./inp_files/5781.got.cif
#   From: 2010.03.12/outbox.cif.g09.slc.cpg/sg54_3_cif.got.tgz:5781.got - 2010.04.16 15:00:50.
