data_PCOD8222866
_publ_section_title
;
Structure prediction by ZEFSAII (Michael W. Deem and Ramdas Pophale) SiO2 
 PCOD8222866
Probable space group: P C C A
;
_chemical_formula_sum "Si O2"
_cell_formula_units_Z 40
_cell_length_a 17.348824
_cell_length_b 10.646212
_cell_length_c 10.384695
_cell_angle_alpha 90.000000
_cell_angle_beta 90.000000
_cell_angle_gamma 90.000000
_cell_volume 1918.045464
_symmetry_space_group_name_H-M "P C C A"
_symmetry_group_IT_number 54
_symmetry_cell_setting 'orthorhombic'
loop_
_space_group_symop_operation_xyz
x,y,z
1/2-x,-y,z
1/2+x,-y,1/2-z
-x,y,1/2-z
-x,-y,-z
1/2+x,y,-z
1/2-x,y,1/2+z
x,-y,1/2+z
loop_
_atom_site_type_symbol
_atom_site_label
_atom_site_fract_x
_atom_site_fract_y
_atom_site_fract_z
Si Si1 0.640724 0.801775 0.120561
Si Si2 0.250000 0.000000 0.769213
Si Si3 0.087003 0.390536 0.740372
Si Si4 0.335858 0.535570 0.468376
Si Si5 0.500000 0.083041 0.750000
Si Si6 0.101938 0.120013 0.652310
O O1 0.667438 0.658493 0.123083
O O2 0.570963 0.826711 0.217872
O O3 0.713940 0.891227 0.142123
O O4 0.600438 0.824698 0.987140
O O5 0.315648 0.941555 0.680796
O O6 0.121197 0.446061 0.605902
O O7 0.128601 0.431359 0.873276
O O8 0.088539 0.238286 0.747271
O O9 0.000000 0.440427 0.750000
O O10 0.250000 0.500000 0.508776
O O11 0.465516 0.984119 0.647062
#
# Coordination Sequence:
#
# PCOD8222866 Si02
#       6
#     8   4   8   8   4   8
#     4  10  22  37  60  88 123 155 209 249 314 365
#     4  10  20  36  60  90 120 160 202 256 310 376
#     4  11  23  42  65  93 129 169 215 261 319 374
#     4  11  24  42  64  93 129 167 213 262 316 378
#     4  10  20  38  58  88 120 160 200 256 302 376
#     4  10  20  38  61  86 124 160 206 251 316 364
#
# _framework density 20.854562999999999
#
# number of rings (size 3 to 8) (size 9 to 14) (size 15 to 20)
#    0.000    1.600    1.000    3.600    1.400    1.600 
#    0.000    4.000    0.000    0.000    0.000    0.000 
#    0.000    0.000    0.000    0.000    0.000    0.000 
#
# Total GULP energy -495602.035000 kJ/mol
# GULP energy per Si atom -12390.050875 kJ/mol
# Density = 2.080710 g / cm^3
# Si number density = 20.854563 Si / 1000 Ang^3
#
#
#
# Elastic Constant Matrix: (Units=GPa)
#
#
# Indices 1 2 3 4 5 6 
#
# 1 112.9323 20.3542 18.8068 0.0000 0.0000 0.0000
# 2 20.3542 81.7409 16.9799 0.0000 0.0000 0.0000
# 3 18.8068 16.9799 66.2717 0.0000 0.0000 0.0000
# 4 0.0000 0.0000 0.0000 32.5271 0.0000 0.0000
# 5 0.0000 0.0000 0.0000 0.0000 23.6797 0.0000
# 6 0.0000 0.0000 0.0000 0.0000 0.0000 26.2805
#
#
#
# Elastic Compliance Matrix: (Units=1/GPa)
#
#
# Indices 1 2 3 4 5 6 
#
# 1 0.009572 -0.001921 -0.002224 0.000000 0.000000 0.000000
# 2 -0.001921 0.013307 -0.002864 0.000000 0.000000 0.000000
# 3 -0.002224 -0.002864 0.016454 0.000000 0.000000 0.000000
# 4 0.000000 0.000000 0.000000 0.030744 0.000000 0.000000
# 5 0.000000 0.000000 0.000000 0.000000 0.042230 0.000000
# 6 0.000000 0.000000 0.000000 0.000000 0.000000 0.038051
#
#
# Mechanical properties :
#
#
# Convention : Reuss Voigt Hill
#
# Bulk Modulus (GPa) = 39.50401 41.46964 40.48682
# Shear Modulus (GPa) = 28.93264 30.15106 29.54185
#
# Velocity S-wave (km/s) = 3.72876 3.80646 3.76781
# Velocity P-wave (km/s) = 6.12552 6.26476 6.19553
#
# Compressibility (1/GPa) = 0.02531388
#
# Stress axis : x y z
#
# Youngs Moduli (GPa) = 104.47656 75.14720 60.77408
#
# Poissons Ratio (x) = 0.14439 0.13516
# Poissons Ratio (y) = 0.20074 0.17407
# Poissons Ratio (z) = 0.23235 0.21524
#
# Static dielectric constant tensor:
#      x y z
#    x 3.871370 0.000000 0.000000 
#    y 0.000000 4.150320 0.000000 
#    z 0.000000 0.000000 3.586280 
# 
# 
# High freq. dielectric constant tensor:
#      x y z
#    x 1.831360 0.000000 0.000000 
#    y 0.000000 1.826810 0.000000 
#    z 0.000000 0.000000 1.805230 
# 
# From -- ./inp_files/4001.got.cif
#   From: 2010.03.12/outbox.cif.g09.slc.cpg/sg54_3_cif.got.tgz:4001.got - 2010.04.16 15:00:50.
