data_PCOD8222580
_publ_section_title
;
Structure prediction by ZEFSAII (Michael W. Deem and Ramdas Pophale) SiO2 
 PCOD8222580
Probable space group: P C C A
;
_chemical_formula_sum "Si O2"
_cell_formula_units_Z 36
_cell_length_a 5.043041
_cell_length_b 23.271895
_cell_length_c 16.083355
_cell_angle_alpha 90.000000
_cell_angle_beta 90.000000
_cell_angle_gamma 90.000000
_cell_volume 1887.560566
_symmetry_space_group_name_H-M "P C C A"
_symmetry_group_IT_number 54
_symmetry_cell_setting 'orthorhombic'
loop_
_space_group_symop_operation_xyz
x,y,z
1/2-x,-y,z
1/2+x,-y,1/2-z
-x,y,1/2-z
-x,-y,-z
1/2+x,y,-z
1/2-x,y,1/2+z
x,-y,1/2+z
loop_
_atom_site_type_symbol
_atom_site_label
_atom_site_fract_x
_atom_site_fract_y
_atom_site_fract_z
Si Si1 0.250359 0.566039 0.194848
Si Si2 0.250000 0.000000 0.191899
Si Si3 0.665320 0.778037 0.447495
Si Si4 0.754156 0.903161 0.942542
Si Si5 0.206300 0.342341 0.555065
O O1 0.250000 0.500000 0.165360
O O2 0.500000 0.580945 0.250000
O O3 0.260869 0.604405 0.113689
O O4 0.000000 0.581818 0.250000
O O5 0.199373 0.054780 0.133957
O O6 0.500000 0.011540 0.250000
O O7 0.354692 0.776549 0.470443
O O8 0.726319 0.838756 0.402595
O O9 0.741445 0.719330 0.397569
O O10 0.470325 0.913465 0.985179
O O11 0.405747 0.345947 0.476905
#
# Coordination Sequence:
#
# PCOD8222580 Si02
#       5
#     8   4   8   8   8
#     4  10  21  36  51  71 103 139 170 203 248 302
#     4  12  24  36  50  78 112 132 160 216 264 284
#     4   8  16  30  51  76  99 124 163 211 247 287
#     4  10  19  36  58  75  96 137 179 200 237 309
#     4  10  19  33  54  79 102 127 166 214 255 291
#
# _framework density 19.072234000000002
#
# number of rings (size 3 to 8) (size 9 to 14) (size 15 to 20)
#    0.000    2.222    0.000    3.333    0.000    0.889 
#    0.000    2.222    0.000    0.000    0.000    0.000 
#    0.000    0.000    0.000    0.000    0.000    0.000 
#
# Total GULP energy -446163.235755 kJ/mol
# GULP energy per Si atom -12393.423215 kJ/mol
# Density = 1.902882 g / cm^3
# Si number density = 19.072234 Si / 1000 Ang^3
#
#
#
# Elastic Constant Matrix: (Units=GPa)
#
#
# Indices 1 2 3 4 5 6 
#
# 1 99.2053 16.0848 11.5558 0.0000 0.0000 0.0000
# 2 16.0848 138.9281 52.8113 0.0000 0.0000 0.0000
# 3 11.5558 52.8113 52.6913 0.0000 0.0000 0.0000
# 4 0.0000 0.0000 0.0000 -0.8382 0.0000 0.0000
# 5 0.0000 0.0000 0.0000 0.0000 29.1939 0.0000
# 6 0.0000 0.0000 0.0000 0.0000 0.0000 27.3893
#
#
#
# Elastic Compliance Matrix: (Units=1/GPa)
#
#
# Indices 1 2 3 4 5 6 
#
# 1 0.010370 -0.000543 -0.001730 0.000000 0.000000 0.000000
# 2 -0.000543 0.011657 -0.011564 0.000000 0.000000 0.000000
# 3 -0.001730 -0.011564 0.030948 0.000000 0.000000 0.000000
# 4 0.000000 0.000000 0.000000 -1.192976 0.000000 0.000000
# 5 0.000000 0.000000 0.000000 0.000000 0.034254 0.000000
# 6 0.000000 0.000000 0.000000 0.000000 0.000000 0.036511
#
#
# Mechanical properties :
#
#
# Convention : Reuss Voigt Hill
#
# Bulk Modulus (GPa) = 39.52493 50.19207 44.85850
# Shear Modulus (GPa) = -4.83967 25.17384 10.16709
#
# Velocity S-wave (km/s) = -1.59470 3.63701 2.31136
# Velocity P-wave (km/s) = 4.16870 6.63409 5.54027
#
# Compressibility (1/GPa) = 0.02530049
#
# Stress axis : x y z
#
# Youngs Moduli (GPa) = 96.43518 85.78674 32.31176
#
# Poissons Ratio (x) = 0.04658 0.05590
# Poissons Ratio (y) = 0.05236 0.37366
# Poissons Ratio (z) = 0.16683 0.99206
#
# Static dielectric constant tensor:
#      x y z
#    x 3.666450 0.000000 0.000000 
#    y 0.000000 3.970510 0.000000 
#    z 0.000000 0.000000 2.908170 
# 
# 
# High freq. dielectric constant tensor:
#      x y z
#    x 1.769500 0.000000 0.000000 
#    y 0.000000 1.770270 0.000000 
#    z 0.000000 0.000000 1.677540 
# 
# From -- ./inp_files/6346.got.cif
#   From: 2010.03.12/outbox.cif.g09.slc.cpg/sg54_4_cif.got.tgz:6346.got - 2010.04.16 15:00:50.
