data_PCOD8222696
_publ_section_title
;
Structure prediction by ZEFSAII (Michael W. Deem and Ramdas Pophale) SiO2 
 PCOD8222696
Probable space group: P C C A
;
_chemical_formula_sum "Si O2"
_cell_formula_units_Z 60
_cell_length_a 9.757796
_cell_length_b 17.193555
_cell_length_c 17.379038
_cell_angle_alpha 90.000000
_cell_angle_beta 90.000000
_cell_angle_gamma 90.000000
_cell_volume 2915.702098
_symmetry_space_group_name_H-M "P C C A"
_symmetry_group_IT_number 54
_symmetry_cell_setting 'orthorhombic'
loop_
_space_group_symop_operation_xyz
x,y,z
1/2-x,-y,z
1/2+x,-y,1/2-z
-x,y,1/2-z
-x,-y,-z
1/2+x,y,-z
1/2-x,y,1/2+z
x,-y,1/2+z
loop_
_atom_site_type_symbol
_atom_site_label
_atom_site_fract_x
_atom_site_fract_y
_atom_site_fract_z
Si Si1 0.302188 0.776069 0.888844
Si Si2 0.005306 0.801095 0.661558
Si Si3 0.623364 0.700148 0.458939
Si Si4 0.879813 0.956609 0.902859
Si Si5 0.250000 0.500000 0.909349
Si Si6 0.635457 0.940631 0.576444
Si Si7 0.885552 0.604600 0.476468
Si Si8 0.566449 0.620679 0.667041
O O1 0.141343 0.781556 0.873774
O O2 0.362269 0.861867 0.872845
O O3 0.383698 0.710464 0.839727
O O4 0.324442 0.761099 0.978507
O O5 0.000000 0.780303 0.750000
O O6 0.116871 0.743974 0.622609
O O7 0.055607 0.889488 0.650067
O O8 0.729899 0.629593 0.457939
O O9 0.471893 0.669920 0.479255
O O10 0.750000 0.000000 0.863317
O O11 0.836869 0.922290 0.986139
O O12 0.986721 0.025256 0.913125
O O13 0.198707 0.432157 0.852021
O O14 0.372031 0.469320 0.965940
O O15 0.750000 0.000000 0.608040
O O16 0.954241 0.591005 0.394038
O O17 0.500000 0.605980 0.750000
#
# Coordination Sequence:
#
# PCOD8222696 Si02
#       8
#     8   8   8   8   4   8   8   8
#     4  11  22  44  68  92 134 177 234 276 335 413
#     4  12  25  41  63  97 138 176 219 288 357 408
#     4  11  22  42  71  99 128 178 230 280 333 413
#     4  10  22  37  60  96 125 166 232 281 335 396
#     4  12  22  48  72 102 138 182 236 278 342 422
#     4  10  19  37  69  93 120 175 232 284 323 395
#     4  11  23  43  73  98 132 178 231 276 330 424
#     4  11  27  45  67 107 142 176 228 288 355 414
#
# _framework density 20.578234999999999
#
# number of rings (size 3 to 8) (size 9 to 14) (size 15 to 20)
#    0.000    1.067    6.667    0.400    1.867    2.667 
#    2.400    0.667    0.000    0.000    0.000    0.000 
#    0.000    0.000    0.000    0.000    0.000    0.000 
#
# Total GULP energy -743737.707535 kJ/mol
# GULP energy per Si atom -12395.628459 kJ/mol
# Density = 2.053140 g / cm^3
# Si number density = 20.578235 Si / 1000 Ang^3
#
#
#
# Elastic Constant Matrix: (Units=GPa)
#
#
# Indices 1 2 3 4 5 6 
#
# 1 106.0007 40.5101 37.2613 0.0000 0.0000 0.0000
# 2 40.5101 110.6938 53.0016 0.0000 0.0000 0.0000
# 3 37.2613 53.0016 113.6584 0.0000 0.0000 0.0000
# 4 0.0000 0.0000 0.0000 22.2513 0.0000 0.0000
# 5 0.0000 0.0000 0.0000 0.0000 18.2863 0.0000
# 6 0.0000 0.0000 0.0000 0.0000 0.0000 14.5040
#
#
#
# Elastic Compliance Matrix: (Units=1/GPa)
#
#
# Indices 1 2 3 4 5 6 
#
# 1 0.011421 -0.003073 -0.002311 0.000000 0.000000 0.000000
# 2 -0.003073 0.012458 -0.004802 0.000000 0.000000 0.000000
# 3 -0.002311 -0.004802 0.011795 0.000000 0.000000 0.000000
# 4 0.000000 0.000000 0.000000 0.044941 0.000000 0.000000
# 5 0.000000 0.000000 0.000000 0.000000 0.054686 0.000000
# 6 0.000000 0.000000 0.000000 0.000000 0.000000 0.068947
#
#
# Mechanical properties :
#
#
# Convention : Reuss Voigt Hill
#
# Bulk Modulus (GPa) = 65.35248 65.76655 65.55951
# Shear Modulus (GPa) = 21.76564 24.31364 23.03964
#
# Velocity S-wave (km/s) = 3.25576 3.44106 3.34969
# Velocity P-wave (km/s) = 6.77940 6.91495 6.84751
#
# Compressibility (1/GPa) = 0.01530164
#
# Stress axis : x y z
#
# Youngs Moduli (GPa) = 87.56033 80.27125 84.78028
#
# Poissons Ratio (x) = 0.24667 0.19594
# Poissons Ratio (y) = 0.26907 0.40711
# Poissons Ratio (z) = 0.20236 0.38546
#
# Static dielectric constant tensor:
#      x y z
#    x 3.624970 0.000000 0.000000 
#    y 0.000000 3.743610 0.000000 
#    z 0.000000 0.000000 3.503690 
# 
# 
# High freq. dielectric constant tensor:
#      x y z
#    x 1.815050 0.000000 0.000000 
#    y 0.000000 1.813480 0.000000 
#    z 0.000000 0.000000 1.773800 
# 
# From -- ./inp_files/16844.got.cif
#   From: 2010.03.12/outbox.cif.g09.slc.cpg/sg54_9_cif.got.tgz:16844.got - 2010.04.16 15:00:50.
