data_PCOD8222964
_publ_section_title
;
Structure prediction by ZEFSAII (Michael W. Deem and Ramdas Pophale) SiO2 
 PCOD8222964
Probable space group: P C C A
;
_chemical_formula_sum "Si O2"
_cell_formula_units_Z 40
_cell_length_a 9.108063
_cell_length_b 18.699261
_cell_length_c 11.573111
_cell_angle_alpha 90.000000
_cell_angle_beta 90.000000
_cell_angle_gamma 90.000000
_cell_volume 1971.063374
_symmetry_space_group_name_H-M "P C C A"
_symmetry_group_IT_number 54
_symmetry_cell_setting 'orthorhombic'
loop_
_space_group_symop_operation_xyz
x,y,z
1/2-x,-y,z
1/2+x,-y,1/2-z
-x,y,1/2-z
-x,-y,-z
1/2+x,y,-z
1/2-x,y,1/2+z
x,-y,1/2+z
loop_
_atom_site_type_symbol
_atom_site_label
_atom_site_fract_x
_atom_site_fract_y
_atom_site_fract_z
Si Si1 0.250000 0.000000 0.505311
Si Si2 0.285454 0.320011 0.060776
Si Si3 0.998989 0.248596 0.113044
Si Si4 0.128349 0.449396 0.952762
Si Si5 0.001665 0.086627 0.115375
Si Si6 0.500000 0.356938 0.250000
O O1 0.128437 0.037326 0.428064
O O2 0.336264 0.059771 0.578943
O O3 0.376690 0.311674 0.181260
O O4 0.161293 0.260535 0.064340
O O5 0.387137 0.303497 0.949346
O O6 0.206814 0.398125 0.048876
O O7 0.965490 0.167425 0.076312
O O8 0.000000 0.262995 0.250000
O O9 0.250000 0.500000 0.898387
O O10 0.072663 0.403289 0.848261
O O11 0.000000 0.500000 0.000000
O O12 0.000000 0.082343 0.250000
#
# Coordination Sequence:
#
# PCOD8222964 Si02
#       6
#     4   8   8   8   8   4
#     4  10  20  38  62  92 130 160 206 260 300 366
#     4  12  24  46  64  96 126 166 214 264 318 381
#     4  11  24  42  66  92 130 170 212 261 313 376
#     4  12  25  44  63  92 122 161 208 259 320 378
#     4  10  21  38  63  92 125 167 207 253 308 364
#     4  12  26  42  70  90 124 164 206 266 320 382
#
# _framework density 20.293614999999999
#
# number of rings (size 3 to 8) (size 9 to 14) (size 15 to 20)
#    0.000    0.800    4.000    3.000    2.800    0.000 
#    1.800    0.000    4.400    0.000    0.000    0.000 
#    0.000    0.000    0.000    0.000    0.000    0.000 
#
# Total GULP energy -495806.216180 kJ/mol
# GULP energy per Si atom -12395.155404 kJ/mol
# Density = 2.024743 g / cm^3
# Si number density = 20.293615 Si / 1000 Ang^3
#
#
#
# Elastic Constant Matrix: (Units=GPa)
#
#
# Indices 1 2 3 4 5 6 
#
# 1 131.7582 44.8721 34.5741 0.0000 0.0000 0.0000
# 2 44.8721 89.4643 41.9416 0.0000 0.0000 0.0000
# 3 34.5741 41.9416 63.0843 0.0000 0.0000 0.0000
# 4 0.0000 0.0000 0.0000 -76.1389 0.0000 0.0000
# 5 0.0000 0.0000 0.0000 0.0000 39.9931 0.0000
# 6 0.0000 0.0000 0.0000 0.0000 0.0000 42.6392
#
#
#
# Elastic Compliance Matrix: (Units=1/GPa)
#
#
# Indices 1 2 3 4 5 6 
#
# 1 0.009521 -0.003384 -0.002968 0.000000 0.000000 0.000000
# 2 -0.003384 0.017442 -0.009742 0.000000 0.000000 0.000000
# 3 -0.002968 -0.009742 0.023955 0.000000 0.000000 0.000000
# 4 0.000000 0.000000 0.000000 -0.013134 0.000000 0.000000
# 5 0.000000 0.000000 0.000000 0.000000 0.025004 0.000000
# 6 0.000000 0.000000 0.000000 0.000000 0.000000 0.023453
#
#
# Mechanical properties :
#
#
# Convention : Reuss Voigt Hill
#
# Bulk Modulus (GPa) = 53.38876 58.56473 55.97674
# Shear Modulus (GPa) = 40.10512 12.15994 26.13253
#
# Velocity S-wave (km/s) = 4.45032 2.45051 3.59238
# Velocity P-wave (km/s) = 7.26446 6.07684 6.69703
#
# Compressibility (1/GPa) = 0.01873054
#
# Stress axis : x y z
#
# Youngs Moduli (GPa) = 105.03132 57.33355 41.74422
#
# Poissons Ratio (x) = 0.19400 0.12391
# Poissons Ratio (y) = 0.35540 0.40666
# Poissons Ratio (z) = 0.31177 0.55852
#
# Static dielectric constant tensor:
#      x y z
#    x 3.872920 0.000000 0.000000 
#    y 0.000000 3.992740 0.000000 
#    z 0.000000 0.000000 3.833780 
# 
# 
# High freq. dielectric constant tensor:
#      x y z
#    x 1.819290 0.000000 0.000000 
#    y 0.000000 1.795000 0.000000 
#    z 0.000000 0.000000 1.789180 
# 
# From -- ./inp_files/6897.got.cif
#   From: 2010.03.12/outbox.cif.g09.slc.cpg/sg54_4_cif.got.tgz:6897.got - 2010.04.16 15:00:50.
