data_PCOD8222081
_publ_section_title
;
Structure prediction by ZEFSAII (Michael W. Deem and Ramdas Pophale) SiO2 
 PCOD8222081
Probable space group: P M N A
;
_chemical_formula_sum "Si O2"
_cell_formula_units_Z 48
_cell_length_a 8.905201
_cell_length_b 16.617227
_cell_length_c 18.097337
_cell_angle_alpha 90.000000
_cell_angle_beta 90.000000
_cell_angle_gamma 90.000000
_cell_volume 2678.039342
_symmetry_space_group_name_H-M "P M N A"
_symmetry_group_IT_number 53
_symmetry_cell_setting 'orthorhombic'
loop_
_space_group_symop_operation_xyz
x,y,z
1/2-x,-y,1/2+z
x,-y,-z
1/2-x,y,1/2-z
-x,-y,-z
1/2+x,y,1/2-z
-x,y,z
1/2+x,-y,1/2+z
loop_
_atom_site_type_symbol
_atom_site_label
_atom_site_fract_x
_atom_site_fract_y
_atom_site_fract_z
Si Si1 0.822302 0.140437 0.170997
Si Si2 0.675123 0.333317 0.674002
Si Si3 0.323846 0.994376 0.085968
Si Si4 0.323984 0.831124 0.400853
Si Si5 0.177236 0.255780 0.045754
Si Si6 0.679175 0.585583 0.474953
O O1 0.750000 0.151201 0.250000
O O2 0.773583 0.219680 0.124402
O O3 0.000000 0.133439 0.178577
O O4 0.763290 0.061804 0.130711
O O5 0.750000 0.360916 0.750000
O O6 0.500000 0.346817 0.682679
O O7 0.710563 0.239666 0.657570
O O8 0.735401 0.389614 0.607042
O O9 0.500000 0.005571 0.098456
O O10 0.271479 0.909517 0.120414
O O11 0.279092 0.000000 0.000000
O O12 0.500000 0.852881 0.401981
O O13 0.264146 0.802585 0.480946
O O14 0.237351 0.346780 0.033453
O O15 0.000000 0.258185 0.037151
O O16 0.748168 0.500000 0.500000
O O17 0.500000 0.581872 0.475155
#
# Coordination Sequence:
#
# PCOD8222081 Si02
#       6
#     8   8   8   8   8   8
#     4  11  22  36  53  72 101 137 175 217 260 303
#     4   9  18  31  50  76 105 134 166 208 254 304
#     4  11  22  34  51  77 105 133 173 217 258 304
#     4   9  17  32  52  72  95 132 177 209 246 300
#     4   8  15  29  50  72  94 128 170 207 247 299
#     4   8  14  28  52  79 102 129 171 211 242 293
#
# _framework density 17.923559999999998
#
# number of rings (size 3 to 8) (size 9 to 14) (size 15 to 20)
#    0.000    2.667    1.667    3.000    0.000    2.000 
#    0.000    2.500    0.000    0.500    0.000    0.000 
#    0.000    0.000    0.000    0.000    0.000    0.000 
#
# Total GULP energy -594984.398551 kJ/mol
# GULP energy per Si atom -12395.508303 kJ/mol
# Density = 1.788277 g / cm^3
# Si number density = 17.923560 Si / 1000 Ang^3
#
#
#
# Elastic Constant Matrix: (Units=GPa)
#
#
# Indices 1 2 3 4 5 6 
#
# 1 40.9283 34.0974 40.5866 0.0000 0.0000 0.0000
# 2 34.0974 152.3045 77.3230 0.0000 0.0000 0.0000
# 3 40.5866 77.3230 140.5774 0.0000 0.0000 0.0000
# 4 0.0000 0.0000 0.0000 18.1239 0.0000 0.0000
# 5 0.0000 0.0000 0.0000 0.0000 21.4010 0.0000
# 6 0.0000 0.0000 0.0000 0.0000 0.0000 8.0528
#
#
#
# Elastic Compliance Matrix: (Units=1/GPa)
#
#
# Indices 1 2 3 4 5 6 
#
# 1 0.035781 -0.003838 -0.008220 0.000000 0.000000 0.000000
# 2 -0.003838 0.009521 -0.004129 0.000000 0.000000 0.000000
# 3 -0.008220 -0.004129 0.011758 0.000000 0.000000 0.000000
# 4 0.000000 0.000000 0.000000 0.055176 0.000000 0.000000
# 5 0.000000 0.000000 0.000000 0.000000 0.046727 0.000000
# 6 0.000000 0.000000 0.000000 0.000000 0.000000 0.124180
#
#
# Mechanical properties :
#
#
# Convention : Reuss Voigt Hill
#
# Bulk Modulus (GPa) = 40.50631 70.86936 55.68784
# Shear Modulus (GPa) = 15.44429 21.63577 18.54003
#
# Velocity S-wave (km/s) = 2.93862 3.47812 3.21969
# Velocity P-wave (km/s) = 5.84487 7.46695 6.70514
#
# Compressibility (1/GPa) = 0.02468751
#
# Stress axis : x y z
#
# Youngs Moduli (GPa) = 27.94771 105.02861 85.04982
#
# Poissons Ratio (x) = 0.40305 0.69908
# Poissons Ratio (y) = 0.10725 0.35118
# Poissons Ratio (z) = 0.22972 0.43367
#
# Static dielectric constant tensor:
#      x y z
#    x 2.969720 0.000000 0.000000 
#    y 0.000000 3.589780 0.000000 
#    z 0.000000 0.000000 3.659200 
# 
# 
# High freq. dielectric constant tensor:
#      x y z
#    x 1.662300 0.000000 0.000000 
#    y 0.000000 1.693680 0.000000 
#    z 0.000000 0.000000 1.688730 
# 
# From -- ./inp_files/20227.got.cif
#   From: 2010.03.12/outbox.cif.g09.slc.cpg/sg53_11_cif.got.tgz:20227.got - 2010.04.16 14:36:59.
