data_PCOD8222047
_publ_section_title
;
Structure prediction by ZEFSAII (Michael W. Deem and Ramdas Pophale) SiO2 
 PCOD8222047
Probable space group: P M N A
;
_chemical_formula_sum "Si O2"
_cell_formula_units_Z 40
_cell_length_a 8.393810
_cell_length_b 7.701998
_cell_length_c 28.703815
_cell_angle_alpha 90.000000
_cell_angle_beta 90.000000
_cell_angle_gamma 90.000000
_cell_volume 1855.676031
_symmetry_space_group_name_H-M "P M N A"
_symmetry_group_IT_number 53
_symmetry_cell_setting 'orthorhombic'
loop_
_space_group_symop_operation_xyz
x,y,z
1/2-x,-y,1/2+z
x,-y,-z
1/2-x,y,1/2-z
-x,-y,-z
1/2+x,y,1/2-z
-x,y,z
1/2+x,-y,1/2+z
loop_
_atom_site_type_symbol
_atom_site_label
_atom_site_fract_x
_atom_site_fract_y
_atom_site_fract_z
Si Si1 0.315239 0.163311 0.550879
Si Si2 0.185875 0.214196 0.454924
Si Si3 0.815845 0.696924 0.356815
Si Si4 0.688415 0.989205 0.699174
Si Si5 0.314084 0.338734 0.361105
O O1 0.500000 0.112262 0.547144
O O2 0.259861 0.267854 0.504914
O O3 0.287074 0.277206 0.596484
O O4 0.212430 0.988829 0.554947
O O5 0.272874 0.326581 0.415629
O O6 0.000000 0.257720 0.454188
O O7 0.777270 0.503130 0.338699
O O8 0.000000 0.717619 0.368872
O O9 0.768297 0.832071 0.316931
O O10 0.750000 0.940789 0.750000
O O11 0.500000 0.012699 0.698570
O O12 0.743825 0.835149 0.664918
O O13 0.500000 0.367391 0.353886
#
# Coordination Sequence:
#
# PCOD8222047 Si02
#       5
#     8   8   8   8   8
#     4  11  21  37  61  91 130 175 219 262 319 380
#     4  11  21  36  61  94 130 171 219 265 318 377
#     4  12  25  42  67  98 133 170 217 269 322 383
#     4  11  25  46  72  97 128 167 212 266 328 390
#     4  11  24  43  67  96 132 173 217 264 323 386
#
# _framework density 21.555488
#
# number of rings (size 3 to 8) (size 9 to 14) (size 15 to 20)
#    0.000    0.800    2.000    7.800    0.000    4.000 
#    0.000    6.000    0.000    0.000    0.000    0.000 
#    0.000    0.000    0.000    0.000    0.000    0.000 
#
# Total GULP energy -496289.950604 kJ/mol
# GULP energy per Si atom -12407.248765 kJ/mol
# Density = 2.150643 g / cm^3
# Si number density = 21.555488 Si / 1000 Ang^3
#
#
#
# Elastic Constant Matrix: (Units=GPa)
#
#
# Indices 1 2 3 4 5 6 
#
# 1 88.1474 17.6098 24.7905 0.0000 0.0000 0.0000
# 2 17.6098 79.7151 16.9933 0.0000 0.0000 0.0000
# 3 24.7905 16.9933 99.5766 0.0000 0.0000 0.0000
# 4 0.0000 0.0000 0.0000 28.3703 0.0000 0.0000
# 5 0.0000 0.0000 0.0000 0.0000 36.0206 0.0000
# 6 0.0000 0.0000 0.0000 0.0000 0.0000 30.8513
#
#
#
# Elastic Compliance Matrix: (Units=1/GPa)
#
#
# Indices 1 2 3 4 5 6 
#
# 1 0.012556 -0.002187 -0.002753 0.000000 0.000000 0.000000
# 2 -0.002187 0.013399 -0.001742 0.000000 0.000000 0.000000
# 3 -0.002753 -0.001742 0.011025 0.000000 0.000000 0.000000
# 4 0.000000 0.000000 0.000000 0.035248 0.000000 0.000000
# 5 0.000000 0.000000 0.000000 0.000000 0.027762 0.000000
# 6 0.000000 0.000000 0.000000 0.000000 0.000000 0.032414
#
#
# Mechanical properties :
#
#
# Convention : Reuss Voigt Hill
#
# Bulk Modulus (GPa) = 42.34321 42.91403 42.62862
# Shear Modulus (GPa) = 32.54378 32.91813 32.73096
#
# Velocity S-wave (km/s) = 3.88979 3.91210 3.90096
# Velocity P-wave (km/s) = 6.31351 6.35278 6.33318
#
# Compressibility (1/GPa) = 0.02361654
#
# Stress axis : x y z
#
# Youngs Moduli (GPa) = 79.64531 74.63151 90.70184
#
# Poissons Ratio (x) = 0.16321 0.24967
# Poissons Ratio (y) = 0.17417 0.15802
# Poissons Ratio (z) = 0.21923 0.13002
#
# Static dielectric constant tensor:
#      x y z
#    x 3.844780 0.000000 0.000000 
#    y 0.000000 3.852450 0.000000 
#    z 0.000000 0.000000 3.943850 
# 
# 
# High freq. dielectric constant tensor:
#      x y z
#    x 1.857730 0.000000 0.000000 
#    y 0.000000 1.843940 0.000000 
#    z 0.000000 0.000000 1.843470 
# 
# From -- ./inp_files/36034.got.cif
#   From: 2010.03.12/outbox.cif.g09.slc.cpg/sg53_19_cif.got.tgz:36034.got - 2010.04.16 14:36:59.
