data_PCOD8222149
_publ_section_title
;
Structure prediction by ZEFSAII (Michael W. Deem and Ramdas Pophale) SiO2 
 PCOD8222149
Probable space group: P M N A
;
_chemical_formula_sum "Si O2"
_cell_formula_units_Z 48
_cell_length_a 8.573211
_cell_length_b 30.658521
_cell_length_c 9.046668
_cell_angle_alpha 90.000000
_cell_angle_beta 90.000000
_cell_angle_gamma 90.000000
_cell_volume 2377.844034
_symmetry_space_group_name_H-M "P M N A"
_symmetry_group_IT_number 53
_symmetry_cell_setting 'orthorhombic'
loop_
_space_group_symop_operation_xyz
x,y,z
1/2-x,-y,1/2+z
x,-y,-z
1/2-x,y,1/2-z
-x,-y,-z
1/2+x,y,1/2-z
-x,y,z
1/2+x,-y,1/2+z
loop_
_atom_site_type_symbol
_atom_site_label
_atom_site_fract_x
_atom_site_fract_y
_atom_site_fract_z
Si Si1 0.684485 0.719045 0.087878
Si Si2 0.183599 0.121930 0.589041
Si Si3 0.315520 0.459931 0.091044
Si Si4 0.820377 0.043956 0.090959
Si Si5 0.315627 0.201626 0.411721
Si Si6 0.683621 0.363738 0.089639
O O1 0.750000 0.728266 0.250000
O O2 0.500000 0.723925 0.093108
O O3 0.751581 0.752592 0.969212
O O4 0.738634 0.671195 0.032552
O O5 0.250000 0.111402 0.750000
O O6 0.219169 0.081430 0.484057
O O7 0.264762 0.164855 0.526536
O O8 0.000000 0.129866 0.597824
O O9 0.250000 0.467789 0.250000
O O10 0.500000 0.462634 0.092056
O O11 0.261387 0.411890 0.034374
O O12 0.242572 0.500000 0.000000
O O13 0.750000 0.034342 0.250000
O O14 0.000000 0.059110 0.101962
O O15 0.803720 0.000000 0.000000
O O16 0.250000 0.190853 0.250000
O O17 0.500000 0.203555 0.402142
O O18 0.750000 0.351878 0.250000
O O19 0.500000 0.362273 0.108048
#
# Coordination Sequence:
#
# PCOD8222149 Si02
#       6
#     8   8   8   8   8   8
#     4  11  23  39  58  84 116 150 190 236 289 344
#     4  12  25  43  66  93 126 162 202 248 299 352
#     4   9  18  33  52  76 107 142 182 228 278 334
#     4  11  24  42  65  94 128 166 208 253 302 355
#     4  12  25  43  65  90 120 155 196 240 291 348
#     4   9  19  35  55  78 107 144 185 230 280 337
#
# _framework density 20.186353
#
# number of rings (size 3 to 8) (size 9 to 14) (size 15 to 20)
#    0.000    1.333    0.000    6.000    0.000    6.333 
#    0.000    0.000    0.000    0.000    0.000    0.000 
#    0.000    0.000    0.000    0.000    0.000    0.000 
#
# Total GULP energy -595302.617254 kJ/mol
# GULP energy per Si atom -12402.137859 kJ/mol
# Density = 2.014041 g / cm^3
# Si number density = 20.186353 Si / 1000 Ang^3
#
#
#
# Elastic Constant Matrix: (Units=GPa)
#
#
# Indices 1 2 3 4 5 6 
#
# 1 82.5471 37.0265 30.3752 0.0000 0.0000 0.0000
# 2 37.0265 112.1549 38.2185 0.0000 0.0000 0.0000
# 3 30.3752 38.2185 100.0373 0.0000 0.0000 0.0000
# 4 0.0000 0.0000 0.0000 16.2295 0.0000 0.0000
# 5 0.0000 0.0000 0.0000 0.0000 33.5424 0.0000
# 6 0.0000 0.0000 0.0000 0.0000 0.0000 27.5453
#
#
#
# Elastic Compliance Matrix: (Units=1/GPa)
#
#
# Indices 1 2 3 4 5 6 
#
# 1 0.014993 -0.003907 -0.003060 0.000000 0.000000 0.000000
# 2 -0.003907 0.011269 -0.003119 0.000000 0.000000 0.000000
# 3 -0.003060 -0.003119 0.012117 0.000000 0.000000 0.000000
# 4 0.000000 0.000000 0.000000 0.061616 0.000000 0.000000
# 5 0.000000 0.000000 0.000000 0.000000 0.029813 0.000000
# 6 0.000000 0.000000 0.000000 0.000000 0.000000 0.036304
#
#
# Mechanical properties :
#
#
# Convention : Reuss Voigt Hill
#
# Bulk Modulus (GPa) = 54.92318 56.21996 55.57157
# Shear Modulus (GPa) = 25.99403 28.07138 27.03270
#
# Velocity S-wave (km/s) = 3.59235 3.73314 3.66342
# Velocity P-wave (km/s) = 6.66887 6.81855 6.74413
#
# Compressibility (1/GPa) = 0.01820725
#
# Stress axis : x y z
#
# Youngs Moduli (GPa) = 66.69925 88.73995 82.52956
#
# Poissons Ratio (x) = 0.34671 0.25252
# Poissons Ratio (y) = 0.26059 0.25740
# Poissons Ratio (z) = 0.20408 0.27677
#
# Static dielectric constant tensor:
#      x y z
#    x 3.770910 0.000000 0.000000 
#    y 0.000000 4.261700 0.000000 
#    z 0.000000 0.000000 3.731910 
# 
# 
# High freq. dielectric constant tensor:
#      x y z
#    x 1.795300 0.000000 0.000000 
#    y 0.000000 1.809030 0.000000 
#    z 0.000000 0.000000 1.793220 
# 
# From -- ./inp_files/6719.got.cif
#   From: 2010.03.12/outbox.cif.g09.slc.cpg/sg53_4_cif.got.tgz:6719.got - 2010.04.16 14:36:59.
