data_PCOD8222070
_publ_section_title
;
Structure prediction by ZEFSAII (Michael W. Deem and Ramdas Pophale) SiO2 
 PCOD8222070
Probable space group: P M N A
;
_chemical_formula_sum "Si O2"
_cell_formula_units_Z 48
_cell_length_a 28.248339
_cell_length_b 8.683249
_cell_length_c 9.807980
_cell_angle_alpha 90.000000
_cell_angle_beta 90.000000
_cell_angle_gamma 90.000000
_cell_volume 2405.773535
_symmetry_space_group_name_H-M "P M N A"
_symmetry_group_IT_number 53
_symmetry_cell_setting 'orthorhombic'
loop_
_space_group_symop_operation_xyz
x,y,z
1/2-x,-y,1/2+z
x,-y,-z
1/2-x,y,1/2-z
-x,-y,-z
1/2+x,y,1/2-z
-x,y,z
1/2+x,-y,1/2+z
loop_
_atom_site_type_symbol
_atom_site_label
_atom_site_fract_x
_atom_site_fract_y
_atom_site_fract_z
Si Si1 0.649065 0.680109 0.009124
Si Si2 0.248209 0.343625 0.414544
Si Si3 0.157053 0.820827 0.972484
Si Si4 0.600303 0.325575 0.716679
Si Si5 0.500000 0.187169 0.661659
Si Si6 0.000000 0.174250 0.156368
Si Si7 0.095371 0.312158 0.251935
O O1 0.632744 0.735267 0.158283
O O2 0.657945 0.500000 0.000000
O O3 0.699895 0.745895 0.959007
O O4 0.606269 0.722914 0.909256
O O5 0.255294 0.500000 0.500000
O O6 0.250000 0.374354 0.250000
O O7 0.288887 0.230137 0.466474
O O8 0.133882 0.786289 0.828140
O O9 0.125993 0.729148 0.081509
O O10 0.153505 0.000000 0.000000
O O11 0.546928 0.260627 0.728350
O O12 0.598712 0.509096 0.713968
O O13 0.500000 0.219588 0.501345
O O14 0.500000 0.005882 0.686316
O O15 0.956264 0.251680 0.227776
#
# Coordination Sequence:
#
# PCOD8222070 Si02
#       7
#     8   8   8   8   4   4   8
#     4   9  22  41  64  95 127 157 209 273 315 362
#     4  11  23  43  70  97 127 166 216 265 313 371
#     4  12  25  41  61  93 132 169 208 260 318 378
#     4  11  23  41  68  94 123 166 220 262 314 379
#     4  11  23  40  59  94 133 167 204 266 323 384
#     4  11  23  38  63  92 131 165 208 266 323 382
#     4  11  21  41  67  94 120 165 214 265 312 371
#
# _framework density 19.952003000000001
#
# number of rings (size 3 to 8) (size 9 to 14) (size 15 to 20)
#    0.000    1.167    3.333    3.000    4.667    1.333 
#    3.000    6.667    0.000    0.000    0.000    0.000 
#    0.000    0.000    0.000    0.000    0.000    0.000 
#
# Total GULP energy -595127.053410 kJ/mol
# GULP energy per Si atom -12398.480279 kJ/mol
# Density = 1.990659 g / cm^3
# Si number density = 19.952003 Si / 1000 Ang^3
#
#
#
# Elastic Constant Matrix: (Units=GPa)
#
#
# Indices 1 2 3 4 5 6 
#
# 1 163.0867 36.3583 34.6711 0.0000 0.0000 0.0000
# 2 36.3583 60.1686 10.2700 0.0000 0.0000 0.0000
# 3 34.6711 10.2700 63.4134 0.0000 0.0000 0.0000
# 4 0.0000 0.0000 0.0000 7.5978 0.0000 0.0000
# 5 0.0000 0.0000 0.0000 0.0000 30.3748 0.0000
# 6 0.0000 0.0000 0.0000 0.0000 0.0000 1909.1135
#
#
#
# Elastic Compliance Matrix: (Units=1/GPa)
#
#
# Indices 1 2 3 4 5 6 
#
# 1 0.007814 -0.004106 -0.003607 0.000000 0.000000 0.000000
# 2 -0.004106 0.019250 -0.000873 0.000000 0.000000 0.000000
# 3 -0.003607 -0.000873 0.017883 0.000000 0.000000 0.000000
# 4 0.000000 0.000000 0.000000 0.131617 0.000000 0.000000
# 5 0.000000 0.000000 0.000000 0.000000 0.032922 0.000000
# 6 0.000000 0.000000 0.000000 0.000000 0.000000 0.000524
#
#
# Mechanical properties :
#
#
# Convention : Reuss Voigt Hill
#
# Bulk Modulus (GPa) = 36.00327 49.91862 42.96095
# Shear Modulus (GPa) = 21.14693 403.10852 212.12773
#
# Velocity S-wave (km/s) = 3.25913 14.22947 10.32230
# Velocity P-wave (km/s) = 5.67861 17.17684 12.79239
#
# Compressibility (1/GPa) = 0.02777525
#
# Stress axis : x y z
#
# Youngs Moduli (GPa) = 127.97542 51.94777 55.91863
#
# Poissons Ratio (x) = 0.21330 0.20171
# Poissons Ratio (y) = 0.52548 0.04880
# Poissons Ratio (z) = 0.46164 0.04533
#
# Static dielectric constant tensor:
#      x y z
#    x 3.941610 0.000000 0.000000 
#    y 0.000000 3.497280 0.000000 
#    z 0.000000 0.000000 3.856760 
# 
# 
# High freq. dielectric constant tensor:
#      x y z
#    x 1.802390 0.000000 0.000000 
#    y 0.000000 1.762900 0.000000 
#    z 0.000000 0.000000 1.785440 
# 
# From -- ./inp_files/13089.got.cif
#   From: 2010.03.12/outbox.cif.g09.slc.cpg/sg53_7_cif.got.tgz:13089.got - 2010.04.16 14:36:59.
