data_PCOD8222748
_publ_section_title
;
Structure prediction by ZEFSAII (Michael W. Deem and Ramdas Pophale) SiO2 
 PCOD8222748
Probable space group: P C C A
;
_chemical_formula_sum "Si O2"
_cell_formula_units_Z 52
_cell_length_a 9.745097
_cell_length_b 12.495466
_cell_length_c 19.836267
_cell_angle_alpha 90.000000
_cell_angle_beta 90.000000
_cell_angle_gamma 90.000000
_cell_volume 2415.452874
_symmetry_space_group_name_H-M "P C C A"
_symmetry_group_IT_number 54
_symmetry_cell_setting 'orthorhombic'
loop_
_space_group_symop_operation_xyz
x,y,z
1/2-x,-y,z
1/2+x,-y,1/2-z
-x,y,1/2-z
-x,-y,-z
1/2+x,y,-z
1/2-x,y,1/2+z
x,-y,1/2+z
loop_
_atom_site_type_symbol
_atom_site_label
_atom_site_fract_x
_atom_site_fract_y
_atom_site_fract_z
Si Si1 0.875139 0.766601 0.642922
Si Si2 0.750000 0.000000 0.473472
Si Si3 0.155827 0.404953 0.245334
Si Si4 0.824175 0.774037 0.029651
Si Si5 0.313523 0.721245 0.119128
Si Si6 0.392850 0.983027 0.301240
Si Si7 0.940634 0.134926 0.890790
O O1 0.826942 0.701173 0.708956
O O2 0.788293 0.721970 0.579688
O O3 0.845293 0.893348 0.645409
O O4 0.037442 0.765843 0.635292
O O5 0.788888 0.102033 0.517343
O O6 0.615334 0.030515 0.429860
O O7 0.250000 0.500000 0.273926
O O8 0.203065 0.381874 0.167673
O O9 0.000000 0.446239 0.250000
O O10 0.976466 0.779064 0.062600
O O11 0.814880 0.701470 0.961967
O O12 0.192235 0.803634 0.138664
O O13 0.500000 0.930496 0.250000
O O14 0.250000 0.000000 0.260969
O O15 0.457922 0.091496 0.332612
#
# Coordination Sequence:
#
# PCOD8222748 Si02
#       7
#     8   4   8   8   8   8   8
#     4  11  23  42  63  90 134 169 209 270 327 380
#     4  10  20  32  56  80 130 170 224 252 310 374
#     4  10  24  47  72  95 121 166 214 278 339 392
#     4  11  20  37  59  93 127 176 216 266 316 385
#     4  10  22  39  66  91 127 165 217 264 326 384
#     4  12  25  37  56  88 134 179 223 262 312 380
#     4  11  22  35  56  88 129 175 219 261 310 385
#
# _framework density 21.528054999999998
#
# number of rings (size 3 to 8) (size 9 to 14) (size 15 to 20)
#    0.000    1.231    1.538    6.462    5.385    1.231 
#    0.000    0.769    0.000    4.615    0.000    0.000 
#    0.000    0.000    0.000    0.000    0.000    0.000 
#
# Total GULP energy -644301.774142 kJ/mol
# GULP energy per Si atom -12390.418733 kJ/mol
# Density = 2.147906 g / cm^3
# Si number density = 21.528055 Si / 1000 Ang^3
#
#
#
# Elastic Constant Matrix: (Units=GPa)
#
#
# Indices 1 2 3 4 5 6 
#
# 1 149.9626 45.6496 56.2666 0.0000 0.0000 0.0000
# 2 45.6496 58.1731 31.7680 0.0000 0.0000 0.0000
# 3 56.2666 31.7680 117.4280 0.0000 0.0000 0.0000
# 4 0.0000 0.0000 0.0000 19.0032 0.0000 0.0000
# 5 0.0000 0.0000 0.0000 0.0000 35.7024 0.0000
# 6 0.0000 0.0000 0.0000 0.0000 0.0000 26.9664
#
#
#
# Elastic Compliance Matrix: (Units=1/GPa)
#
#
# Indices 1 2 3 4 5 6 
#
# 1 0.009585 -0.005883 -0.003001 0.000000 0.000000 0.000000
# 2 -0.005883 0.023780 -0.003615 0.000000 0.000000 0.000000
# 3 -0.003001 -0.003615 0.010932 0.000000 0.000000 0.000000
# 4 0.000000 0.000000 0.000000 0.052623 0.000000 0.000000
# 5 0.000000 0.000000 0.000000 0.000000 0.028009 0.000000
# 6 0.000000 0.000000 0.000000 0.000000 0.000000 0.037083
#
#
# Mechanical properties :
#
#
# Convention : Reuss Voigt Hill
#
# Bulk Modulus (GPa) = 51.81342 65.88134 58.84738
# Shear Modulus (GPa) = 25.84742 29.12637 27.48690
#
# Velocity S-wave (km/s) = 3.46878 3.68224 3.57710
# Velocity P-wave (km/s) = 6.33746 6.98194 6.66749
#
# Compressibility (1/GPa) = 0.01930002
#
# Stress axis : x y z
#
# Youngs Moduli (GPa) = 104.32789 42.05181 91.47582
#
# Poissons Ratio (x) = 0.24738 0.27455
# Poissons Ratio (y) = 0.61372 0.33065
# Poissons Ratio (z) = 0.31313 0.15200
#
# Static dielectric constant tensor:
#      x y z
#    x 4.220800 0.000000 0.000000 
#    y 0.000000 3.372700 0.000000 
#    z 0.000000 0.000000 4.052270 
# 
# 
# High freq. dielectric constant tensor:
#      x y z
#    x 1.874220 0.000000 0.000000 
#    y 0.000000 1.785560 0.000000 
#    z 0.000000 0.000000 1.847480 
# 
# From -- ./inp_files/20467.got.cif
#   From: 2010.03.12/outbox.cif.g09.slc.cpg/sg54_11_cif.got.tgz:20467.got - 2010.04.16 15:00:50.
