data_PCOD8222887
_publ_section_title
;
Structure prediction by ZEFSAII (Michael W. Deem and Ramdas Pophale) SiO2 
 PCOD8222887
Probable space group: P C C A
;
_chemical_formula_sum "Si O2"
_cell_formula_units_Z 40
_cell_length_a 5.591573
_cell_length_b 11.535238
_cell_length_c 30.067764
_cell_angle_alpha 90.000000
_cell_angle_beta 90.000000
_cell_angle_gamma 90.000000
_cell_volume 1939.374547
_symmetry_space_group_name_H-M "P C C A"
_symmetry_group_IT_number 54
_symmetry_cell_setting 'orthorhombic'
loop_
_space_group_symop_operation_xyz
x,y,z
1/2-x,-y,z
1/2+x,-y,1/2-z
-x,y,1/2-z
-x,-y,-z
1/2+x,y,-z
1/2-x,y,1/2+z
x,-y,1/2+z
loop_
_atom_site_type_symbol
_atom_site_label
_atom_site_fract_x
_atom_site_fract_y
_atom_site_fract_z
Si Si1 0.215927 0.369134 0.665169
Si Si2 0.500000 0.287206 0.250000
Si Si3 0.097281 0.813002 0.807545
Si Si4 0.250000 0.000000 0.175971
Si Si5 0.530498 0.822917 0.619200
Si Si6 0.479592 0.868858 0.983189
O O1 0.250000 0.500000 0.649036
O O2 0.044843 0.369465 0.708191
O O3 0.452484 0.304924 0.682711
O O4 0.080569 0.306456 0.624042
O O5 0.724112 0.205247 0.234872
O O6 0.222641 0.837820 0.854712
O O7 0.946282 0.929503 0.795126
O O8 0.157714 0.901808 0.143673
O O9 0.566425 0.861425 0.569002
O O10 0.738660 0.809763 0.995135
O O11 0.500000 0.000000 0.000000
#
# Coordination Sequence:
#
# PCOD8222887 Si02
#       6
#     8   4   8   4   8   8
#     4  10  23  40  67  91 120 169 219 277 330 383
#     4  10  22  38  62  94 122 160 222 276 320 380
#     4  10  22  38  64  90 127 169 214 264 330 384
#     4  10  20  36  64  86 128 176 206 252 320 398
#     4  10  22  38  63  93 132 168 209 264 324 399
#     4  10  22  35  61 100 129 168 214 264 324 388
#
# _framework density 20.625204
#
# number of rings (size 3 to 8) (size 9 to 14) (size 15 to 20)
#    0.000    2.000    0.000    2.400   14.000    2.400 
#    0.000    0.000  158.400    1.200    0.000    0.000 
#    0.000    0.000    0.000    0.000    0.000    0.000 
#
# Total GULP energy -495530.838469 kJ/mol
# GULP energy per Si atom -12388.270962 kJ/mol
# Density = 2.057826 g / cm^3
# Si number density = 20.625204 Si / 1000 Ang^3
#
#
#
# Elastic Constant Matrix: (Units=GPa)
#
#
# Indices 1 2 3 4 5 6 
#
# 1 125.0174 36.7824 15.6923 0.0000 0.0000 0.0000
# 2 36.7824 123.4757 25.7116 0.0000 0.0000 0.0000
# 3 15.6923 25.7116 109.8231 0.0000 0.0000 0.0000
# 4 0.0000 0.0000 0.0000 22.7811 0.0000 0.0000
# 5 0.0000 0.0000 0.0000 0.0000 42.9866 0.0000
# 6 0.0000 0.0000 0.0000 0.0000 0.0000 18.3881
#
#
#
# Elastic Compliance Matrix: (Units=1/GPa)
#
#
# Indices 1 2 3 4 5 6 
#
# 1 0.008815 -0.002485 -0.000678 0.000000 0.000000 0.000000
# 2 -0.002485 0.009214 -0.001802 0.000000 0.000000 0.000000
# 3 -0.000678 -0.001802 0.009624 0.000000 0.000000 0.000000
# 4 0.000000 0.000000 0.000000 0.043896 0.000000 0.000000
# 5 0.000000 0.000000 0.000000 0.000000 0.023263 0.000000
# 6 0.000000 0.000000 0.000000 0.000000 0.000000 0.054383
#
#
# Mechanical properties :
#
#
# Convention : Reuss Voigt Hill
#
# Bulk Modulus (GPa) = 56.42058 57.18764 56.80411
# Shear Modulus (GPa) = 30.29691 35.50648 32.90169
#
# Velocity S-wave (km/s) = 3.83682 4.15361 3.99835
# Velocity P-wave (km/s) = 6.85877 7.12675 6.99404
#
# Compressibility (1/GPa) = 0.01772403
#
# Stress axis : x y z
#
# Youngs Moduli (GPa) = 113.44256 108.52780 103.90338
#
# Poissons Ratio (x) = 0.26967 0.07043
# Poissons Ratio (y) = 0.28188 0.18725
# Poissons Ratio (z) = 0.07689 0.19559
#
# Static dielectric constant tensor:
#      x y z
#    x 0.397860 0.000000 0.000000 
#    y 0.000000 3.415120 0.000000 
#    z 0.000000 0.000000 3.596690 
# 
# 
# High freq. dielectric constant tensor:
#      x y z
#    x 1.836400 0.000000 0.000000 
#    y 0.000000 1.770800 0.000000 
#    z 0.000000 0.000000 1.791790 
# 
# From -- ./inp_files/27062.got.cif
#   From: 2010.03.12/outbox.cif.g09.slc.cpg/sg54_14_cif.got.tgz:27062.got - 2010.04.16 15:00:50.
