data_PCOD8222886
_publ_section_title
;
Structure prediction by ZEFSAII (Michael W. Deem and Ramdas Pophale) SiO2 
 PCOD8222886
Probable space group: P C C A
;
_chemical_formula_sum "Si O2"
_cell_formula_units_Z 40
_cell_length_a 5.395792
_cell_length_b 11.661255
_cell_length_c 30.231814
_cell_angle_alpha 90.000000
_cell_angle_beta 90.000000
_cell_angle_gamma 90.000000
_cell_volume 1902.237326
_symmetry_space_group_name_H-M "P C C A"
_symmetry_group_IT_number 54
_symmetry_cell_setting 'orthorhombic'
loop_
_space_group_symop_operation_xyz
x,y,z
1/2-x,-y,z
1/2+x,-y,1/2-z
-x,y,1/2-z
-x,-y,-z
1/2+x,y,-z
1/2-x,y,1/2+z
x,-y,1/2+z
loop_
_atom_site_type_symbol
_atom_site_label
_atom_site_fract_x
_atom_site_fract_y
_atom_site_fract_z
Si Si1 0.212017 0.368127 0.666469
Si Si2 0.500000 0.271464 0.250000
Si Si3 0.086952 0.814312 0.805486
Si Si4 0.250000 0.000000 0.154875
Si Si5 0.551189 0.809918 0.616237
Si Si6 0.254020 0.864570 0.975335
O O1 0.250000 0.500000 0.655324
O O2 0.022034 0.352246 0.707348
O O3 0.464674 0.306774 0.681097
O O4 0.098357 0.309551 0.622369
O O5 0.759626 0.196937 0.242270
O O6 0.297772 0.838377 0.840385
O O7 0.909520 0.924560 0.810352
O O8 0.131442 0.918034 0.117446
O O9 0.716774 0.804632 0.572325
O O10 0.250000 0.000000 0.969341
O O11 0.491919 0.823909 0.004295
#
# Coordination Sequence:
#
# PCOD8222886 Si02
#       6
#     8   4   8   4   8   8
#     4  10  23  39  65  88 114 159 211 263 316 371
#     4  10  22  36  60  90 118 150 204 268 314 358
#     4  10  21  38  62  87 120 161 205 252 315 372
#     4  10  20  36  64  84 126 168 202 240 308 388
#     4  10  22  38  62  88 127 166 202 253 309 378
#     4  10  22  35  60  99 132 168 211 259 316 379
#
# _framework density 21.027868000000002
#
# number of rings (size 3 to 8) (size 9 to 14) (size 15 to 20)
#    0.000    2.000    0.000    2.400   12.600    2.400 
#    0.000    0.000  158.400    1.200    0.000    0.000 
#    0.000    0.000    0.000    0.000    0.000    0.000 
#
# Total GULP energy -495633.910481 kJ/mol
# GULP energy per Si atom -12390.847762 kJ/mol
# Density = 2.098001 g / cm^3
# Si number density = 21.027868 Si / 1000 Ang^3
#
#
#
# Elastic Constant Matrix: (Units=GPa)
#
#
# Indices 1 2 3 4 5 6 
#
# 1 103.3055 45.8670 6.9619 0.0000 0.0000 0.0000
# 2 45.8670 137.6095 32.0654 0.0000 0.0000 0.0000
# 3 6.9619 32.0654 74.4555 0.0000 0.0000 0.0000
# 4 0.0000 0.0000 0.0000 15.2194 0.0000 0.0000
# 5 0.0000 0.0000 0.0000 0.0000 6.2212 0.0000
# 6 0.0000 0.0000 0.0000 0.0000 0.0000 10.2985
#
#
#
# Elastic Compliance Matrix: (Units=1/GPa)
#
#
# Indices 1 2 3 4 5 6 
#
# 1 0.011388 -0.003943 0.000633 0.000000 0.000000 0.000000
# 2 -0.003943 0.009443 -0.003698 0.000000 0.000000 0.000000
# 3 0.000633 -0.003698 0.014964 0.000000 0.000000 0.000000
# 4 0.000000 0.000000 0.000000 0.065706 0.000000 0.000000
# 5 0.000000 0.000000 0.000000 0.000000 0.160742 0.000000
# 6 0.000000 0.000000 0.000000 0.000000 0.000000 0.097102
#
#
# Mechanical properties :
#
#
# Convention : Reuss Voigt Hill
#
# Bulk Modulus (GPa) = 45.91493 53.90654 49.91073
# Shear Modulus (GPa) = 13.13644 21.71290 17.42467
#
# Velocity S-wave (km/s) = 2.50214 3.21686 2.88174
# Velocity P-wave (km/s) = 5.49821 6.28403 5.90421
#
# Compressibility (1/GPa) = 0.02177941
#
# Stress axis : x y z
#
# Youngs Moduli (GPa) = 87.81021 105.89800 66.82602
#
# Poissons Ratio (x) = 0.41760 -0.04233
# Poissons Ratio (y) = 0.34627 0.24713
# Poissons Ratio (z) = -0.05562 0.39162
#
# Static dielectric constant tensor:
#      x y z
#    x 4.430040 0.000000 0.000000 
#    y 0.000000 3.479520 0.000000 
#    z 0.000000 0.000000 3.774900 
# 
# 
# High freq. dielectric constant tensor:
#      x y z
#    x 1.850330 0.000000 0.000000 
#    y 0.000000 1.785360 0.000000 
#    z 0.000000 0.000000 1.810850 
# 
# From -- ./inp_files/27063.got.cif
#   From: 2010.03.12/outbox.cif.g09.slc.cpg/sg54_14_cif.got.tgz:27063.got - 2010.04.16 15:00:50.
