data_PCOD8222971
_publ_section_title
;
Structure prediction by ZEFSAII (Michael W. Deem and Ramdas Pophale) SiO2 
 PCOD8222971
Probable space group: P C C A
;
_chemical_formula_sum "Si O2"
_cell_formula_units_Z 48
_cell_length_a 16.295629
_cell_length_b 9.425991
_cell_length_c 14.143978
_cell_angle_alpha 90.000000
_cell_angle_beta 90.000000
_cell_angle_gamma 90.000000
_cell_volume 2172.549706
_symmetry_space_group_name_H-M "P C C A"
_symmetry_group_IT_number 54
_symmetry_cell_setting 'orthorhombic'
loop_
_space_group_symop_operation_xyz
x,y,z
1/2-x,-y,z
1/2+x,-y,1/2-z
-x,y,1/2-z
-x,-y,-z
1/2+x,y,-z
1/2-x,y,1/2+z
x,-y,1/2+z
loop_
_atom_site_type_symbol
_atom_site_label
_atom_site_fract_x
_atom_site_fract_y
_atom_site_fract_z
Si Si1 0.092274 0.796433 0.840457
Si Si2 0.841763 0.551708 0.389235
Si Si3 0.345690 0.486271 0.326652
Si Si4 0.583968 0.320380 0.010240
Si Si5 0.408070 0.115982 0.642845
Si Si6 0.908471 0.176332 0.958061
O O1 0.110875 0.631204 0.857450
O O2 0.136908 0.860917 0.745606
O O3 0.995084 0.813456 0.836074
O O4 0.120878 0.876714 0.937370
O O5 0.750000 0.500000 0.410113
O O6 0.868569 0.540418 0.281251
O O7 0.909906 0.466882 0.450497
O O8 0.841805 0.716790 0.416229
O O9 0.250000 0.500000 0.343324
O O10 0.375003 0.351249 0.388367
O O11 0.632671 0.203924 0.944270
O O12 0.494215 0.259475 0.031076
O O13 0.415603 0.952280 0.615412
#
# Coordination Sequence:
#
# PCOD8222971 Si02
#       6
#     8   8   8   8   8   8
#     4  10  20  38  64  89 130 167 210 265 338 374
#     4  11  24  41  64  95 133 169 219 270 325 388
#     4  11  24  39  65  95 128 172 219 268 323 390
#     4  11  21  40  66  96 123 166 222 266 321 383
#     4  10  23  39  64  94 133 165 206 276 327 384
#     4  11  24  40  66  99 127 170 220 266 329 393
#
# _framework density 22.093855000000001
#
# number of rings (size 3 to 8) (size 9 to 14) (size 15 to 20)
#    0.000    1.333    3.333    3.000    2.333    4.667 
#    0.000    0.833    3.667    4.000    0.000    0.000 
#    0.000    0.000    0.000    0.000    0.000    0.000 
#
# Total GULP energy -594688.370409 kJ/mol
# GULP energy per Si atom -12389.341050 kJ/mol
# Density = 2.204357 g / cm^3
# Si number density = 22.093855 Si / 1000 Ang^3
#
#
#
# Elastic Constant Matrix: (Units=GPa)
#
#
# Indices 1 2 3 4 5 6 
#
# 1 41.2536 46.3664 34.5932 0.0000 0.0000 0.0000
# 2 46.3664 133.8722 49.5953 0.0000 0.0000 0.0000
# 3 34.5932 49.5953 130.4558 0.0000 0.0000 0.0000
# 4 0.0000 0.0000 0.0000 64.7524 0.0000 0.0000
# 5 0.0000 0.0000 0.0000 0.0000********** 0.0000
# 6 0.0000 0.0000 0.0000 0.0000 0.0000 11.5484
#
#
#
# Elastic Compliance Matrix: (Units=1/GPa)
#
#
# Indices 1 2 3 4 5 6 
#
# 1 0.044467 -0.012841 -0.006910 0.000000 0.000000 0.000000
# 2 -0.012841 0.012403 -0.001310 0.000000 0.000000 0.000000
# 3 -0.006910 -0.001310 0.009996 0.000000 0.000000 0.000000
# 4 0.000000 0.000000 0.000000 0.015443 0.000000 0.000000
# 5 0.000000 0.000000 0.000000 0.000000 -0.000089 0.000000
# 6 0.000000 0.000000 0.000000 0.000000 0.000000 0.086592
#
#
# Mechanical properties :
#
#
# Convention : Reuss Voigt Hill
#
# Bulk Modulus (GPa) = 40.41416 62.96570 51.68993
# Shear Modulus (GPa) = 22.81208 -2219.93841 -1098.56316
#
# Velocity S-wave (km/s) = 3.21675 -31.73260 -22.32275
# Velocity P-wave (km/s) = 5.66819 36.24982 25.31720
#
# Compressibility (1/GPa) = 0.02474380
#
# Stress axis : x y z
#
# Youngs Moduli (GPa) = 22.48845 80.62772 100.04338
#
# Poissons Ratio (x) = 1.03537 0.69126
# Poissons Ratio (y) = 0.28878 0.13105
# Poissons Ratio (z) = 0.15539 0.10562
#
# Static dielectric constant tensor:
#      x y z
#    x 3.514500 0.000000 0.000000 
#    y 0.000000 3.887060 0.000000 
#    z 0.000000 0.000000 5.093910 
# 
# 
# High freq. dielectric constant tensor:
#      x y z
#    x 1.825730 0.000000 0.000000 
#    y 0.000000 1.858990 0.000000 
#    z 0.000000 0.000000 1.907300 
# 
# From -- ./inp_files/14546.got.cif
#   From: 2010.03.12/outbox.cif.g09.slc.cpg/sg54_8_cif.got.tgz:14546.got - 2010.04.16 15:00:50.
