data_PCOD8222046
_publ_section_title
;
Structure prediction by ZEFSAII (Michael W. Deem and Ramdas Pophale) SiO2 
 PCOD8222046
Probable space group: P M N A
;
_chemical_formula_sum "Si O2"
_cell_formula_units_Z 48
_cell_length_a 8.344235
_cell_length_b 10.279913
_cell_length_c 27.909816
_cell_angle_alpha 90.000000
_cell_angle_beta 90.000000
_cell_angle_gamma 90.000000
_cell_volume 2394.048472
_symmetry_space_group_name_H-M "P M N A"
_symmetry_group_IT_number 53
_symmetry_cell_setting 'orthorhombic'
loop_
_space_group_symop_operation_xyz
x,y,z
1/2-x,-y,1/2+z
x,-y,-z
1/2-x,y,1/2-z
-x,-y,-z
1/2+x,y,1/2-z
-x,y,z
1/2+x,-y,1/2+z
loop_
_atom_site_type_symbol
_atom_site_label
_atom_site_fract_x
_atom_site_fract_y
_atom_site_fract_z
Si Si1 0.314085 0.488267 0.896351
Si Si2 0.314674 0.988636 0.607606
Si Si3 0.814540 0.243960 0.947539
Si Si4 0.685085 0.750444 0.948594
Si Si5 0.187171 0.593847 0.801803
Si Si6 0.313912 0.877974 0.799783
O O1 0.500000 0.458256 0.905473
O O2 0.208352 0.368816 0.914320
O O3 0.257614 0.615727 0.925206
O O4 0.281679 0.507577 0.840227
O O5 0.500000 0.000583 0.621073
O O6 0.289533 0.866346 0.572961
O O7 0.215710 0.977632 0.656987
O O8 0.253356 0.117287 0.580820
O O9 0.000000 0.229337 0.961996
O O10 0.708343 0.258459 0.994780
O O11 0.500000 0.776888 0.936140
O O12 0.250000 0.550673 0.750000
O O13 0.219640 0.745674 0.811294
O O14 0.000000 0.565986 0.806365
O O15 0.250000 0.939354 0.750000
O O16 0.500000 0.844031 0.794814
#
# Coordination Sequence:
#
# PCOD8222046 Si02
#       6
#     8   8   8   8   8   8
#     4  11  23  40  61  89 122 157 201 248 296 355
#     4  11  23  40  61  88 121 158 200 248 297 353
#     4  11  25  41  59  86 122 161 202 247 301 357
#     4  11  23  39  62  89 118 156 204 251 297 353
#     4  11  21  36  61  90 121 155 195 245 295 349
#     4  11  21  36  60  90 120 153 195 244 295 351
#
# _framework density 20.049719
#
# number of rings (size 3 to 8) (size 9 to 14) (size 15 to 20)
#    0.000    1.000    1.667    7.000    0.000    8.667 
#    0.000    0.833    0.000    4.000    0.000    0.000 
#    0.000    0.000    0.000    0.000    0.000    0.000 
#
# Total GULP energy -595588.745033 kJ/mol
# GULP energy per Si atom -12408.098855 kJ/mol
# Density = 2.000409 g / cm^3
# Si number density = 20.049719 Si / 1000 Ang^3
#
#
#
# Elastic Constant Matrix: (Units=GPa)
#
#
# Indices 1 2 3 4 5 6 
#
# 1 58.8353 14.7248 11.4810 0.0000 0.0000 0.0000
# 2 14.7248 108.6159 50.0499 0.0000 0.0000 0.0000
# 3 11.4810 50.0499 141.5585 0.0000 0.0000 0.0000
# 4 0.0000 0.0000 0.0000 2.1909 0.0000 0.0000
# 5 0.0000 0.0000 0.0000 0.0000 32.1931 0.0000
# 6 0.0000 0.0000 0.0000 0.0000 0.0000 25.7363
#
#
#
# Elastic Compliance Matrix: (Units=1/GPa)
#
#
# Indices 1 2 3 4 5 6 
#
# 1 0.017651 -0.002071 -0.000700 0.000000 0.000000 0.000000
# 2 -0.002071 0.011242 -0.003807 0.000000 0.000000 0.000000
# 3 -0.000700 -0.003807 0.008467 0.000000 0.000000 0.000000
# 4 0.000000 0.000000 0.000000 0.456433 0.000000 0.000000
# 5 0.000000 0.000000 0.000000 0.000000 0.031063 0.000000
# 6 0.000000 0.000000 0.000000 0.000000 0.000000 0.038856
#
#
# Mechanical properties :
#
#
# Convention : Reuss Voigt Hill
#
# Bulk Modulus (GPa) = 41.31181 51.28011 46.29596
# Shear Modulus (GPa) = 8.54799 27.54100 18.04449
#
# Velocity S-wave (km/s) = 2.06704 3.71028 3.00323
# Velocity P-wave (km/s) = 5.13286 6.63226 5.93014
#
# Compressibility (1/GPa) = 0.02420615
#
# Stress axis : x y z
#
# Youngs Moduli (GPa) = 56.65304 88.95563 118.10776
#
# Poissons Ratio (x) = 0.18419 0.08262
# Poissons Ratio (y) = 0.11731 0.44960
# Poissons Ratio (z) = 0.03963 0.33862
#
# Static dielectric constant tensor:
#      x y z
#    x 3.582590 0.000000 0.000000 
#    y 0.000000 3.492360 0.000000 
#    z 0.000000 0.000000 3.822420 
# 
# 
# High freq. dielectric constant tensor:
#      x y z
#    x 1.793160 0.000000 0.000000 
#    y 0.000000 1.762100 0.000000 
#    z 0.000000 0.000000 1.798940 
# 
# From -- ./inp_files/37705.got.cif
#   From: 2010.03.12/outbox.cif.g09.slc.cpg/sg53_19_cif.got.tgz:37705.got - 2010.04.16 14:36:59.
