data_PCOD8222449
_publ_section_title
;
Structure prediction by ZEFSAII (Michael W. Deem and Ramdas Pophale) SiO2 
 PCOD8222449
Probable space group: P C C A
;
_chemical_formula_sum "Si O2"
_cell_formula_units_Z 32
_cell_length_a 5.345361
_cell_length_b 13.696820
_cell_length_c 18.434764
_cell_angle_alpha 90.000000
_cell_angle_beta 90.000000
_cell_angle_gamma 90.000000
_cell_volume 1349.691060
_symmetry_space_group_name_H-M "P C C A"
_symmetry_group_IT_number 54
_symmetry_cell_setting 'orthorhombic'
loop_
_space_group_symop_operation_xyz
x,y,z
1/2-x,-y,z
1/2+x,-y,1/2-z
-x,y,1/2-z
-x,-y,-z
1/2+x,y,-z
1/2-x,y,1/2+z
x,-y,1/2+z
loop_
_atom_site_type_symbol
_atom_site_label
_atom_site_fract_x
_atom_site_fract_y
_atom_site_fract_z
Si Si1 0.752486 0.384513 0.168396
Si Si2 0.088868 0.090014 0.170396
Si Si3 0.207448 0.890590 0.967701
Si Si4 0.753419 0.697185 0.330887
O O1 0.750000 0.500000 0.164572
O O2 0.751302 0.348236 0.250809
O O3 0.504107 0.341409 0.128974
O O4 0.001095 0.341530 0.128939
O O5 0.261112 0.185924 0.173118
O O6 0.000000 0.061042 0.250000
O O7 0.849338 0.109696 0.118576
O O8 0.250000 0.000000 0.138549
O O9 0.250000 0.000000 0.997345
O O10 0.473062 0.839039 0.988944
#
# Coordination Sequence:
#
# PCOD8222449 Si02
#       4
#     8   8   8   8
#     4  10  18  34  54  75 114 158 191 236 305 364
#     4  12  25  37  59  92 129 168 199 248 309 362
#     4  10  22  43  63  80 111 166 222 255 286 349
#     4  10  20  33  50  80 115 151 188 245 287 360
#
# _framework density 23.709128
#
# number of rings (size 3 to 8) (size 9 to 14) (size 15 to 20)
#    0.000    1.500    2.500    6.750    3.500    4.000 
#    0.000    0.000    0.000    0.000    0.000    0.000 
#    0.000   34.000    0.000    0.000    0.000    0.000 
#
# Total GULP energy -396554.767175 kJ/mol
# GULP energy per Si atom -12392.336474 kJ/mol
# Density = 2.365517 g / cm^3
# Si number density = 23.709128 Si / 1000 Ang^3
#
#
#
# Elastic Constant Matrix: (Units=GPa)
#
#
# Indices 1 2 3 4 5 6 
#
# 1 240.4072 51.5585 23.3246 0.0000 0.0000 0.0000
# 2 51.5585 154.1625 -16.4686 0.0000 0.0000 0.0000
# 3 23.3246 -16.4686 94.8640 0.0000 0.0000 0.0000
# 4 0.0000 0.0000 0.0000 -1.2794 0.0000 0.0000
# 5 0.0000 0.0000 0.0000 0.0000 19.7801 0.0000
# 6 0.0000 0.0000 0.0000 0.0000 0.0000 24.5741
#
#
#
# Elastic Compliance Matrix: (Units=1/GPa)
#
#
# Indices 1 2 3 4 5 6 
#
# 1 0.004668 -0.001716 -0.001446 0.000000 0.000000 0.000000
# 2 -0.001716 0.007240 0.001679 0.000000 0.000000 0.000000
# 3 -0.001446 0.001679 0.011188 0.000000 0.000000 0.000000
# 4 0.000000 0.000000 0.000000 -0.781617 0.000000 0.000000
# 5 0.000000 0.000000 0.000000 0.000000 0.050556 0.000000
# 6 0.000000 0.000000 0.000000 0.000000 0.000000 0.040693
#
#
# Mechanical properties :
#
#
# Convention : Reuss Voigt Hill
#
# Bulk Modulus (GPa) = 49.67472 67.36253 58.51862
# Shear Modulus (GPa) = -7.60343 37.34957 14.87307
#
# Velocity S-wave (km/s) = -1.79274 3.97334 2.50734
# Velocity P-wave (km/s) = 4.08803 7.03731 5.75481
#
# Compressibility (1/GPa) = 0.02013096
#
# Stress axis : x y z
#
# Youngs Moduli (GPa) = 214.23507 138.12674 89.37959
#
# Poissons Ratio (x) = 0.23696 0.12920
# Poissons Ratio (y) = 0.36752 -0.15004
# Poissons Ratio (z) = 0.30968 -0.23186
#
# Static dielectric constant tensor:
#      x y z
#    x 35.701910 0.000000 0.000000 
#    y 0.000000 4.098480 0.000000 
#    z 0.000000 0.000000 3.798000 
# 
# 
# High freq. dielectric constant tensor:
#      x y z
#    x 1.975630 0.000000 0.000000 
#    y 0.000000 1.918120 0.000000 
#    z 0.000000 0.000000 1.873260 
# 
# From -- ./inp_files/19563.got.cif
#   From: 2010.03.12/outbox.cif.g09.slc.cpg/sg54_10_cif.got.tgz:19563.got - 2010.04.16 15:00:50.
