data_PCOD8222154
_publ_section_title
;
Structure prediction by ZEFSAII (Michael W. Deem and Ramdas Pophale) SiO2 
 PCOD8222154
Probable space group: P M N A
;
_chemical_formula_sum "Si O2"
_cell_formula_units_Z 48
_cell_length_a 8.732620
_cell_length_b 16.497156
_cell_length_c 15.769981
_cell_angle_alpha 90.000000
_cell_angle_beta 90.000000
_cell_angle_gamma 90.000000
_cell_volume 2271.876993
_symmetry_space_group_name_H-M "P M N A"
_symmetry_group_IT_number 53
_symmetry_cell_setting 'orthorhombic'
loop_
_space_group_symop_operation_xyz
x,y,z
1/2-x,-y,1/2+z
x,-y,-z
1/2-x,y,1/2-z
-x,-y,-z
1/2+x,y,1/2-z
-x,y,z
1/2+x,-y,1/2+z
loop_
_atom_site_type_symbol
_atom_site_label
_atom_site_fract_x
_atom_site_fract_y
_atom_site_fract_z
Si Si1 0.679807 0.829103 0.891525
Si Si2 0.820036 0.328135 0.165113
Si Si3 0.824338 0.404375 0.500882
Si Si4 0.318882 0.009231 0.839799
Si Si5 0.177149 0.317043 0.840247
Si Si6 0.177311 0.155367 0.932699
O O1 0.500000 0.815567 0.880720
O O2 0.769711 0.765932 0.833092
O O3 0.730567 0.918746 0.863976
O O4 0.728272 0.811675 0.987706
O O5 0.750000 0.369531 0.250000
O O6 0.762025 0.370822 0.080721
O O7 0.000000 0.336003 0.168914
O O8 0.805837 0.500000 0.500000
O O9 0.754505 0.370692 0.587451
O O10 0.000000 0.376874 0.495215
O O11 0.250000 0.033397 0.750000
O O12 0.500000 0.020682 0.839249
O O13 0.246364 0.068908 0.908266
O O14 0.250000 0.338252 0.750000
O O15 0.198978 0.221287 0.858445
O O16 0.000000 0.340746 0.837506
O O17 0.000000 0.145171 0.957491
#
# Coordination Sequence:
#
# PCOD8222154 Si02
#       6
#     8   8   8   8   8   8
#     4  11  23  40  63  91 127 170 218 271 326 384
#     4  12  25  43  69 100 134 175 221 269 327 390
#     4  11  25  46  72 101 133 170 213 267 329 392
#     4  11  24  39  57  86 123 168 218 271 325 379
#     4  11  24  42  67  99 133 175 220 268 325 387
#     4  11  23  39  62  92 126 169 218 268 324 384
#
# _framework density 21.127904000000001
#
# number of rings (size 3 to 8) (size 9 to 14) (size 15 to 20)
#    0.000    0.833    1.667    5.500    0.000   11.333 
#    0.000    0.000    0.000    0.000    0.000    0.000 
#    0.000    0.000    0.000    0.000    0.000    0.000 
#
# Total GULP energy -595507.062391 kJ/mol
# GULP energy per Si atom -12406.397133 kJ/mol
# Density = 2.107982 g / cm^3
# Si number density = 21.127904 Si / 1000 Ang^3
#
#
#
# Elastic Constant Matrix: (Units=GPa)
#
#
# Indices 1 2 3 4 5 6 
#
# 1 151.9965 53.5710 62.0680 0.0000 0.0000 0.0000
# 2 53.5710 78.0591 30.3601 0.0000 0.0000 0.0000
# 3 62.0680 30.3601 149.4207 0.0000 0.0000 0.0000
# 4 0.0000 0.0000 0.0000 21.4780 0.0000 0.0000
# 5 0.0000 0.0000 0.0000 0.0000 37.7734 0.0000
# 6 0.0000 0.0000 0.0000 0.0000 0.0000 40.7509
#
#
#
# Elastic Compliance Matrix: (Units=1/GPa)
#
#
# Indices 1 2 3 4 5 6 
#
# 1 0.009720 -0.005538 -0.002912 0.000000 0.000000 0.000000
# 2 -0.005538 0.017065 -0.001167 0.000000 0.000000 0.000000
# 3 -0.002912 -0.001167 0.008139 0.000000 0.000000 0.000000
# 4 0.000000 0.000000 0.000000 0.046559 0.000000 0.000000
# 5 0.000000 0.000000 0.000000 0.000000 0.026474 0.000000
# 6 0.000000 0.000000 0.000000 0.000000 0.000000 0.024539
#
#
# Mechanical properties :
#
#
# Convention : Reuss Voigt Hill
#
# Bulk Modulus (GPa) = 63.73466 74.60828 69.17147
# Shear Modulus (GPa) = 31.85470 35.56560 33.71015
#
# Velocity S-wave (km/s) = 3.88713 4.10731 3.99874
# Velocity P-wave (km/s) = 7.09775 7.60807 7.35733
#
# Compressibility (1/GPa) = 0.01569005
#
# Stress axis : x y z
#
# Youngs Moduli (GPa) = 102.87722 58.59795 122.85877
#
# Poissons Ratio (x) = 0.32453 0.35782
# Poissons Ratio (y) = 0.56975 0.14337
# Poissons Ratio (z) = 0.29963 0.06838
#
# Static dielectric constant tensor:
#      x y z
#    x 3.931960 0.000000 0.000000 
#    y 0.000000 3.894020 0.000000 
#    z 0.000000 0.000000 3.892270 
# 
# 
# High freq. dielectric constant tensor:
#      x y z
#    x 1.842700 0.000000 0.000000 
#    y 0.000000 1.829460 0.000000 
#    z 0.000000 0.000000 1.843040 
# 
# From -- ./inp_files/20132.got.cif
#   From: 2010.03.12/outbox.cif.g09.slc.cpg/sg53_11_cif.got.tgz:20132.got - 2010.04.16 14:36:59.
