data_PCOD8222308
_publ_section_title
;
Structure prediction by ZEFSAII (Michael W. Deem and Ramdas Pophale) SiO2 
 PCOD8222308
Probable space group: P C C A
;
_chemical_formula_sum "Si O2"
_cell_formula_units_Z 64
_cell_length_a 26.452286
_cell_length_b 25.243856
_cell_length_c 5.189819
_cell_angle_alpha 90.000000
_cell_angle_beta 90.000000
_cell_angle_gamma 90.000000
_cell_volume 3465.541592
_symmetry_space_group_name_H-M "P C C A"
_symmetry_group_IT_number 54
_symmetry_cell_setting 'orthorhombic'
loop_
_space_group_symop_operation_xyz
x,y,z
1/2-x,-y,z
1/2+x,-y,1/2-z
-x,y,1/2-z
-x,-y,-z
1/2+x,y,-z
1/2-x,y,1/2+z
x,-y,1/2+z
loop_
_atom_site_type_symbol
_atom_site_label
_atom_site_fract_x
_atom_site_fract_y
_atom_site_fract_z
Si Si1 0.783645 0.643616 0.200091
Si Si2 0.193549 0.523156 0.270093
Si Si3 0.108336 0.965955 0.825141
Si Si4 0.926882 0.853534 0.681324
Si Si5 0.181588 0.809201 0.802841
Si Si6 0.779392 0.921037 0.694723
Si Si7 0.948011 0.794166 0.168583
Si Si8 0.159871 0.747771 0.318801
O O1 0.748134 0.651972 0.443468
O O2 0.808413 0.585910 0.201700
O O3 0.829352 0.685525 0.208561
O O4 0.250000 0.500000 0.236285
O O5 0.165118 0.495283 0.509704
O O6 0.069353 0.917000 0.800649
O O7 0.165316 0.945054 0.824358
O O8 0.097431 0.005517 0.593409
O O9 0.871289 0.835991 0.764162
O O10 0.937440 0.837366 0.388731
O O11 0.961045 0.825361 0.901836
O O12 0.221720 0.856799 0.814402
O O13 0.191766 0.769439 0.563903
O O14 0.181176 0.777861 0.070303
O O15 0.746281 0.941873 0.455777
O O16 0.900897 0.753816 0.147556
O O17 0.000000 0.763473 0.250000
#
# Coordination Sequence:
#
# PCOD8222308 Si02
#       8
#     8   8   8   8   8   8   8   8
#     4  12  21  30  46  71 102 142 172 207 250 282
#     4  10  16  30  46  61  90 135 180 216 237 273
#     4  11  22  36  53  71  97 128 155 201 259 289
#     4   9  19  35  55  76  93 123 162 186 234 313
#     4   9  19  35  47  63  96 130 157 200 243 289
#     4  11  22  33  49  68  91 128 172 204 235 293
#     4  10  19  36  60  78  98 127 160 202 248 302
#     4  10  21  33  48  76 104 125 166 208 248 303
#
# _framework density 18.467531999999999
#
# number of rings (size 3 to 8) (size 9 to 14) (size 15 to 20)
#    0.000    1.750    2.500    3.375    0.000    8.500 
#    0.000    0.000    0.000    7.500    0.000    0.000 
#    0.000    1.000    0.000    0.000    0.000    2.250 
#
# Total GULP energy -793417.692094 kJ/mol
# GULP energy per Si atom -12397.151439 kJ/mol
# Density = 1.842550 g / cm^3
# Si number density = 18.467532 Si / 1000 Ang^3
#
#
#
# Elastic Constant Matrix: (Units=GPa)
#
#
# Indices 1 2 3 4 5 6 
#
# 1 35.3018 20.2681 14.8794 0.0000 0.0000 0.0000
# 2 20.2681 101.4917 16.0129 0.0000 0.0000 0.0000
# 3 14.8794 16.0129 126.4197 0.0000 0.0000 0.0000
# 4 0.0000 0.0000 0.0000 -9.4798 0.0000 0.0000
# 5 0.0000 0.0000 0.0000 0.0000 -4.7608 0.0000
# 6 0.0000 0.0000 0.0000 0.0000 0.0000 10.1098
#
#
#
# Elastic Compliance Matrix: (Units=1/GPa)
#
#
# Indices 1 2 3 4 5 6 
#
# 1 0.033164 -0.006130 -0.003127 0.000000 0.000000 0.000000
# 2 -0.006130 0.011187 -0.000696 0.000000 0.000000 0.000000
# 3 -0.003127 -0.000696 0.008366 0.000000 0.000000 0.000000
# 4 0.000000 0.000000 0.000000 -0.105487 0.000000 0.000000
# 5 0.000000 0.000000 0.000000 0.000000 -0.210047 0.000000
# 6 0.000000 0.000000 0.000000 0.000000 0.000000 0.098914
#
#
# Mechanical properties :
#
#
# Convention : Reuss Voigt Hill
#
# Bulk Modulus (GPa) = 30.47551 40.61491 35.54521
# Shear Modulus (GPa) = -37.57690 13.31067 -12.13311
#
# Velocity S-wave (km/s) = -4.51572 2.68761 -2.56598
# Velocity P-wave (km/s) = 3.26358 5.62773 3.24195
#
# Compressibility (1/GPa) = 0.03281324
#
# Stress axis : x y z
#
# Youngs Moduli (GPa) = 30.15281 89.39057 119.52715
#
# Poissons Ratio (x) = 0.54793 0.37376
# Poissons Ratio (y) = 0.18483 0.08313
# Poissons Ratio (z) = 0.09429 0.06217
#
# Static dielectric constant tensor:
#      x y z
#    x 2.999640 0.000000 0.000000 
#    y 0.000000 3.380430 0.000000 
#    z 0.000000 0.000000 4.145330 
# 
# 
# High freq. dielectric constant tensor:
#      x y z
#    x 1.676400 0.000000 0.000000 
#    y 0.000000 1.698780 0.000000 
#    z 0.000000 0.000000 1.748880 
# 
# From -- ./inp_files/2023.got.cif
#   From: 2010.03.12/outbox.cif.g09.slc.cpg/sg54_2_cif.got.tgz:2023.got - 2010.04.16 15:00:50.
