data_PCOD8222487
_publ_section_title
;
Structure prediction by ZEFSAII (Michael W. Deem and Ramdas Pophale) SiO2 
 PCOD8222487
Probable space group: P C C A
;
_chemical_formula_sum "Si O2"
_cell_formula_units_Z 48
_cell_length_a 8.525723
_cell_length_b 17.447199
_cell_length_c 14.620009
_cell_angle_alpha 90.000000
_cell_angle_beta 90.000000
_cell_angle_gamma 90.000000
_cell_volume 2174.726131
_symmetry_space_group_name_H-M "P C C A"
_symmetry_group_IT_number 54
_symmetry_cell_setting 'orthorhombic'
loop_
_space_group_symop_operation_xyz
x,y,z
1/2-x,-y,z
1/2+x,-y,1/2-z
-x,y,1/2-z
-x,-y,-z
1/2+x,y,-z
1/2-x,y,1/2+z
x,-y,1/2+z
loop_
_atom_site_type_symbol
_atom_site_label
_atom_site_fract_x
_atom_site_fract_y
_atom_site_fract_z
Si Si1 0.777645 0.668381 0.132693
Si Si2 0.831204 0.423288 0.295325
Si Si3 0.451525 0.678708 0.045132
Si Si4 0.681956 0.815185 0.236499
Si Si5 0.342662 0.922093 0.420131
Si Si6 0.155787 0.847881 0.569164
O O1 0.782867 0.607113 0.214437
O O2 0.628692 0.656940 0.066885
O O3 0.779411 0.750401 0.183909
O O4 0.920014 0.655760 0.061257
O O5 0.750000 0.500000 0.333474
O O6 0.840856 0.363599 0.379895
O O7 0.000000 0.438248 0.250000
O O8 0.437428 0.769883 0.051803
O O9 0.500000 0.787846 0.250000
O O10 0.697166 0.893841 0.180972
O O11 0.750131 0.837725 0.335414
O O12 0.285480 0.859866 0.493336
O O13 0.532773 0.920432 0.429448
O O14 0.250000 0.000000 0.438520
#
# Coordination Sequence:
#
# PCOD8222487 Si02
#       6
#     8   8   8   8   8   8
#     4  11  20  38  64  90 118 159 213 252 305 365
#     4  10  23  41  63  90 127 164 205 256 318 368
#     4  11  20  37  66  91 116 165 209 249 302 378
#     4  10  18  36  63  83 113 165 208 241 304 372
#     4  11  23  37  59  92 124 157 201 257 311 357
#     4  11  20  39  64  84 122 163 203 248 303 370
#
# _framework density 22.071746000000001
#
# number of rings (size 3 to 8) (size 9 to 14) (size 15 to 20)
#    0.000    1.333    6.667    1.000    0.000    2.667 
#    0.000    5.833    0.000    0.000    0.000    0.000 
#    0.000    0.000    0.000    0.000    0.000    0.000 
#
# Total GULP energy -594880.737410 kJ/mol
# GULP energy per Si atom -12393.348696 kJ/mol
# Density = 2.202151 g / cm^3
# Si number density = 22.071746 Si / 1000 Ang^3
#
#
#
# Elastic Constant Matrix: (Units=GPa)
#
#
# Indices 1 2 3 4 5 6 
#
# 1 34.1362 24.3116 22.5967 0.0000 0.0000 0.0000
# 2 24.3116 76.4497 20.7393 0.0000 0.0000 0.0000
# 3 22.5967 20.7393 100.3526 0.0000 0.0000 0.0000
# 4 0.0000 0.0000 0.0000 23.8232 0.0000 0.0000
# 5 0.0000 0.0000 0.0000 0.0000 35.0109 0.0000
# 6 0.0000 0.0000 0.0000 0.0000 0.0000 26.3070
#
#
#
# Elastic Compliance Matrix: (Units=1/GPa)
#
#
# Indices 1 2 3 4 5 6 
#
# 1 0.042191 -0.011484 -0.007127 0.000000 0.000000 0.000000
# 2 -0.011484 0.016983 -0.000924 0.000000 0.000000 0.000000
# 3 -0.007127 -0.000924 0.011761 0.000000 0.000000 0.000000
# 4 0.000000 0.000000 0.000000 0.041976 0.000000 0.000000
# 5 0.000000 0.000000 0.000000 0.000000 0.028563 0.000000
# 6 0.000000 0.000000 0.000000 0.000000 0.000000 0.038013
#
#
# Mechanical properties :
#
#
# Convention : Reuss Voigt Hill
#
# Bulk Modulus (GPa) = 31.38212 38.47040 34.92626
# Shear Modulus (GPa) = 21.81727 26.58096 24.19911
#
# Velocity S-wave (km/s) = 3.14741 3.47406 3.31476
# Velocity P-wave (km/s) = 5.23997 5.79307 5.52345
#
# Compressibility (1/GPa) = 0.03186528
#
# Stress axis : x y z
#
# Youngs Moduli (GPa) = 23.70191 58.88231 85.02954
#
# Poissons Ratio (x) = 0.67618 0.60600
# Poissons Ratio (y) = 0.27218 0.07857
# Poissons Ratio (z) = 0.16892 0.05441
#
# Static dielectric constant tensor:
#      x y z
#    x 3.630330 0.000000 0.000000 
#    y 0.000000 3.716560 0.000000 
#    z 0.000000 0.000000 4.496540 
# 
# 
# High freq. dielectric constant tensor:
#      x y z
#    x 1.836140 0.000000 0.000000 
#    y 0.000000 1.850950 0.000000 
#    z 0.000000 0.000000 1.891750 
# 
# From -- ./inp_files/11706.got.cif
#   From: 2010.03.12/outbox.cif.g09.slc.cpg/sg54_6_cif.got.tgz:11706.got - 2010.04.16 15:00:50.
