data_PCOD8222940
_publ_section_title
;
Structure prediction by ZEFSAII (Michael W. Deem and Ramdas Pophale) SiO2 
 PCOD8222940
Probable space group: P C C A
;
_chemical_formula_sum "Si O2"
_cell_formula_units_Z 36
_cell_length_a 4.959888
_cell_length_b 12.401452
_cell_length_c 27.876732
_cell_angle_alpha 90.000000
_cell_angle_beta 90.000000
_cell_angle_gamma 90.000000
_cell_volume 1714.692571
_symmetry_space_group_name_H-M "P C C A"
_symmetry_group_IT_number 54
_symmetry_cell_setting 'orthorhombic'
loop_
_space_group_symop_operation_xyz
x,y,z
1/2-x,-y,z
1/2+x,-y,1/2-z
-x,y,1/2-z
-x,-y,-z
1/2+x,y,-z
1/2-x,y,1/2+z
x,-y,1/2+z
loop_
_atom_site_type_symbol
_atom_site_label
_atom_site_fract_x
_atom_site_fract_y
_atom_site_fract_z
Si Si1 0.000000 0.070835 0.750000
Si Si2 0.886487 0.115823 0.647460
Si Si3 0.267079 0.376797 0.031308
Si Si4 0.494955 0.427849 0.694087
Si Si5 0.398780 0.760452 0.121966
O O1 0.889590 0.140675 0.705033
O O2 0.750000 0.000000 0.770206
O O3 0.699112 0.193877 0.616013
O O4 0.192197 0.139374 0.630390
O O5 0.750000 0.000000 0.638833
O O6 0.250000 0.500000 0.049017
O O7 0.194882 0.301484 0.075238
O O8 0.567710 0.353090 0.013075
O O9 0.250000 0.500000 0.678991
O O10 0.500000 0.399295 0.750000
O O11 0.439749 0.316458 0.667414
O O12 0.750000 0.500000 0.677802
#
# Coordination Sequence:
#
# PCOD8222940 Si02
#       5
#     4   8   8   8   8
#     4  10  20  38  58  82 120 164 212 262 304 342
#     4  11  24  39  60  90 126 166 213 268 304 360
#     4  10  22  41  66  95 124 154 202 265 320 375
#     4  10  22  38  56  86 127 162 198 246 302 381
#     4  12  23  38  67  90 121 168 210 256 311 386
#
# _framework density 20.995018000000002
#
# number of rings (size 3 to 8) (size 9 to 14) (size 15 to 20)
#    0.000    1.333    0.000    6.667    3.111    2.667 
#    0.000    0.000    0.000   13.333    0.000    0.000 
#    0.000    0.000    0.000    0.000    0.000    0.000 
#
# Total GULP energy -446059.218873 kJ/mol
# GULP energy per Si atom -12390.533858 kJ/mol
# Density = 2.094723 g / cm^3
# Si number density = 20.995018 Si / 1000 Ang^3
#
#
#
# Elastic Constant Matrix: (Units=GPa)
#
#
# Indices 1 2 3 4 5 6 
#
# 1 118.3137 27.1176 9.3313 0.0000 0.0000 0.0000
# 2 27.1176 73.9679 37.1956 0.0000 0.0000 0.0000
# 3 9.3313 37.1956 74.1379 0.0000 0.0000 0.0000
# 4 0.0000 0.0000 0.0000 23.6127 0.0000 0.0000
# 5 0.0000 0.0000 0.0000 0.0000 9.4615 0.0000
# 6 0.0000 0.0000 0.0000 0.0000 0.0000 48.7553
#
#
#
# Elastic Compliance Matrix: (Units=1/GPa)
#
#
# Indices 1 2 3 4 5 6 
#
# 1 0.009256 -0.003755 0.000719 0.000000 0.000000 0.000000
# 2 -0.003755 0.019604 -0.009363 0.000000 0.000000 0.000000
# 3 0.000719 -0.009363 0.018095 0.000000 0.000000 0.000000
# 4 0.000000 0.000000 0.000000 0.042350 0.000000 0.000000
# 5 0.000000 0.000000 0.000000 0.000000 0.105691 0.000000
# 6 0.000000 0.000000 0.000000 0.000000 0.000000 0.020511
#
#
# Mechanical properties :
#
#
# Convention : Reuss Voigt Hill
#
# Bulk Modulus (GPa) = 45.13122 45.96764 45.54943
# Shear Modulus (GPa) = 20.18640 29.21757 24.70198
#
# Velocity S-wave (km/s) = 3.10415 3.73452 3.43383
# Velocity P-wave (km/s) = 5.86434 6.36691 6.12079
#
# Compressibility (1/GPa) = 0.02215761
#
# Stress axis : x y z
#
# Youngs Moduli (GPa) = 108.03768 51.00929 55.26266
#
# Poissons Ratio (x) = 0.19153 -0.03972
# Poissons Ratio (y) = 0.40567 0.51743
# Poissons Ratio (z) = -0.07766 0.47760
#
# Static dielectric constant tensor:
#      x y z
#    x 4.255280 0.000000 0.000000 
#    y 0.000000 3.647760 0.000000 
#    z 0.000000 0.000000 3.512090 
# 
# 
# High freq. dielectric constant tensor:
#      x y z
#    x 1.851750 0.000000 0.000000 
#    y 0.000000 1.812280 0.000000 
#    z 0.000000 0.000000 1.802520 
# 
# From -- ./inp_files/22694.got.cif
#   From: 2010.03.12/outbox.cif.g09.slc.cpg/sg54_12_cif.got.tgz:22694.got - 2010.04.16 15:00:50.
