data_PCOD8222783
_publ_section_title
;
Structure prediction by ZEFSAII (Michael W. Deem and Ramdas Pophale) SiO2 
 PCOD8222783
Probable space group: P C C A
;
_chemical_formula_sum "Si O2"
_cell_formula_units_Z 48
_cell_length_a 13.436936
_cell_length_b 8.958010
_cell_length_c 20.223240
_cell_angle_alpha 90.000000
_cell_angle_beta 90.000000
_cell_angle_gamma 90.000000
_cell_volume 2434.235140
_symmetry_space_group_name_H-M "P C C A"
_symmetry_group_IT_number 54
_symmetry_cell_setting 'orthorhombic'
loop_
_space_group_symop_operation_xyz
x,y,z
1/2-x,-y,z
1/2+x,-y,1/2-z
-x,y,1/2-z
-x,-y,-z
1/2+x,y,-z
1/2-x,y,1/2+z
x,-y,1/2+z
loop_
_atom_site_type_symbol
_atom_site_label
_atom_site_fract_x
_atom_site_fract_y
_atom_site_fract_z
Si Si1 0.494288 0.791295 0.538051
Si Si2 0.725277 0.176094 0.048811
Si Si3 0.207577 0.833879 0.680046
Si Si4 0.806699 0.654329 0.425008
Si Si5 0.819861 0.141082 0.175088
Si Si6 0.516098 0.098037 0.897366
O O1 0.610135 0.778849 0.555114
O O2 0.427517 0.650327 0.564341
O O3 0.477968 0.803563 0.459230
O O4 0.450721 0.936959 0.575123
O O5 0.777776 0.244340 0.114850
O O6 0.750000 0.000000 0.050296
O O7 0.767568 0.233603 0.980571
O O8 0.285873 0.718923 0.647972
O O9 0.181803 0.775405 0.754090
O O10 0.109555 0.822126 0.635475
O O11 0.250000 0.000000 0.680461
O O12 0.750000 0.500000 0.435406
O O13 0.930741 0.085462 0.157880
O O14 0.750000 0.000000 0.184134
#
# Coordination Sequence:
#
# PCOD8222783 Si02
#       6
#     8   8   8   8   8   8
#     4  11  20  33  62  92 119 150 202 257 309 354
#     4  11  19  39  64  90 120 148 199 266 316 361
#     4  11  22  37  59  88 121 159 199 253 306 370
#     4  12  25  40  58  85 125 168 206 246 300 370
#     4  10  20  34  58  94 122 148 193 257 318 363
#     4  11  18  33  62  93 117 148 195 261 307 357
#
# _framework density 19.718720000000001
#
# number of rings (size 3 to 8) (size 9 to 14) (size 15 to 20)
#    0.000    1.000    8.333    2.000    0.000    0.667 
#    0.000    1.667    0.000    2.000    0.000    0.000 
#    0.000    0.000    0.000    0.000    0.000    0.000 
#
# Total GULP energy -594874.209809 kJ/mol
# GULP energy per Si atom -12393.212704 kJ/mol
# Density = 1.967384 g / cm^3
# Si number density = 19.718720 Si / 1000 Ang^3
#
#
#
# Elastic Constant Matrix: (Units=GPa)
#
#
# Indices 1 2 3 4 5 6 
#
# 1 124.4426 22.6434 34.6194 0.0000 0.0000 0.0000
# 2 22.6434 41.4437 23.7927 0.0000 0.0000 0.0000
# 3 34.6194 23.7927 155.8874 0.0000 0.0000 0.0000
# 4 0.0000 0.0000 0.0000 3.3776 0.0000 0.0000
# 5 0.0000 0.0000 0.0000 0.0000 79.0028 0.0000
# 6 0.0000 0.0000 0.0000 0.0000 0.0000 26.8538
#
#
#
# Elastic Compliance Matrix: (Units=1/GPa)
#
#
# Indices 1 2 3 4 5 6 
#
# 1 0.009192 -0.004220 -0.001397 0.000000 0.000000 0.000000
# 2 -0.004220 0.028384 -0.003395 0.000000 0.000000 0.000000
# 3 -0.001397 -0.003395 0.007243 0.000000 0.000000 0.000000
# 4 0.000000 0.000000 0.000000 0.296066 0.000000 0.000000
# 5 0.000000 0.000000 0.000000 0.000000 0.012658 0.000000
# 6 0.000000 0.000000 0.000000 0.000000 0.000000 0.037239
#
#
# Mechanical properties :
#
#
# Convention : Reuss Voigt Hill
#
# Bulk Modulus (GPa) = 37.32074 53.76496 45.54285
# Shear Modulus (GPa) = 11.96919 37.89472 24.93195
#
# Velocity S-wave (km/s) = 2.46640 4.38855 3.55967
# Velocity P-wave (km/s) = 5.20370 7.28040 6.32783
#
# Compressibility (1/GPa) = 0.02679475
#
# Stress axis : x y z
#
# Youngs Moduli (GPa) = 108.78462 35.23116 138.05741
#
# Poissons Ratio (x) = 0.14868 0.19291
# Poissons Ratio (y) = 0.45910 0.46870
# Poissons Ratio (z) = 0.15201 0.11961
#
# Static dielectric constant tensor:
#      x y z
#    x 3.910510 0.000000 0.000000 
#    y 0.000000 3.010150 0.000000 
#    z 0.000000 0.000000 4.304830 
# 
# 
# High freq. dielectric constant tensor:
#      x y z
#    x 1.789630 0.000000 0.000000 
#    y 0.000000 1.696790 0.000000 
#    z 0.000000 0.000000 1.784850 
# 
# From -- ./inp_files/21454.got.cif
#   From: 2010.03.12/outbox.cif.g09.slc.cpg/sg54_11_cif.got.tgz:21454.got - 2010.04.16 15:00:50.
