data_PCOD8222900
_publ_section_title
;
Structure prediction by ZEFSAII (Michael W. Deem and Ramdas Pophale) SiO2 
 PCOD8222900
Probable space group: P C C A
;
_chemical_formula_sum "Si O2"
_cell_formula_units_Z 60
_cell_length_a 18.437187
_cell_length_b 16.402717
_cell_length_c 9.740123
_cell_angle_alpha 90.000000
_cell_angle_beta 90.000000
_cell_angle_gamma 90.000000
_cell_volume 2945.607614
_symmetry_space_group_name_H-M "P C C A"
_symmetry_group_IT_number 54
_symmetry_cell_setting 'orthorhombic'
loop_
_space_group_symop_operation_xyz
x,y,z
1/2-x,-y,z
1/2+x,-y,1/2-z
-x,y,1/2-z
-x,-y,-z
1/2+x,y,-z
1/2-x,y,1/2+z
x,-y,1/2+z
loop_
_atom_site_type_symbol
_atom_site_label
_atom_site_fract_x
_atom_site_fract_y
_atom_site_fract_z
Si Si1 0.695619 0.179261 0.694189
Si Si2 0.492379 0.580032 0.413354
Si Si3 0.676931 0.801751 0.515365
Si Si4 0.964550 0.888786 0.113094
Si Si5 0.657089 0.646697 0.142365
Si Si6 0.250000 0.500000 0.954843
Si Si7 0.058294 0.072430 0.361450
Si Si8 0.643269 0.368468 0.953834
O O1 0.771910 0.151865 0.625541
O O2 0.703332 0.184514 0.858743
O O3 0.681572 0.262189 0.603580
O O4 0.635199 0.113312 0.662745
O O5 0.500000 0.562486 0.250000
O O6 0.500000 0.500000 0.500000
O O7 0.415837 0.624384 0.441792
O O8 0.557477 0.630300 0.483090
O O9 0.595415 0.832630 0.540981
O O10 0.678229 0.703389 0.545339
O O11 0.000000 0.848707 0.250000
O O12 0.929077 0.975787 0.151275
O O13 0.031294 0.902168 0.010790
O O14 0.642663 0.660534 0.299682
O O15 0.715736 0.574054 0.130781
O O16 0.315004 0.544147 0.038217
O O17 0.000000 0.103610 0.250000
#
# Coordination Sequence:
#
# PCOD8222900 Si02
#       8
#     8   8   8   8   8   4   8   8
#     4  11  24  41  64  94 128 168 218 262 327 380
#     4  10  20  37  57  83 111 150 203 256 307 367
#     4  11  24  43  62  96 129 168 213 266 319 383
#     4  10  23  42  68  97 131 163 213 257 317 382
#     4  10  22  36  59  85 117 167 205 257 312 376
#     4  12  18  38  58  84 126 160 208 256 318 370
#     4  10  21  43  69  96 124 172 209 256 313 386
#     4  10  22  37  59  84 122 161 209 256 313 373
#
# _framework density 20.369309999999999
#
# number of rings (size 3 to 8) (size 9 to 14) (size 15 to 20)
#    0.000    1.600    4.000    0.400    3.733    1.067 
#    0.000    3.333    0.000    0.000    0.000    0.000 
#    0.000    0.000    0.000    0.000    0.000    0.000 
#
# Total GULP energy -743282.947854 kJ/mol
# GULP energy per Si atom -12388.049131 kJ/mol
# Density = 2.032295 g / cm^3
# Si number density = 20.369310 Si / 1000 Ang^3
#
#
#
# Elastic Constant Matrix: (Units=GPa)
#
#
# Indices 1 2 3 4 5 6 
#
# 1 99.6549 25.2917 30.5338 0.0000 0.0000 0.0000
# 2 25.2917 73.7405 18.4084 0.0000 0.0000 0.0000
# 3 30.5338 18.4084 85.9653 0.0000 0.0000 0.0000
# 4 0.0000 0.0000 0.0000 23.7771 0.0000 0.0000
# 5 0.0000 0.0000 0.0000 0.0000 37.5444 0.0000
# 6 0.0000 0.0000 0.0000 0.0000 0.0000 27.0345
#
#
#
# Elastic Compliance Matrix: (Units=1/GPa)
#
#
# Indices 1 2 3 4 5 6 
#
# 1 0.011937 -0.003207 -0.003553 0.000000 0.000000 0.000000
# 2 -0.003207 0.015189 -0.002113 0.000000 0.000000 0.000000
# 3 -0.003553 -0.002113 0.013347 0.000000 0.000000 0.000000
# 4 0.000000 0.000000 0.000000 0.042057 0.000000 0.000000
# 5 0.000000 0.000000 0.000000 0.000000 0.026635 0.000000
# 6 0.000000 0.000000 0.000000 0.000000 0.000000 0.036990
#
#
# Mechanical properties :
#
#
# Convention : Reuss Voigt Hill
#
# Bulk Modulus (GPa) = 44.00312 45.31428 44.65870
# Shear Modulus (GPa) = 29.15826 30.01298 29.58562
#
# Velocity S-wave (km/s) = 3.78759 3.84271 3.81525
# Velocity P-wave (km/s) = 6.38572 6.47944 6.43275
#
# Compressibility (1/GPa) = 0.02272566
#
# Stress axis : x y z
#
# Youngs Moduli (GPa) = 83.77110 65.83864 74.92214
#
# Poissons Ratio (x) = 0.21116 0.26621
# Poissons Ratio (y) = 0.26868 0.15833
# Poissons Ratio (z) = 0.29765 0.13914
#
# Static dielectric constant tensor:
#      x y z
#    x 3.548180 0.000000 0.000000 
#    y 0.000000 3.917040 0.000000 
#    z 0.000000 0.000000 3.627780 
# 
# 
# High freq. dielectric constant tensor:
#      x y z
#    x 1.806250 0.000000 0.000000 
#    y 0.000000 1.791990 0.000000 
#    z 0.000000 0.000000 1.782710 
# 
# From -- ./inp_files/4366.got.cif
#   From: 2010.03.12/outbox.cif.g09.slc.cpg/sg54_3_cif.got.tgz:4366.got - 2010.04.16 15:00:50.
