data_PCOD8222729
_publ_section_title
;
Structure prediction by ZEFSAII (Michael W. Deem and Ramdas Pophale) SiO2 
 PCOD8222729
Probable space group: P C C A
;
_chemical_formula_sum "Si O2"
_cell_formula_units_Z 48
_cell_length_a 9.425816
_cell_length_b 14.734004
_cell_length_c 17.806230
_cell_angle_alpha 90.000000
_cell_angle_beta 90.000000
_cell_angle_gamma 90.000000
_cell_volume 2472.929412
_symmetry_space_group_name_H-M "P C C A"
_symmetry_group_IT_number 54
_symmetry_cell_setting 'orthorhombic'
loop_
_space_group_symop_operation_xyz
x,y,z
1/2-x,-y,z
1/2+x,-y,1/2-z
-x,y,1/2-z
-x,-y,-z
1/2+x,y,-z
1/2-x,y,1/2+z
x,-y,1/2+z
loop_
_atom_site_type_symbol
_atom_site_label
_atom_site_fract_x
_atom_site_fract_y
_atom_site_fract_z
Si Si1 0.139913 0.819920 0.654025
Si Si2 0.000000 0.418403 0.250000
Si Si3 0.861545 0.745191 0.058913
Si Si4 0.852782 0.750099 0.684176
Si Si5 0.250000 0.500000 0.655220
Si Si6 0.824521 0.320342 0.930491
Si Si7 0.873083 0.062682 0.479059
O O1 0.156508 0.819136 0.744261
O O2 0.265233 0.756656 0.624211
O O3 0.147760 0.916800 0.610760
O O4 0.983270 0.782549 0.631737
O O5 0.889847 0.353572 0.205598
O O6 0.894647 0.481568 0.298111
O O7 0.796832 0.755596 0.142173
O O8 0.007087 0.690285 0.062760
O O9 0.747979 0.687345 0.011786
O O10 0.885602 0.843348 0.023203
O O11 0.286318 0.582955 0.602119
O O12 0.750000 0.000000 0.510077
O O13 0.000000 0.000000 0.500000
#
# Coordination Sequence:
#
# PCOD8222729 Si02
#       7
#     8   4   8   8   4   8   8
#     4   9  19  39  61  87 122 167 204 254 322 386
#     4  10  24  40  64  92 130 164 212 262 314 370
#     4  11  24  40  64  89 125 171 208 259 327 386
#     4  10  19  42  63  85 122 176 203 249 327 384
#     4  12  24  42  64  98 128 168 214 270 308 374
#     4  11  23  40  61  89 127 165 215 260 316 379
#     4  11  21  38  63  92 122 160 211 267 316 379
#
# _framework density 19.410177000000001
#
# number of rings (size 3 to 8) (size 9 to 14) (size 15 to 20)
#    0.000    1.667    3.333    5.000    2.333    1.333 
#    0.000    4.167    0.000    0.000    0.000    0.000 
#    0.000    0.000    0.000    0.000    0.000    0.000 
#
# Total GULP energy -594817.933537 kJ/mol
# GULP energy per Si atom -12392.040282 kJ/mol
# Density = 1.936600 g / cm^3
# Si number density = 19.410177 Si / 1000 Ang^3
#
#
#
# Elastic Constant Matrix: (Units=GPa)
#
#
# Indices 1 2 3 4 5 6 
#
# 1 147.8221 40.9901 58.4212 0.0000 0.0000 0.0000
# 2 40.9901 104.6880 47.4246 0.0000 0.0000 0.0000
# 3 58.4212 47.4246 101.9153 0.0000 0.0000 0.0000
# 4 0.0000 0.0000 0.0000 5.1528 0.0000 0.0000
# 5 0.0000 0.0000 0.0000 0.0000 35.5475 0.0000
# 6 0.0000 0.0000 0.0000 0.0000 0.0000 21.6308
#
#
#
# Elastic Compliance Matrix: (Units=1/GPa)
#
#
# Indices 1 2 3 4 5 6 
#
# 1 0.008926 -0.001492 -0.004423 0.000000 0.000000 0.000000
# 2 -0.001492 0.012353 -0.004893 0.000000 0.000000 0.000000
# 3 -0.004423 -0.004893 0.014624 0.000000 0.000000 0.000000
# 4 0.000000 0.000000 0.000000 0.194069 0.000000 0.000000
# 5 0.000000 0.000000 0.000000 0.000000 0.028131 0.000000
# 6 0.000000 0.000000 0.000000 0.000000 0.000000 0.046230
#
#
# Mechanical properties :
#
#
# Convention : Reuss Voigt Hill
#
# Bulk Modulus (GPa) = 69.98647 72.01082 70.99864
# Shear Modulus (GPa) = 15.11890 26.30553 20.71221
#
# Velocity S-wave (km/s) = 2.79393 3.68536 3.27016
# Velocity P-wave (km/s) = 6.82224 7.43567 7.13555
#
# Compressibility (1/GPa) = 0.01428848
#
# Stress axis : x y z
#
# Youngs Moduli (GPa) = 112.02657 80.95296 68.37895
#
# Poissons Ratio (x) = 0.12074 0.30243
# Poissons Ratio (y) = 0.16709 0.33459
# Poissons Ratio (z) = 0.49548 0.39612
#
# Static dielectric constant tensor:
#      x y z
#    x 3.648980 0.000000 0.000000 
#    y 0.000000 3.521310 0.000000 
#    z 0.000000 0.000000 -0.974310 
# 
# 
# High freq. dielectric constant tensor:
#      x y z
#    x 1.771260 0.000000 0.000000 
#    y 0.000000 1.744390 0.000000 
#    z 0.000000 0.000000 1.753400 
# 
# From -- ./inp_files/16662.got.cif
#   From: 2010.03.12/outbox.cif.g09.slc.cpg/sg54_9_cif.got.tgz:16662.got - 2010.04.16 15:00:50.
