data_PCOD8222765
_publ_section_title
;
Structure prediction by ZEFSAII (Michael W. Deem and Ramdas Pophale) SiO2 
 PCOD8222765
Probable space group: P C C A
;
_chemical_formula_sum "Si O2"
_cell_formula_units_Z 64
_cell_length_a 18.363603
_cell_length_b 8.937710
_cell_length_c 19.992056
_cell_angle_alpha 90.000000
_cell_angle_beta 90.000000
_cell_angle_gamma 90.000000
_cell_volume 3281.267326
_symmetry_space_group_name_H-M "P C C A"
_symmetry_group_IT_number 54
_symmetry_cell_setting 'orthorhombic'
loop_
_space_group_symop_operation_xyz
x,y,z
1/2-x,-y,z
1/2+x,-y,1/2-z
-x,y,1/2-z
-x,-y,-z
1/2+x,y,-z
1/2-x,y,1/2+z
x,-y,1/2+z
loop_
_atom_site_type_symbol
_atom_site_label
_atom_site_fract_x
_atom_site_fract_y
_atom_site_fract_z
Si Si1 0.669418 0.512661 0.965808
Si Si2 0.925292 0.919466 0.986466
Si Si3 0.355046 0.205928 0.961441
Si Si4 0.062131 0.387095 0.354133
Si Si5 0.190947 0.632301 0.750639
Si Si6 0.262539 0.172394 0.356769
Si Si7 0.612714 0.332997 0.080588
Si Si8 0.594218 0.702930 0.369676
O O1 0.750000 0.500000 0.934272
O O2 0.609791 0.434442 0.919420
O O3 0.646543 0.686058 0.973971
O O4 0.670227 0.434202 0.038954
O O5 0.909986 0.861423 0.910454
O O6 0.931800 0.773380 0.031863
O O7 0.863809 0.036064 0.011551
O O8 0.000000 0.000000 0.000000
O O9 0.416324 0.259504 0.908518
O O10 0.278291 0.221815 0.924168
O O11 0.120214 0.411027 0.294704
O O12 0.055871 0.553094 0.385609
O O13 0.981711 0.334009 0.331158
O O14 0.250000 0.500000 0.737918
O O15 0.233724 0.759738 0.788619
O O16 0.160875 0.705766 0.682480
O O17 0.345340 0.228319 0.365775
O O18 0.250000 0.000000 0.345786
#
# Coordination Sequence:
#
# PCOD8222765 Si02
#       8
#     8   8   8   8   8   8   8   8
#     4  10  20  34  57  89 123 153 194 249 306 365
#     4  11  22  37  58  92 131 161 193 246 319 387
#     4  10  20  33  60  90 118 155 198 248 304 358
#     4  10  21  38  62  88 117 156 211 258 291 356
#     4  11  23  42  65  85 115 162 214 259 298 358
#     4  11  20  37  63  90 114 151 206 260 295 354
#     4  10  20  34  61  91 118 150 202 252 300 351
#     4  11  24  39  58  87 128 164 197 248 319 378
#
# _framework density 19.504659
#
# number of rings (size 3 to 8) (size 9 to 14) (size 15 to 20)
#    0.000    1.500    5.000    0.750    1.750    1.500 
#    0.000    2.500    0.000    0.000    0.000    0.000 
#    0.000    0.000    0.000    0.000    0.000    0.000 
#
# Total GULP energy -793105.100349 kJ/mol
# GULP energy per Si atom -12392.267193 kJ/mol
# Density = 1.946027 g / cm^3
# Si number density = 19.504659 Si / 1000 Ang^3
#
#
#
# Elastic Constant Matrix: (Units=GPa)
#
#
# Indices 1 2 3 4 5 6 
#
# 1 79.9450 17.2139 28.8607 0.0000 0.0000 0.0000
# 2 17.2139 109.2019 38.3190 0.0000 0.0000 0.0000
# 3 28.8607 38.3190 87.6584 0.0000 0.0000 0.0000
# 4 0.0000 0.0000 0.0000 41.4429 0.0000 0.0000
# 5 0.0000 0.0000 0.0000 0.0000 2.1534 0.0000
# 6 0.0000 0.0000 0.0000 0.0000 0.0000 30.3319
#
#
#
# Elastic Compliance Matrix: (Units=1/GPa)
#
#
# Indices 1 2 3 4 5 6 
#
# 1 0.014242 -0.000708 -0.004379 0.000000 0.000000 0.000000
# 2 -0.000708 0.010852 -0.004511 0.000000 0.000000 0.000000
# 3 -0.004379 -0.004511 0.014822 0.000000 0.000000 0.000000
# 4 0.000000 0.000000 0.000000 0.024130 0.000000 0.000000
# 5 0.000000 0.000000 0.000000 0.000000 0.464379 0.000000
# 6 0.000000 0.000000 0.000000 0.000000 0.000000 0.032969
#
#
# Mechanical properties :
#
#
# Convention : Reuss Voigt Hill
#
# Bulk Modulus (GPa) = 48.26523 49.51029 48.88776
# Shear Modulus (GPa) = 8.51070 27.61309 18.06189
#
# Velocity S-wave (km/s) = 2.09115 3.76668 3.04637
# Velocity P-wave (km/s) = 5.53441 6.66004 6.12315
#
# Compressibility (1/GPa) = 0.02071885
#
# Stress axis : x y z
#
# Youngs Moduli (GPa) = 70.21422 92.15103 67.46932
#
# Poissons Ratio (x) = 0.06527 0.29548
# Poissons Ratio (y) = 0.04973 0.30432
# Poissons Ratio (z) = 0.30750 0.41565
#
# Static dielectric constant tensor:
#      x y z
#    x 3.458010 0.000000 0.000000 
#    y 0.000000 3.721490 0.000000 
#    z 0.000000 0.000000 3.423670 
# 
# 
# High freq. dielectric constant tensor:
#      x y z
#    x 1.757580 0.000000 0.000000 
#    y 0.000000 1.763020 0.000000 
#    z 0.000000 0.000000 1.736450 
# 
# From -- ./inp_files/21988.got.cif
#   From: 2010.03.12/outbox.cif.g09.slc.cpg/sg54_11_cif.got.tgz:21988.got - 2010.04.16 15:00:50.
