data_PCOD8222718
_publ_section_title
;
Structure prediction by ZEFSAII (Michael W. Deem and Ramdas Pophale) SiO2 
 PCOD8222718
Probable space group: P C C A
;
_chemical_formula_sum "Si O2"
_cell_formula_units_Z 64
_cell_length_a 17.413045
_cell_length_b 13.421661
_cell_length_c 13.417554
_cell_angle_alpha 90.000000
_cell_angle_beta 90.000000
_cell_angle_gamma 90.000000
_cell_volume 3135.843206
_symmetry_space_group_name_H-M "P C C A"
_symmetry_group_IT_number 54
_symmetry_cell_setting 'orthorhombic'
loop_
_space_group_symop_operation_xyz
x,y,z
1/2-x,-y,z
1/2+x,-y,1/2-z
-x,y,1/2-z
-x,-y,-z
1/2+x,y,-z
1/2-x,y,1/2+z
x,-y,1/2+z
loop_
_atom_site_type_symbol
_atom_site_label
_atom_site_fract_x
_atom_site_fract_y
_atom_site_fract_z
Si Si1 0.301933 0.330971 0.485738
Si Si2 0.127970 0.156966 0.273164
Si Si3 0.964679 0.279876 0.074794
Si Si4 0.066588 0.544794 0.564833
Si Si5 0.399870 0.153041 0.553292
Si Si6 0.835879 0.966117 0.111017
Si Si7 0.296017 0.769152 0.782137
Si Si8 0.647139 0.645743 0.902417
O O1 0.368189 0.413321 0.491074
O O2 0.328641 0.227858 0.535748
O O3 0.283948 0.311969 0.369526
O O4 0.229098 0.372469 0.546072
O O5 0.082782 0.242872 0.330614
O O6 0.088681 0.129589 0.169417
O O7 0.213073 0.194397 0.246866
O O8 0.122369 0.056739 0.336257
O O9 0.023148 0.364391 0.121048
O O10 0.018456 0.198354 0.020052
O O11 0.907394 0.310497 0.987450
O O12 0.108008 0.459728 0.633127
O O13 0.000000 0.500000 0.500000
O O14 0.381353 0.052890 0.491995
O O15 0.841399 0.866543 0.178704
O O16 0.750000 0.000000 0.084891
O O17 0.343954 0.718884 0.692163
#
# Coordination Sequence:
#
# PCOD8222718 Si02
#       8
#     8   8   8   8   8   8   8   8
#     4  10  19  39  62  85 127 157 211 261 311 387
#     4  11  20  38  63  92 127 166 217 264 322 386
#     4  10  22  39  62  89 129 166 209 267 325 383
#     4   9  21  40  60  88 122 166 206 260 326 379
#     4  10  21  39  60  89 126 170 204 262 326 382
#     4   9  22  38  61  94 130 162 218 268 318 380
#     4  10  21  38  62  98 117 164 213 266 318 379
#     4  11  20  39  67  90 123 167 213 264 324 383
#
# _framework density 20.409182999999999
#
# number of rings (size 3 to 8) (size 9 to 14) (size 15 to 20)
#    0.000    2.000    2.500    0.750    0.000    3.000 
#    0.000   22.500    0.000    0.000    0.000    0.000 
#    0.000    0.000    0.000    0.000    0.000    0.000 
#
# Total GULP energy -793169.745706 kJ/mol
# GULP energy per Si atom -12393.277277 kJ/mol
# Density = 2.036273 g / cm^3
# Si number density = 20.409183 Si / 1000 Ang^3
#
#
#
# Elastic Constant Matrix: (Units=GPa)
#
#
# Indices 1 2 3 4 5 6 
#
# 1 85.9284 42.6661 35.4368 0.0000 0.0000 0.0000
# 2 42.6661 109.8824 53.4003 0.0000 0.0000 0.0000
# 3 35.4368 53.4003 116.1053 0.0000 0.0000 0.0000
# 4 0.0000 0.0000 0.0000 27.7589 0.0000 0.0000
# 5 0.0000 0.0000 0.0000 0.0000 22.0419 0.0000
# 6 0.0000 0.0000 0.0000 0.0000 0.0000 36.0596
#
#
#
# Elastic Compliance Matrix: (Units=1/GPa)
#
#
# Indices 1 2 3 4 5 6 
#
# 1 0.014933 -0.004615 -0.002435 0.000000 0.000000 0.000000
# 2 -0.004615 0.013146 -0.004638 0.000000 0.000000 0.000000
# 3 -0.002435 -0.004638 0.011489 0.000000 0.000000 0.000000
# 4 0.000000 0.000000 0.000000 0.036025 0.000000 0.000000
# 5 0.000000 0.000000 0.000000 0.000000 0.045368 0.000000
# 6 0.000000 0.000000 0.000000 0.000000 0.000000 0.027732
#
#
# Mechanical properties :
#
#
# Convention : Reuss Voigt Hill
#
# Bulk Modulus (GPa) = 61.75590 63.88028 62.81809
# Shear Modulus (GPa) = 28.17416 29.19961 28.68689
#
# Velocity S-wave (km/s) = 3.71949 3.78658 3.75318
# Velocity P-wave (km/s) = 6.98360 7.10530 7.04471
#
# Compressibility (1/GPa) = 0.01619279
#
# Stress axis : x y z
#
# Youngs Moduli (GPa) = 66.96412 76.06592 87.03771
#
# Poissons Ratio (x) = 0.35104 0.21196
# Poissons Ratio (y) = 0.30904 0.40367
# Poissons Ratio (z) = 0.16308 0.35279
#
# Static dielectric constant tensor:
#      x y z
#    x 3.862590 0.000000 0.000000 
#    y 0.000000 4.136470 0.000000 
#    z 0.000000 0.000000 3.549200 
# 
# 
# High freq. dielectric constant tensor:
#      x y z
#    x 1.809240 0.000000 0.000000 
#    y 0.000000 1.800140 0.000000 
#    z 0.000000 0.000000 1.776510 
# 
# From -- ./inp_files/14319.got.cif
#   From: 2010.03.12/outbox.cif.g09.slc.cpg/sg54_8_cif.got.tgz:14319.got - 2010.04.16 15:00:50.
