data_PCOD8222793
_publ_section_title
;
Structure prediction by ZEFSAII (Michael W. Deem and Ramdas Pophale) SiO2 
 PCOD8222793
Probable space group: P C C A
;
_chemical_formula_sum "Si O2"
_cell_formula_units_Z 48
_cell_length_a 13.440236
_cell_length_b 11.239430
_cell_length_c 16.906230
_cell_angle_alpha 90.000000
_cell_angle_beta 90.000000
_cell_angle_gamma 90.000000
_cell_volume 2553.865107
_symmetry_space_group_name_H-M "P C C A"
_symmetry_group_IT_number 54
_symmetry_cell_setting 'orthorhombic'
loop_
_space_group_symop_operation_xyz
x,y,z
1/2-x,-y,z
1/2+x,-y,1/2-z
-x,y,1/2-z
-x,-y,-z
1/2+x,y,-z
1/2-x,y,1/2+z
x,-y,1/2+z
loop_
_atom_site_type_symbol
_atom_site_label
_atom_site_fract_x
_atom_site_fract_y
_atom_site_fract_z
Si Si1 0.885899 0.212017 0.745019
Si Si2 0.227097 0.636226 0.379570
Si Si3 0.364360 0.969089 0.885601
Si Si4 0.889882 0.759902 0.993682
Si Si5 0.399809 0.793581 0.444629
Si Si6 0.778981 0.136375 0.902512
O O1 0.823306 0.311683 0.698913
O O2 0.881443 0.085452 0.700657
O O3 0.838209 0.194626 0.830465
O O4 0.000000 0.255397 0.750000
O O5 0.250000 0.500000 0.364122
O O6 0.154330 0.650936 0.455084
O O7 0.329126 0.705517 0.396614
O O8 0.250000 0.000000 0.901031
O O9 0.426973 0.091395 0.890565
O O10 0.399252 0.876415 0.951730
O O11 0.821117 0.787329 0.917755
O O12 0.999406 0.722839 0.964585
O O13 0.348731 0.850257 0.521514
O O14 0.750000 0.000000 0.886056
#
# Coordination Sequence:
#
# PCOD8222793 Si02
#       6
#     8   8   8   8   8   8
#     4  11  24  38  58  86 117 161 197 231 300 364
#     4  10  23  44  61  78 117 164 204 251 285 336
#     4  11  17  37  56  87 128 154 175 237 300 364
#     4  10  20  34  62  89 116 148 191 237 302 351
#     4  11  20  37  60  90 120 150 193 242 302 351
#     4  11  20  33  55  89 122 146 185 236 287 362
#
# _framework density 18.795043
#
# number of rings (size 3 to 8) (size 9 to 14) (size 15 to 20)
#    0.000    1.333    6.667    3.000    2.333    0.667 
#    0.000    5.833    0.000    0.000    0.000    0.000 
#    0.000    0.000    0.000    0.000    0.000    0.000 
#
# Total GULP energy -595214.096674 kJ/mol
# GULP energy per Si atom -12400.293681 kJ/mol
# Density = 1.875226 g / cm^3
# Si number density = 18.795043 Si / 1000 Ang^3
#
#
#
# Elastic Constant Matrix: (Units=GPa)
#
#
# Indices 1 2 3 4 5 6 
#
# 1 125.2158 34.2538 34.9037 0.0000 0.0000 0.0000
# 2 34.2538 111.9277 44.6285 0.0000 0.0000 0.0000
# 3 34.9037 44.6285 83.2601 0.0000 0.0000 0.0000
# 4 0.0000 0.0000 0.0000 14.9048 0.0000 0.0000
# 5 0.0000 0.0000 0.0000 0.0000 23.3050 0.0000
# 6 0.0000 0.0000 0.0000 0.0000 0.0000 12.7143
#
#
#
# Elastic Compliance Matrix: (Units=1/GPa)
#
#
# Indices 1 2 3 4 5 6 
#
# 1 0.009273 -0.001638 -0.003009 0.000000 0.000000 0.000000
# 2 -0.001638 0.011652 -0.005559 0.000000 0.000000 0.000000
# 3 -0.003009 -0.005559 0.016252 0.000000 0.000000 0.000000
# 4 0.000000 0.000000 0.000000 0.067093 0.000000 0.000000
# 5 0.000000 0.000000 0.000000 0.000000 0.042909 0.000000
# 6 0.000000 0.000000 0.000000 0.000000 0.000000 0.078651
#
#
# Mechanical properties :
#
#
# Convention : Reuss Voigt Hill
#
# Bulk Modulus (GPa) = 59.65072 60.88617 60.26845
# Shear Modulus (GPa) = 19.85456 23.95934 21.90695
#
# Velocity S-wave (km/s) = 3.25371 3.57426 3.41775
# Velocity P-wave (km/s) = 6.77657 7.03555 6.90727
#
# Compressibility (1/GPa) = 0.01676426
#
# Stress axis : x y z
#
# Youngs Moduli (GPa) = 107.83795 85.82108 61.53140
#
# Poissons Ratio (x) = 0.14057 0.18518
# Poissons Ratio (y) = 0.17664 0.34206
# Poissons Ratio (z) = 0.32453 0.47708
#
# Static dielectric constant tensor:
#      x y z
#    x 3.638160 0.000000 0.000000 
#    y 0.000000 3.215730 0.000000 
#    z 0.000000 0.000000 3.426880 
# 
# 
# High freq. dielectric constant tensor:
#      x y z
#    x 1.740380 0.000000 0.000000 
#    y 0.000000 1.699750 0.000000 
#    z 0.000000 0.000000 1.723930 
# 
# From -- ./inp_files/13422.got.cif
#   From: 2010.03.12/outbox.cif.g09.slc.cpg/sg54_7_cif.got.tgz:13422.got - 2010.04.16 15:00:50.
