data_PCOD8222540
_publ_section_title
;
Structure prediction by ZEFSAII (Michael W. Deem and Ramdas Pophale) SiO2 
 PCOD8222540
Probable space group: P C C A
;
_chemical_formula_sum "Si O2"
_cell_formula_units_Z 64
_cell_length_a 20.022581
_cell_length_b 8.837842
_cell_length_c 17.524091
_cell_angle_alpha 90.000000
_cell_angle_beta 90.000000
_cell_angle_gamma 90.000000
_cell_volume 3101.000185
_symmetry_space_group_name_H-M "P C C A"
_symmetry_group_IT_number 54
_symmetry_cell_setting 'orthorhombic'
loop_
_space_group_symop_operation_xyz
x,y,z
1/2-x,-y,z
1/2+x,-y,1/2-z
-x,y,1/2-z
-x,-y,-z
1/2+x,y,-z
1/2-x,y,1/2+z
x,-y,1/2+z
loop_
_atom_site_type_symbol
_atom_site_label
_atom_site_fract_x
_atom_site_fract_y
_atom_site_fract_z
Si Si1 0.943390 0.918908 0.887526
Si Si2 0.456490 0.432253 0.432038
Si Si3 0.684029 0.917365 0.859798
Si Si4 0.179986 0.574712 0.969881
Si Si5 0.821514 0.429278 0.849311
Si Si6 0.939931 0.921364 0.065316
Si Si7 0.044820 0.404273 0.179251
Si Si8 0.814000 0.081938 0.041636
O O1 0.943848 0.738675 0.876582
O O2 0.882688 0.988533 0.837902
O O3 0.942523 0.970738 0.976280
O O4 0.013875 0.998888 0.869330
O O5 0.500000 0.500000 0.500000
O O6 0.381588 0.494877 0.428423
O O7 0.451105 0.254805 0.434150
O O8 0.496745 0.470359 0.356257
O O9 0.679024 0.747726 0.826390
O O10 0.750000 0.000000 0.826060
O O11 0.686954 0.922305 0.950507
O O12 0.250000 0.500000 0.946616
O O13 0.181196 0.742936 0.936265
O O14 0.167341 0.558116 0.060120
O O15 0.750000 0.500000 0.825585
O O16 0.882157 0.518322 0.806254
O O17 0.867754 0.982924 0.087386
O O18 0.000000 0.345910 0.250000
O O19 0.750000 0.000000 0.075027
#
# Coordination Sequence:
#
# PCOD8222540 Si02
#       8
#     8   8   8   8   8   8   8   8
#     4  10  19  33  53  81 115 147 190 240 292 351
#     4  12  21  36  60  87 118 152 198 249 298 350
#     4   9  17  29  51  82 113 145 186 242 296 350
#     4  10  19  32  57  90 120 153 196 252 309 356
#     4  10  19  35  60  87 118 154 199 249 300 358
#     4  10  19  31  56  82 110 147 192 243 301 341
#     4  12  25  40  57  87 123 165 202 246 303 363
#     4   9  17  28  46  79 121 149 182 237 302 360
#
# _framework density 20.638501999999999
#
# number of rings (size 3 to 8) (size 9 to 14) (size 15 to 20)
#    0.000    1.750    2.500    3.000    3.500    4.000 
#    0.000    3.125    0.000    0.000    0.000    3.500 
#    0.000    0.000    0.000    0.000    0.000    0.000 
#
# Total GULP energy -792862.800247 kJ/mol
# GULP energy per Si atom -12388.481254 kJ/mol
# Density = 2.059153 g / cm^3
# Si number density = 20.638502 Si / 1000 Ang^3
#
#
#
# Elastic Constant Matrix: (Units=GPa)
#
#
# Indices 1 2 3 4 5 6 
#
# 1 186.3690 69.4390 15.6840 0.0000 0.0000 0.0000
# 2 69.4390 153.4698 -1.6723 0.0000 0.0000 0.0000
# 3 15.6840 -1.6723 14.4113 0.0000 0.0000 0.0000
# 4 0.0000 0.0000 0.0000 10.3668 0.0000 0.0000
# 5 0.0000 0.0000 0.0000 0.0000 16.8157 0.0000
# 6 0.0000 0.0000 0.0000 0.0000 0.0000 47.8540
#
#
#
# Elastic Compliance Matrix: (Units=1/GPa)
#
#
# Indices 1 2 3 4 5 6 
#
# 1 0.007344 -0.003414 -0.008388 0.000000 0.000000 0.000000
# 2 -0.003414 0.008111 0.004657 0.000000 0.000000 0.000000
# 3 -0.008388 0.004657 0.079060 0.000000 0.000000 0.000000
# 4 0.000000 0.000000 0.000000 0.096462 0.000000 0.000000
# 5 0.000000 0.000000 0.000000 0.000000 0.059468 0.000000
# 6 0.000000 0.000000 0.000000 0.000000 0.000000 0.020897
#
#
# Mechanical properties :
#
#
# Convention : Reuss Voigt Hill
#
# Bulk Modulus (GPa) = 12.46515 57.90570 35.18542
# Shear Modulus (GPa) = 16.00644 33.06059 24.53351
#
# Velocity S-wave (km/s) = 2.78791 4.00670 3.45153
# Velocity P-wave (km/s) = 4.05168 7.03725 5.74191
#
# Compressibility (1/GPa) = 0.08022364
#
# Stress axis : x y z
#
# Youngs Moduli (GPa) = 136.17106 123.28250 12.64866
#
# Poissons Ratio (x) = 0.42090 0.10610
# Poissons Ratio (y) = 0.46491 -0.05890
# Poissons Ratio (z) = 1.14226 -0.57412
#
# Static dielectric constant tensor:
#      x y z
#    x 4.293930 0.000000 0.000000 
#    y 0.000000 3.840010 0.000000 
#    z 0.000000 0.000000 3.522420 
# 
# 
# High freq. dielectric constant tensor:
#      x y z
#    x 1.835500 0.000000 0.000000 
#    y 0.000000 1.821980 0.000000 
#    z 0.000000 0.000000 1.729960 
# 
# From -- ./inp_files/21956.got.cif
#   From: 2010.03.12/outbox.cif.g09.slc.cpg/sg54_11_cif.got.tgz:21956.got - 2010.04.16 15:00:50.
