data_PCOD8222541
_publ_section_title
;
Structure prediction by ZEFSAII (Michael W. Deem and Ramdas Pophale) SiO2 
 PCOD8222541
Probable space group: P C C A
;
_chemical_formula_sum "Si O2"
_cell_formula_units_Z 48
_cell_length_a 5.277463
_cell_length_b 18.698669
_cell_length_c 31.498642
_cell_angle_alpha 90.000000
_cell_angle_beta 90.000000
_cell_angle_gamma 90.000000
_cell_volume 3108.334305
_symmetry_space_group_name_H-M "P C C A"
_symmetry_group_IT_number 54
_symmetry_cell_setting 'orthorhombic'
loop_
_space_group_symop_operation_xyz
x,y,z
1/2-x,-y,z
1/2+x,-y,1/2-z
-x,y,1/2-z
-x,-y,-z
1/2+x,y,-z
1/2-x,y,1/2+z
x,-y,1/2+z
loop_
_atom_site_type_symbol
_atom_site_label
_atom_site_fract_x
_atom_site_fract_y
_atom_site_fract_z
Si Si1 0.765179 0.916092 0.978480
Si Si2 0.270379 0.915202 0.120105
Si Si3 0.239849 0.343054 0.201891
Si Si4 0.759121 0.717302 0.201723
Si Si5 0.750000 0.500000 0.276316
Si Si6 0.250000 0.000000 0.274596
Si Si7 0.783219 0.871857 0.166540
O O1 0.805470 0.899535 0.929283
O O2 0.750000 0.000000 0.987408
O O3 0.503289 0.882147 0.996020
O O4 0.514765 0.883234 0.143701
O O5 0.016711 0.872514 0.133541
O O6 0.250000 0.000000 0.129481
O O7 0.498657 0.319353 0.178816
O O8 0.248771 0.310523 0.249702
O O9 0.202421 0.428218 0.197215
O O10 0.996948 0.308983 0.178356
O O11 0.779876 0.801938 0.196147
O O12 0.500000 0.482487 0.250000
O O13 0.351296 0.064901 0.302016
O O14 0.500000 0.973265 0.250000
#
# Coordination Sequence:
#
# PCOD8222541 Si02
#       7
#     8   8   8   8   4   4   8
#     4   9  17  29  49  73  90 106 131 176 233 285
#     4  11  20  36  50  66  90 115 149 190 238 294
#     4  10  19  32  45  66  82 111 140 200 230 275
#     4  10  20  30  44  59  84 109 148 182 237 264
#     4  12  16  30  48  68  88 104 138 184 250 286
#     4  12  26  36  46  60  74 112 168 212 242 264
#     4  12  23  36  47  62  87 121 157 200 244 281
#
# _framework density 15.442353000000001
#
# number of rings (size 3 to 8) (size 9 to 14) (size 15 to 20)
#    0.000    1.333    5.000    3.000    4.667    2.667 
#    0.000    0.000    0.000    0.000    0.000    0.000 
#    0.000    0.000    0.000    0.000    0.000    0.000 
#
# Total GULP energy -594804.885020 kJ/mol
# GULP energy per Si atom -12391.768438 kJ/mol
# Density = 1.540721 g / cm^3
# Si number density = 15.442353 Si / 1000 Ang^3
#
#
#
# Elastic Constant Matrix: (Units=GPa)
#
#
# Indices 1 2 3 4 5 6 
#
# 1 137.7491 19.2494 18.6529 0.0000 0.0000 0.0000
# 2 19.2494 98.1963 17.1294 0.0000 0.0000 0.0000
# 3 18.6529 17.1294 39.7565 0.0000 0.0000 0.0000
# 4 0.0000 0.0000 0.0000 79.9934 0.0000 0.0000
# 5 0.0000 0.0000 0.0000 0.0000 42.1583 0.0000
# 6 0.0000 0.0000 0.0000 0.0000 0.0000 23.1924
#
#
#
# Elastic Compliance Matrix: (Units=1/GPa)
#
#
# Indices 1 2 3 4 5 6 
#
# 1 0.007836 -0.000968 -0.003260 0.000000 0.000000 0.000000
# 2 -0.000968 0.011131 -0.004342 0.000000 0.000000 0.000000
# 3 -0.003260 -0.004342 0.028553 0.000000 0.000000 0.000000
# 4 0.000000 0.000000 0.000000 0.012501 0.000000 0.000000
# 5 0.000000 0.000000 0.000000 0.000000 0.023720 0.000000
# 6 0.000000 0.000000 0.000000 0.000000 0.000000 0.043118
#
#
# Mechanical properties :
#
#
# Convention : Reuss Voigt Hill
#
# Bulk Modulus (GPa) = 32.91414 42.86280 37.88847
# Shear Modulus (GPa) = 32.44133 43.78016 38.11075
#
# Velocity S-wave (km/s) = 4.58842 5.33031 4.97322
# Velocity P-wave (km/s) = 7.03079 8.10555 7.58722
#
# Compressibility (1/GPa) = 0.03038208
#
# Stress axis : x y z
#
# Youngs Moduli (GPa) = 127.61321 89.84135 35.02230
#
# Poissons Ratio (x) = 0.08692 0.11416
# Poissons Ratio (y) = 0.12347 0.15206
# Poissons Ratio (z) = 0.41598 0.39008
#
# Static dielectric constant tensor:
#      x y z
#    x 3.193070 0.000000 0.000000 
#    y 0.000000 2.918080 0.000000 
#    z 0.000000 0.000000 2.594420 
# 
# 
# High freq. dielectric constant tensor:
#      x y z
#    x 1.635400 0.000000 0.000000 
#    y 0.000000 1.565580 0.000000 
#    z 0.000000 0.000000 1.534790 
# 
# From -- ./inp_files/25435.got.cif
#   From: 2010.03.12/outbox.cif.g09.slc.cpg/sg54_13_cif.got.tgz:25435.got - 2010.04.16 15:00:50.
