data_PCOD8222299
_publ_section_title
;
Structure prediction by ZEFSAII (Michael W. Deem and Ramdas Pophale) SiO2 
 PCOD8222299
Probable space group: P C C A
;
_chemical_formula_sum "Si O2"
_cell_formula_units_Z 48
_cell_length_a 12.316450
_cell_length_b 27.456664
_cell_length_c 5.362429
_cell_angle_alpha 90.000000
_cell_angle_beta 90.000000
_cell_angle_gamma 90.000000
_cell_volume 1813.405265
_symmetry_space_group_name_H-M "P C C A"
_symmetry_group_IT_number 54
_symmetry_cell_setting 'orthorhombic'
loop_
_space_group_symop_operation_xyz
x,y,z
1/2-x,-y,z
1/2+x,-y,1/2-z
-x,y,1/2-z
-x,-y,-z
1/2+x,y,-z
1/2-x,y,1/2+z
x,-y,1/2+z
loop_
_atom_site_type_symbol
_atom_site_label
_atom_site_fract_x
_atom_site_fract_y
_atom_site_fract_z
Si Si1 0.362547 0.230589 0.393242
Si Si2 0.067937 0.128842 0.001892
Si Si3 0.619504 0.730414 0.105354
Si Si4 0.317598 0.626601 0.475700
Si Si5 0.379767 0.979191 0.011256
Si Si6 0.873202 0.480184 0.107475
O O1 0.348804 0.173687 0.462051
O O2 0.246437 0.255678 0.346758
O O3 0.431001 0.257800 0.617853
O O4 0.425174 0.236821 0.126423
O O5 0.000000 0.122319 0.750000
O O6 0.131530 0.078752 0.045440
O O7 0.000000 0.140671 0.250000
O O8 0.604081 0.673293 0.048000
O O9 0.268515 0.628447 0.752065
O O10 0.383863 0.576740 0.453045
O O11 0.322236 0.004008 0.252938
O O12 0.500000 0.000000 0.000000
O O13 0.750000 0.500000 0.147711
O O14 0.929180 0.510181 0.878629
#
# Coordination Sequence:
#
# PCOD8222299 Si02
#       6
#     8   8   8   8   8   8
#     4  10  20  32  49  67  93 121 157 207 220 263
#     4  12  21  32  50  77 101 121 147 183 249 287
#     4  10  19  35  47  66  87 126 180 192 216 256
#     4  12  16  25  43  57  81 118 162 199 216 263
#     4  10  16  30  48  67  99 115 142 180 213 290
#     4  10  16  22  31  54  84 111 147 184 230 278
#
# _framework density 26.469536999999999
#
# number of rings (size 3 to 8) (size 9 to 14) (size 15 to 20)
#    0.000    1.333   10.000    1.000    0.000    0.000 
#    0.000    0.000    0.000    0.000    0.000   14.000 
#    0.000    0.000    0.000    0.000    0.000  203.333 
#
# Total GULP energy -595046.167232 kJ/mol
# GULP energy per Si atom -12396.795151 kJ/mol
# Density = 2.640929 g / cm^3
# Si number density = 26.469537 Si / 1000 Ang^3
#
#
#
# Elastic Constant Matrix: (Units=GPa)
#
#
# Indices 1 2 3 4 5 6 
#
# 1 54.8733 4.6951 20.1860 0.0000 0.0000 0.0000
# 2 4.6951 229.3608 40.3479 0.0000 0.0000 0.0000
# 3 20.1860 40.3479 245.5690 0.0000 0.0000 0.0000
# 4 0.0000 0.0000 0.0000 50.8879 0.0000 0.0000
# 5 0.0000 0.0000 0.0000 0.0000 1017.6954 0.0000
# 6 0.0000 0.0000 0.0000 0.0000 0.0000 13.5511
#
#
#
# Elastic Compliance Matrix: (Units=1/GPa)
#
#
# Indices 1 2 3 4 5 6 
#
# 1 0.018795 -0.000116 -0.001526 0.000000 0.000000 0.000000
# 2 -0.000116 0.004490 -0.000728 0.000000 0.000000 0.000000
# 3 -0.001526 -0.000728 0.004317 0.000000 0.000000 0.000000
# 4 0.000000 0.000000 0.000000 0.019651 0.000000 0.000000
# 5 0.000000 0.000000 0.000000 0.000000 0.000983 0.000000
# 6 0.000000 0.000000 0.000000 0.000000 0.000000 0.073795
#
#
# Mechanical properties :
#
#
# Convention : Reuss Voigt Hill
#
# Bulk Modulus (GPa) = 43.74084 73.36234 58.55159
# Shear Modulus (GPa) = 37.20436 247.39847 142.30142
#
# Velocity S-wave (km/s) = 3.75314 9.67824 7.34011
# Velocity P-wave (km/s) = 5.94494 12.35585 9.69560
#
# Compressibility (1/GPa) = 0.02286193
#
# Stress axis : x y z
#
# Youngs Moduli (GPa) = 53.20543 222.69573 231.62875
#
# Poissons Ratio (x) = 0.02591 0.35343
# Poissons Ratio (y) = 0.00619 0.16868
# Poissons Ratio (z) = 0.08118 0.16217
#
# Static dielectric constant tensor:
#      x y z
#    x 4.488570 0.000000 0.000000 
#    y 0.000000 4.956150 0.000000 
#    z 0.000000 0.000000 6.361010 
# 
# 
# High freq. dielectric constant tensor:
#      x y z
#    x 2.071200 0.000000 0.000000 
#    y 0.000000 2.057040 0.000000 
#    z 0.000000 0.000000 2.119340 
# 
# From -- ./inp_files/1342.got.cif
#   From: 2010.03.12/outbox.cif.g09.slc.cpg/sg54_1_cif.got.tgz:1342.got - 2010.04.16 15:00:50.
