data_PCOD8222065
_publ_section_title
;
Structure prediction by ZEFSAII (Michael W. Deem and Ramdas Pophale) SiO2 
 PCOD8222065
Probable space group: P M N A
;
_chemical_formula_sum "Si O2"
_cell_formula_units_Z 48
_cell_length_a 18.438822
_cell_length_b 14.870113
_cell_length_c 8.732677
_cell_angle_alpha 90.000000
_cell_angle_beta 90.000000
_cell_angle_gamma 90.000000
_cell_volume 2394.389711
_symmetry_space_group_name_H-M "P M N A"
_symmetry_group_IT_number 53
_symmetry_cell_setting 'orthorhombic'
loop_
_space_group_symop_operation_xyz
x,y,z
1/2-x,-y,1/2+z
x,-y,-z
1/2-x,y,1/2-z
-x,-y,-z
1/2+x,y,1/2-z
-x,y,z
1/2+x,-y,1/2+z
loop_
_atom_site_type_symbol
_atom_site_label
_atom_site_fract_x
_atom_site_fract_y
_atom_site_fract_z
Si Si1 0.802263 0.245178 0.614589
Si Si2 0.582566 0.792684 0.621757
Si Si3 0.581059 0.695884 0.307154
Si Si4 0.672310 0.666418 0.817961
Si Si5 0.220420 0.904479 0.921115
Si Si6 0.825633 0.478642 0.821566
O O1 0.750000 0.278226 0.750000
O O2 0.878716 0.228711 0.701903
O O3 0.816160 0.328946 0.500466
O O4 0.771553 0.159933 0.523541
O O5 0.500000 0.827524 0.650453
O O6 0.584657 0.722575 0.483618
O O7 0.612090 0.739741 0.769812
O O8 0.636249 0.874827 0.582351
O O9 0.500000 0.690414 0.245344
O O10 0.615747 0.597770 0.291541
O O11 0.750000 0.695547 0.750000
O O12 0.647192 0.568225 0.766042
O O13 0.250000 0.909876 0.750000
O O14 0.224408 0.000000 0.000000
O O15 0.750000 0.447473 0.750000
O O16 0.815847 0.500000 0.000000
#
# Coordination Sequence:
#
# PCOD8222065 Si02
#       6
#     8   8   8   8   8   8
#     4  12  22  41  71  94 132 170 223 273 322 397
#     4  11  22  42  69  98 135 177 219 267 331 397
#     4  11  25  41  63  96 135 180 223 273 333 391
#     4  11  21  40  64  95 126 178 229 272 319 382
#     4  12  25  45  74 103 128 167 219 272 332 401
#     4  11  25  38  63  93 128 172 230 280 326 380
#
# _framework density 20.046862999999998
#
# number of rings (size 3 to 8) (size 9 to 14) (size 15 to 20)
#    0.000    0.667    6.667    1.000    7.000    2.000 
#    0.000    0.833    0.000    1.000    0.000    0.000 
#    0.000    0.000    0.000    0.000    0.000    0.000 
#
# Total GULP energy -595050.340543 kJ/mol
# GULP energy per Si atom -12396.882095 kJ/mol
# Density = 2.000124 g / cm^3
# Si number density = 20.046863 Si / 1000 Ang^3
#
#
#
# Elastic Constant Matrix: (Units=GPa)
#
#
# Indices 1 2 3 4 5 6 
#
# 1 165.9475 55.8571 56.9847 0.0000 0.0000 0.0000
# 2 55.8571 109.5250 51.0877 0.0000 0.0000 0.0000
# 3 56.9847 51.0877 136.6720 0.0000 0.0000 0.0000
# 4 0.0000 0.0000 0.0000 29.2224 0.0000 0.0000
# 5 0.0000 0.0000 0.0000 0.0000 28.2353 0.0000
# 6 0.0000 0.0000 0.0000 0.0000 0.0000 10.5678
#
#
#
# Elastic Compliance Matrix: (Units=1/GPa)
#
#
# Indices 1 2 3 4 5 6 
#
# 1 0.007753 -0.002963 -0.002125 0.000000 0.000000 0.000000
# 2 -0.002963 0.012191 -0.003322 0.000000 0.000000 0.000000
# 3 -0.002125 -0.003322 0.009444 0.000000 0.000000 0.000000
# 4 0.000000 0.000000 0.000000 0.034220 0.000000 0.000000
# 5 0.000000 0.000000 0.000000 0.000000 0.035417 0.000000
# 6 0.000000 0.000000 0.000000 0.000000 0.000000 0.094627
#
#
# Mechanical properties :
#
#
# Convention : Reuss Voigt Hill
#
# Bulk Modulus (GPa) = 79.55894 82.22261 80.89077
# Shear Modulus (GPa) = 23.29259 30.15279 26.72269
#
# Velocity S-wave (km/s) = 3.41237 3.88250 3.65500
# Velocity P-wave (km/s) = 7.43629 7.82321 7.63220
#
# Compressibility (1/GPa) = 0.01256930
#
# Stress axis : x y z
#
# Youngs Moduli (GPa) = 128.98271 82.03024 105.88262
#
# Poissons Ratio (x) = 0.24303 0.22501
# Poissons Ratio (y) = 0.38214 0.35169
# Poissons Ratio (z) = 0.27410 0.27247
#
# Static dielectric constant tensor:
#      x y z
#    x 3.859950 0.000000 0.000000 
#    y 0.000000 3.500440 0.000000 
#    z 0.000000 0.000000 3.985110 
# 
# 
# High freq. dielectric constant tensor:
#      x y z
#    x 1.776090 0.000000 0.000000 
#    y 0.000000 1.766970 0.000000 
#    z 0.000000 0.000000 1.801760 
# 
# From -- ./inp_files/9986.got.cif
#   From: 2010.03.12/outbox.cif.g09.slc.cpg/sg53_5_cif.got.tgz:9986.got - 2010.04.16 14:36:59.
