data_PCOD8222717
_publ_section_title
;
Structure prediction by ZEFSAII (Michael W. Deem and Ramdas Pophale) SiO2 
 PCOD8222717
Probable space group: P C C A
;
_chemical_formula_sum "Si O2"
_cell_formula_units_Z 64
_cell_length_a 33.255363
_cell_length_b 5.623973
_cell_length_c 17.327199
_cell_angle_alpha 90.000000
_cell_angle_beta 90.000000
_cell_angle_gamma 90.000000
_cell_volume 3240.658615
_symmetry_space_group_name_H-M "P C C A"
_symmetry_group_IT_number 54
_symmetry_cell_setting 'orthorhombic'
loop_
_space_group_symop_operation_xyz
x,y,z
1/2-x,-y,z
1/2+x,-y,1/2-z
-x,y,1/2-z
-x,-y,-z
1/2+x,y,-z
1/2-x,y,1/2+z
x,-y,1/2+z
loop_
_atom_site_type_symbol
_atom_site_label
_atom_site_fract_x
_atom_site_fract_y
_atom_site_fract_z
Si Si1 0.352855 0.595087 0.752164
Si Si2 0.796678 0.446794 0.884318
Si Si3 0.590609 0.780568 0.197739
Si Si4 0.667047 0.055438 0.940850
Si Si5 0.053063 0.469708 0.916360
Si Si6 0.907492 0.927986 0.341196
Si Si7 0.021301 0.200694 0.548198
Si Si8 0.372615 0.845044 0.902755
O O1 0.311829 0.575287 0.704035
O O2 0.366658 0.337314 0.780154
O O3 0.388645 0.691760 0.696696
O O4 0.346656 0.758789 0.828155
O O5 0.750000 0.500000 0.881872
O O6 0.813323 0.686711 0.924348
O O7 0.807108 0.190058 0.925746
O O8 0.556994 0.601074 0.166096
O O9 0.574378 0.911477 0.272977
O O10 0.598504 0.944865 0.124152
O O11 0.627017 0.057762 0.889874
O O12 0.657238 0.059597 0.031743
O O13 0.096312 0.350913 0.935188
O O14 0.014637 0.306240 0.900466
O O15 0.043700 0.619061 0.992157
O O16 0.945138 0.891022 0.394918
O O17 0.000000 0.000000 0.500000
#
# Coordination Sequence:
#
# PCOD8222717 Si02
#       8
#     8   8   8   8   8   8   8   8
#     4   9  21  39  64  94 120 169 216 266 321 400
#     4  11  24  44  69 102 138 173 212 267 334 399
#     4  10  19  39  60  87 118 160 220 268 325 387
#     4  11  23  40  71 100 131 176 219 269 324 397
#     4  10  22  37  58  85 124 164 217 274 335 385
#     4  10  21  37  61  89 122 164 227 264 325 391
#     4  11  23  39  56  86 124 170 214 274 341 385
#     4  10  22  39  65  92 125 170 220 276 320 390
#
# _framework density 19.749072999999999
#
# number of rings (size 3 to 8) (size 9 to 14) (size 15 to 20)
#    0.000    1.750    1.250    2.625    7.000    2.000 
#    0.000   15.625    2.750    0.000    0.000    0.000 
#    0.000    0.000    0.000    0.000    0.000    0.000 
#
# Total GULP energy -792989.975539 kJ/mol
# GULP energy per Si atom -12390.468368 kJ/mol
# Density = 1.970412 g / cm^3
# Si number density = 19.749073 Si / 1000 Ang^3
#
#
#
# Elastic Constant Matrix: (Units=GPa)
#
#
# Indices 1 2 3 4 5 6 
#
# 1 129.6356 54.9570 76.2249 0.0000 0.0000 0.0000
# 2 54.9570 113.5418 42.7842 0.0000 0.0000 0.0000
# 3 76.2249 42.7842 111.2096 0.0000 0.0000 0.0000
# 4 0.0000 0.0000 0.0000 29.1099 0.0000 0.0000
# 5 0.0000 0.0000 0.0000 0.0000 29.2008 0.0000
# 6 0.0000 0.0000 0.0000 0.0000 0.0000 -25.4400
#
#
#
# Elastic Compliance Matrix: (Units=1/GPa)
#
#
# Indices 1 2 3 4 5 6 
#
# 1 0.014160 -0.003739 -0.008267 0.000000 0.000000 0.000000
# 2 -0.003739 0.011288 -0.001780 0.000000 0.000000 0.000000
# 3 -0.008267 -0.001780 0.015343 0.000000 0.000000 0.000000
# 4 0.000000 0.000000 0.000000 0.034353 0.000000 0.000000
# 5 0.000000 0.000000 0.000000 0.000000 0.034246 0.000000
# 6 0.000000 0.000000 0.000000 0.000000 0.000000 -0.039308
#
#
# Mechanical properties :
#
#
# Convention : Reuss Voigt Hill
#
# Bulk Modulus (GPa) = 75.64712 78.03548 76.84130
# Shear Modulus (GPa) = 48.99149 18.60221 33.79685
#
# Velocity S-wave (km/s) = 4.98606 3.07241 4.14129
# Velocity P-wave (km/s) = 8.45784 7.22396 7.86513
#
# Compressibility (1/GPa) = 0.01321927
#
# Stress axis : x y z
#
# Youngs Moduli (GPa) = 70.62230 88.59253 65.17520
#
# Poissons Ratio (x) = 0.33121 0.53881
# Poissons Ratio (y) = 0.26402 0.11602
# Poissons Ratio (z) = 0.58384 0.15770
#
# Static dielectric constant tensor:
#      x y z
#    x 3.418210 0.000000 0.000000 
#    y 0.000000 4.021540 0.000000 
#    z 0.000000 0.000000 3.675140 
# 
# 
# High freq. dielectric constant tensor:
#      x y z
#    x 1.744190 0.000000 0.000000 
#    y 0.000000 1.788580 0.000000 
#    z 0.000000 0.000000 1.778260 
# 
# From -- ./inp_files/19358.got.cif
#   From: 2010.03.12/outbox.cif.g09.slc.cpg/sg54_10_cif.got.tgz:19358.got - 2010.04.16 15:00:50.
