data_PCOD8222853
_publ_section_title
;
Structure prediction by ZEFSAII (Michael W. Deem and Ramdas Pophale) SiO2 
 PCOD8222853
Probable space group: P C C A
;
_chemical_formula_sum "Si O2"
_cell_formula_units_Z 36
_cell_length_a 12.106396
_cell_length_b 8.823546
_cell_length_c 18.087170
_cell_angle_alpha 90.000000
_cell_angle_beta 90.000000
_cell_angle_gamma 90.000000
_cell_volume 1932.095772
_symmetry_space_group_name_H-M "P C C A"
_symmetry_group_IT_number 54
_symmetry_cell_setting 'orthorhombic'
loop_
_space_group_symop_operation_xyz
x,y,z
1/2-x,-y,z
1/2+x,-y,1/2-z
-x,y,1/2-z
-x,-y,-z
1/2+x,y,-z
1/2-x,y,1/2+z
x,-y,1/2+z
loop_
_atom_site_type_symbol
_atom_site_label
_atom_site_fract_x
_atom_site_fract_y
_atom_site_fract_z
Si Si1 0.208607 0.229082 0.948237
Si Si2 0.250000 0.500000 0.354296
Si Si3 0.838636 0.133574 0.395627
Si Si4 0.906523 0.062043 0.110011
Si Si5 0.623081 0.738573 0.241748
O O1 0.181930 0.388542 0.908705
O O2 0.338148 0.180258 0.941581
O O3 0.132118 0.107204 0.906509
O O4 0.180226 0.243813 0.034658
O O5 0.177558 0.399319 0.300574
O O6 0.820467 0.228950 0.320764
O O7 0.962685 0.069643 0.402903
O O8 0.750000 0.000000 0.399258
O O9 0.876363 0.105046 0.194696
O O10 0.500000 0.679293 0.250000
#
# Coordination Sequence:
#
# PCOD8222853 Si02
#       5
#     8   4   8   8   8
#     4  10  20  36  60  82 113 153 188 228 288 348
#     4  10  22  40  56  78 120 160 184 212 304 366
#     4  11  21  34  62  91 109 140 201 252 274 323
#     4   9  19  39  59  81 117 148 187 238 290 330
#     4   9  21  40  56  80 117 150 185 241 286 331
#
# _framework density 18.632617
#
# number of rings (size 3 to 8) (size 9 to 14) (size 15 to 20)
#    0.000    2.222    2.222    0.667    6.222    0.889 
#    4.000   10.000    0.000    0.000    0.000    0.000 
#    0.000    0.000    0.000    0.000    0.000    0.000 
#
# Total GULP energy -446184.161398 kJ/mol
# GULP energy per Si atom -12394.004483 kJ/mol
# Density = 1.859021 g / cm^3
# Si number density = 18.632617 Si / 1000 Ang^3
#
#
#
# Elastic Constant Matrix: (Units=GPa)
#
#
# Indices 1 2 3 4 5 6 
#
# 1 97.0196 29.8151 53.8683 0.0000 0.0000 0.0000
# 2 29.8151 107.5131 80.0894 0.0000 0.0000 0.0000
# 3 53.8683 80.0894 190.0902 0.0000 0.0000 0.0000
# 4 0.0000 0.0000 0.0000 24.4935 0.0000 0.0000
# 5 0.0000 0.0000 0.0000 0.0000 27.4209 0.0000
# 6 0.0000 0.0000 0.0000 0.0000 0.0000 11.7950
#
#
#
# Elastic Compliance Matrix: (Units=1/GPa)
#
#
# Indices 1 2 3 4 5 6 
#
# 1 0.012335 -0.001190 -0.002994 0.000000 0.000000 0.000000
# 2 -0.001190 0.013671 -0.005422 0.000000 0.000000 0.000000
# 3 -0.002994 -0.005422 0.008394 0.000000 0.000000 0.000000
# 4 0.000000 0.000000 0.000000 0.040827 0.000000 0.000000
# 5 0.000000 0.000000 0.000000 0.000000 0.036469 0.000000
# 6 0.000000 0.000000 0.000000 0.000000 0.000000 0.084781
#
#
# Mechanical properties :
#
#
# Convention : Reuss Voigt Hill
#
# Bulk Modulus (GPa) = 65.85050 80.24095 73.04572
# Shear Modulus (GPa) = 22.64979 28.13190 25.39085
#
# Velocity S-wave (km/s) = 3.49033 3.88986 3.69549
# Velocity P-wave (km/s) = 7.18759 7.95820 7.58269
#
# Compressibility (1/GPa) = 0.01518591
#
# Stress axis : x y z
#
# Youngs Moduli (GPa) = 81.06724 73.14962 119.13677
#
# Poissons Ratio (x) = 0.08708 0.35671
# Poissons Ratio (y) = 0.09651 0.64601
# Poissons Ratio (z) = 0.24272 0.39665
#
# Static dielectric constant tensor:
#      x y z
#    x 3.757280 0.000000 0.000000 
#    y 0.000000 3.265120 0.000000 
#    z 0.000000 0.000000 3.952860 
# 
# 
# High freq. dielectric constant tensor:
#      x y z
#    x 1.720930 0.000000 0.000000 
#    y 0.000000 1.700790 0.000000 
#    z 0.000000 0.000000 1.743270 
# 
# From -- ./inp_files/20948.got.cif
#   From: 2010.03.12/outbox.cif.g09.slc.cpg/sg54_11_cif.got.tgz:20948.got - 2010.04.16 15:00:50.
