data_PCOD8222039
_publ_section_title
;
Structure prediction by ZEFSAII (Michael W. Deem and Ramdas Pophale) SiO2 
 PCOD8222039
Probable space group: P M N A
;
_chemical_formula_sum "Si O2"
_cell_formula_units_Z 40
_cell_length_a 16.224703
_cell_length_b 7.748124
_cell_length_c 14.973243
_cell_angle_alpha 90.000000
_cell_angle_beta 90.000000
_cell_angle_gamma 90.000000
_cell_volume 1882.301511
_symmetry_space_group_name_H-M "P M N A"
_symmetry_group_IT_number 53
_symmetry_cell_setting 'orthorhombic'
loop_
_space_group_symop_operation_xyz
x,y,z
1/2-x,-y,1/2+z
x,-y,-z
1/2-x,y,1/2-z
-x,-y,-z
1/2+x,y,1/2-z
-x,y,z
1/2+x,-y,1/2+z
loop_
_atom_site_type_symbol
_atom_site_label
_atom_site_fract_x
_atom_site_fract_y
_atom_site_fract_z
Si Si1 0.090929 0.339091 0.936147
Si Si2 0.792049 0.857733 0.940651
Si Si3 0.843786 0.695973 0.252581
Si Si4 0.594125 0.058681 0.273684
Si Si5 0.819159 0.350680 0.324509
O O1 0.133176 0.390113 0.842790
O O2 0.000000 0.266107 0.914908
O O3 0.085772 0.500000 0.000000
O O4 0.140271 0.195027 0.987592
O O5 0.726686 0.707351 0.915754
O O6 0.839940 0.930626 0.853975
O O7 0.742629 0.000000 0.000000
O O8 0.750000 0.759014 0.250000
O O9 0.897270 0.868402 0.271199
O O10 0.859132 0.544457 0.327729
O O11 0.500000 0.086033 0.306286
O O12 0.613800 0.205402 0.200509
O O13 0.750000 0.368302 0.250000
#
# Coordination Sequence:
#
# PCOD8222039 Si02
#       5
#     8   8   8   8   8
#     4  11  22  34  55  91 126 154 187 242 311 364
#     4  11  21  37  60  87 125 155 197 250 310 364
#     4  11  21  36  56  79 118 161 202 234 285 365
#     4  11  22  36  59  88 119 158 197 242 297 357
#     4   9  21  39  56  82 119 162 203 238 287 357
#
# _framework density 21.250579999999999
#
# number of rings (size 3 to 8) (size 9 to 14) (size 15 to 20)
#    0.000    1.400    2.000    6.600    0.000    4.000 
#    0.000    0.000    0.000    0.600    0.000    1.400 
#    0.000    0.000    0.000    0.000    0.000    0.000 
#
# Total GULP energy -495637.586547 kJ/mol
# GULP energy per Si atom -12390.939664 kJ/mol
# Density = 2.120221 g / cm^3
# Si number density = 21.250580 Si / 1000 Ang^3
#
#
#
# Elastic Constant Matrix: (Units=GPa)
#
#
# Indices 1 2 3 4 5 6 
#
# 1 65.7866 24.9098 33.8382 0.0000 0.0000 0.0000
# 2 24.9098 126.1555 15.8466 0.0000 0.0000 0.0000
# 3 33.8382 15.8466 48.6128 0.0000 0.0000 0.0000
# 4 0.0000 0.0000 0.0000 35.8505 0.0000 0.0000
# 5 0.0000 0.0000 0.0000 0.0000 23.4629 0.0000
# 6 0.0000 0.0000 0.0000 0.0000 0.0000 -29.8203
#
#
#
# Elastic Compliance Matrix: (Units=1/GPa)
#
#
# Indices 1 2 3 4 5 6 
#
# 1 0.024606 -0.002823 -0.016208 0.000000 0.000000 0.000000
# 2 -0.002823 0.008589 -0.000835 0.000000 0.000000 0.000000
# 3 -0.016208 -0.000835 0.032125 0.000000 0.000000 0.000000
# 4 0.000000 0.000000 0.000000 0.027894 0.000000 0.000000
# 5 0.000000 0.000000 0.000000 0.000000 0.042620 0.000000
# 6 0.000000 0.000000 0.000000 0.000000 0.000000 -0.033534
#
#
# Mechanical properties :
#
#
# Convention : Reuss Voigt Hill
#
# Bulk Modulus (GPa) = 39.07911 43.30491 41.19201
# Shear Modulus (GPa) = 33.20944 16.96265 25.08604
#
# Velocity S-wave (km/s) = 3.95746 2.82834 3.43955
# Velocity P-wave (km/s) = 6.26989 5.57571 5.93296
#
# Compressibility (1/GPa) = 0.02558912
#
# Stress axis : x y z
#
# Youngs Moduli (GPa) = 40.64042 116.42853 31.12882
#
# Poissons Ratio (x) = 0.32864 0.50452
# Poissons Ratio (y) = 0.11472 0.02599
# Poissons Ratio (z) = 0.65868 0.09722
#
# Static dielectric constant tensor:
#      x y z
#    x 3.926800 0.000000 0.000000 
#    y 0.000000 -92.683860 0.000000 
#    z 0.000000 0.000000 3.232500 
# 
# 
# High freq. dielectric constant tensor:
#      x y z
#    x 1.809630 0.000000 0.000000 
#    y 0.000000 1.858190 0.000000 
#    z 0.000000 0.000000 1.794010 
# 
# From -- ./inp_files/22384.got.cif
#   From: 2010.03.12/outbox.cif.g09.slc.cpg/sg53_12_cif.got.tgz:22384.got - 2010.04.16 14:36:59.
