data_PCOD8222160
_publ_section_title
;
Structure prediction by ZEFSAII (Michael W. Deem and Ramdas Pophale) SiO2 
 PCOD8222160
Probable space group: P M N A
;
_chemical_formula_sum "Si O2"
_cell_formula_units_Z 48
_cell_length_a 8.923022
_cell_length_b 11.080340
_cell_length_c 23.454959
_cell_angle_alpha 90.000000
_cell_angle_beta 90.000000
_cell_angle_gamma 90.000000
_cell_volume 2318.994554
_symmetry_space_group_name_H-M "P M N A"
_symmetry_group_IT_number 53
_symmetry_cell_setting 'orthorhombic'
loop_
_space_group_symop_operation_xyz
x,y,z
1/2-x,-y,1/2+z
x,-y,-z
1/2-x,y,1/2-z
-x,-y,-z
1/2+x,y,1/2-z
-x,y,z
1/2+x,-y,1/2+z
loop_
_atom_site_type_symbol
_atom_site_label
_atom_site_fract_x
_atom_site_fract_y
_atom_site_fract_z
Si Si1 0.675646 0.791827 0.910186
Si Si2 0.329971 0.177685 0.693988
Si Si3 0.174377 0.718465 0.018509
Si Si4 0.821380 0.654692 0.812407
Si Si5 0.678037 0.592917 0.369863
Si Si6 0.331353 0.034594 0.583106
O O1 0.500000 0.776300 0.901201
O O2 0.760148 0.764147 0.850734
O O3 0.715343 0.927766 0.929284
O O4 0.732005 0.701999 0.960338
O O5 0.250000 0.130360 0.750000
O O6 0.500000 0.204525 0.709913
O O7 0.255507 0.301489 0.670440
O O8 0.315394 0.071369 0.648643
O O9 0.229363 0.618107 0.064669
O O10 0.204689 0.851779 0.043308
O O11 0.000000 0.699763 0.003914
O O12 0.750000 0.659845 0.750000
O O13 0.766353 0.534025 0.845264
O O14 0.000000 0.661471 0.806974
O O15 0.500000 0.604158 0.369379
O O16 0.500000 0.987835 0.570614
#
# Coordination Sequence:
#
# PCOD8222160 Si02
#       6
#     8   8   8   8   8   8
#     4  12  25  38  54  81 116 151 188 230 276 326
#     4   9  17  31  53  82 111 139 178 227 278 331
#     4   9  18  37  63  87 111 143 184 228 280 338
#     4  11  23  41  62  83 111 148 189 228 272 328
#     4   8  17  35  60  86 110 141 181 225 275 334
#     4   9  19  36  57  80 110 149 189 230 279 335
#
# _framework density 20.698626999999998
#
# number of rings (size 3 to 8) (size 9 to 14) (size 15 to 20)
#    0.000    2.333    0.000    5.000    0.000    4.667 
#    0.000   10.000    0.000    0.000    0.000    0.000 
#    0.000    0.000    0.000    0.000    0.000    0.000 
#
# Total GULP energy -595117.862079 kJ/mol
# GULP energy per Si atom -12398.288793 kJ/mol
# Density = 2.065152 g / cm^3
# Si number density = 20.698627 Si / 1000 Ang^3
#
#
#
# Elastic Constant Matrix: (Units=GPa)
#
#
# Indices 1 2 3 4 5 6 
#
# 1 82.8946 20.0908 50.3864 0.0000 0.0000 0.0000
# 2 20.0908 47.1099 19.9723 0.0000 0.0000 0.0000
# 3 50.3864 19.9723 135.1712 0.0000 0.0000 0.0000
# 4 0.0000 0.0000 0.0000 14.2681 0.0000 0.0000
# 5 0.0000 0.0000 0.0000 0.0000 36.3928 0.0000
# 6 0.0000 0.0000 0.0000 0.0000 0.0000 0.9597
#
#
#
# Elastic Compliance Matrix: (Units=1/GPa)
#
#
# Indices 1 2 3 4 5 6 
#
# 1 0.016531 -0.004734 -0.005463 0.000000 0.000000 0.000000
# 2 -0.004734 0.024001 -0.001782 0.000000 0.000000 0.000000
# 3 -0.005463 -0.001782 0.009698 0.000000 0.000000 0.000000
# 4 0.000000 0.000000 0.000000 0.070086 0.000000 0.000000
# 5 0.000000 0.000000 0.000000 0.000000 0.027478 0.000000
# 6 0.000000 0.000000 0.000000 0.000000 0.000000 1.042005
#
#
# Mechanical properties :
#
#
# Convention : Reuss Voigt Hill
#
# Bulk Modulus (GPa) = 38.06164 49.56385 43.81275
# Shear Modulus (GPa) = 4.08993 21.97254 13.03123
#
# Velocity S-wave (km/s) = 1.40721 3.26167 2.51185
# Velocity P-wave (km/s) = 4.59007 6.17917 5.44292
#
# Compressibility (1/GPa) = 0.02627317
#
# Stress axis : x y z
#
# Youngs Moduli (GPa) = 60.49111 41.66456 103.11880
#
# Poissons Ratio (x) = 0.19725 0.56331
# Poissons Ratio (y) = 0.28637 0.18372
# Poissons Ratio (z) = 0.33045 0.07423
#
# Static dielectric constant tensor:
#      x y z
#    x 3.365930 0.000000 0.000000 
#    y 0.000000 3.704860 0.000000 
#    z 0.000000 0.000000 3.903560 
# 
# 
# High freq. dielectric constant tensor:
#      x y z
#    x 1.774480 0.000000 0.000000 
#    y 0.000000 1.802070 0.000000 
#    z 0.000000 0.000000 1.827050 
# 
# From -- ./inp_files/33915.got.cif
#   From: 2010.03.12/outbox.cif.g09.slc.cpg/sg53_17_cif.got.tgz:33915.got - 2010.04.16 14:36:59.
