data_PCOD8222242
_publ_section_title
;
Structure prediction by ZEFSAII (Michael W. Deem and Ramdas Pophale) SiO2 
 PCOD8222242
Probable space group: P M N A
;
_chemical_formula_sum "Si O2"
_cell_formula_units_Z 40
_cell_length_a 7.771400
_cell_length_b 15.580475
_cell_length_c 19.374431
_cell_angle_alpha 90.000000
_cell_angle_beta 90.000000
_cell_angle_gamma 90.000000
_cell_volume 2345.896858
_symmetry_space_group_name_H-M "P M N A"
_symmetry_group_IT_number 53
_symmetry_cell_setting 'orthorhombic'
loop_
_space_group_symop_operation_xyz
x,y,z
1/2-x,-y,1/2+z
x,-y,-z
1/2-x,y,1/2-z
-x,-y,-z
1/2+x,y,1/2-z
-x,y,z
1/2+x,-y,1/2+z
loop_
_atom_site_type_symbol
_atom_site_label
_atom_site_fract_x
_atom_site_fract_y
_atom_site_fract_z
Si Si1 0.809698 0.734303 0.978308
Si Si2 0.298519 0.847278 0.324058
Si Si3 0.500000 0.443040 0.896978
Si Si4 0.691449 0.665634 0.368159
Si Si5 0.000000 0.626693 0.552190
Si Si6 0.296124 0.085168 0.534313
O O1 0.669875 0.683713 0.932330
O O2 0.000000 0.729602 0.943335
O O3 0.821913 0.690622 0.052343
O O4 0.748757 0.832956 0.987040
O O5 0.250000 0.888340 0.250000
O O6 0.500000 0.845796 0.335229
O O7 0.235161 0.748420 0.326922
O O8 0.219403 0.902187 0.387815
O O9 0.672037 0.411168 0.857369
O O10 0.500000 0.545998 0.896418
O O11 0.500000 0.404949 0.973676
O O12 0.500000 0.637161 0.342532
O O13 0.500000 0.075537 0.538967
O O14 0.213808 0.000000 0.500000
#
# Coordination Sequence:
#
# PCOD8222242 Si02
#       6
#     8   8   4   8   4   8
#     4   8  14  25  39  54  79 111 141 174 213 256
#     4   9  17  27  42  63  86 117 146 180 223 268
#     4   9  16  24  38  54  78 112 135 170 209 243
#     4   8  15  26  37  54  79 109 142 168 206 259
#     4   9  16  24  35  58  80 104 143 170 205 256
#     4   8  14  27  45  62  84 119 155 184 223 273
#
# _framework density 17.051047000000001
#
# number of rings (size 3 to 8) (size 9 to 14) (size 15 to 20)
#    0.000    3.600    0.000    2.400    1.400    0.800 
#    1.800    4.500    0.000    0.000    0.000    0.000 
#    0.000    1.600    2.800    0.000    0.400    0.000 
#
# Total GULP energy -495559.014163 kJ/mol
# GULP energy per Si atom -12388.975354 kJ/mol
# Density = 1.701224 g / cm^3
# Si number density = 17.051047 Si / 1000 Ang^3
#
#
#
# Elastic Constant Matrix: (Units=GPa)
#
#
# Indices 1 2 3 4 5 6 
#
# 1 79.7321 53.8070 19.8575 0.0000 0.0000 0.0000
# 2 53.8070 128.1731 44.1989 0.0000 0.0000 0.0000
# 3 19.8575 44.1989 53.4587 0.0000 0.0000 0.0000
# 4 0.0000 0.0000 0.0000 13.1711 0.0000 0.0000
# 5 0.0000 0.0000 0.0000 0.0000 12.0607 0.0000
# 6 0.0000 0.0000 0.0000 0.0000 0.0000 15.7942
#
#
#
# Elastic Compliance Matrix: (Units=1/GPa)
#
#
# Indices 1 2 3 4 5 6 
#
# 1 0.017513 -0.007146 -0.000597 0.000000 0.000000 0.000000
# 2 -0.007146 0.013829 -0.008779 0.000000 0.000000 0.000000
# 3 -0.000597 -0.008779 0.026187 0.000000 0.000000 0.000000
# 4 0.000000 0.000000 0.000000 0.075924 0.000000 0.000000
# 5 0.000000 0.000000 0.000000 0.000000 0.082914 0.000000
# 6 0.000000 0.000000 0.000000 0.000000 0.000000 0.063314
#
#
# Mechanical properties :
#
#
# Convention : Reuss Voigt Hill
#
# Bulk Modulus (GPa) = 40.84326 55.23232 48.03779
# Shear Modulus (GPa) = 15.58175 17.77189 16.67682
#
# Velocity S-wave (km/s) = 3.02624 3.23193 3.13078
# Velocity P-wave (km/s) = 6.01800 6.81101 6.42675
#
# Compressibility (1/GPa) = 0.02448384
#
# Stress axis : x y z
#
# Youngs Moduli (GPa) = 57.09950 72.30970 38.18757
#
# Poissons Ratio (x) = 0.51674 0.02280
# Poissons Ratio (y) = 0.40804 0.33527
# Poissons Ratio (z) = 0.03409 0.63484
#
# Static dielectric constant tensor:
#      x y z
#    x 3.398950 0.000000 0.000000 
#    y 0.000000 3.304050 0.000000 
#    z 0.000000 0.000000 3.595290 
# 
# 
# High freq. dielectric constant tensor:
#      x y z
#    x 1.659730 0.000000 0.000000 
#    y 0.000000 1.636330 0.000000 
#    z 0.000000 0.000000 1.595770 
# 
# From -- ./inp_files/26018.got.cif
#   From: 2010.03.12/outbox.cif.g09.slc.cpg/sg53_14_cif.got.tgz:26018.got - 2010.04.16 14:36:59.
