data_PCOD8222177
_publ_section_title
;
Structure prediction by ZEFSAII (Michael W. Deem and Ramdas Pophale) SiO2 
 PCOD8222177
Probable space group: P M N A
;
_chemical_formula_sum "Si O2"
_cell_formula_units_Z 48
_cell_length_a 8.447984
_cell_length_b 15.205393
_cell_length_c 17.564793
_cell_angle_alpha 90.000000
_cell_angle_beta 90.000000
_cell_angle_gamma 90.000000
_cell_volume 2256.284023
_symmetry_space_group_name_H-M "P M N A"
_symmetry_group_IT_number 53
_symmetry_cell_setting 'orthorhombic'
loop_
_space_group_symop_operation_xyz
x,y,z
1/2-x,-y,1/2+z
x,-y,-z
1/2-x,y,1/2-z
-x,-y,-z
1/2+x,y,1/2-z
-x,y,z
1/2+x,-y,1/2+z
loop_
_atom_site_type_symbol
_atom_site_label
_atom_site_fract_x
_atom_site_fract_y
_atom_site_fract_z
Si Si1 0.686009 0.851807 0.667538
Si Si2 0.182673 0.321856 0.076947
Si Si3 0.683264 0.481948 0.166371
Si Si4 0.685411 0.342540 0.912452
Si Si5 0.316047 0.019795 0.913693
Si Si6 0.684316 0.180132 0.669711
O O1 0.750000 0.824767 0.750000
O O2 0.500000 0.871152 0.670441
O O3 0.728092 0.772760 0.610604
O O4 0.776786 0.937797 0.639665
O O5 0.286806 0.395543 0.117292
O O6 0.000000 0.343764 0.092232
O O7 0.217090 0.320107 0.987790
O O8 0.750000 0.470139 0.250000
O O9 0.500000 0.498222 0.175935
O O10 0.753272 0.566594 0.122408
O O11 0.500000 0.348618 0.932154
O O12 0.717161 0.266721 0.851420
O O13 0.500000 0.043565 0.904980
O O14 0.211967 0.103522 0.891160
O O15 0.269313 0.000000 0.000000
O O16 0.750000 0.145527 0.750000
O O17 0.500000 0.203285 0.673821
#
# Coordination Sequence:
#
# PCOD8222177 Si02
#       6
#     8   8   8   8   8   8
#     4  11  24  41  62  90 123 160 203 251 303 360
#     4  11  24  41  64  93 125 163 206 254 308 366
#     4  11  24  41  63  91 124 163 206 255 308 364
#     4  11  24  42  64  92 126 163 206 255 308 366
#     4  11  24  42  65  92 123 161 203 250 305 364
#     4  12  25  42  65  92 125 163 205 254 307 365
#
# _framework density 21.273918999999999
#
# number of rings (size 3 to 8) (size 9 to 14) (size 15 to 20)
#    0.000    0.833    0.000    7.000    0.000   14.000 
#    0.000    0.000    0.000    0.000    0.000    0.000 
#    0.000    0.000    0.000    0.000    0.000    0.000 
#
# Total GULP energy -595645.095355 kJ/mol
# GULP energy per Si atom -12409.272820 kJ/mol
# Density = 2.122550 g / cm^3
# Si number density = 21.273919 Si / 1000 Ang^3
#
#
#
# Elastic Constant Matrix: (Units=GPa)
#
#
# Indices 1 2 3 4 5 6 
#
# 1 48.0714 18.3807 19.5345 0.0000 0.0000 0.0000
# 2 18.3807 99.3755 13.3231 0.0000 0.0000 0.0000
# 3 19.5345 13.3231 97.1113 0.0000 0.0000 0.0000
# 4 0.0000 0.0000 0.0000 36.2417 0.0000 0.0000
# 5 0.0000 0.0000 0.0000 0.0000 36.2053 0.0000
# 6 0.0000 0.0000 0.0000 0.0000 0.0000 27.5085
#
#
#
# Elastic Compliance Matrix: (Units=1/GPa)
#
#
# Indices 1 2 3 4 5 6 
#
# 1 0.024030 -0.003868 -0.004303 0.000000 0.000000 0.000000
# 2 -0.003868 0.010874 -0.000714 0.000000 0.000000 0.000000
# 3 -0.004303 -0.000714 0.011261 0.000000 0.000000 0.000000
# 4 0.000000 0.000000 0.000000 0.027593 0.000000 0.000000
# 5 0.000000 0.000000 0.000000 0.000000 0.027620 0.000000
# 6 0.000000 0.000000 0.000000 0.000000 0.000000 0.036352
#
#
# Mechanical properties :
#
#
# Convention : Reuss Voigt Hill
#
# Bulk Modulus (GPa) = 35.21685 38.55941 36.88813
# Shear Modulus (GPa) = 30.30956 32.87909 31.59433
#
# Velocity S-wave (km/s) = 3.77865 3.93556 3.85791
# Velocity P-wave (km/s) = 5.96888 6.23026 6.10097
#
# Compressibility (1/GPa) = 0.02839550
#
# Stress axis : x y z
#
# Youngs Moduli (GPa) = 41.61483 91.96319 88.80208
#
# Poissons Ratio (x) = 0.35569 0.38213
# Poissons Ratio (y) = 0.16095 0.06339
# Poissons Ratio (z) = 0.17907 0.06565
#
# Static dielectric constant tensor:
#      x y z
#    x 3.885180 0.000000 0.000000 
#    y 0.000000 3.915450 0.000000 
#    z 0.000000 0.000000 3.997400 
# 
# 
# High freq. dielectric constant tensor:
#      x y z
#    x 1.841220 0.000000 0.000000 
#    y 0.000000 1.848330 0.000000 
#    z 0.000000 0.000000 1.850540 
# 
# From -- ./inp_files/26147.got.cif
#   From: 2010.03.12/outbox.cif.g09.slc.cpg/sg53_14_cif.got.tgz:26147.got - 2010.04.16 14:36:59.
