data_PCOD8222948
_publ_section_title
;
Structure prediction by ZEFSAII (Michael W. Deem and Ramdas Pophale) SiO2 
 PCOD8222948
Probable space group: P C C A
;
_chemical_formula_sum "Si O2"
_cell_formula_units_Z 60
_cell_length_a 26.522402
_cell_length_b 14.501718
_cell_length_c 8.809307
_cell_angle_alpha 90.000000
_cell_angle_beta 90.000000
_cell_angle_gamma 90.000000
_cell_volume 3388.239133
_symmetry_space_group_name_H-M "P C C A"
_symmetry_group_IT_number 54
_symmetry_cell_setting 'orthorhombic'
loop_
_space_group_symop_operation_xyz
x,y,z
1/2-x,-y,z
1/2+x,-y,1/2-z
-x,y,1/2-z
-x,-y,-z
1/2+x,y,-z
1/2-x,y,1/2+z
x,-y,1/2+z
loop_
_atom_site_type_symbol
_atom_site_label
_atom_site_fract_x
_atom_site_fract_y
_atom_site_fract_z
Si Si1 0.315258 0.917934 0.069028
Si Si2 0.708202 0.622202 0.328044
Si Si3 0.776916 0.210908 0.932609
Si Si4 0.250000 0.500000 0.931301
Si Si5 0.950705 0.128286 0.180732
Si Si6 0.345234 0.094112 0.239580
Si Si7 0.452282 0.054812 0.150306
Si Si8 0.146707 0.770139 0.791592
O O1 0.346092 0.932056 0.914709
O O2 0.260504 0.874754 0.034143
O O3 0.346901 0.851752 0.174645
O O4 0.313900 0.017430 0.146105
O O5 0.748648 0.697537 0.381721
O O6 0.706486 0.544801 0.459978
O O7 0.724369 0.578117 0.168933
O O8 0.654070 0.672209 0.297322
O O9 0.814065 0.187562 0.792595
O O10 0.810019 0.226733 0.082210
O O11 0.909687 0.209119 0.147977
O O12 0.000000 0.179207 0.250000
O O13 0.936696 0.050606 0.307279
O O14 0.964180 0.070599 0.027929
O O15 0.402180 0.113364 0.186171
O O16 0.500000 0.088798 0.250000
#
# Coordination Sequence:
#
# PCOD8222948 Si02
#       8
#     8   8   8   4   8   8   8   8
#     4  11  23  33  50  71 108 152 193 221 273 328
#     4  10  21  37  59  84 116 141 176 216 270 340
#     4  11  22  37  50  78 113 146 181 228 270 325
#     4  10  20  38  60  84 112 146 174 208 270 350
#     4  11  22  37  55  74 105 149 197 251 287 321
#     4  12  22  35  51  73 107 155 193 234 276 322
#     4  11  22  36  53  72 102 148 209 248 280 313
#     4  11  21  37  55  81 111 144 187 233 281 325
#
# _framework density 17.708311999999999
#
# number of rings (size 3 to 8) (size 9 to 14) (size 15 to 20)
#    0.000    1.067    4.000    5.200    3.733    1.067 
#    0.000    0.000    0.000    0.000    0.000    0.933 
#    0.000    0.000    0.000    0.000    0.000    0.000 
#
# Total GULP energy -743553.438317 kJ/mol
# GULP energy per Si atom -12392.557305 kJ/mol
# Density = 1.766801 g / cm^3
# Si number density = 17.708312 Si / 1000 Ang^3
#
#
#
# Elastic Constant Matrix: (Units=GPa)
#
#
# Indices 1 2 3 4 5 6 
#
# 1 99.1538 40.5145 26.0440 0.0000 0.0000 0.0000
# 2 40.5145 61.8586 41.3415 0.0000 0.0000 0.0000
# 3 26.0440 41.3415 113.8177 0.0000 0.0000 0.0000
# 4 0.0000 0.0000 0.0000 27.3864 0.0000 0.0000
# 5 0.0000 0.0000 0.0000 0.0000 25.1519 0.0000
# 6 0.0000 0.0000 0.0000 0.0000 0.0000 -20.0964
#
#
#
# Elastic Compliance Matrix: (Units=1/GPa)
#
#
# Indices 1 2 3 4 5 6 
#
# 1 0.013773 -0.009131 0.000165 0.000000 0.000000 0.000000
# 2 -0.009131 0.027402 -0.007864 0.000000 0.000000 0.000000
# 3 0.000165 -0.007864 0.011604 0.000000 0.000000 0.000000
# 4 0.000000 0.000000 0.000000 0.036514 0.000000 0.000000
# 5 0.000000 0.000000 0.000000 0.000000 0.039759 0.000000
# 6 0.000000 0.000000 0.000000 0.000000 0.000000 -0.049760
#
#
# Mechanical properties :
#
#
# Convention : Reuss Voigt Hill
#
# Bulk Modulus (GPa) = 52.30111 54.51445 53.40778
# Shear Modulus (GPa) = 41.90264 17.61704 29.75984
#
# Velocity S-wave (km/s) = 4.86971 3.15754 4.10391
# Velocity P-wave (km/s) = 7.82417 6.64416 7.25819
#
# Compressibility (1/GPa) = 0.01912005
#
# Stress axis : x y z
#
# Youngs Moduli (GPa) = 72.60630 36.49412 86.17351
#
# Poissons Ratio (x) = 0.33322 -0.01422
# Poissons Ratio (y) = 0.66296 0.67764
# Poissons Ratio (z) = -0.01198 0.28698
#
# Static dielectric constant tensor:
#      x y z
#    x 3.351000 0.000000 0.000000 
#    y 0.000000 3.175880 0.000000 
#    z 0.000000 0.000000 3.512770 
# 
# 
# High freq. dielectric constant tensor:
#      x y z
#    x 1.672970 0.000000 0.000000 
#    y 0.000000 1.648350 0.000000 
#    z 0.000000 0.000000 1.708160 
# 
# From -- ./inp_files/5634.got.cif
#   From: 2010.03.12/outbox.cif.g09.slc.cpg/sg54_3_cif.got.tgz:5634.got - 2010.04.16 15:00:50.
