data_PCOD8222494
_publ_section_title
;
Structure prediction by ZEFSAII (Michael W. Deem and Ramdas Pophale) SiO2 
 PCOD8222494
Probable space group: P C C A
;
_chemical_formula_sum "Si O2"
_cell_formula_units_Z 52
_cell_length_a 14.343673
_cell_length_b 8.445472
_cell_length_c 19.916805
_cell_angle_alpha 90.000000
_cell_angle_beta 90.000000
_cell_angle_gamma 90.000000
_cell_volume 2412.703607
_symmetry_space_group_name_H-M "P C C A"
_symmetry_group_IT_number 54
_symmetry_cell_setting 'orthorhombic'
loop_
_space_group_symop_operation_xyz
x,y,z
1/2-x,-y,z
1/2+x,-y,1/2-z
-x,y,1/2-z
-x,-y,-z
1/2+x,y,-z
1/2-x,y,1/2+z
x,-y,1/2+z
loop_
_atom_site_type_symbol
_atom_site_label
_atom_site_fract_x
_atom_site_fract_y
_atom_site_fract_z
Si Si1 0.139124 0.765619 0.335931
Si Si2 0.571387 0.835618 0.045197
Si Si3 0.750000 0.000000 0.077439
Si Si4 0.124623 0.608537 0.694460
Si Si5 0.540182 0.890187 0.901268
Si Si6 0.309832 0.252464 0.185922
Si Si7 0.917357 0.589985 0.655089
O O1 0.219739 0.847606 0.378978
O O2 0.166876 0.806733 0.260231
O O3 0.130414 0.580495 0.354028
O O4 0.036522 0.833338 0.348473
O O5 0.610745 0.692989 0.090455
O O6 0.659989 0.952741 0.033556
O O7 0.484807 0.927463 0.080879
O O8 0.538949 0.785546 0.970370
O O9 0.156772 0.431400 0.681683
O O10 0.198981 0.739635 0.668178
O O11 0.117458 0.653547 0.773326
O O12 0.028666 0.607781 0.654623
O O13 0.640526 0.866769 0.866155
#
# Coordination Sequence:
#
# PCOD8222494 Si02
#       7
#     8   8   4   8   8   8   8
#     4  10  20  38  66  87 120 159 204 258 320 376
#     4  10  23  41  59  84 123 165 211 247 310 380
#     4  10  22  42  58  86 118 162 206 256 306 386
#     4   9  19  34  62  92 123 148 201 257 308 362
#     4  10  21  41  59  84 123 167 200 254 312 369
#     4  10  18  37  60  91 121 159 199 253 308 371
#     4  10  19  39  63  88 121 162 196 258 315 369
#
# _framework density 21.552586000000002
#
# number of rings (size 3 to 8) (size 9 to 14) (size 15 to 20)
#    0.000    2.154    1.538    1.385    0.000    2.462 
#   22.154    1.538    0.000    0.000    0.000    0.000 
#    0.000    0.000    0.000    0.000    0.000    0.000 
#
# Total GULP energy -644201.815070 kJ/mol
# GULP energy per Si atom -12388.496444 kJ/mol
# Density = 2.150353 g / cm^3
# Si number density = 21.552586 Si / 1000 Ang^3
#
#
#
# Elastic Constant Matrix: (Units=GPa)
#
#
# Indices 1 2 3 4 5 6 
#
# 1 125.1088 24.2613 18.7322 0.0000 0.0000 0.0000
# 2 24.2613 55.2267 27.0838 0.0000 0.0000 0.0000
# 3 18.7322 27.0838 56.6726 0.0000 0.0000 0.0000
# 4 0.0000 0.0000 0.0000 25.9585 0.0000 0.0000
# 5 0.0000 0.0000 0.0000 0.0000 21.0866 0.0000
# 6 0.0000 0.0000 0.0000 0.0000 0.0000 35.0291
#
#
#
# Elastic Compliance Matrix: (Units=1/GPa)
#
#
# Indices 1 2 3 4 5 6 
#
# 1 0.008820 -0.003194 -0.001389 0.000000 0.000000 0.000000
# 2 -0.003194 0.024806 -0.010799 0.000000 0.000000 0.000000
# 3 -0.001389 -0.010799 0.023265 0.000000 0.000000 0.000000
# 4 0.000000 0.000000 0.000000 0.038523 0.000000 0.000000
# 5 0.000000 0.000000 0.000000 0.000000 0.047423 0.000000
# 6 0.000000 0.000000 0.000000 0.000000 0.000000 0.028548
#
#
# Mechanical properties :
#
#
# Convention : Reuss Voigt Hill
#
# Bulk Modulus (GPa) = 38.27339 41.90696 40.09017
# Shear Modulus (GPa) = 23.71247 27.54356 25.62802
#
# Velocity S-wave (km/s) = 3.32055 3.57875 3.45206
# Velocity P-wave (km/s) = 5.70071 6.04672 5.87626
#
# Compressibility (1/GPa) = 0.02612782
#
# Stress axis : x y z
#
# Youngs Moduli (GPa) = 113.37429 40.31252 42.98231
#
# Poissons Ratio (x) = 0.12874 0.05971
# Poissons Ratio (y) = 0.36206 0.46418
# Poissons Ratio (z) = 0.15750 0.43535
#
# Static dielectric constant tensor:
#      x y z
#    x 4.335870 0.000000 0.000000 
#    y 0.000000 3.658740 0.000000 
#    z 0.000000 0.000000 3.740160 
# 
# 
# High freq. dielectric constant tensor:
#      x y z
#    x 1.864990 0.000000 0.000000 
#    y 0.000000 1.824770 0.000000 
#    z 0.000000 0.000000 1.827710 
# 
# From -- ./inp_files/21561.got.cif
#   From: 2010.03.12/outbox.cif.g09.slc.cpg/sg54_11_cif.got.tgz:21561.got - 2010.04.16 15:00:50.
