data_PCOD8222846
_publ_section_title
;
Structure prediction by ZEFSAII (Michael W. Deem and Ramdas Pophale) SiO2 
 PCOD8222846
Probable space group: P C C A
;
_chemical_formula_sum "Si O2"
_cell_formula_units_Z 56
_cell_length_a 14.723061
_cell_length_b 19.615314
_cell_length_c 8.935259
_cell_angle_alpha 90.000000
_cell_angle_beta 90.000000
_cell_angle_gamma 90.000000
_cell_volume 2580.480144
_symmetry_space_group_name_H-M "P C C A"
_symmetry_group_IT_number 54
_symmetry_cell_setting 'orthorhombic'
loop_
_space_group_symop_operation_xyz
x,y,z
1/2-x,-y,z
1/2+x,-y,1/2-z
-x,y,1/2-z
-x,-y,-z
1/2+x,y,-z
1/2-x,y,1/2+z
x,-y,1/2+z
loop_
_atom_site_type_symbol
_atom_site_label
_atom_site_fract_x
_atom_site_fract_y
_atom_site_fract_z
Si Si1 0.652759 0.028748 0.408137
Si Si2 0.903963 0.092140 0.212679
Si Si3 0.596037 0.592140 0.787321
Si Si4 0.237713 0.750000 0.500000
Si Si5 0.285901 0.342975 0.749441
Si Si6 0.285901 0.157025 0.250559
Si Si7 0.152759 0.471252 0.408137
O O1 0.599392 0.060678 0.546560
O O2 0.664482 0.085718 0.277092
O O3 0.750000 0.000000 0.464566
O O4 0.597116 0.968416 0.334163
O O5 0.822871 0.145638 0.234064
O O6 0.000000 0.129158 0.250000
O O7 0.500000 0.629158 0.750000
O O8 0.677129 0.645638 0.765936
O O9 0.597116 0.531584 0.665837
O O10 0.599392 0.560678 0.953440
O O11 0.178978 0.694758 0.597297
O O12 0.302486 0.707855 0.387985
O O13 0.178978 0.805242 0.402703
O O14 0.302486 0.792145 0.612015
O O15 0.335518 0.414282 0.777092
O O16 0.250000 0.500000 0.464566
#
# Coordination Sequence:
#
# PCOD8222846 Si02
#       7
#     8   8   8   8   8   8   8
#     4  10  20  36  59  85 112 151 192 236 279 348
#     4  11  22  36  56  87 119 144 180 240 301 336
#     4  11  22  36  56  87 119 144 180 240 301 336
#     4  10  20  36  62  84 104 154 200 236 262 328
#     4  10  20  37  61  84 111 146 202 230 275 338
#     4  10  20  37  61  84 111 146 202 230 275 338
#     4  10  20  36  59  85 112 151 192 236 279 348
#
# _framework density 21.701388000000001
#
# number of rings (size 3 to 8) (size 9 to 14) (size 15 to 20)
#    0.000    1.714    2.857    3.429    4.000    0.000 
#    0.000    1.429    0.000    0.000    0.000    0.000 
#    0.000    0.000    0.000    0.000    0.000    0.000 
#
# Total GULP energy -694066.144310 kJ/mol
# GULP energy per Si atom -12394.038291 kJ/mol
# Density = 2.165200 g / cm^3
# Si number density = 21.701388 Si / 1000 Ang^3
#
#
#
# Elastic Constant Matrix: (Units=GPa)
#
#
# Indices 1 2 3 4 5 6 
#
# 1 75.4684 13.0799 19.5736 0.0000 0.0000 0.0000
# 2 13.0799 80.3085 23.8465 0.0000 0.0000 0.0000
# 3 19.5736 23.8465 122.8408 0.0000 0.0000 0.0000
# 4 0.0000 0.0000 0.0000 41.0322 0.0000 0.0000
# 5 0.0000 0.0000 0.0000 0.0000 14.2929 0.0000
# 6 0.0000 0.0000 0.0000 0.0000 0.0000 10.2299
#
#
#
# Elastic Compliance Matrix: (Units=1/GPa)
#
#
# Indices 1 2 3 4 5 6 
#
# 1 0.014043 -0.001722 -0.001903 0.000000 0.000000 0.000000
# 2 -0.001722 0.013425 -0.002332 0.000000 0.000000 0.000000
# 3 -0.001903 -0.002332 0.008897 0.000000 0.000000 0.000000
# 4 0.000000 0.000000 0.000000 0.024371 0.000000 0.000000
# 5 0.000000 0.000000 0.000000 0.000000 0.069965 0.000000
# 6 0.000000 0.000000 0.000000 0.000000 0.000000 0.097752
#
#
# Mechanical properties :
#
#
# Convention : Reuss Voigt Hill
#
# Bulk Modulus (GPa) = 40.89975 43.51310 42.20643
# Shear Modulus (GPa) = 20.11941 27.91885 24.01913
#
# Velocity S-wave (km/s) = 3.04814 3.59067 3.33047
# Velocity P-wave (km/s) = 5.59247 6.10614 5.85494
#
# Compressibility (1/GPa) = 0.02445003
#
# Stress axis : x y z
#
# Youngs Moduli (GPa) = 71.21152 74.48890 112.40330
#
# Poissons Ratio (x) = 0.12827 0.21394
# Poissons Ratio (y) = 0.12263 0.26209
# Poissons Ratio (z) = 0.13554 0.17369
#
# Static dielectric constant tensor:
#      x y z
#    x 3.370580 0.000000 0.000000 
#    y 0.000000 4.088990 0.000000 
#    z 0.000000 0.000000 4.126620 
# 
# 
# High freq. dielectric constant tensor:
#      x y z
#    x 1.785260 0.000000 0.000000 
#    y 0.000000 1.862260 0.000000 
#    z 0.000000 0.000000 1.875160 
# 
# From -- ./inp_files/3684.got.cif
#   From: 2010.03.12/outbox.cif.g09.slc.cpg/sg54_2_cif.got.tgz:3684.got - 2010.04.16 15:00:50.
