data_PCOD8222683
_publ_section_title
;
Structure prediction by ZEFSAII (Michael W. Deem and Ramdas Pophale) SiO2 
 PCOD8222683
Probable space group: P C C A
;
_chemical_formula_sum "Si O2"
_cell_formula_units_Z 32
_cell_length_a 12.825982
_cell_length_b 9.312658
_cell_length_c 10.427246
_cell_angle_alpha 90.000000
_cell_angle_beta 90.000000
_cell_angle_gamma 90.000000
_cell_volume 1245.471803
_symmetry_space_group_name_H-M "P C C A"
_symmetry_group_IT_number 54
_symmetry_cell_setting 'orthorhombic'
loop_
_space_group_symop_operation_xyz
x,y,z
1/2-x,-y,z
1/2+x,-y,1/2-z
-x,y,1/2-z
-x,-y,-z
1/2+x,y,-z
1/2-x,y,1/2+z
x,-y,1/2+z
loop_
_atom_site_type_symbol
_atom_site_label
_atom_site_fract_x
_atom_site_fract_y
_atom_site_fract_z
Si Si1 0.375075 0.622563 0.731644
Si Si2 0.889520 0.425827 0.492843
Si Si3 0.990476 0.165409 0.388027
Si Si4 0.351997 0.905063 0.587490
O O1 0.500000 0.629998 0.750000
O O2 0.332921 0.510177 0.623611
O O3 0.331520 0.779916 0.691452
O O4 0.329132 0.571082 0.870129
O O5 0.000000 0.500000 0.500000
O O6 0.905423 0.256852 0.466116
O O7 0.104699 0.165881 0.455321
O O8 0.000000 0.241960 0.250000
O O9 0.946929 0.005409 0.365614
O O10 0.250000 0.000000 0.563038
#
# Coordination Sequence:
#
# PCOD8222683 Si02
#       4
#     8   8   8   8
#     4  10  19  39  68 105 133 183 236 293 353 437
#     4  10  19  36  71 101 132 179 237 287 355 421
#     4  11  23  41  68  97 136 189 237 291 361 432
#     4  11  25  42  65  98 142 186 235 295 362 435
#
# _framework density 25.693075
#
# number of rings (size 3 to 8) (size 9 to 14) (size 15 to 20)
#    0.000    1.500    5.000    3.000    3.500    1.000 
#    0.000    1.250    0.000    3.000    0.000    0.000 
#    0.000    0.000    0.000    0.000    0.000    0.000 
#
# Total GULP energy -396540.337052 kJ/mol
# GULP energy per Si atom -12391.885533 kJ/mol
# Density = 2.563460 g / cm^3
# Si number density = 25.693075 Si / 1000 Ang^3
#
#
#
# Elastic Constant Matrix: (Units=GPa)
#
#
# Indices 1 2 3 4 5 6 
#
# 1 80.6531 27.4961 26.9555 0.0000 0.0000 0.0000
# 2 27.4961 155.7385 80.1011 0.0000 0.0000 0.0000
# 3 26.9555 80.1011 250.8965 0.0000 0.0000 0.0000
# 4 0.0000 0.0000 0.0000 31.9641 0.0000 0.0000
# 5 0.0000 0.0000 0.0000 0.0000 -3.8673 0.0000
# 6 0.0000 0.0000 0.0000 0.0000 0.0000 27.3456
#
#
#
# Elastic Compliance Matrix: (Units=1/GPa)
#
#
# Indices 1 2 3 4 5 6 
#
# 1 0.013331 -0.001935 -0.000815 0.000000 0.000000 0.000000
# 2 -0.001935 0.007963 -0.002335 0.000000 0.000000 0.000000
# 3 -0.000815 -0.002335 0.004819 0.000000 0.000000 0.000000
# 4 0.000000 0.000000 0.000000 0.031285 0.000000 0.000000
# 5 0.000000 0.000000 0.000000 0.000000 -0.258580 0.000000
# 6 0.000000 0.000000 0.000000 0.000000 0.000000 0.036569
#
#
# Mechanical properties :
#
#
# Convention : Reuss Voigt Hill
#
# Bulk Modulus (GPa) = 62.71535 84.04372 73.37954
# Shear Modulus (GPa) = -33.52755 34.60418 0.53832
#
# Velocity S-wave (km/s) = -3.61629 3.67390 0.45823
# Velocity P-wave (km/s) = 2.65059 7.12589 5.37606
#
# Compressibility (1/GPa) = 0.01594506
#
# Stress axis : x y z
#
# Youngs Moduli (GPa) = 75.01560 125.57628 207.53193
#
# Poissons Ratio (x) = 0.24294 0.16905
# Poissons Ratio (y) = 0.14513 0.48449
# Poissons Ratio (z) = 0.06110 0.29316
#
# Static dielectric constant tensor:
#      x y z
#    x 4.008030 0.000000 0.000000 
#    y 0.000000 6.884720 0.000000 
#    z 0.000000 0.000000 5.609630 
# 
# 
# High freq. dielectric constant tensor:
#      x y z
#    x 2.002240 0.000000 0.000000 
#    y 0.000000 2.036250 0.000000 
#    z 0.000000 0.000000 2.034370 
# 
# From -- ./inp_files/7955.got.cif
#   From: 2010.03.12/outbox.cif.g09.slc.cpg/sg54_4_cif.got.tgz:7955.got - 2010.04.16 15:00:50.
