data_PCOD8222513
_publ_section_title
;
Structure prediction by ZEFSAII (Michael W. Deem and Ramdas Pophale) SiO2 
 PCOD8222513
Probable space group: P C C A
;
_chemical_formula_sum "Si O2"
_cell_formula_units_Z 48
_cell_length_a 7.989689
_cell_length_b 16.089583
_cell_length_c 18.819528
_cell_angle_alpha 90.000000
_cell_angle_beta 90.000000
_cell_angle_gamma 90.000000
_cell_volume 2419.264708
_symmetry_space_group_name_H-M "P C C A"
_symmetry_group_IT_number 54
_symmetry_cell_setting 'orthorhombic'
loop_
_space_group_symop_operation_xyz
x,y,z
1/2-x,-y,z
1/2+x,-y,1/2-z
-x,y,1/2-z
-x,-y,-z
1/2+x,y,-z
1/2-x,y,1/2+z
x,-y,1/2+z
loop_
_atom_site_type_symbol
_atom_site_label
_atom_site_fract_x
_atom_site_fract_y
_atom_site_fract_z
Si Si1 0.204325 0.593693 0.677669
Si Si2 0.431849 0.141017 0.173835
Si Si3 0.053220 0.007088 0.419322
Si Si4 0.978435 0.319418 0.665706
Si Si5 0.881287 0.336474 0.170246
Si Si6 0.045711 0.841775 0.673527
O O1 0.250000 0.500000 0.698219
O O2 0.359120 0.633335 0.632587
O O3 0.157900 0.648944 0.746340
O O4 0.023711 0.601199 0.636782
O O5 0.500000 0.111032 0.250000
O O6 0.454643 0.065684 0.120427
O O7 0.532455 0.221948 0.147740
O O8 0.242897 0.173544 0.175477
O O9 0.250000 0.000000 0.408782
O O10 0.000000 0.000000 0.500000
O O11 0.997536 0.095470 0.389357
O O12 0.000000 0.335707 0.750000
O O13 0.801329 0.353706 0.634460
O O14 0.942737 0.242232 0.159384
O O15 0.000000 0.881202 0.750000
#
# Coordination Sequence:
#
# PCOD8222513 Si02
#       6
#     8   8   8   8   8   8
#     4  10  19  28  44  73 113 148 188 233 293 347
#     4  11  21  37  58  85 113 156 201 245 294 355
#     4  12  26  42  59  85 115 153 199 255 305 350
#     4   9  17  30  46  70 105 147 187 231 278 343
#     4  10  19  30  46  74 107 154 192 227 289 352
#     4  12  20  38  59  83 117 158 201 245 291 362
#
# _framework density 19.840738000000002
#
# number of rings (size 3 to 8) (size 9 to 14) (size 15 to 20)
#    0.000    1.333    3.333    6.000    7.000    0.000 
#    0.000    0.000    0.000    0.000    0.000    0.000 
#    0.000    2.667    0.333    0.167    0.000    0.167 
#
# Total GULP energy -594700.784986 kJ/mol
# GULP energy per Si atom -12389.599687 kJ/mol
# Density = 1.979558 g / cm^3
# Si number density = 19.840738 Si / 1000 Ang^3
#
#
#
# Elastic Constant Matrix: (Units=GPa)
#
#
# Indices 1 2 3 4 5 6 
#
# 1 207.2979 52.0816 15.8295 0.0000 0.0000 0.0000
# 2 52.0816 104.4096 28.7340 0.0000 0.0000 0.0000
# 3 15.8295 28.7340 54.7383 0.0000 0.0000 0.0000
# 4 0.0000 0.0000 0.0000 14.1287 0.0000 0.0000
# 5 0.0000 0.0000 0.0000 0.0000 15.1651 0.0000
# 6 0.0000 0.0000 0.0000 0.0000 0.0000 35.0098
#
#
#
# Elastic Compliance Matrix: (Units=1/GPa)
#
#
# Indices 1 2 3 4 5 6 
#
# 1 0.005517 -0.002703 -0.000176 0.000000 0.000000 0.000000
# 2 -0.002703 0.012520 -0.005790 0.000000 0.000000 0.000000
# 3 -0.000176 -0.005790 0.021359 0.000000 0.000000 0.000000
# 4 0.000000 0.000000 0.000000 0.070778 0.000000 0.000000
# 5 0.000000 0.000000 0.000000 0.000000 0.065941 0.000000
# 6 0.000000 0.000000 0.000000 0.000000 0.000000 0.028563
#
#
# Mechanical properties :
#
#
# Convention : Reuss Voigt Hill
#
# Bulk Modulus (GPa) = 45.33940 62.19288 53.76614
# Shear Modulus (GPa) = 21.79889 30.84741 26.32315
#
# Velocity S-wave (km/s) = 3.31825 3.94731 3.64637
# Velocity P-wave (km/s) = 6.13044 7.22420 6.69968
#
# Compressibility (1/GPa) = 0.02205587
#
# Stress axis : x y z
#
# Youngs Moduli (GPa) = 181.27071 79.87463 46.81818
#
# Poissons Ratio (x) = 0.21592 0.00825
# Poissons Ratio (y) = 0.49003 0.27109
# Poissons Ratio (z) = 0.03195 0.46249
#
# Static dielectric constant tensor:
#      x y z
#    x 4.852980 0.000000 0.000000 
#    y 0.000000 3.514750 0.000000 
#    z 0.000000 0.000000 2.993050 
# 
# 
# High freq. dielectric constant tensor:
#      x y z
#    x 1.822150 0.000000 0.000000 
#    y 0.000000 1.777060 0.000000 
#    z 0.000000 0.000000 1.680450 
# 
# From -- ./inp_files/16601.got.cif
#   From: 2010.03.12/outbox.cif.g09.slc.cpg/sg54_9_cif.got.tgz:16601.got - 2010.04.16 15:00:50.
