data_PCOD8222128
_publ_section_title
;
Structure prediction by ZEFSAII (Michael W. Deem and Ramdas Pophale) SiO2 
 PCOD8222128
Probable space group: P M N A
;
_chemical_formula_sum "Si O2"
_cell_formula_units_Z 64
_cell_length_a 8.639796
_cell_length_b 21.794083
_cell_length_c 16.022942
_cell_angle_alpha 90.000000
_cell_angle_beta 90.000000
_cell_angle_gamma 90.000000
_cell_volume 3017.062795
_symmetry_space_group_name_H-M "P M N A"
_symmetry_group_IT_number 53
_symmetry_cell_setting 'orthorhombic'
loop_
_space_group_symop_operation_xyz
x,y,z
1/2-x,-y,1/2+z
x,-y,-z
1/2-x,y,1/2-z
-x,-y,-z
1/2+x,y,1/2-z
-x,y,z
1/2+x,-y,1/2+z
loop_
_atom_site_type_symbol
_atom_site_label
_atom_site_fract_x
_atom_site_fract_y
_atom_site_fract_z
Si Si1 0.817190 0.377094 0.337846
Si Si2 0.684189 0.930507 0.000112
Si Si3 0.680129 0.502211 0.402917
Si Si4 0.817936 0.140768 0.662839
Si Si5 0.676168 0.257812 0.593435
Si Si6 0.318004 0.374120 0.838876
Si Si7 0.816340 0.858789 0.663431
Si Si8 0.177322 0.260137 0.095420
O O1 0.750000 0.354742 0.250000
O O2 0.733834 0.439759 0.361477
O O3 0.771853 0.323739 0.402149
O O4 0.000000 0.387347 0.336129
O O5 0.500000 0.927889 0.001116
O O6 0.745307 0.898204 0.915432
O O7 0.748689 0.897709 0.083963
O O8 0.745757 0.000000 0.000000
O O9 0.717493 0.500000 0.500000
O O10 0.500000 0.512879 0.384550
O O11 0.775333 0.556981 0.362579
O O12 0.750000 0.115130 0.750000
O O13 0.771810 0.211808 0.651871
O O14 0.000000 0.134429 0.667562
O O15 0.500000 0.258804 0.624993
O O16 0.745855 0.326155 0.596096
O O17 0.687561 0.234845 0.498488
O O18 0.250000 0.356279 0.750000
O O19 0.500000 0.367093 0.838188
O O20 0.750000 0.886814 0.750000
O O21 0.754959 0.789458 0.655793
O O22 0.000000 0.858796 0.667103
O O23 0.000000 0.271459 0.122687
#
# Coordination Sequence:
#
# PCOD8222128 Si02
#       8
#     8   8   8   8   8   8   8   8
#     4  12  25  41  62  88 121 159 205 255 310 373
#     4   9  20  40  65  93 129 172 215 260 313 377
#     4  11  24  43  64  87 119 157 200 251 312 375
#     4  11  22  39  64  94 129 169 215 263 318 378
#     4  11  23  40  63  91 125 162 206 260 317 374
#     4  12  25  41  62  88 121 159 205 255 310 373
#     4  11  22  39  64  94 129 169 215 263 318 378
#     4  11  23  40  63  91 125 162 206 260 317 374
#
# _framework density 21.212683999999999
#
# number of rings (size 3 to 8) (size 9 to 14) (size 15 to 20)
#    0.000    1.000    1.250    6.000    0.000    6.000 
#    0.000    0.000    0.000    5.250    0.000    0.000 
#    0.000    0.000    0.000    0.000    0.000    0.000 
#
# Total GULP energy -793958.540859 kJ/mol
# GULP energy per Si atom -12405.602201 kJ/mol
# Density = 2.116440 g / cm^3
# Si number density = 21.212684 Si / 1000 Ang^3
#
#
#
# Elastic Constant Matrix: (Units=GPa)
#
#
# Indices 1 2 3 4 5 6 
#
# 1 68.7213 5.2884 42.3361 0.0000 0.0000 0.0000
# 2 5.2884 114.9379 45.9137 0.0000 0.0000 0.0000
# 3 42.3361 45.9137 137.0285 0.0000 0.0000 0.0000
# 4 0.0000 0.0000 0.0000 30.1887 0.0000 0.0000
# 5 0.0000 0.0000 0.0000 0.0000 38.9684 0.0000
# 6 0.0000 0.0000 0.0000 0.0000 0.0000 23.7470
#
#
#
# Elastic Compliance Matrix: (Units=1/GPa)
#
#
# Indices 1 2 3 4 5 6 
#
# 1 0.018233 0.001629 -0.006179 0.000000 0.000000 0.000000
# 2 0.001629 0.010190 -0.003918 0.000000 0.000000 0.000000
# 3 -0.006179 -0.003918 0.010520 0.000000 0.000000 0.000000
# 4 0.000000 0.000000 0.000000 0.033125 0.000000 0.000000
# 5 0.000000 0.000000 0.000000 0.000000 0.025662 0.000000
# 6 0.000000 0.000000 0.000000 0.000000 0.000000 0.042111
#
#
# Mechanical properties :
#
#
# Convention : Reuss Voigt Hill
#
# Bulk Modulus (GPa) = 45.43871 56.41823 50.92847
# Shear Modulus (GPa) = 30.46709 33.72412 32.09561
#
# Velocity S-wave (km/s) = 3.79392 3.99157 3.89400
# Velocity P-wave (km/s) = 6.37643 6.92081 6.65419
#
# Compressibility (1/GPa) = 0.02200767
#
# Stress axis : x y z
#
# Youngs Moduli (GPa) = 54.84605 98.13117 95.06051
#
# Poissons Ratio (x) = -0.15990 0.58740
# Poissons Ratio (y) = -0.08937 0.37244
# Poissons Ratio (z) = 0.33890 0.38447
#
# Static dielectric constant tensor:
#      x y z
#    x 3.745220 0.000000 0.000000 
#    y 0.000000 5.165680 0.000000 
#    z 0.000000 0.000000 4.070360 
# 
# 
# High freq. dielectric constant tensor:
#      x y z
#    x 1.829710 0.000000 0.000000 
#    y 0.000000 1.830560 0.000000 
#    z 0.000000 0.000000 1.847150 
# 
# From -- ./inp_files/20945.got.cif
#   From: 2010.03.12/outbox.cif.g09.slc.cpg/sg53_11_cif.got.tgz:20945.got - 2010.04.16 14:36:59.
