data_PCOD8222824
_publ_section_title
;
Structure prediction by ZEFSAII (Michael W. Deem and Ramdas Pophale) SiO2 
 PCOD8222824
Probable space group: P C C A
;
_chemical_formula_sum "Si O2"
_cell_formula_units_Z 48
_cell_length_a 9.859316
_cell_length_b 11.900673
_cell_length_c 19.046369
_cell_angle_alpha 90.000000
_cell_angle_beta 90.000000
_cell_angle_gamma 90.000000
_cell_volume 2234.758009
_symmetry_space_group_name_H-M "P C C A"
_symmetry_group_IT_number 54
_symmetry_cell_setting 'orthorhombic'
loop_
_space_group_symop_operation_xyz
x,y,z
1/2-x,-y,z
1/2+x,-y,1/2-z
-x,y,1/2-z
-x,-y,-z
1/2+x,y,-z
1/2-x,y,1/2+z
x,-y,1/2+z
loop_
_atom_site_type_symbol
_atom_site_label
_atom_site_fract_x
_atom_site_fract_y
_atom_site_fract_z
Si Si1 0.500000 0.453263 0.750000
Si Si2 0.405060 0.603137 0.621271
Si Si3 0.164733 0.713928 0.435378
Si Si4 0.000000 0.055723 0.250000
Si Si5 0.250000 0.000000 0.665071
Si Si6 0.250000 0.500000 0.509617
Si Si7 0.603461 0.746442 0.164800
Si Si8 0.326803 0.225139 0.589644
O O1 0.427500 0.536649 0.694150
O O2 0.392226 0.368580 0.788047
O O3 0.521636 0.691153 0.601515
O O4 0.384895 0.512177 0.558615
O O5 0.266241 0.674822 0.619994
O O6 0.237281 0.600182 0.456260
O O7 0.258668 0.768226 0.376708
O O8 0.160025 0.789370 0.505457
O O9 0.901064 0.139422 0.208519
O O10 0.108727 0.979561 0.207860
O O11 0.270447 0.108264 0.617343
O O12 0.475291 0.741235 0.114255
#
# Coordination Sequence:
#
# PCOD8222824 Si02
#       8
#     4   8   8   4   4   4   8   8
#     4  11  22  37  56  86 122 161 194 225 292 360
#     4  11  23  34  57  87 116 154 199 245 281 352
#     4  11  21  37  59  87 116 153 198 239 288 356
#     4   9  22  41  64  88 116 153 198 243 304 360
#     4  10  22  44  66  84 114 158 196 250 308 358
#     4  10  20  36  54  80 120 158 188 232 292 342
#     4  10  22  39  59  84 123 159 188 238 298 363
#     4  10  22  41  60  83 116 153 196 251 306 346
#
# _framework density 21.478836999999999
#
# number of rings (size 3 to 8) (size 9 to 14) (size 15 to 20)
#    0.000    1.667    0.000    5.500    0.000    8.667 
#    0.000    8.333    0.000    0.000    0.000    0.000 
#    0.000    0.000    0.000    0.000    0.000    0.000 
#
# Total GULP energy -594794.046436 kJ/mol
# GULP energy per Si atom -12391.542634 kJ/mol
# Density = 2.142995 g / cm^3
# Si number density = 21.478837 Si / 1000 Ang^3
#
#
#
# Elastic Constant Matrix: (Units=GPa)
#
#
# Indices 1 2 3 4 5 6 
#
# 1 105.6384 26.7282 34.9264 0.0000 0.0000 0.0000
# 2 26.7282 63.1949 22.1623 0.0000 0.0000 0.0000
# 3 34.9264 22.1623 88.0007 0.0000 0.0000 0.0000
# 4 0.0000 0.0000 0.0000 27.7951 0.0000 0.0000
# 5 0.0000 0.0000 0.0000 0.0000 24.7385 0.0000
# 6 0.0000 0.0000 0.0000 0.0000 0.0000 22.6620
#
#
#
# Elastic Compliance Matrix: (Units=1/GPa)
#
#
# Indices 1 2 3 4 5 6 
#
# 1 0.011602 -0.003611 -0.003695 0.000000 0.000000 0.000000
# 2 -0.003611 0.018481 -0.003221 0.000000 0.000000 0.000000
# 3 -0.003695 -0.003221 0.013641 0.000000 0.000000 0.000000
# 4 0.000000 0.000000 0.000000 0.035978 0.000000 0.000000
# 5 0.000000 0.000000 0.000000 0.000000 0.040423 0.000000
# 6 0.000000 0.000000 0.000000 0.000000 0.000000 0.044127
#
#
# Mechanical properties :
#
#
# Convention : Reuss Voigt Hill
#
# Bulk Modulus (GPa) = 44.11240 47.16308 45.63774
# Shear Modulus (GPa) = 25.92528 26.57359 26.24944
#
# Velocity S-wave (km/s) = 3.47798 3.52120 3.49966
# Velocity P-wave (km/s) = 6.05893 6.20785 6.13384
#
# Compressibility (1/GPa) = 0.02266936
#
# Stress axis : x y z
#
# Youngs Moduli (GPa) = 86.19512 54.10966 73.30673
#
# Poissons Ratio (x) = 0.19539 0.27088
# Poissons Ratio (y) = 0.31125 0.23613
# Poissons Ratio (z) = 0.31850 0.17429
#
# Static dielectric constant tensor:
#      x y z
#    x 3.867220 0.000000 0.000000 
#    y 0.000000 3.759950 0.000000 
#    z 0.000000 0.000000 4.114840 
# 
# 
# High freq. dielectric constant tensor:
#      x y z
#    x 1.844200 0.000000 0.000000 
#    y 0.000000 1.828680 0.000000 
#    z 0.000000 0.000000 1.853960 
# 
# From -- ./inp_files/16723.got.cif
#   From: 2010.03.12/outbox.cif.g09.slc.cpg/sg54_9_cif.got.tgz:16723.got - 2010.04.16 15:00:50.
