data_PCOD8222778
_publ_section_title
;
Structure prediction by ZEFSAII (Michael W. Deem and Ramdas Pophale) SiO2 
 PCOD8222778
Probable space group: P C C A
;
_chemical_formula_sum "Si O2"
_cell_formula_units_Z 32
_cell_length_a 4.921987
_cell_length_b 14.307520
_cell_length_c 23.682591
_cell_angle_alpha 90.000000
_cell_angle_beta 90.000000
_cell_angle_gamma 90.000000
_cell_volume 1667.761864
_symmetry_space_group_name_H-M "P C C A"
_symmetry_group_IT_number 54
_symmetry_cell_setting 'orthorhombic'
loop_
_space_group_symop_operation_xyz
x,y,z
1/2-x,-y,z
1/2+x,-y,1/2-z
-x,y,1/2-z
-x,-y,-z
1/2+x,y,-z
1/2-x,y,1/2+z
x,-y,1/2+z
loop_
_atom_site_type_symbol
_atom_site_label
_atom_site_fract_x
_atom_site_fract_y
_atom_site_fract_z
Si Si1 0.265035 0.109522 0.465013
Si Si2 0.250000 0.500000 0.211507
Si Si3 0.540736 0.308832 0.816072
Si Si4 0.054099 0.798804 0.349919
Si Si5 0.500000 0.063036 0.250000
O O1 0.462704 0.139289 0.516839
O O2 0.381990 0.157862 0.409956
O O3 0.250000 0.000000 0.453097
O O4 0.500000 0.463126 0.250000
O O5 0.355395 0.585478 0.172861
O O6 0.500000 0.291012 0.750000
O O7 0.247642 0.291834 0.843623
O O8 0.744650 0.234804 0.844304
O O9 0.112697 0.874786 0.301486
O O10 0.750000 0.000000 0.271698
#
# Coordination Sequence:
#
# PCOD8222778 Si02
#       5
#     8   4   8   8   4
#     4  10  22  40  59  80 108 149 203 251 281 320
#     4  10  20  34  56  82 118 158 188 224 288 350
#     4  11  20  36  55  86 120 150 185 233 284 356
#     4  12  22  37  58  84 116 153 190 239 286 342
#     4  12  24  36  52  80 120 156 184 222 290 356
#
# _framework density 19.187390000000001
#
# number of rings (size 3 to 8) (size 9 to 14) (size 15 to 20)
#    0.000    1.000    2.500    6.750    0.000    3.000 
#    0.000    0.000    0.000    0.000    0.000   17.500 
#    0.000    0.000    0.000    0.000    0.000    0.000 
#
# Total GULP energy -396753.567156 kJ/mol
# GULP energy per Si atom -12398.548974 kJ/mol
# Density = 1.914372 g / cm^3
# Si number density = 19.187390 Si / 1000 Ang^3
#
#
#
# Elastic Constant Matrix: (Units=GPa)
#
#
# Indices 1 2 3 4 5 6 
#
# 1 90.7296 29.7834 9.5253 0.0000 0.0000 0.0000
# 2 29.7834 86.0314 38.3730 0.0000 0.0000 0.0000
# 3 9.5253 38.3730 88.9441 0.0000 0.0000 0.0000
# 4 0.0000 0.0000 0.0000 -65.8353 0.0000 0.0000
# 5 0.0000 0.0000 0.0000 0.0000 19.9758 0.0000
# 6 0.0000 0.0000 0.0000 0.0000 0.0000 25.3255
#
#
#
# Elastic Compliance Matrix: (Units=1/GPa)
#
#
# Indices 1 2 3 4 5 6 
#
# 1 0.012465 -0.004606 0.000652 0.000000 0.000000 0.000000
# 2 -0.004606 0.016096 -0.006451 0.000000 0.000000 0.000000
# 3 0.000652 -0.006451 0.013956 0.000000 0.000000 0.000000
# 4 0.000000 0.000000 0.000000 -0.015189 0.000000 0.000000
# 5 0.000000 0.000000 0.000000 0.000000 0.050060 0.000000
# 6 0.000000 0.000000 0.000000 0.000000 0.000000 0.039486
#
#
# Mechanical properties :
#
#
# Convention : Reuss Voigt Hill
#
# Bulk Modulus (GPa) = 46.06684 46.78538 46.42611
# Shear Modulus (GPa) = 34.50185 8.42811 21.46498
#
# Velocity S-wave (km/s) = 4.24506 2.09811 3.34833
# Velocity P-wave (km/s) = 6.93458 5.50507 6.26076
#
# Compressibility (1/GPa) = 0.02170759
#
# Stress axis : x y z
#
# Youngs Moduli (GPa) = 80.22216 62.12860 71.65268
#
# Poissons Ratio (x) = 0.28619 -0.04674
# Poissons Ratio (y) = 0.36954 0.46222
# Poissons Ratio (z) = -0.05234 0.40078
#
# Static dielectric constant tensor:
#      x y z
#    x 3.975100 0.000000 0.000000 
#    y 0.000000 3.512470 0.000000 
#    z 0.000000 0.000000 3.174740 
# 
# 
# High freq. dielectric constant tensor:
#      x y z
#    x 1.776870 0.000000 0.000000 
#    y 0.000000 1.736930 0.000000 
#    z 0.000000 0.000000 1.708210 
# 
# From -- ./inp_files/19520.got.cif
#   From: 2010.03.12/outbox.cif.g09.slc.cpg/sg54_10_cif.got.tgz:19520.got - 2010.04.16 15:00:50.
