data_PCOD8222811
_publ_section_title
;
Structure prediction by ZEFSAII (Michael W. Deem and Ramdas Pophale) SiO2 
 PCOD8222811
Probable space group: P C C A
;
_chemical_formula_sum "Si O2"
_cell_formula_units_Z 40
_cell_length_a 5.076752
_cell_length_b 18.333960
_cell_length_c 19.922932
_cell_angle_alpha 90.000000
_cell_angle_beta 90.000000
_cell_angle_gamma 90.000000
_cell_volume 1854.366106
_symmetry_space_group_name_H-M "P C C A"
_symmetry_group_IT_number 54
_symmetry_cell_setting 'orthorhombic'
loop_
_space_group_symop_operation_xyz
x,y,z
1/2-x,-y,z
1/2+x,-y,1/2-z
-x,y,1/2-z
-x,-y,-z
1/2+x,y,-z
1/2-x,y,1/2+z
x,-y,1/2+z
loop_
_atom_site_type_symbol
_atom_site_label
_atom_site_fract_x
_atom_site_fract_y
_atom_site_fract_z
Si Si1 0.132632 0.273670 0.317521
Si Si2 0.374780 0.424316 0.322933
Si Si3 0.327879 0.076183 0.044554
Si Si4 0.635245 0.772937 0.889517
Si Si5 0.932168 0.633025 0.458219
O O1 0.159478 0.360870 0.315071
O O2 0.416805 0.235038 0.330165
O O3 0.000000 0.242746 0.250000
O O4 0.924991 0.257806 0.375244
O O5 0.250000 0.500000 0.345903
O O6 0.500000 0.435015 0.250000
O O7 0.575082 0.401051 0.382774
O O8 0.311956 0.142818 0.095347
O O9 0.250000 0.000000 0.082365
O O10 0.625241 0.080039 0.017432
O O11 0.541393 0.721659 0.951304
O O12 0.679398 0.605772 0.498649
#
# Coordination Sequence:
#
# PCOD8222811 Si02
#       5
#     8   8   8   8   8
#     4  11  22  39  61  88 117 156 211 259 302 359
#     4  11  25  43  67  92 124 166 213 263 316 378
#     4  10  20  35  58  90 124 157 197 246 303 370
#     4  11  21  37  62  88 123 163 200 249 306 372
#     4  11  23  40  62  91 125 161 203 254 312 368
#
# _framework density 21.570713000000001
#
# number of rings (size 3 to 8) (size 9 to 14) (size 15 to 20)
#    0.000    1.200    0.000    8.400    0.000    2.400 
#    0.000    0.000    0.000    2.400    0.000    1.400 
#    0.000    0.000    0.000    0.000    0.000    0.000 
#
# Total GULP energy -495755.467001 kJ/mol
# GULP energy per Si atom -12393.886675 kJ/mol
# Density = 2.152162 g / cm^3
# Si number density = 21.570713 Si / 1000 Ang^3
#
#
#
# Elastic Constant Matrix: (Units=GPa)
#
#
# Indices 1 2 3 4 5 6 
#
# 1 103.2639 32.0497 15.6481 0.0000 0.0000 0.0000
# 2 32.0497 152.8752 26.3205 0.0000 0.0000 0.0000
# 3 15.6481 26.3205 83.7738 0.0000 0.0000 0.0000
# 4 0.0000 0.0000 0.0000 17.8177 0.0000 0.0000
# 5 0.0000 0.0000 0.0000 0.0000 37.3543 0.0000
# 6 0.0000 0.0000 0.0000 0.0000 0.0000 29.8703
#
#
#
# Elastic Compliance Matrix: (Units=1/GPa)
#
#
# Indices 1 2 3 4 5 6 
#
# 1 0.010499 -0.001970 -0.001342 0.000000 0.000000 0.000000
# 2 -0.001970 0.007285 -0.001921 0.000000 0.000000 0.000000
# 3 -0.001342 -0.001921 0.012791 0.000000 0.000000 0.000000
# 4 0.000000 0.000000 0.000000 0.056124 0.000000 0.000000
# 5 0.000000 0.000000 0.000000 0.000000 0.026771 0.000000
# 6 0.000000 0.000000 0.000000 0.000000 0.000000 0.033478
#
#
# Mechanical properties :
#
#
# Convention : Reuss Voigt Hill
#
# Bulk Modulus (GPa) = 49.72914 54.21662 51.97288
# Shear Modulus (GPa) = 30.46619 34.73478 32.60048
#
# Velocity S-wave (km/s) = 3.76225 4.01718 3.89180
# Velocity P-wave (km/s) = 6.47895 6.83417 6.65893
#
# Compressibility (1/GPa) = 0.02010893
#
# Stress axis : x y z
#
# Youngs Moduli (GPa) = 95.24976 137.26858 78.17932
#
# Poissons Ratio (x) = 0.27041 0.10493
# Poissons Ratio (y) = 0.18764 0.15017
# Poissons Ratio (z) = 0.12784 0.26367
#
# Static dielectric constant tensor:
#      x y z
#    x 4.082910 0.000000 0.000000 
#    y 0.000000 4.597440 0.000000 
#    z 0.000000 0.000000 3.788260 
# 
# 
# High freq. dielectric constant tensor:
#      x y z
#    x 1.865220 0.000000 0.000000 
#    y 0.000000 1.837320 0.000000 
#    z 0.000000 0.000000 1.829870 
# 
# From -- ./inp_files/15789.got.cif
#   From: 2010.03.12/outbox.cif.g09.slc.cpg/sg54_8_cif.got.tgz:15789.got - 2010.04.16 15:00:50.
