data_PCOD8222692
_publ_section_title
;
Structure prediction by ZEFSAII (Michael W. Deem and Ramdas Pophale) SiO2 
 PCOD8222692
Probable space group: P C C A
;
_chemical_formula_sum "Si O2"
_cell_formula_units_Z 40
_cell_length_a 10.277609
_cell_length_b 8.092059
_cell_length_c 23.833869
_cell_angle_alpha 90.000000
_cell_angle_beta 90.000000
_cell_angle_gamma 90.000000
_cell_volume 1982.191822
_symmetry_space_group_name_H-M "P C C A"
_symmetry_group_IT_number 54
_symmetry_cell_setting 'orthorhombic'
loop_
_space_group_symop_operation_xyz
x,y,z
1/2-x,-y,z
1/2+x,-y,1/2-z
-x,y,1/2-z
-x,-y,-z
1/2+x,y,-z
1/2-x,y,1/2+z
x,-y,1/2+z
loop_
_atom_site_type_symbol
_atom_site_label
_atom_site_fract_x
_atom_site_fract_y
_atom_site_fract_z
Si Si1 0.865983 0.113150 0.912732
Si Si2 0.862148 0.871322 0.729168
Si Si3 0.623073 0.385688 0.506293
Si Si4 0.461019 0.816818 0.389292
Si Si5 0.289322 0.685930 0.166953
O O1 0.884502 0.264500 0.953978
O O2 0.825940 0.188492 0.851781
O O3 0.750000 0.000000 0.936949
O O4 0.997728 0.004394 0.906681
O O5 0.865519 0.820122 0.664254
O O6 0.829587 0.713700 0.768412
O O7 0.000000 0.946788 0.750000
O O8 0.750000 0.000000 0.740139
O O9 0.750000 0.500000 0.506506
O O10 0.500000 0.500000 0.500000
O O11 0.618562 0.274606 0.562236
O O12 0.590377 0.715370 0.374878
O O13 0.250000 0.500000 0.158166
#
# Coordination Sequence:
#
# PCOD8222692 Si02
#       5
#     8   8   8   8   8
#     4  10  20  39  64  87 117 165 210 241 294 376
#     4  10  21  39  60  87 120 157 201 249 298 359
#     4  12  25  41  62  91 127 160 201 255 310 360
#     4  10  22  38  59  89 122 155 205 258 298 352
#     4  10  19  37  62  86 119 163 204 243 302 371
#
# _framework density 20.179682
#
# number of rings (size 3 to 8) (size 9 to 14) (size 15 to 20)
#    0.000    1.600    0.000    7.800    0.000    3.200 
#    0.000   11.000    0.000    0.000    0.000    0.000 
#    0.000    0.000    0.000    0.000    0.000    0.000 
#
# Total GULP energy -495980.363771 kJ/mol
# GULP energy per Si atom -12399.509094 kJ/mol
# Density = 2.013375 g / cm^3
# Si number density = 20.179682 Si / 1000 Ang^3
#
#
#
# Elastic Constant Matrix: (Units=GPa)
#
#
# Indices 1 2 3 4 5 6 
#
# 1 90.2229 66.0871 46.9536 0.0000 0.0000 0.0000
# 2 66.0871 141.5117 56.2216 0.0000 0.0000 0.0000
# 3 46.9536 56.2216 138.8716 0.0000 0.0000 0.0000
# 4 0.0000 0.0000 0.0000 16.0518 0.0000 0.0000
# 5 0.0000 0.0000 0.0000 0.0000 21.0392 0.0000
# 6 0.0000 0.0000 0.0000 0.0000 0.0000 28.4234
#
#
#
# Elastic Compliance Matrix: (Units=1/GPa)
#
#
# Indices 1 2 3 4 5 6 
#
# 1 0.017959 -0.007120 -0.003190 0.000000 0.000000 0.000000
# 2 -0.007120 0.011244 -0.002145 0.000000 0.000000 0.000000
# 3 -0.003190 -0.002145 0.009148 0.000000 0.000000 0.000000
# 4 0.000000 0.000000 0.000000 0.062298 0.000000 0.000000
# 5 0.000000 0.000000 0.000000 0.000000 0.047530 0.000000
# 6 0.000000 0.000000 0.000000 0.000000 0.000000 0.035182
#
#
# Mechanical properties :
#
#
# Convention : Reuss Voigt Hill
#
# Bulk Modulus (GPa) = 74.39416 78.79232 76.59324
# Shear Modulus (GPa) = 23.50188 26.52582 25.01385
#
# Velocity S-wave (km/s) = 3.41637 3.62951 3.52455
# Velocity P-wave (km/s) = 7.24624 7.52958 7.38927
#
# Compressibility (1/GPa) = 0.01344191
#
# Stress axis : x y z
#
# Youngs Moduli (GPa) = 55.68365 88.93993 109.31826
#
# Poissons Ratio (x) = 0.63322 0.34868
# Poissons Ratio (y) = 0.39645 0.23446
# Poissons Ratio (z) = 0.17761 0.19075
#
# Static dielectric constant tensor:
#      x y z
#    x 3.750620 0.000000 0.000000 
#    y 0.000000 3.646810 0.000000 
#    z 0.000000 0.000000 3.888570 
# 
# 
# High freq. dielectric constant tensor:
#      x y z
#    x 1.779650 0.000000 0.000000 
#    y 0.000000 1.789310 0.000000 
#    z 0.000000 0.000000 1.798700 
# 
# From -- ./inp_files/23210.got.cif
#   From: 2010.03.12/outbox.cif.g09.slc.cpg/sg54_12_cif.got.tgz:23210.got - 2010.04.16 15:00:50.
