data_PCOD8222830
_publ_section_title
;
Structure prediction by ZEFSAII (Michael W. Deem and Ramdas Pophale) SiO2 
 PCOD8222830
Probable space group: P C C A
;
_chemical_formula_sum "Si O2"
_cell_formula_units_Z 48
_cell_length_a 11.042648
_cell_length_b 9.178846
_cell_length_c 24.116605
_cell_angle_alpha 90.000000
_cell_angle_beta 90.000000
_cell_angle_gamma 90.000000
_cell_volume 2444.429309
_symmetry_space_group_name_H-M "P C C A"
_symmetry_group_IT_number 54
_symmetry_cell_setting 'orthorhombic'
loop_
_space_group_symop_operation_xyz
x,y,z
1/2-x,-y,z
1/2+x,-y,1/2-z
-x,y,1/2-z
-x,-y,-z
1/2+x,y,-z
1/2-x,y,1/2+z
x,-y,1/2+z
loop_
_atom_site_type_symbol
_atom_site_label
_atom_site_fract_x
_atom_site_fract_y
_atom_site_fract_z
Si Si1 0.310431 0.141663 0.357440
Si Si2 0.518780 0.631407 0.686192
Si Si3 0.906429 0.632630 0.949249
Si Si4 0.852258 0.401147 0.113178
Si Si5 0.347356 0.329159 0.088840
Si Si6 0.536096 0.863534 0.537272
O O1 0.416046 0.211368 0.319806
O O2 0.203007 0.255865 0.362481
O O3 0.365107 0.092748 0.416915
O O4 0.250000 0.000000 0.328908
O O5 0.500000 0.597235 0.750000
O O6 0.602335 0.502832 0.663137
O O7 0.393642 0.631936 0.650878
O O8 0.797640 0.693010 0.909612
O O9 0.883344 0.458778 0.955113
O O10 0.039390 0.654847 0.924787
O O11 0.903237 0.726238 0.005450
O O12 0.750000 0.500000 0.080951
O O13 0.411831 0.184463 0.066888
O O14 0.500000 0.000000 0.500000
#
# Coordination Sequence:
#
# PCOD8222830 Si02
#       6
#     8   8   8   8   8   8
#     4  10  21  38  59  87 119 154 200 241 283 368
#     4   9  19  41  66  83 117 151 196 255 309 347
#     4  10  20  36  56  82 121 152 193 244 293 343
#     4   9  19  37  58  88 112 151 198 245 300 359
#     4   9  21  38  54  88 114 152 201 243 293 352
#     4  11  23  35  57  83 119 168 194 231 288 355
#
# _framework density 19.636486000000001
#
# number of rings (size 3 to 8) (size 9 to 14) (size 15 to 20)
#    0.000    2.333    0.000    2.500    4.667    0.000 
#   24.000    0.833    7.333    0.000    0.000    0.000 
#    0.000    0.000    0.000    0.000    0.000    0.000 
#
# Total GULP energy -594849.601329 kJ/mol
# GULP energy per Si atom -12392.700028 kJ/mol
# Density = 1.959179 g / cm^3
# Si number density = 19.636486 Si / 1000 Ang^3
#
#
#
# Elastic Constant Matrix: (Units=GPa)
#
#
# Indices 1 2 3 4 5 6 
#
# 1 123.0888 19.7373 15.0382 0.0000 0.0000 0.0000
# 2 19.7373 80.7161 14.6653 0.0000 0.0000 0.0000
# 3 15.0382 14.6653 62.4918 0.0000 0.0000 0.0000
# 4 0.0000 0.0000 0.0000 18.3585 0.0000 0.0000
# 5 0.0000 0.0000 0.0000 0.0000 16.5218 0.0000
# 6 0.0000 0.0000 0.0000 0.0000 0.0000 25.9320
#
#
#
# Elastic Compliance Matrix: (Units=1/GPa)
#
#
# Indices 1 2 3 4 5 6 
#
# 1 0.008615 -0.001807 -0.001649 0.000000 0.000000 0.000000
# 2 -0.001807 0.013320 -0.002691 0.000000 0.000000 0.000000
# 3 -0.001649 -0.002691 0.017030 0.000000 0.000000 0.000000
# 4 0.000000 0.000000 0.000000 0.054471 0.000000 0.000000
# 5 0.000000 0.000000 0.000000 0.000000 0.060526 0.000000
# 6 0.000000 0.000000 0.000000 0.000000 0.000000 0.038562
#
#
# Mechanical properties :
#
#
# Convention : Reuss Voigt Hill
#
# Bulk Modulus (GPa) = 37.49342 40.57538 39.03440
# Shear Modulus (GPa) = 23.39622 26.61954 25.00788
#
# Velocity S-wave (km/s) = 3.45551 3.68586 3.57254
# Velocity P-wave (km/s) = 5.92080 6.23075 6.07775
#
# Compressibility (1/GPa) = 0.02667135
#
# Stress axis : x y z
#
# Youngs Moduli (GPa) = 116.07035 75.07559 58.71831
#
# Poissons Ratio (x) = 0.13567 0.09684
# Poissons Ratio (y) = 0.20975 0.15801
# Poissons Ratio (z) = 0.19142 0.20203
#
# Static dielectric constant tensor:
#      x y z
#    x 3.892820 0.000000 0.000000 
#    y 0.000000 3.563300 0.000000 
#    z 0.000000 0.000000 3.153160 
# 
# 
# High freq. dielectric constant tensor:
#      x y z
#    x 1.784420 0.000000 0.000000 
#    y 0.000000 1.763800 0.000000 
#    z 0.000000 0.000000 1.721010 
# 
# From -- ./inp_files/24032.got.cif
#   From: 2010.03.12/outbox.cif.g09.slc.cpg/sg54_13_cif.got.tgz:24032.got - 2010.04.16 15:00:50.
