data_PCOD8222571
_publ_section_title
;
Structure prediction by ZEFSAII (Michael W. Deem and Ramdas Pophale) SiO2 
 PCOD8222571
Probable space group: P C C A
;
_chemical_formula_sum "Si O2"
_cell_formula_units_Z 40
_cell_length_a 14.620368
_cell_length_b 4.959001
_cell_length_c 25.322961
_cell_angle_alpha 90.000000
_cell_angle_beta 90.000000
_cell_angle_gamma 90.000000
_cell_volume 1835.975942
_symmetry_space_group_name_H-M "P C C A"
_symmetry_group_IT_number 54
_symmetry_cell_setting 'orthorhombic'
loop_
_space_group_symop_operation_xyz
x,y,z
1/2-x,-y,z
1/2+x,-y,1/2-z
-x,y,1/2-z
-x,-y,-z
1/2+x,y,-z
1/2-x,y,1/2+z
x,-y,1/2+z
loop_
_atom_site_type_symbol
_atom_site_label
_atom_site_fract_x
_atom_site_fract_y
_atom_site_fract_z
Si Si1 0.591237 0.013885 0.282364
Si Si2 0.654351 0.099485 0.077829
Si Si3 0.837360 0.306295 0.690037
Si Si4 0.968150 0.501070 0.836701
Si Si5 0.954963 0.594794 0.553605
O O1 0.500000 0.051105 0.250000
O O2 0.670915 0.116166 0.242412
O O3 0.583898 0.216825 0.332025
O O4 0.597539 0.713560 0.305800
O O5 0.656982 0.093275 0.141636
O O6 0.634219 0.407356 0.061897
O O7 0.750000 0.000000 0.053852
O O8 0.576096 0.905743 0.053945
O O9 0.750000 0.500000 0.685750
O O10 0.929249 0.494209 0.689107
O O11 0.972967 0.561561 0.898820
O O12 0.000000 0.500000 0.500000
#
# Coordination Sequence:
#
# PCOD8222571 Si02
#       5
#     8   8   8   8   8
#     4  10  19  33  52  77 114 155 184 220 285 356
#     4  11  22  37  58  90 123 147 184 253 318 360
#     4  10  21  35  59  91 123 156 197 248 308 369
#     4  10  20  35  53  79 114 151 190 239 288 341
#     4  11  22  38  61  87 114 155 206 250 298 362
#
# _framework density 21.786778000000002
#
# number of rings (size 3 to 8) (size 9 to 14) (size 15 to 20)
#    0.000    1.600    0.000    9.000    0.000    3.200 
#    0.000    0.000    0.000    4.800    0.000    4.200 
#    0.000    0.000    0.000    0.000    0.000    0.000 
#
# Total GULP energy -495757.154618 kJ/mol
# GULP energy per Si atom -12393.928865 kJ/mol
# Density = 2.173719 g / cm^3
# Si number density = 21.786778 Si / 1000 Ang^3
#
#
#
# Elastic Constant Matrix: (Units=GPa)
#
#
# Indices 1 2 3 4 5 6 
#
# 1 49.9197 19.8389 28.2805 0.0000 0.0000 0.0000
# 2 19.8389 106.2800 22.5612 0.0000 0.0000 0.0000
# 3 28.2805 22.5612 110.0127 0.0000 0.0000 0.0000
# 4 0.0000 0.0000 0.0000 33.5652 0.0000 0.0000
# 5 0.0000 0.0000 0.0000 0.0000 13.3357 0.0000
# 6 0.0000 0.0000 0.0000 0.0000 0.0000 39.9073
#
#
#
# Elastic Compliance Matrix: (Units=1/GPa)
#
#
# Indices 1 2 3 4 5 6 
#
# 1 0.024563 -0.003392 -0.005619 0.000000 0.000000 0.000000
# 2 -0.003392 0.010306 -0.001241 0.000000 0.000000 0.000000
# 3 -0.005619 -0.001241 0.010789 0.000000 0.000000 0.000000
# 4 0.000000 0.000000 0.000000 0.029793 0.000000 0.000000
# 5 0.000000 0.000000 0.000000 0.000000 0.074987 0.000000
# 6 0.000000 0.000000 0.000000 0.000000 0.000000 0.025058
#
#
# Mechanical properties :
#
#
# Convention : Reuss Voigt Hill
#
# Bulk Modulus (GPa) = 39.75663 45.28596 42.52129
# Shear Modulus (GPa) = 24.46362 30.39708 27.43035
#
# Velocity S-wave (km/s) = 3.35455 3.73930 3.55214
# Velocity P-wave (km/s) = 5.76990 6.28285 6.03183
#
# Compressibility (1/GPa) = 0.02515304
#
# Stress axis : x y z
#
# Youngs Moduli (GPa) = 40.71086 97.03182 92.68849
#
# Poissons Ratio (x) = 0.32917 0.52079
# Poissons Ratio (y) = 0.13811 0.11507
# Poissons Ratio (z) = 0.22874 0.12046
#
# Static dielectric constant tensor:
#      x y z
#    x 3.889390 0.000000 0.000000 
#    y 0.000000 4.171920 0.000000 
#    z 0.000000 0.000000 3.976780 
# 
# 
# High freq. dielectric constant tensor:
#      x y z
#    x 1.816390 0.000000 0.000000 
#    y 0.000000 1.878290 0.000000 
#    z 0.000000 0.000000 1.834530 
# 
# From -- ./inp_files/24317.got.cif
#   From: 2010.03.12/outbox.cif.g09.slc.cpg/sg54_13_cif.got.tgz:24317.got - 2010.04.16 15:00:50.
