data_PCOD8222848
_publ_section_title
;
Structure prediction by ZEFSAII (Michael W. Deem and Ramdas Pophale) SiO2 
 PCOD8222848
Probable space group: P C C A
;
_chemical_formula_sum "Si O2"
_cell_formula_units_Z 56
_cell_length_a 8.530539
_cell_length_b 21.630517
_cell_length_c 14.516268
_cell_angle_alpha 90.000000
_cell_angle_beta 90.000000
_cell_angle_gamma 90.000000
_cell_volume 2678.541319
_symmetry_space_group_name_H-M "P C C A"
_symmetry_group_IT_number 54
_symmetry_cell_setting 'orthorhombic'
loop_
_space_group_symop_operation_xyz
x,y,z
1/2-x,-y,z
1/2+x,-y,1/2-z
-x,y,1/2-z
-x,-y,-z
1/2+x,y,-z
1/2-x,y,1/2+z
x,-y,1/2+z
loop_
_atom_site_type_symbol
_atom_site_label
_atom_site_fract_x
_atom_site_fract_y
_atom_site_fract_z
Si Si1 0.000000 0.032638 0.250000
Si Si2 0.340979 0.561670 0.420312
Si Si3 0.359430 0.861750 0.132768
Si Si4 0.196186 0.134499 0.446383
Si Si5 0.797343 0.435262 0.384961
Si Si6 0.750000 0.000000 0.121743
Si Si7 0.824247 0.790919 0.217354
Si Si8 0.179400 0.660965 0.769006
O O1 0.117415 0.073441 0.186305
O O2 0.099169 0.987689 0.314536
O O3 0.250000 0.500000 0.388356
O O4 0.524918 0.552804 0.412968
O O5 0.303642 0.578692 0.524981
O O6 0.293558 0.619036 0.357690
O O7 0.521219 0.844672 0.081167
O O8 0.308268 0.814626 0.211837
O O9 0.225283 0.856884 0.054862
O O10 0.223971 0.061128 0.436991
O O11 0.309487 0.174986 0.381481
O O12 0.750000 0.500000 0.336446
O O13 0.764413 0.377691 0.319232
O O14 0.792416 0.718295 0.210986
O O15 0.000000 0.804060 0.250000
O O16 0.000000 0.681322 0.750000
#
# Coordination Sequence:
#
# PCOD8222848 Si02
#       8
#     4   8   8   8   8   4   8   8
#     4  10  22  40  66  94 134 168 200 264 328 370
#     4  10  20  36  59  88 121 157 198 251 306 366
#     4  11  22  45  65  93 132 167 210 264 320 379
#     4  11  24  41  66  96 125 169 211 259 323 386
#     4  10  20  36  59  88 121 159 198 249 309 364
#     4  10  22  38  64  98 126 170 206 258 324 380
#     4  12  25  43  64  91 124 168 215 267 319 378
#     4  10  23  40  61  84 121 165 205 254 311 368
#
# _framework density 20.906901000000001
#
# number of rings (size 3 to 8) (size 9 to 14) (size 15 to 20)
#    0.000    1.429    2.857    3.857    1.000    7.429 
#    0.000    2.857    0.000    0.000    0.000    0.000 
#    0.000    0.000    0.000    0.000    0.000    0.000 
#
# Total GULP energy -694174.510815 kJ/mol
# GULP energy per Si atom -12395.973407 kJ/mol
# Density = 2.085932 g / cm^3
# Si number density = 20.906901 Si / 1000 Ang^3
#
#
#
# Elastic Constant Matrix: (Units=GPa)
#
#
# Indices 1 2 3 4 5 6 
#
# 1 62.4061 27.0354 7.3702 0.0000 0.0000 0.0000
# 2 27.0354 90.1061 28.8308 0.0000 0.0000 0.0000
# 3 7.3702 28.8308 91.5223 0.0000 0.0000 0.0000
# 4 0.0000 0.0000 0.0000 11.9151 0.0000 0.0000
# 5 0.0000 0.0000 0.0000 0.0000 32.2614 0.0000
# 6 0.0000 0.0000 0.0000 0.0000 0.0000 29.2364
#
#
#
# Elastic Compliance Matrix: (Units=1/GPa)
#
#
# Indices 1 2 3 4 5 6 
#
# 1 0.018425 -0.005620 0.000287 0.000000 0.000000 0.000000
# 2 -0.005620 0.014056 -0.003975 0.000000 0.000000 0.000000
# 3 0.000287 -0.003975 0.012156 0.000000 0.000000 0.000000
# 4 0.000000 0.000000 0.000000 0.083927 0.000000 0.000000
# 5 0.000000 0.000000 0.000000 0.000000 0.030997 0.000000
# 6 0.000000 0.000000 0.000000 0.000000 0.000000 0.034204
#
#
# Mechanical properties :
#
#
# Convention : Reuss Voigt Hill
#
# Bulk Modulus (GPa) = 38.43297 41.16747 39.80022
# Shear Modulus (GPa) = 22.61881 26.73577 24.67729
#
# Velocity S-wave (km/s) = 3.29277 3.57991 3.43934
# Velocity P-wave (km/s) = 5.73404 6.06806 5.90341
#
# Compressibility (1/GPa) = 0.02601933
#
# Stress axis : x y z
#
# Youngs Moduli (GPa) = 54.27450 71.14316 82.26728
#
# Poissons Ratio (x) = 0.39982 -0.02358
# Poissons Ratio (y) = 0.30502 0.32704
# Poissons Ratio (z) = -0.01555 0.28282
#
# Static dielectric constant tensor:
#      x y z
#    x 3.959170 0.000000 0.000000 
#    y 0.000000 3.582380 0.000000 
#    z 0.000000 0.000000 4.341100 
# 
# 
# High freq. dielectric constant tensor:
#      x y z
#    x 1.825820 0.000000 0.000000 
#    y 0.000000 1.809080 0.000000 
#    z 0.000000 0.000000 1.827860 
# 
# From -- ./inp_files/11910.got.cif
#   From: 2010.03.12/outbox.cif.g09.slc.cpg/sg54_6_cif.got.tgz:11910.got - 2010.04.16 15:00:50.
