data_PCOD8222314
_publ_section_title
;
Structure prediction by ZEFSAII (Michael W. Deem and Ramdas Pophale) SiO2 
 PCOD8222314
Probable space group: P C C A
;
_chemical_formula_sum "Si O2"
_cell_formula_units_Z 64
_cell_length_a 18.553346
_cell_length_b 34.293807
_cell_length_c 5.254469
_cell_angle_alpha 90.000000
_cell_angle_beta 90.000000
_cell_angle_gamma 90.000000
_cell_volume 3343.234019
_symmetry_space_group_name_H-M "P C C A"
_symmetry_group_IT_number 54
_symmetry_cell_setting 'orthorhombic'
loop_
_space_group_symop_operation_xyz
x,y,z
1/2-x,-y,z
1/2+x,-y,1/2-z
-x,y,1/2-z
-x,-y,-z
1/2+x,y,-z
1/2-x,y,1/2+z
x,-y,1/2+z
loop_
_atom_site_type_symbol
_atom_site_label
_atom_site_fract_x
_atom_site_fract_y
_atom_site_fract_z
Si Si1 0.670303 0.178631 0.785987
Si Si2 0.297121 0.698726 0.737329
Si Si3 0.082937 0.024746 0.258785
Si Si4 0.702876 0.089157 0.761013
Si Si5 0.330024 0.787901 0.714116
Si Si6 0.280199 0.456263 0.749289
Si Si7 0.417778 0.365574 0.249761
Si Si8 0.080794 0.415914 0.249785
O O1 0.672096 0.132591 0.753430
O O2 0.749902 0.195729 0.827725
O O3 0.629810 0.198999 0.546848
O O4 0.629886 0.191402 0.047062
O O5 0.254382 0.691128 0.477062
O O6 0.329530 0.741841 0.747994
O O7 0.365679 0.671035 0.750843
O O8 0.133210 0.062136 0.239339
O O9 0.000000 0.038758 0.250000
O O10 0.100153 0.003529 0.523656
O O11 0.751333 0.080965 0.514155
O O12 0.250000 0.500000 0.748864
O O13 0.250084 0.434293 0.499161
O O14 0.366863 0.453697 0.749672
O O15 0.500000 0.350256 0.250000
O O16 0.403001 0.390762 0.500677
O O17 0.402996 0.390784 0.998981
O O18 0.000000 0.432556 0.250000
#
# Coordination Sequence:
#
# PCOD8222314 Si02
#       8
#     8   8   8   8   8   8   8   8
#     4  10  16  30  48  76 107 141 170 220 272 316
#     4  12  21  32  55  86 106 142 194 232 264 325
#     4  10  23  42  57  74 110 152 177 212 278 340
#     4  12  21  32  58  88 106 136 183 234 272 308
#     4  10  16  30  48  73 107 143 169 217 271 330
#     4  10  21  37  58  87 117 144 178 233 285 312
#     4  10  23  39  55  80 116 151 187 230 277 322
#     4  10  21  40  60  78 110 158 189 216 273 343
#
# _framework density 19.143141
#
# number of rings (size 3 to 8) (size 9 to 14) (size 15 to 20)
#    0.000    1.500    5.000    2.250    0.000    4.500 
#    0.000    2.500    0.000    1.500    0.000    0.000 
#    0.000    0.000    0.000    0.000    0.000    0.000 
#
# Total GULP energy -793286.985235 kJ/mol
# GULP energy per Si atom -12395.109144 kJ/mol
# Density = 1.909957 g / cm^3
# Si number density = 19.143141 Si / 1000 Ang^3
#
#
#
# Elastic Constant Matrix: (Units=GPa)
#
#
# Indices 1 2 3 4 5 6 
#
# 1 103.4537 73.2148 37.1195 0.0000 0.0000 0.0000
# 2 73.2148 99.9789 20.6910 0.0000 0.0000 0.0000
# 3 37.1195 20.6910 167.9359 0.0000 0.0000 0.0000
# 4 0.0000 0.0000 0.0000 11.9768 0.0000 0.0000
# 5 0.0000 0.0000 0.0000 0.0000 33.2609 0.0000
# 6 0.0000 0.0000 0.0000 0.0000 0.0000 12.6082
#
#
#
# Elastic Compliance Matrix: (Units=1/GPa)
#
#
# Indices 1 2 3 4 5 6 
#
# 1 0.021327 -0.015025 -0.002863 0.000000 0.000000 0.000000
# 2 -0.015025 0.020849 0.000752 0.000000 0.000000 0.000000
# 3 -0.002863 0.000752 0.006495 0.000000 0.000000 0.000000
# 4 0.000000 0.000000 0.000000 0.083495 0.000000 0.000000
# 5 0.000000 0.000000 0.000000 0.000000 0.030065 0.000000
# 6 0.000000 0.000000 0.000000 0.000000 0.000000 0.079314
#
#
# Mechanical properties :
#
#
# Convention : Reuss Voigt Hill
#
# Bulk Modulus (GPa) = 69.44631 70.37992 69.91312
# Shear Modulus (GPa) = 17.81796 27.59205 22.70501
#
# Velocity S-wave (km/s) = 3.05417 3.80064 3.44767
# Velocity P-wave (km/s) = 6.98523 7.49031 7.24217
#
# Compressibility (1/GPa) = 0.01439961
#
# Stress axis : x y z
#
# Youngs Moduli (GPa) = 46.88955 47.96299 153.97116
#
# Poissons Ratio (x) = 0.72065 0.44077
# Poissons Ratio (y) = 0.70452 -0.11583
# Poissons Ratio (z) = 0.13423 -0.03608
#
# Static dielectric constant tensor:
#      x y z
#    x 3.203760 0.000000 0.000000 
#    y 0.000000 3.269880 0.000000 
#    z 0.000000 0.000000 6.234490 
# 
# 
# High freq. dielectric constant tensor:
#      x y z
#    x 1.708400 0.000000 0.000000 
#    y 0.000000 1.734060 0.000000 
#    z 0.000000 0.000000 1.787690 
# 
# From -- ./inp_files/1092.got.cif
#   From: 2010.03.12/outbox.cif.g09.slc.cpg/sg54_1_cif.got.tgz:1092.got - 2010.04.16 15:00:50.
