data_PCOD8222594
_publ_section_title
;
Structure prediction by ZEFSAII (Michael W. Deem and Ramdas Pophale) SiO2 
 PCOD8222594
Probable space group: P C C A
;
_chemical_formula_sum "Si O2"
_cell_formula_units_Z 56
_cell_length_a 18.487997
_cell_length_b 9.199995
_cell_length_c 18.411132
_cell_angle_alpha 90.000000
_cell_angle_beta 90.000000
_cell_angle_gamma 90.000000
_cell_volume 3131.539867
_symmetry_space_group_name_H-M "P C C A"
_symmetry_group_IT_number 54
_symmetry_cell_setting 'orthorhombic'
loop_
_space_group_symop_operation_xyz
x,y,z
1/2-x,-y,z
1/2+x,-y,1/2-z
-x,y,1/2-z
-x,-y,-z
1/2+x,y,-z
1/2-x,y,1/2+z
x,-y,1/2+z
loop_
_atom_site_type_symbol
_atom_site_label
_atom_site_fract_x
_atom_site_fract_y
_atom_site_fract_z
Si Si1 0.206218 0.140075 0.579397
Si Si2 0.170918 0.776402 0.475820
Si Si3 0.418755 0.052763 0.985254
Si Si4 0.819374 0.400892 0.816555
Si Si5 0.426376 0.362495 0.929633
Si Si6 0.910346 0.547943 0.934579
Si Si7 0.828780 0.438180 0.657039
O O1 0.248013 0.198420 0.506709
O O2 0.123150 0.102053 0.558648
O O3 0.203551 0.251702 0.645346
O O4 0.250000 0.000000 0.608381
O O5 0.127791 0.696216 0.540227
O O6 0.170460 0.686672 0.402506
O O7 0.129612 0.923352 0.452614
O O8 0.421983 0.187536 0.928933
O O9 0.500000 0.000000 0.000000
O O10 0.750000 0.500000 0.812156
O O11 0.880047 0.489111 0.859473
O O12 0.850234 0.371390 0.735509
O O13 0.506760 0.420340 0.920880
O O14 0.381795 0.428727 0.862785
O O15 0.395319 0.422427 0.005965
O O16 0.750000 0.500000 0.661357
#
# Coordination Sequence:
#
# PCOD8222594 Si02
#       7
#     8   8   8   8   8   8   8
#     4  10  21  35  57  85 112 151 190 239 289 337
#     4  10  20  36  59  84 112 143 191 237 287 341
#     4  11  20  34  57  86 113 144 192 241 281 338
#     4  11  21  37  59  84 114 151 190 236 288 340
#     4  10  20  35  56  85 112 144 189 237 285 334
#     4  10  19  33  60  85 107 143 189 241 280 329
#     4  10  23  37  56  85 114 148 188 233 288 352
#
# _framework density 17.882577000000001
#
# number of rings (size 3 to 8) (size 9 to 14) (size 15 to 20)
#    0.000    1.714    4.286    0.857    2.000    0.571 
#    0.000    5.000    0.000    0.000    0.000    0.000 
#    0.000    0.000    0.000    0.000    0.000    0.000 
#
# Total GULP energy -694296.898586 kJ/mol
# GULP energy per Si atom -12398.158903 kJ/mol
# Density = 1.784188 g / cm^3
# Si number density = 17.882577 Si / 1000 Ang^3
#
#
#
# Elastic Constant Matrix: (Units=GPa)
#
#
# Indices 1 2 3 4 5 6 
#
# 1 94.9499 32.5929 45.8719 0.0000 0.0000 0.0000
# 2 32.5929 129.2751 63.4368 0.0000 0.0000 0.0000
# 3 45.8719 63.4368 129.0391 0.0000 0.0000 0.0000
# 4 0.0000 0.0000 0.0000 7.7776 0.0000 0.0000
# 5 0.0000 0.0000 0.0000 0.0000 39.3890 0.0000
# 6 0.0000 0.0000 0.0000 0.0000 0.0000 27.5675
#
#
#
# Elastic Compliance Matrix: (Units=1/GPa)
#
#
# Indices 1 2 3 4 5 6 
#
# 1 0.012884 -0.001319 -0.003932 0.000000 0.000000 0.000000
# 2 -0.001319 0.010330 -0.004609 0.000000 0.000000 0.000000
# 3 -0.003932 -0.004609 0.011413 0.000000 0.000000 0.000000
# 4 0.000000 0.000000 0.000000 0.128574 0.000000 0.000000
# 5 0.000000 0.000000 0.000000 0.000000 0.025388 0.000000
# 6 0.000000 0.000000 0.000000 0.000000 0.000000 0.036275
#
#
# Mechanical properties :
#
#
# Convention : Reuss Voigt Hill
#
# Bulk Modulus (GPa) = 67.08224 70.78525 68.93374
# Shear Modulus (GPa) = 20.03581 29.03767 24.53674
#
# Velocity S-wave (km/s) = 3.35088 4.03401 3.70821
# Velocity P-wave (km/s) = 7.25019 7.83370 7.54759
#
# Compressibility (1/GPa) = 0.01490708
#
# Stress axis : x y z
#
# Youngs Moduli (GPa) = 77.61497 96.80682 87.61734
#
# Poissons Ratio (x) = 0.12769 0.34449
# Poissons Ratio (y) = 0.10237 0.40386
# Poissons Ratio (z) = 0.30516 0.44622
#
# Static dielectric constant tensor:
#      x y z
#    x 3.416270 0.000000 0.000000 
#    y 0.000000 3.462810 0.000000 
#    z 0.000000 0.000000 3.523660 
# 
# 
# High freq. dielectric constant tensor:
#      x y z
#    x 1.705960 0.000000 0.000000 
#    y 0.000000 1.705040 0.000000 
#    z 0.000000 0.000000 1.660650 
# 
# From -- ./inp_files/21884.got.cif
#   From: 2010.03.12/outbox.cif.g09.slc.cpg/sg54_11_cif.got.tgz:21884.got - 2010.04.16 15:00:50.
