data_PCOD8222222
_publ_section_title
;
Structure prediction by ZEFSAII (Michael W. Deem and Ramdas Pophale) SiO2 
 PCOD8222222
Probable space group: P M N A
;
_chemical_formula_sum "Si O2"
_cell_formula_units_Z 40
_cell_length_a 8.991371
_cell_length_b 13.857433
_cell_length_c 17.762391
_cell_angle_alpha 90.000000
_cell_angle_beta 90.000000
_cell_angle_gamma 90.000000
_cell_volume 2213.146337
_symmetry_space_group_name_H-M "P M N A"
_symmetry_group_IT_number 53
_symmetry_cell_setting 'orthorhombic'
loop_
_space_group_symop_operation_xyz
x,y,z
1/2-x,-y,1/2+z
x,-y,-z
1/2-x,y,1/2-z
-x,-y,-z
1/2+x,y,1/2-z
-x,y,z
1/2+x,-y,1/2+z
loop_
_atom_site_type_symbol
_atom_site_label
_atom_site_fract_x
_atom_site_fract_y
_atom_site_fract_z
Si Si1 0.322731 0.603895 0.976978
Si Si2 0.824657 0.073958 0.830769
Si Si3 0.327487 0.793851 0.057406
Si Si4 0.827018 0.697080 0.673524
Si Si5 0.670176 0.103552 0.098930
O O1 0.500000 0.602729 0.974402
O O2 0.273280 0.685648 0.036730
O O3 0.256597 0.500000 0.000000
O O4 0.262561 0.631231 0.894125
O O5 0.750000 0.065071 0.750000
O O6 0.769752 0.170910 0.872246
O O7 0.000000 0.077402 0.820433
O O8 0.780432 0.982740 0.881663
O O9 0.500000 0.794261 0.080764
O O10 0.301733 0.864057 0.986501
O O11 0.750000 0.664894 0.750000
O O12 0.795354 0.808791 0.655478
O O13 0.000000 0.678185 0.683003
O O14 0.500000 0.068475 0.108673
#
# Coordination Sequence:
#
# PCOD8222222 Si02
#       5
#     8   8   8   8   8
#     4   8  15  31  55  77  97 128 168 203 241 295
#     4  12  24  35  49  71 101 136 172 207 246 292
#     4   9  18  34  55  76 100 131 166 205 247 294
#     4   9  17  29  48  75 102 128 159 199 247 293
#     4   9  18  33  52  74 101 132 165 200 244 298
#
# _framework density 18.073816999999998
#
# number of rings (size 3 to 8) (size 9 to 14) (size 15 to 20)
#    0.000    2.600    0.000    5.400    0.000    5.600 
#    0.000    4.000    0.000    4.800    0.000    0.000 
#    0.000    0.000    0.000    0.000    0.000    0.000 
#
# Total GULP energy -495966.290563 kJ/mol
# GULP energy per Si atom -12399.157264 kJ/mol
# Density = 1.803268 g / cm^3
# Si number density = 18.073817 Si / 1000 Ang^3
#
#
#
# Elastic Constant Matrix: (Units=GPa)
#
#
# Indices 1 2 3 4 5 6 
#
# 1 74.5550 39.6349 32.4078 0.0000 0.0000 0.0000
# 2 39.6349 116.5081 42.4216 0.0000 0.0000 0.0000
# 3 32.4078 42.4216 59.8969 0.0000 0.0000 0.0000
# 4 0.0000 0.0000 0.0000 18.3170 0.0000 0.0000
# 5 0.0000 0.0000 0.0000 0.0000 31.4430 0.0000
# 6 0.0000 0.0000 0.0000 0.0000 0.0000 14.1837
#
#
#
# Elastic Compliance Matrix: (Units=1/GPa)
#
#
# Indices 1 2 3 4 5 6 
#
# 1 0.018587 -0.003586 -0.007517 0.000000 0.000000 0.000000
# 2 -0.003586 0.012258 -0.006741 0.000000 0.000000 0.000000
# 3 -0.007517 -0.006741 0.025537 0.000000 0.000000 0.000000
# 4 0.000000 0.000000 0.000000 0.054594 0.000000 0.000000
# 5 0.000000 0.000000 0.000000 0.000000 0.031804 0.000000
# 6 0.000000 0.000000 0.000000 0.000000 0.000000 0.070503
#
#
# Mechanical properties :
#
#
# Convention : Reuss Voigt Hill
#
# Bulk Modulus (GPa) = 48.32499 53.32097 50.82298
# Shear Modulus (GPa) = 19.54139 21.88846 20.71492
#
# Velocity S-wave (km/s) = 3.29173 3.48380 3.38913
# Velocity P-wave (km/s) = 6.42206 6.76375 6.59512
#
# Compressibility (1/GPa) = 0.02069323
#
# Stress axis : x y z
#
# Youngs Moduli (GPa) = 53.80172 81.58258 39.15948
#
# Poissons Ratio (x) = 0.29257 0.29435
# Poissons Ratio (y) = 0.19294 0.26397
# Poissons Ratio (z) = 0.40441 0.54995
#
# Static dielectric constant tensor:
#      x y z
#    x 3.030280 0.000000 0.000000 
#    y 0.000000 3.483900 0.000000 
#    z 0.000000 0.000000 3.477300 
# 
# 
# High freq. dielectric constant tensor:
#      x y z
#    x 1.671000 0.000000 0.000000 
#    y 0.000000 1.692440 0.000000 
#    z 0.000000 0.000000 1.702940 
# 
# From -- ./inp_files/19827.got.cif
#   From: 2010.03.12/outbox.cif.g09.slc.cpg/sg53_10_cif.got.tgz:19827.got - 2010.04.16 14:36:59.
