data_PCOD8222072
_publ_section_title
;
Structure prediction by ZEFSAII (Michael W. Deem and Ramdas Pophale) SiO2 
 PCOD8222072
Probable space group: P M N A
;
_chemical_formula_sum "Si O2"
_cell_formula_units_Z 60
_cell_length_a 16.110793
_cell_length_b 15.447176
_cell_length_c 11.388569
_cell_angle_alpha 90.000000
_cell_angle_beta 90.000000
_cell_angle_gamma 90.000000
_cell_volume 2834.230517
_symmetry_space_group_name_H-M "P M N A"
_symmetry_group_IT_number 53
_symmetry_cell_setting 'orthorhombic'
loop_
_space_group_symop_operation_xyz
x,y,z
1/2-x,-y,1/2+z
x,-y,-z
1/2-x,y,1/2-z
-x,-y,-z
1/2+x,y,1/2-z
-x,y,z
1/2+x,-y,1/2+z
loop_
_atom_site_type_symbol
_atom_site_label
_atom_site_fract_x
_atom_site_fract_y
_atom_site_fract_z
Si Si1 0.156225 0.323878 0.793346
Si Si2 0.250000 0.385218 0.250000
Si Si3 0.406609 0.192910 0.891672
Si Si4 0.341616 0.952631 0.260599
Si Si5 0.096953 0.506235 0.861633
Si Si6 0.410573 0.864717 0.707976
Si Si7 0.190457 0.769407 0.608867
Si Si8 0.843000 0.823013 0.026466
O O1 0.250000 0.340038 0.750000
O O2 0.106969 0.270767 0.697163
O O3 0.105684 0.411417 0.807897
O O4 0.153803 0.272368 0.916597
O O5 0.331713 0.437440 0.295132
O O6 0.278144 0.327199 0.138462
O O7 0.500000 0.161215 0.888172
O O8 0.354747 0.108144 0.853285
O O9 0.386770 0.230220 0.020154
O O10 0.250000 0.991390 0.250000
O O11 0.352164 0.895890 0.376505
O O12 0.403218 0.032918 0.268664
O O13 0.000000 0.538004 0.840909
O O14 0.116549 0.500000 0.000000
O O15 0.500000 0.837375 0.759437
O O16 0.336865 0.811294 0.768118
O O17 0.413554 0.840326 0.570019
O O18 0.257163 0.830181 0.544485
#
# Coordination Sequence:
#
# PCOD8222072 Si02
#       8
#     8   4   8   8   8   8   8   8
#     4  11  21  43  72  99 133 173 219 271 335 405
#     4  12  26  46  74  96 136 184 226 284 348 412
#     4  11  23  40  67 100 133 170 220 276 334 400
#     4  11  22  42  68  92 128 174 224 277 332 398
#     4  11  26  45  71 107 138 173 223 282 344 411
#     4  12  27  40  60  96 136 175 223 281 336 392
#     4  12  23  44  64  92 129 180 223 266 341 404
#     4  11  21  42  69  94 126 174 225 271 323 401
#
# _framework density 21.169768999999999
#
# number of rings (size 3 to 8) (size 9 to 14) (size 15 to 20)
#    0.000    0.667    4.667    4.000    0.000    5.333 
#    0.000    1.333    0.000    2.000    0.000    0.000 
#    0.000    0.000    0.000    0.000    0.000    0.000 
#
# Total GULP energy -743770.396235 kJ/mol
# GULP energy per Si atom -12396.173271 kJ/mol
# Density = 2.112159 g / cm^3
# Si number density = 21.169769 Si / 1000 Ang^3
#
#
#
# Elastic Constant Matrix: (Units=GPa)
#
#
# Indices 1 2 3 4 5 6 
#
# 1 115.7288 33.4555 25.2049 0.0000 0.0000 0.0000
# 2 33.4555 100.6739 31.4857 0.0000 0.0000 0.0000
# 3 25.2049 31.4857 104.4059 0.0000 0.0000 0.0000
# 4 0.0000 0.0000 0.0000 26.4622 0.0000 0.0000
# 5 0.0000 0.0000 0.0000 0.0000 4.5812 0.0000
# 6 0.0000 0.0000 0.0000 0.0000 0.0000 14.3785
#
#
#
# Elastic Compliance Matrix: (Units=1/GPa)
#
#
# Indices 1 2 3 4 5 6 
#
# 1 0.009774 -0.002771 -0.001524 0.000000 0.000000 0.000000
# 2 -0.002771 0.011753 -0.002875 0.000000 0.000000 0.000000
# 3 -0.001524 -0.002875 0.010813 0.000000 0.000000 0.000000
# 4 0.000000 0.000000 0.000000 0.037790 0.000000 0.000000
# 5 0.000000 0.000000 0.000000 0.000000 0.218283 0.000000
# 6 0.000000 0.000000 0.000000 0.000000 0.000000 0.069548
#
#
# Mechanical properties :
#
#
# Convention : Reuss Voigt Hill
#
# Bulk Modulus (GPa) = 55.55856 55.67787 55.61821
# Shear Modulus (GPa) = 13.21693 24.46188 18.83941
#
# Velocity S-wave (km/s) = 2.50137 3.40297 2.98639
# Velocity P-wave (km/s) = 5.88589 6.46514 6.18230
#
# Compressibility (1/GPa) = 0.01799903
#
# Stress axis : x y z
#
# Youngs Moduli (GPa) = 102.31286 85.08219 92.48133
#
# Poissons Ratio (x) = 0.23580 0.14092
# Poissons Ratio (y) = 0.28356 0.26592
# Poissons Ratio (z) = 0.15590 0.24464
#
# Static dielectric constant tensor:
#      x y z
#    x 4.400380 0.000000 0.000000 
#    y 0.000000 3.706600 0.000000 
#    z 0.000000 0.000000 4.114380 
# 
# 
# High freq. dielectric constant tensor:
#      x y z
#    x 1.840690 0.000000 0.000000 
#    y 0.000000 1.820750 0.000000 
#    z 0.000000 0.000000 1.840120 
# 
# From -- ./inp_files/17059.got.cif
#   From: 2010.03.12/outbox.cif.g09.slc.cpg/sg53_9_cif.got.tgz:17059.got - 2010.04.16 14:36:59.
