data_PCOD8222218
_publ_section_title
;
Structure prediction by ZEFSAII (Michael W. Deem and Ramdas Pophale) SiO2 
 PCOD8222218
Probable space group: P M N A
;
_chemical_formula_sum "Si O2"
_cell_formula_units_Z 32
_cell_length_a 8.769937
_cell_length_b 11.730550
_cell_length_c 18.493873
_cell_angle_alpha 90.000000
_cell_angle_beta 90.000000
_cell_angle_gamma 90.000000
_cell_volume 1902.579090
_symmetry_space_group_name_H-M "P M N A"
_symmetry_group_IT_number 53
_symmetry_cell_setting 'orthorhombic'
loop_
_space_group_symop_operation_xyz
x,y,z
1/2-x,-y,1/2+z
x,-y,-z
1/2-x,y,1/2-z
-x,-y,-z
1/2+x,y,1/2-z
-x,y,z
1/2+x,-y,1/2+z
loop_
_atom_site_type_symbol
_atom_site_label
_atom_site_fract_x
_atom_site_fract_y
_atom_site_fract_z
Si Si1 0.672086 0.170944 0.064358
Si Si2 0.327562 0.195788 0.905109
Si Si3 0.679433 0.997342 0.674623
Si Si4 0.680359 0.630040 0.495578
O O1 0.500000 0.173831 0.095558
O O2 0.777323 0.092857 0.113459
O O3 0.671750 0.125097 0.981194
O O4 0.742712 0.299511 0.062016
O O5 0.500000 0.220444 0.879287
O O6 0.239306 0.315660 0.919276
O O7 0.243167 0.122344 0.844468
O O8 0.750000 0.956093 0.750000
O O9 0.500000 0.004552 0.681666
O O10 0.734960 0.500000 0.500000
O O11 0.500000 0.641372 0.500846
#
# Coordination Sequence:
#
# PCOD8222218 Si02
#       4
#     8   8   8   8
#     4   9  19  33  52  75 103 132 167 207 248 296
#     4   9  19  33  52  75 103 132 167 207 248 296
#     4  12  23  34  51  73 104 136 168 205 251 302
#     4   9  17  30  51  78 103 129 167 209 248 291
#
# _framework density 16.819272999999999
#
# number of rings (size 3 to 8) (size 9 to 14) (size 15 to 20)
#    1.500    0.750    0.000    4.500    0.000    5.000 
#    0.000    0.000    0.000    1.500    0.000    0.000 
#    0.000    0.000    0.000    0.000    0.000    0.000 
#
# Total GULP energy -396507.177325 kJ/mol
# GULP energy per Si atom -12390.849291 kJ/mol
# Density = 1.678099 g / cm^3
# Si number density = 16.819273 Si / 1000 Ang^3
#
#
#
# Elastic Constant Matrix: (Units=GPa)
#
#
# Indices 1 2 3 4 5 6 
#
# 1 119.8427 26.8138 20.6379 0.0000 0.0000 0.0000
# 2 26.8138 73.9558 8.2131 0.0000 0.0000 0.0000
# 3 20.6379 8.2131 40.9301 0.0000 0.0000 0.0000
# 4 0.0000 0.0000 0.0000 8.2763 0.0000 0.0000
# 5 0.0000 0.0000 0.0000 0.0000 25.4318 0.0000
# 6 0.0000 0.0000 0.0000 0.0000 0.0000 25.8134
#
#
#
# Elastic Compliance Matrix: (Units=1/GPa)
#
#
# Indices 1 2 3 4 5 6 
#
# 1 0.009773 -0.003064 -0.004313 0.000000 0.000000 0.000000
# 2 -0.003064 0.014791 -0.001423 0.000000 0.000000 0.000000
# 3 -0.004313 -0.001423 0.026892 0.000000 0.000000 0.000000
# 4 0.000000 0.000000 0.000000 0.120826 0.000000 0.000000
# 5 0.000000 0.000000 0.000000 0.000000 0.039321 0.000000
# 6 0.000000 0.000000 0.000000 0.000000 0.000000 0.038740
#
#
# Mechanical properties :
#
#
# Convention : Reuss Voigt Hill
#
# Bulk Modulus (GPa) = 29.53723 38.45091 33.99407
# Shear Modulus (GPa) = 17.90659 23.84187 20.87423
#
# Velocity S-wave (km/s) = 3.26643 3.76910 3.52673
# Velocity P-wave (km/s) = 5.64143 6.46934 6.06952
#
# Compressibility (1/GPa) = 0.03385558
#
# Stress axis : x y z
#
# Youngs Moduli (GPa) = 102.32740 67.61053 37.18583
#
# Poissons Ratio (x) = 0.20718 0.16037
# Poissons Ratio (y) = 0.31356 0.05291
# Poissons Ratio (z) = 0.44130 0.09620
#
# Static dielectric constant tensor:
#      x y z
#    x 3.200130 0.000000 0.000000 
#    y 0.000000 3.033510 0.000000 
#    z 0.000000 0.000000 2.876440 
# 
# 
# High freq. dielectric constant tensor:
#      x y z
#    x 1.669880 0.000000 0.000000 
#    y 0.000000 1.633790 0.000000 
#    z 0.000000 0.000000 1.611140 
# 
# From -- ./inp_files/19614.got.cif
#   From: 2010.03.12/outbox.cif.g09.slc.cpg/sg53_10_cif.got.tgz:19614.got - 2010.04.16 14:36:59.
