data_PCOD8222406
_publ_section_title
;
Structure prediction by ZEFSAII (Michael W. Deem and Ramdas Pophale) SiO2 
 PCOD8222406
Probable space group: P C C A
;
_chemical_formula_sum "Si O2"
_cell_formula_units_Z 52
_cell_length_a 15.536435
_cell_length_b 9.088602
_cell_length_c 19.122204
_cell_angle_alpha 90.000000
_cell_angle_beta 90.000000
_cell_angle_gamma 90.000000
_cell_volume 2700.140762
_symmetry_space_group_name_H-M "P C C A"
_symmetry_group_IT_number 54
_symmetry_cell_setting 'orthorhombic'
loop_
_space_group_symop_operation_xyz
x,y,z
1/2-x,-y,z
1/2+x,-y,1/2-z
-x,y,1/2-z
-x,-y,-z
1/2+x,y,-z
1/2-x,y,1/2+z
x,-y,1/2+z
loop_
_atom_site_type_symbol
_atom_site_label
_atom_site_fract_x
_atom_site_fract_y
_atom_site_fract_z
Si Si1 0.500000 0.461740 0.250000
Si Si2 0.387289 0.323676 0.425818
Si Si3 0.826842 0.610027 0.927893
Si Si4 0.432365 0.658245 0.614095
Si Si5 0.840169 0.570177 0.673049
Si Si6 0.227623 0.167484 0.657003
Si Si7 0.732272 0.165969 0.178931
O O1 0.526180 0.349125 0.309807
O O2 0.417097 0.560966 0.270539
O O3 0.344771 0.299769 0.501143
O O4 0.489243 0.291787 0.436015
O O5 0.369179 0.491091 0.398967
O O6 0.348570 0.215642 0.367308
O O7 0.750000 0.500000 0.942818
O O8 0.906700 0.508741 0.905850
O O9 0.806444 0.727480 0.866602
O O10 0.356013 0.778252 0.613302
O O11 0.750000 0.500000 0.702585
O O12 0.818105 0.741078 0.658857
O O13 0.210355 0.186105 0.739211
O O14 0.250000 0.000000 0.637268
O O15 0.750000 0.000000 0.158928
#
# Coordination Sequence:
#
# PCOD8222406 Si02
#       7
#     4   8   8   8   8   8   8
#     4  10  18  30  56  84 102 134 182 232 272 314
#     4  10  20  35  56  81 107 136 179 229 274 321
#     4  10  20  35  56  79 106 142 179 220 272 328
#     4  10  19  33  55  80 106 137 181 229 273 319
#     4   9  17  31  52  76 103 133 173 221 268 317
#     4  10  21  36  53  76 109 146 180 217 267 327
#     4  10  20  35  54  77 108 145 181 218 268 329
#
# _framework density 19.258254000000001
#
# number of rings (size 3 to 8) (size 9 to 14) (size 15 to 20)
#    0.000    2.154    0.000    5.538    0.000    4.308 
#    0.000    6.923    0.000    0.923    0.000    0.000 
#    0.000    0.000    0.000    0.000    0.000    0.000 
#
# Total GULP energy -644578.288926 kJ/mol
# GULP energy per Si atom -12395.736326 kJ/mol
# Density = 1.921442 g / cm^3
# Si number density = 19.258254 Si / 1000 Ang^3
#
#
#
# Elastic Constant Matrix: (Units=GPa)
#
#
# Indices 1 2 3 4 5 6 
#
# 1 106.7587 44.1065 23.9678 0.0000 0.0000 0.0000
# 2 44.1065 125.6350 32.8324 0.0000 0.0000 0.0000
# 3 23.9678 32.8324 80.3247 0.0000 0.0000 0.0000
# 4 0.0000 0.0000 0.0000 20.1926 0.0000 0.0000
# 5 0.0000 0.0000 0.0000 0.0000 23.0676 0.0000
# 6 0.0000 0.0000 0.0000 0.0000 0.0000 16.0639
#
#
#
# Elastic Compliance Matrix: (Units=1/GPa)
#
#
# Indices 1 2 3 4 5 6 
#
# 1 0.011221 -0.003431 -0.001946 0.000000 0.000000 0.000000
# 2 -0.003431 0.009960 -0.003048 0.000000 0.000000 0.000000
# 3 -0.001946 -0.003048 0.014276 0.000000 0.000000 0.000000
# 4 0.000000 0.000000 0.000000 0.049523 0.000000 0.000000
# 5 0.000000 0.000000 0.000000 0.000000 0.043351 0.000000
# 6 0.000000 0.000000 0.000000 0.000000 0.000000 0.062251
#
#
# Mechanical properties :
#
#
# Convention : Reuss Voigt Hill
#
# Bulk Modulus (GPa) = 53.73815 57.17020 55.45418
# Shear Modulus (GPa) = 23.40449 25.98561 24.69505
#
# Velocity S-wave (km/s) = 3.48989 3.67730 3.58482
# Velocity P-wave (km/s) = 6.64858 6.91235 6.78175
#
# Compressibility (1/GPa) = 0.01860875
#
# Stress axis : x y z
#
# Youngs Moduli (GPa) = 89.11680 100.39691 70.04873
#
# Poissons Ratio (x) = 0.34445 0.13631
# Poissons Ratio (y) = 0.30575 0.21348
# Poissons Ratio (z) = 0.17341 0.30597
#
# Static dielectric constant tensor:
#      x y z
#    x 3.833190 0.000000 0.000000 
#    y 0.000000 3.503430 0.000000 
#    z 0.000000 0.000000 3.407580 
# 
# 
# High freq. dielectric constant tensor:
#      x y z
#    x 1.755720 0.000000 0.000000 
#    y 0.000000 1.722750 0.000000 
#    z 0.000000 0.000000 1.742580 
# 
# From -- ./inp_files/18598.got.cif
#   From: 2010.03.12/outbox.cif.g09.slc.cpg/sg54_10_cif.got.tgz:18598.got - 2010.04.16 15:00:50.
