data_PCOD8222041
_publ_section_title
;
Structure prediction by ZEFSAII (Michael W. Deem and Ramdas Pophale) SiO2 
 PCOD8222041
Probable space group: P M N A
;
_chemical_formula_sum "Si O2"
_cell_formula_units_Z 48
_cell_length_a 17.040452
_cell_length_b 27.737974
_cell_length_c 5.120420
_cell_angle_alpha 90.000000
_cell_angle_beta 90.000000
_cell_angle_gamma 90.000000
_cell_volume 2420.256707
_symmetry_space_group_name_H-M "P M N A"
_symmetry_group_IT_number 53
_symmetry_cell_setting 'orthorhombic'
loop_
_space_group_symop_operation_xyz
x,y,z
1/2-x,-y,1/2+z
x,-y,-z
1/2-x,y,1/2-z
-x,-y,-z
1/2+x,y,1/2-z
-x,y,z
1/2+x,-y,1/2+z
loop_
_atom_site_type_symbol
_atom_site_label
_atom_site_fract_x
_atom_site_fract_y
_atom_site_fract_z
Si Si1 0.093701 0.863741 0.168458
Si Si2 0.695954 0.448279 0.503877
Si Si3 0.341330 0.650008 0.313216
Si Si4 0.407941 0.698100 0.808036
Si Si5 0.093229 0.971265 0.250880
Si Si6 0.093066 0.807560 0.666117
O O1 0.127284 0.917458 0.214497
O O2 0.125083 0.832735 0.408415
O O3 0.000000 0.865516 0.154101
O O4 0.127895 0.837414 0.911181
O O5 0.649655 0.500000 0.500000
O O6 0.750000 0.436615 0.250000
O O7 0.638171 0.403583 0.572296
O O8 0.750000 0.455713 0.750000
O O9 0.250000 0.653680 0.250000
O O10 0.362994 0.685907 0.543276
O O11 0.388403 0.662888 0.050215
O O12 0.500000 0.694749 0.753491
O O13 0.379284 0.752442 0.858520
O O14 0.000000 0.968654 0.276956
O O15 0.128038 0.000000 0.500000
O O16 0.121120 0.000000 0.000000
O O17 0.000000 0.809428 0.682846
#
# Coordination Sequence:
#
# PCOD8222041 Si02
#       6
#     8   8   8   8   8   8
#     4   9  15  24  37  53  77 111 157 205 240 285
#     4   9  17  31  53  80 106 134 173 219 260 307
#     4  11  21  36  57  82 108 137 177 221 266 314
#     4  11  22  36  54  77 108 143 180 221 265 313
#     4   9  15  21  30  47  72 104 145 194 244 289
#     4   9  17  28  42  60  83 119 165 205 240 289
#
# _framework density 19.832606999999999
#
# number of rings (size 3 to 8) (size 9 to 14) (size 15 to 20)
#    0.000    2.333    0.000    5.000    0.000    6.667 
#    0.000    0.000    0.000    3.000    0.000    0.000 
#    0.000    0.000    0.000    0.000    0.000  210.000 
#
# Total GULP energy -594757.978808 kJ/mol
# GULP energy per Si atom -12390.791225 kJ/mol
# Density = 1.978747 g / cm^3
# Si number density = 19.832607 Si / 1000 Ang^3
#
#
#
# Elastic Constant Matrix: (Units=GPa)
#
#
# Indices 1 2 3 4 5 6 
#
# 1 18.4542 35.2469 17.7303 0.0000 0.0000 0.0000
# 2 35.2469 141.6992 44.7588 0.0000 0.0000 0.0000
# 3 17.7303 44.7588 141.8744 0.0000 0.0000 0.0000
# 4 0.0000 0.0000 0.0000 42.7141 0.0000 0.0000
# 5 0.0000 0.0000 0.0000 0.0000 16.8428 0.0000
# 6 0.0000 0.0000 0.0000 0.0000 0.0000 100.4186
#
#
#
# Elastic Compliance Matrix: (Units=1/GPa)
#
#
# Indices 1 2 3 4 5 6 
#
# 1 0.106998 -0.024870 -0.005526 0.000000 0.000000 0.000000
# 2 -0.024870 0.013619 -0.001188 0.000000 0.000000 0.000000
# 3 -0.005526 -0.001188 0.008114 0.000000 0.000000 0.000000
# 4 0.000000 0.000000 0.000000 0.023411 0.000000 0.000000
# 5 0.000000 0.000000 0.000000 0.000000 0.059373 0.000000
# 6 0.000000 0.000000 0.000000 0.000000 0.000000 0.009958
#
#
# Mechanical properties :
#
#
# Convention : Reuss Voigt Hill
#
# Bulk Modulus (GPa) = 15.25259 55.27775 35.26517
# Shear Modulus (GPa) = 16.31349 45.61456 30.96402
#
# Velocity S-wave (km/s) = 2.87114 4.80101 3.95558
# Velocity P-wave (km/s) = 4.32419 7.65935 6.21949
#
# Compressibility (1/GPa) = 0.06556264
#
# Stress axis : x y z
#
# Youngs Moduli (GPa) = 9.34600 73.42787 123.24392
#
# Poissons Ratio (x) = 1.82613 0.68102
# Poissons Ratio (y) = 0.23243 0.14647
# Poissons Ratio (z) = 0.05164 0.08727
#
# Static dielectric constant tensor:
#      x y z
#    x 2.912700 0.000000 0.000000 
#    y 0.000000 4.354290 0.000000 
#    z 0.000000 0.000000 3.985820 
# 
# 
# High freq. dielectric constant tensor:
#      x y z
#    x 1.689730 0.000000 0.000000 
#    y 0.000000 1.799390 0.000000 
#    z 0.000000 0.000000 1.798740 
# 
# From -- ./inp_files/2231.got.cif
#   From: 2010.03.12/outbox.cif.g09.slc.cpg/sg53_2_cif.got.tgz:2231.got - 2010.04.16 14:36:59.
