data_PCOD8222052
_publ_section_title
;
Structure prediction by ZEFSAII (Michael W. Deem and Ramdas Pophale) SiO2 
 PCOD8222052
Probable space group: P M N A
;
_chemical_formula_sum "Si O2"
_cell_formula_units_Z 36
_cell_length_a 14.001146
_cell_length_b 9.213082
_cell_length_c 14.522966
_cell_angle_alpha 90.000000
_cell_angle_beta 90.000000
_cell_angle_gamma 90.000000
_cell_volume 1873.371209
_symmetry_space_group_name_H-M "P M N A"
_symmetry_group_IT_number 53
_symmetry_cell_setting 'orthorhombic'
loop_
_space_group_symop_operation_xyz
x,y,z
1/2-x,-y,1/2+z
x,-y,-z
1/2-x,y,1/2-z
-x,-y,-z
1/2+x,y,1/2-z
-x,y,z
1/2+x,-y,1/2+z
loop_
_atom_site_type_symbol
_atom_site_label
_atom_site_fract_x
_atom_site_fract_y
_atom_site_fract_z
Si Si1 0.000000 0.441562 0.893599
Si Si2 0.291214 0.658048 0.352502
Si Si3 0.500000 0.435924 0.205743
Si Si4 0.500000 0.351338 0.942419
Si Si5 0.184541 0.168347 0.510614
Si Si6 0.295438 0.643684 0.847040
O O1 0.094460 0.349626 0.867085
O O2 0.000000 0.571101 0.817580
O O3 0.000000 0.500000 0.000000
O O4 0.250000 0.677004 0.250000
O O5 0.260056 0.799808 0.408801
O O6 0.243951 0.507918 0.389208
O O7 0.500000 0.602252 0.165962
O O8 0.408938 0.354581 0.165253
O O9 0.409904 0.254571 0.964658
O O10 0.500000 0.500000 0.000000
O O11 0.231038 0.227989 0.416577
O O12 0.162796 0.000000 0.500000
O O13 0.250000 0.680984 0.750000
#
# Coordination Sequence:
#
# PCOD8222052 Si02
#       6
#     4   8   4   4   8   8
#     4  12  22  36  63  99 124 154 214 272 322 371
#     4  11  22  40  65  90 124 164 221 271 319 369
#     4  12  20  36  62  99 115 152 200 278 316 365
#     4  12  19  38  67  90 125 151 216 267 316 366
#     4  12  24  38  59  93 131 170 203 257 331 395
#     4  11  21  37  62  90 121 157 213 262 318 363
#
# _framework density 19.216692999999999
#
# number of rings (size 3 to 8) (size 9 to 14) (size 15 to 20)
#    0.000    0.444    8.889    2.333    0.000    0.889 
#    0.000    0.556    0.000    2.667    0.000    0.000 
#    0.000    0.000    0.000    0.000    0.000    0.000 
#
# Total GULP energy -446152.658033 kJ/mol
# GULP energy per Si atom -12393.129390 kJ/mol
# Density = 1.917295 g / cm^3
# Si number density = 19.216693 Si / 1000 Ang^3
#
#
#
# Elastic Constant Matrix: (Units=GPa)
#
#
# Indices 1 2 3 4 5 6 
#
# 1 149.9251 35.2596 39.4941 0.0000 0.0000 0.0000
# 2 35.2596 114.2157 56.5583 0.0000 0.0000 0.0000
# 3 39.4941 56.5583 132.3772 0.0000 0.0000 0.0000
# 4 0.0000 0.0000 0.0000 18.5917 0.0000 0.0000
# 5 0.0000 0.0000 0.0000 0.0000 -4.7367 0.0000
# 6 0.0000 0.0000 0.0000 0.0000 0.0000 -290.8683
#
#
#
# Elastic Compliance Matrix: (Units=1/GPa)
#
#
# Indices 1 2 3 4 5 6 
#
# 1 0.007441 -0.001519 -0.001571 0.000000 0.000000 0.000000
# 2 -0.001519 0.011415 -0.004424 0.000000 0.000000 0.000000
# 3 -0.001571 -0.004424 0.009913 0.000000 0.000000 0.000000
# 4 0.000000 0.000000 0.000000 0.053787 0.000000 0.000000
# 5 0.000000 0.000000 0.000000 0.000000 -0.211120 0.000000
# 6 0.000000 0.000000 0.000000 0.000000 0.000000 -0.003438
#
#
# Mechanical properties :
#
#
# Convention : Reuss Voigt Hill
#
# Bulk Modulus (GPa) = 72.77450 73.23801 73.00626
# Shear Modulus (GPa) = -44.48681 -37.72225 -41.10453
#
# Velocity S-wave (km/s) = -4.81667 -4.43537 -4.62995
# Velocity P-wave (km/s) = 2.64932 3.45895 3.08085
#
# Compressibility (1/GPa) = 0.01374108
#
# Stress axis : x y z
#
# Youngs Moduli (GPa) = 134.38847 87.60416 100.87850
#
# Poissons Ratio (x) = 0.13309 0.15847
# Poissons Ratio (y) = 0.20417 0.44627
# Poissons Ratio (z) = 0.21111 0.38754
#
# Static dielectric constant tensor:
#      x y z
#    x 3.777830 0.000000 0.000000 
#    y 0.000000 3.203430 0.000000 
#    z 0.000000 0.000000 4.094670 
# 
# 
# High freq. dielectric constant tensor:
#      x y z
#    x 1.765770 0.000000 0.000000 
#    y 0.000000 1.693480 0.000000 
#    z 0.000000 0.000000 1.771070 
# 
# From -- ./inp_files/22346.got.cif
#   From: 2010.03.12/outbox.cif.g09.slc.cpg/sg53_12_cif.got.tgz:22346.got - 2010.04.16 14:36:59.
