data_PCOD8222281
_publ_section_title
;
Structure prediction by ZEFSAII (Michael W. Deem and Ramdas Pophale) SiO2 
 PCOD8222281
Probable space group: P C C A
;
_chemical_formula_sum "Si O2"
_cell_formula_units_Z 56
_cell_length_a 12.129210
_cell_length_b 32.882681
_cell_length_c 5.398329
_cell_angle_alpha 90.000000
_cell_angle_beta 90.000000
_cell_angle_gamma 90.000000
_cell_volume 2153.074630
_symmetry_space_group_name_H-M "P C C A"
_symmetry_group_IT_number 54
_symmetry_cell_setting 'orthorhombic'
loop_
_space_group_symop_operation_xyz
x,y,z
1/2-x,-y,z
1/2+x,-y,1/2-z
-x,y,1/2-z
-x,-y,-z
1/2+x,y,-z
1/2-x,y,1/2+z
x,-y,1/2+z
loop_
_atom_site_type_symbol
_atom_site_label
_atom_site_fract_x
_atom_site_fract_y
_atom_site_fract_z
Si Si1 0.318539 0.307996 0.948572
Si Si2 0.378191 0.889650 0.107422
Si Si3 0.126174 0.983641 0.607478
Si Si4 0.682924 0.396328 0.523058
Si Si5 0.624021 0.516433 0.109927
Si Si6 0.634931 0.857302 0.891268
Si Si7 0.937613 0.774177 0.506618
O O1 0.259004 0.304159 0.211164
O O2 0.378731 0.352533 0.944402
O O3 0.399518 0.270664 0.922639
O O4 0.378291 0.936638 0.034760
O O5 0.431328 0.881409 0.384380
O O6 0.253009 0.876366 0.169208
O O7 0.427447 0.862753 0.876923
O O8 0.250000 0.000000 0.655112
O O9 0.069670 0.008990 0.379422
O O10 0.772829 0.398830 0.742348
O O11 0.607251 0.435722 0.556278
O O12 0.750000 0.500000 0.140847
O O13 0.568343 0.508081 0.379583
O O14 0.652371 0.809626 0.959065
O O15 0.000000 0.769805 0.250000
O O16 0.000000 0.790169 0.750000
#
# Coordination Sequence:
#
# PCOD8222281 Si02
#       7
#     8   8   8   8   8   8   8
#     4  10  23  38  62  85 114 149 195 243 291 344
#     4  10  19  32  52  85 114 142 184 232 279 328
#     4  10  16  25  43  72 118 148 168 212 280 327
#     4  10  16  27  42  71 103 142 177 221 270 338
#     4  10  14  20  36  60 102 146 163 202 276 337
#     4  10  20  33  54  75 109 142 181 227 286 330
#     4  12  26  43  61  84 116 151 197 242 293 354
#
# _framework density 26.009315999999998
#
# number of rings (size 3 to 8) (size 9 to 14) (size 15 to 20)
#    0.000    1.714    2.857    6.000    4.000    0.000 
#    0.000    0.000    0.000    0.000    0.000    0.000 
#    0.000  142.857    0.000    0.000    0.000    0.000 
#
# Total GULP energy -694117.263476 kJ/mol
# GULP energy per Si atom -12394.951133 kJ/mol
# Density = 2.595012 g / cm^3
# Si number density = 26.009316 Si / 1000 Ang^3
#
#
#
# Elastic Constant Matrix: (Units=GPa)
#
#
# Indices 1 2 3 4 5 6 
#
# 1 45.1314 18.4366 47.9157 0.0000 0.0000 0.0000
# 2 18.4366 229.2775 43.4707 0.0000 0.0000 0.0000
# 3 47.9157 43.4707 237.9401 0.0000 0.0000 0.0000
# 4 0.0000 0.0000 0.0000 48.9517 0.0000 0.0000
# 5 0.0000 0.0000 0.0000 0.0000 28.5218 0.0000
# 6 0.0000 0.0000 0.0000 0.0000 0.0000 27.9520
#
#
#
# Elastic Compliance Matrix: (Units=1/GPa)
#
#
# Indices 1 2 3 4 5 6 
#
# 1 0.028524 -0.001248 -0.005516 0.000000 0.000000 0.000000
# 2 -0.001248 0.004573 -0.000584 0.000000 0.000000 0.000000
# 3 -0.005516 -0.000584 0.005420 0.000000 0.000000 0.000000
# 4 0.000000 0.000000 0.000000 0.020428 0.000000 0.000000
# 5 0.000000 0.000000 0.000000 0.000000 0.035061 0.000000
# 6 0.000000 0.000000 0.000000 0.000000 0.000000 0.035776
#
#
# Mechanical properties :
#
#
# Convention : Reuss Voigt Hill
#
# Bulk Modulus (GPa) = 41.98050 81.33280 61.65665
# Shear Modulus (GPa) = 32.80466 47.92018 40.36242
#
# Velocity S-wave (km/s) = 3.55528 4.29700 3.94362
# Velocity P-wave (km/s) = 5.74708 7.48047 6.67033
#
# Compressibility (1/GPa) = 0.02382058
#
# Stress axis : x y z
#
# Youngs Moduli (GPa) = 35.05864 218.69335 184.49301
#
# Poissons Ratio (x) = 0.27289 1.01767
# Poissons Ratio (y) = 0.04375 0.10777
# Poissons Ratio (z) = 0.19338 0.12774
#
# Static dielectric constant tensor:
#      x y z
#    x 4.689130 0.000000 0.000000 
#    y 0.000000 5.026210 0.000000 
#    z 0.000000 0.000000 5.797290 
# 
# 
# High freq. dielectric constant tensor:
#      x y z
#    x 2.043390 0.000000 0.000000 
#    y 0.000000 2.046100 0.000000 
#    z 0.000000 0.000000 2.107630 
# 
# From -- ./inp_files/709.got.cif
#   From: 2010.03.12/outbox.cif.g09.slc.cpg/sg54_1_cif.got.tgz:709.got - 2010.04.16 15:00:50.
