data_PCOD8222569
_publ_section_title
;
Structure prediction by ZEFSAII (Michael W. Deem and Ramdas Pophale) SiO2 
 PCOD8222569
Probable space group: P C C A
;
_chemical_formula_sum "Si O2"
_cell_formula_units_Z 32
_cell_length_a 5.107069
_cell_length_b 18.024810
_cell_length_c 17.397002
_cell_angle_alpha 90.000000
_cell_angle_beta 90.000000
_cell_angle_gamma 90.000000
_cell_volume 1601.462724
_symmetry_space_group_name_H-M "P C C A"
_symmetry_group_IT_number 54
_symmetry_cell_setting 'orthorhombic'
loop_
_space_group_symop_operation_xyz
x,y,z
1/2-x,-y,z
1/2+x,-y,1/2-z
-x,y,1/2-z
-x,-y,-z
1/2+x,y,-z
1/2-x,y,1/2+z
x,-y,1/2+z
loop_
_atom_site_type_symbol
_atom_site_label
_atom_site_fract_x
_atom_site_fract_y
_atom_site_fract_z
Si Si1 0.997710 0.956012 0.841748
Si Si2 0.280785 0.413129 0.454538
Si Si3 0.490761 0.700598 0.840753
Si Si4 0.502984 0.789722 0.341201
O O1 0.974447 0.872642 0.875089
O O2 0.000000 0.953513 0.750000
O O3 0.750000 0.000000 0.873654
O O4 0.250000 0.000000 0.872876
O O5 0.250000 0.500000 0.439158
O O6 0.487776 0.388841 0.521289
O O7 0.399790 0.377242 0.377392
O O8 0.500000 0.687278 0.750000
O O9 0.765774 0.734819 0.870048
O O10 0.274867 0.759294 0.868761
O O11 0.500000 0.793412 0.250000
#
# Coordination Sequence:
#
# PCOD8222569 Si02
#       4
#     8   8   8   8
#     4   9  15  23  37  60  94 135 169 198 244 303
#     4  10  21  38  57  77 104 136 170 212 258 304
#     4  10  19  33  52  76 105 136 169 210 259 308
#     4   9  17  28  44  69 103 136 167 209 257 300
#
# _framework density 19.981732000000001
#
# number of rings (size 3 to 8) (size 9 to 14) (size 15 to 20)
#    0.000    2.500    0.000    3.000    0.000    6.000 
#    0.000    7.500    0.000    0.000    0.000    0.000 
#    0.000   70.000    0.000    0.000    0.000    0.000 
#
# Total GULP energy -396503.469580 kJ/mol
# GULP energy per Si atom -12390.733424 kJ/mol
# Density = 1.993625 g / cm^3
# Si number density = 19.981732 Si / 1000 Ang^3
#
#
#
# Elastic Constant Matrix: (Units=GPa)
#
#
# Indices 1 2 3 4 5 6 
#
# 1 155.6350 62.6724 25.0225 0.0000 0.0000 0.0000
# 2 62.6724 116.4840 41.4510 0.0000 0.0000 0.0000
# 3 25.0225 41.4510 31.5152 0.0000 0.0000 0.0000
# 4 0.0000 0.0000 0.0000 7.0271 0.0000 0.0000
# 5 0.0000 0.0000 0.0000 0.0000 15.7106 0.0000
# 6 0.0000 0.0000 0.0000 0.0000 0.0000 35.7180
#
#
#
# Elastic Compliance Matrix: (Units=1/GPa)
#
#
# Indices 1 2 3 4 5 6 
#
# 1 0.008232 -0.003954 -0.001336 0.000000 0.000000 0.000000
# 2 -0.003954 0.018037 -0.020585 0.000000 0.000000 0.000000
# 3 -0.001336 -0.020585 0.059866 0.000000 0.000000 0.000000
# 4 0.000000 0.000000 0.000000 0.142305 0.000000 0.000000
# 5 0.000000 0.000000 0.000000 0.000000 0.063651 0.000000
# 6 0.000000 0.000000 0.000000 0.000000 0.000000 0.027997
#
#
# Mechanical properties :
#
#
# Convention : Reuss Voigt Hill
#
# Bulk Modulus (GPa) = 29.08113 62.43621 45.75867
# Shear Modulus (GPa) = 13.04465 23.32372 18.18418
#
# Velocity S-wave (km/s) = 2.55782 3.42021 3.01996
# Velocity P-wave (km/s) = 4.82791 6.84921 5.92538
#
# Compressibility (1/GPa) = 0.03438656
#
# Stress axis : x y z
#
# Youngs Moduli (GPa) = 121.47367 55.44098 16.70410
#
# Poissons Ratio (x) = 0.21921 0.02231
# Poissons Ratio (y) = 0.48029 0.34385
# Poissons Ratio (z) = 0.16227 1.14122
#
# Static dielectric constant tensor:
#      x y z
#    x 4.065770 0.000000 0.000000 
#    y 0.000000 3.745310 0.000000 
#    z 0.000000 0.000000 3.059270 
# 
# 
# High freq. dielectric constant tensor:
#      x y z
#    x 1.804400 0.000000 0.000000 
#    y 0.000000 1.786720 0.000000 
#    z 0.000000 0.000000 1.712700 
# 
# From -- ./inp_files/15672.got.cif
#   From: 2010.03.12/outbox.cif.g09.slc.cpg/sg54_8_cif.got.tgz:15672.got - 2010.04.16 15:00:50.
