data_PCOD8222439
_publ_section_title
;
Structure prediction by ZEFSAII (Michael W. Deem and Ramdas Pophale) SiO2 
 PCOD8222439
Probable space group: P C C A
;
_chemical_formula_sum "Si O2"
_cell_formula_units_Z 32
_cell_length_a 16.498888
_cell_length_b 6.798732
_cell_length_c 14.916909
_cell_angle_alpha 90.000000
_cell_angle_beta 90.000000
_cell_angle_gamma 90.000000
_cell_volume 1673.252324
_symmetry_space_group_name_H-M "P C C A"
_symmetry_group_IT_number 54
_symmetry_cell_setting 'orthorhombic'
loop_
_space_group_symop_operation_xyz
x,y,z
1/2-x,-y,z
1/2+x,-y,1/2-z
-x,y,1/2-z
-x,-y,-z
1/2+x,y,-z
1/2-x,y,1/2+z
x,-y,1/2+z
loop_
_atom_site_type_symbol
_atom_site_label
_atom_site_fract_x
_atom_site_fract_y
_atom_site_fract_z
Si Si1 0.841738 0.449204 0.770862
Si Si2 0.951368 0.123459 0.836386
Si Si3 0.565136 0.293519 0.904642
Si Si4 0.423925 0.434893 0.410430
O O1 0.750000 0.500000 0.794663
O O2 0.868302 0.236040 0.808850
O O3 0.897709 0.617168 0.813984
O O4 0.853583 0.448883 0.663346
O O5 0.000000 0.043724 0.750000
O O6 0.008596 0.272489 0.888534
O O7 0.928253 0.941734 0.899785
O O8 0.470720 0.356220 0.914877
O O9 0.613524 0.374811 0.992728
#
# Coordination Sequence:
#
# PCOD8222439 Si02
#       4
#     8   8   8   8
#     4  10  21  34  49  75 110 139 167 206 259 317
#     4   9  17  32  54  77 101 134 175 216 257 304
#     4  10  18  33  56  76 100 135 176 218 258 301
#     4   9  19  33  53  79 101 131 175 220 258 300
#
# _framework density 19.124433
#
# number of rings (size 3 to 8) (size 9 to 14) (size 15 to 20)
#    0.000    2.500    0.000    4.500    0.000    2.000 
#    0.000    0.000    0.000    9.000    0.000    0.000 
#    0.000    0.000    0.000    0.000    0.000    0.000 
#
# Total GULP energy -396712.107242 kJ/mol
# GULP energy per Si atom -12397.253351 kJ/mol
# Density = 1.908090 g / cm^3
# Si number density = 19.124433 Si / 1000 Ang^3
#
#
#
# Elastic Constant Matrix: (Units=GPa)
#
#
# Indices 1 2 3 4 5 6 
#
# 1 71.5785 33.4520 17.8853 0.0000 0.0000 0.0000
# 2 33.4520 103.7431 28.4060 0.0000 0.0000 0.0000
# 3 17.8853 28.4060 92.3191 0.0000 0.0000 0.0000
# 4 0.0000 0.0000 0.0000 26.9667 0.0000 0.0000
# 5 0.0000 0.0000 0.0000 0.0000 18.2134 0.0000
# 6 0.0000 0.0000 0.0000 0.0000 0.0000 12.1685
#
#
#
# Elastic Compliance Matrix: (Units=1/GPa)
#
#
# Indices 1 2 3 4 5 6 
#
# 1 0.016697 -0.004912 -0.001723 0.000000 0.000000 0.000000
# 2 -0.004912 0.011971 -0.002732 0.000000 0.000000 0.000000
# 3 -0.001723 -0.002732 0.012006 0.000000 0.000000 0.000000
# 4 0.000000 0.000000 0.000000 0.037083 0.000000 0.000000
# 5 0.000000 0.000000 0.000000 0.000000 0.054905 0.000000
# 6 0.000000 0.000000 0.000000 0.000000 0.000000 0.082180
#
#
# Mechanical properties :
#
#
# Convention : Reuss Voigt Hill
#
# Bulk Modulus (GPa) = 45.57878 47.45860 46.51869
# Shear Modulus (GPa) = 20.75640 23.99618 22.37629
#
# Velocity S-wave (km/s) = 3.29802 3.54607 3.42429
# Velocity P-wave (km/s) = 6.19573 6.45258 6.32546
#
# Compressibility (1/GPa) = 0.02194003
#
# Stress axis : x y z
#
# Youngs Moduli (GPa) = 59.89122 83.53451 83.28875
#
# Poissons Ratio (x) = 0.41033 0.14353
# Poissons Ratio (y) = 0.29419 0.22753
# Poissons Ratio (z) = 0.10321 0.22820
#
# Static dielectric constant tensor:
#      x y z
#    x 3.024050 0.000000 0.000000 
#    y 0.000000 3.409170 0.000000 
#    z 0.000000 0.000000 3.794740 
# 
# 
# High freq. dielectric constant tensor:
#      x y z
#    x 1.691120 0.000000 0.000000 
#    y 0.000000 1.742860 0.000000 
#    z 0.000000 0.000000 1.762130 
# 
# From -- ./inp_files/13702.got.cif
#   From: 2010.03.12/outbox.cif.g09.slc.cpg/sg54_7_cif.got.tgz:13702.got - 2010.04.16 15:00:50.
