data_PCOD8222153
_publ_section_title
;
Structure prediction by ZEFSAII (Michael W. Deem and Ramdas Pophale) SiO2 
 PCOD8222153
Probable space group: P M N A
;
_chemical_formula_sum "Si O2"
_cell_formula_units_Z 32
_cell_length_a 15.576624
_cell_length_b 17.712913
_cell_length_c 4.997953
_cell_angle_alpha 90.000000
_cell_angle_beta 90.000000
_cell_angle_gamma 90.000000
_cell_volume 1378.972146
_symmetry_space_group_name_H-M "P M N A"
_symmetry_group_IT_number 53
_symmetry_cell_setting 'orthorhombic'
loop_
_space_group_symop_operation_xyz
x,y,z
1/2-x,-y,1/2+z
x,-y,-z
1/2-x,y,1/2-z
-x,-y,-z
1/2+x,y,1/2-z
-x,y,z
1/2+x,-y,1/2+z
loop_
_atom_site_type_symbol
_atom_site_label
_atom_site_fract_x
_atom_site_fract_y
_atom_site_fract_z
Si Si1 0.102079 0.675264 0.538782
Si Si2 0.897693 0.583992 0.035873
Si Si3 0.156231 0.078423 0.125835
Si Si4 0.402227 0.161770 0.876524
O O1 0.138691 0.642355 0.815352
O O2 0.137511 0.759124 0.480773
O O3 0.000000 0.680270 0.545776
O O4 0.133682 0.616001 0.317464
O O5 0.000000 0.580588 0.014435
O O6 0.859550 0.500000 0.000000
O O7 0.250000 0.069191 0.250000
O O8 0.097550 0.103319 0.375195
O O9 0.154292 0.137416 0.879870
O O10 0.122518 0.000000 0.000000
O O11 0.500000 0.170541 0.774848
#
# Coordination Sequence:
#
# PCOD8222153 Si02
#       4
#     8   8   8   8
#     4   9  17  29  45  72 110 146 184 233 284 329
#     4   9  15  24  41  67 105 152 190 221 272 339
#     4  12  25  43  63  85 117 155 194 242 299 355
#     4  11  23  39  62  90 120 155 196 245 297 351
#
# _framework density 23.205689
#
# number of rings (size 3 to 8) (size 9 to 14) (size 15 to 20)
#    0.000    1.750    0.000    6.000    0.000   10.000 
#    0.000    0.000    0.000    0.000    0.000    0.000 
#    0.000   56.000    0.000    0.000    0.000    0.000 
#
# Total GULP energy -396764.062760 kJ/mol
# GULP energy per Si atom -12398.876961 kJ/mol
# Density = 2.315287 g / cm^3
# Si number density = 23.205689 Si / 1000 Ang^3
#
#
#
# Elastic Constant Matrix: (Units=GPa)
#
#
# Indices 1 2 3 4 5 6 
#
# 1 13.6210 9.7264 -0.0070 0.0000 0.0000 0.0000
# 2 9.7264 111.9687 19.2823 0.0000 0.0000 0.0000
# 3 -0.0070 19.2823 120.5261 0.0000 0.0000 0.0000
# 4 0.0000 0.0000 0.0000 50.6269 0.0000 0.0000
# 5 0.0000 0.0000 0.0000 0.0000 29.1307 0.0000
# 6 0.0000 0.0000 0.0000 0.0000 0.0000 2.1998
#
#
#
# Elastic Compliance Matrix: (Units=1/GPa)
#
#
# Indices 1 2 3 4 5 6 
#
# 1 0.078419 -0.007006 0.001125 0.000000 0.000000 0.000000
# 2 -0.007006 0.009810 -0.001570 0.000000 0.000000 0.000000
# 3 0.001125 -0.001570 0.008548 0.000000 0.000000 0.000000
# 4 0.000000 0.000000 0.000000 0.019752 0.000000 0.000000
# 5 0.000000 0.000000 0.000000 0.000000 0.034328 0.000000
# 6 0.000000 0.000000 0.000000 0.000000 0.000000 0.454578
#
#
# Mechanical properties :
#
#
# Convention : Reuss Voigt Hill
#
# Bulk Modulus (GPa) = 12.21351 33.79104 23.00227
# Shear Modulus (GPa) = 7.72048 30.86577 19.29312
#
# Velocity S-wave (km/s) = 1.82598 3.65100 2.88652
# Velocity P-wave (km/s) = 3.11772 5.68913 4.58729
#
# Compressibility (1/GPa) = 0.08187656
#
# Stress axis : x y z
#
# Youngs Moduli (GPa) = 12.75200 101.93685 116.98401
#
# Poissons Ratio (x) = 0.71415 -0.13165
# Poissons Ratio (y) = 0.08934 0.18365
# Poissons Ratio (z) = -0.01435 0.16003
#
# Static dielectric constant tensor:
#      x y z
#    x 3.487130 0.000000 0.000000 
#    y 0.000000 4.433300 0.000000 
#    z 0.000000 0.000000 4.420110 
# 
# 
# High freq. dielectric constant tensor:
#      x y z
#    x 1.859540 0.000000 0.000000 
#    y 0.000000 1.930160 0.000000 
#    z 0.000000 0.000000 1.936330 
# 
# From -- ./inp_files/1182.got.cif
#   From: 2010.03.12/outbox.cif.g09.slc.cpg/sg53_1_cif.got.tgz:1182.got - 2010.04.16 14:36:59.
