data_PCOD8222666
_publ_section_title
;
Structure prediction by ZEFSAII (Michael W. Deem and Ramdas Pophale) SiO2 
 PCOD8222666
Probable space group: P C C A
;
_chemical_formula_sum "Si O2"
_cell_formula_units_Z 40
_cell_length_a 17.713523
_cell_length_b 13.033704
_cell_length_c 9.743839
_cell_angle_alpha 90.000000
_cell_angle_beta 90.000000
_cell_angle_gamma 90.000000
_cell_volume 2249.587544
_symmetry_space_group_name_H-M "P C C A"
_symmetry_group_IT_number 54
_symmetry_cell_setting 'orthorhombic'
loop_
_space_group_symop_operation_xyz
x,y,z
1/2-x,-y,z
1/2+x,-y,1/2-z
-x,y,1/2-z
-x,-y,-z
1/2+x,y,-z
1/2-x,y,1/2+z
x,-y,1/2+z
loop_
_atom_site_type_symbol
_atom_site_label
_atom_site_fract_x
_atom_site_fract_y
_atom_site_fract_z
Si Si1 0.917123 0.306755 0.266901
Si Si2 0.262573 0.616883 0.251896
Si Si3 0.830055 0.050177 0.496642
Si Si4 0.683850 0.717560 0.502759
Si Si5 0.416231 0.072227 0.779462
O O1 0.849500 0.370270 0.191949
O O2 0.898170 0.303498 0.431567
O O3 0.917747 0.194531 0.196533
O O4 0.000000 0.358079 0.250000
O O5 0.250000 0.500000 0.208493
O O6 0.200317 0.648744 0.364064
O O7 0.254070 0.689075 0.116004
O O8 0.815626 0.165164 0.550575
O O9 0.859329 0.046912 0.342373
O O10 0.750000 0.000000 0.503357
O O11 0.889363 0.988119 0.587238
O O12 0.500000 0.031347 0.750000
#
# Coordination Sequence:
#
# PCOD8222666 Si02
#       5
#     8   8   8   8   8
#     4   8  18  36  56  78 110 147 175 218 277 328
#     4  10  19  36  60  79 103 142 185 228 275 323
#     4  11  21  33  54  83 112 144 183 223 265 324
#     4   9  21  34  57  80 108 140 182 226 271 324
#     4  10  20  35  54  79 114 151 180 214 272 329
#
# _framework density 17.781037000000001
#
# number of rings (size 3 to 8) (size 9 to 14) (size 15 to 20)
#    1.200    1.200    0.000    3.000    2.800    0.000 
#    0.000    1.000    0.000    0.000    0.000    0.000 
#    0.000    0.000    0.000    0.000    0.000    0.000 
#
# Total GULP energy -495542.246144 kJ/mol
# GULP energy per Si atom -12388.556154 kJ/mol
# Density = 1.774057 g / cm^3
# Si number density = 17.781037 Si / 1000 Ang^3
#
#
#
# Elastic Constant Matrix: (Units=GPa)
#
#
# Indices 1 2 3 4 5 6 
#
# 1 98.5468 32.6688 -0.6731 0.0000 0.0000 0.0000
# 2 32.6688 65.9745 6.5238 0.0000 0.0000 0.0000
# 3 -0.6731 6.5238 36.8627 0.0000 0.0000 0.0000
# 4 0.0000 0.0000 0.0000 18.4370 0.0000 0.0000
# 5 0.0000 0.0000 0.0000 0.0000 43.3635 0.0000
# 6 0.0000 0.0000 0.0000 0.0000 0.0000 74.2136
#
#
#
# Elastic Compliance Matrix: (Units=1/GPa)
#
#
# Indices 1 2 3 4 5 6 
#
# 1 0.012203 -0.006172 0.001315 0.000000 0.000000 0.000000
# 2 -0.006172 0.018550 -0.003396 0.000000 0.000000 0.000000
# 3 0.001315 -0.003396 0.027753 0.000000 0.000000 0.000000
# 4 0.000000 0.000000 0.000000 0.054239 0.000000 0.000000
# 5 0.000000 0.000000 0.000000 0.000000 0.023061 0.000000
# 6 0.000000 0.000000 0.000000 0.000000 0.000000 0.013475
#
#
# Mechanical properties :
#
#
# Convention : Reuss Voigt Hill
#
# Bulk Modulus (GPa) = 23.80994 30.93589 27.37292
# Shear Modulus (GPa) = 27.81107 38.06044 32.93576
#
# Velocity S-wave (km/s) = 3.95914 4.63158 4.30850
# Velocity P-wave (km/s) = 5.85828 6.78514 6.33867
#
# Compressibility (1/GPa) = 0.04199926
#
# Stress axis : x y z
#
# Youngs Moduli (GPa) = 81.94932 53.90952 36.03256
#
# Poissons Ratio (x) = 0.33276 -0.04739
# Poissons Ratio (y) = 0.50583 0.12235
# Poissons Ratio (z) = -0.10778 0.18305
#
# Static dielectric constant tensor:
#      x y z
#    x 3.291450 0.000000 0.000000 
#    y 0.000000 3.228550 0.000000 
#    z 0.000000 0.000000 3.284520 
# 
# 
# High freq. dielectric constant tensor:
#      x y z
#    x 1.682040 0.000000 0.000000 
#    y 0.000000 1.680560 0.000000 
#    z 0.000000 0.000000 1.671310 
# 
# From -- ./inp_files/4695.got.cif
#   From: 2010.03.12/outbox.cif.g09.slc.cpg/sg54_3_cif.got.tgz:4695.got - 2010.04.16 15:00:50.
