data_PCOD8222313
_publ_section_title
;
Structure prediction by ZEFSAII (Michael W. Deem and Ramdas Pophale) SiO2 
 PCOD8222313
Probable space group: P C C A
;
_chemical_formula_sum "Si O2"
_cell_formula_units_Z 40
_cell_length_a 18.736082
_cell_length_b 20.342557
_cell_length_c 5.224370
_cell_angle_alpha 90.000000
_cell_angle_beta 90.000000
_cell_angle_gamma 90.000000
_cell_volume 1991.215421
_symmetry_space_group_name_H-M "P C C A"
_symmetry_group_IT_number 54
_symmetry_cell_setting 'orthorhombic'
loop_
_space_group_symop_operation_xyz
x,y,z
1/2-x,-y,z
1/2+x,-y,1/2-z
-x,y,1/2-z
-x,-y,-z
1/2+x,y,-z
1/2-x,y,1/2+z
x,-y,1/2+z
loop_
_atom_site_type_symbol
_atom_site_label
_atom_site_fract_x
_atom_site_fract_y
_atom_site_fract_z
Si Si1 0.920672 0.367096 0.226272
Si Si2 0.203348 0.178869 0.754123
Si Si3 0.580546 0.283431 0.226585
Si Si4 0.171115 0.028363 0.778734
Si Si5 0.720105 0.572892 0.328112
O O1 0.908012 0.311964 0.442098
O O2 0.864441 0.426169 0.273288
O O3 0.000000 0.397265 0.250000
O O4 0.907629 0.338668 0.943668
O O5 0.256831 0.192240 0.520394
O O6 0.135321 0.225174 0.727684
O O7 0.172486 0.105800 0.738469
O O8 0.500000 0.255498 0.250000
O O9 0.250000 0.000000 0.827666
O O10 0.131046 0.007635 0.041994
O O11 0.750000 0.500000 0.379388
O O12 0.738474 0.609801 0.595550
#
# Coordination Sequence:
#
# PCOD8222313 Si02
#       5
#     8   8   8   8   8
#     4  10  21  40  60  78 110 158 189 214 271 346
#     4  12  21  32  55  86 106 140 192 237 276 323
#     4  10  23  39  55  80 116 151 185 228 279 329
#     4  10  16  30  48  73 105 141 174 229 275 320
#     4  10  21  37  58  87 117 144 178 233 283 308
#
# _framework density 20.088234
#
# number of rings (size 3 to 8) (size 9 to 14) (size 15 to 20)
#    0.000    1.600    4.000    2.400    0.000    4.800 
#    0.000    4.000    0.000    1.200    0.000    0.000 
#    0.000    0.000    0.000    0.000    0.000    0.000 
#
# Total GULP energy -495779.683784 kJ/mol
# GULP energy per Si atom -12394.492095 kJ/mol
# Density = 2.004251 g / cm^3
# Si number density = 20.088234 Si / 1000 Ang^3
#
#
#
# Elastic Constant Matrix: (Units=GPa)
#
#
# Indices 1 2 3 4 5 6 
#
# 1 91.6753 38.8610 11.7675 0.0000 0.0000 0.0000
# 2 38.8610 51.9436 -6.7911 0.0000 0.0000 0.0000
# 3 11.7675 -6.7911 144.7448 0.0000 0.0000 0.0000
# 4 0.0000 0.0000 0.0000 -65.1258 0.0000 0.0000
# 5 0.0000 0.0000 0.0000 0.0000 22.5101 0.0000
# 6 0.0000 0.0000 0.0000 0.0000 0.0000 11.4775
#
#
#
# Elastic Compliance Matrix: (Units=1/GPa)
#
#
# Indices 1 2 3 4 5 6 
#
# 1 0.016494 -0.012592 -0.001932 0.000000 0.000000 0.000000
# 2 -0.012592 0.028984 0.002384 0.000000 0.000000 0.000000
# 3 -0.001932 0.002384 0.007178 0.000000 0.000000 0.000000
# 4 0.000000 0.000000 0.000000 -0.015355 0.000000 0.000000
# 5 0.000000 0.000000 0.000000 0.000000 0.044424 0.000000
# 6 0.000000 0.000000 0.000000 0.000000 0.000000 0.087127
#
#
# Mechanical properties :
#
#
# Convention : Reuss Voigt Hill
#
# Bulk Modulus (GPa) = 35.24262 41.78205 38.51233
# Shear Modulus (GPa) = 24.68029 10.07412 17.37720
#
# Velocity S-wave (km/s) = 3.50893 2.24183 2.94435
# Velocity P-wave (km/s) = 5.83085 5.24838 5.54727
#
# Compressibility (1/GPa) = 0.02837474
#
# Stress axis : x y z
#
# Youngs Moduli (GPa) = 60.62874 34.50181 139.32247
#
# Poissons Ratio (x) = 0.43445 0.26913
# Poissons Ratio (y) = 0.76345 -0.33209
# Poissons Ratio (z) = 0.11712 -0.08224
#
# Static dielectric constant tensor:
#      x y z
#    x 3.508810 0.000000 0.000000 
#    y 0.000000 3.360510 0.000000 
#    z 0.000000 0.000000 4.834020 
# 
# 
# High freq. dielectric constant tensor:
#      x y z
#    x 1.758190 0.000000 0.000000 
#    y 0.000000 1.754750 0.000000 
#    z 0.000000 0.000000 1.828610 
# 
# From -- ./inp_files/925.got.cif
#   From: 2010.03.12/outbox.cif.g09.slc.cpg/sg54_1_cif.got.tgz:925.got - 2010.04.16 15:00:50.
