data_PCOD8222347
_publ_section_title
;
Structure prediction by ZEFSAII (Michael W. Deem and Ramdas Pophale) SiO2 
 PCOD8222347
Probable space group: P C C A
;
_chemical_formula_sum "Si O2"
_cell_formula_units_Z 56
_cell_length_a 5.228094
_cell_length_b 32.996845
_cell_length_c 14.567413
_cell_angle_alpha 90.000000
_cell_angle_beta 90.000000
_cell_angle_gamma 90.000000
_cell_volume 2513.033264
_symmetry_space_group_name_H-M "P C C A"
_symmetry_group_IT_number 54
_symmetry_cell_setting 'orthorhombic'
loop_
_space_group_symop_operation_xyz
x,y,z
1/2-x,-y,z
1/2+x,-y,1/2-z
-x,y,1/2-z
-x,-y,-z
1/2+x,y,-z
1/2-x,y,1/2+z
x,-y,1/2+z
loop_
_atom_site_type_symbol
_atom_site_label
_atom_site_fract_x
_atom_site_fract_y
_atom_site_fract_z
Si Si1 0.334798 0.740487 0.897470
Si Si2 0.440156 0.110198 0.940769
Si Si3 0.823854 0.616747 0.945544
Si Si4 0.260179 0.821578 0.308320
Si Si5 0.250385 0.454268 0.691020
Si Si6 0.496354 0.017581 0.897967
Si Si7 0.334014 0.293881 0.604190
O O1 0.300435 0.788774 0.888214
O O2 0.598204 0.728380 0.845387
O O3 0.102401 0.716692 0.846945
O O4 0.372157 0.724949 0.001671
O O5 0.371598 0.138074 0.854632
O O6 0.460858 0.065482 0.899720
O O7 0.719469 0.118313 0.983879
O O8 0.748642 0.576942 0.891030
O O9 0.777808 0.658320 0.891037
O O10 0.623121 0.616148 0.029202
O O11 0.500000 0.804442 0.250000
O O12 0.000000 0.830174 0.250000
O O13 0.250000 0.500000 0.651181
O O14 0.500000 0.446043 0.750000
O O15 0.000000 0.446276 0.750000
O O16 0.250000 0.000000 0.844512
O O17 0.750000 0.000000 0.847580
O O18 0.500000 0.000000 0.000000
#
# Coordination Sequence:
#
# PCOD8222347 Si02
#       7
#     8   8   8   8   8   8   8
#     4  10  20  38  64  81 121 164 205 251 319 370
#     4  12  23  38  68 100 120 167 216 264 311 371
#     4  12  21  38  65  97 130 154 208 275 326 370
#     4  12  28  46  60  92 137 173 211 265 324 384
#     4  10  23  43  62  87 129 176 212 249 313 396
#     4  10  16  32  56  97 131 140 195 272 296 335
#     4  10  19  37  63  94 113 153 204 274 309 370
#
# _framework density 22.283826000000001
#
# number of rings (size 3 to 8) (size 9 to 14) (size 15 to 20)
#    0.000    1.143    5.714    2.571    4.000    0.571 
#    0.000    4.286    0.000    1.714    0.000    0.000 
#    0.000    0.000    0.000    0.000    0.000    0.000 
#
# Total GULP energy -693916.069665 kJ/mol
# GULP energy per Si atom -12391.358387 kJ/mol
# Density = 2.223311 g / cm^3
# Si number density = 22.283826 Si / 1000 Ang^3
#
#
#
# Elastic Constant Matrix: (Units=GPa)
#
#
# Indices 1 2 3 4 5 6 
#
# 1 199.2693 32.5314 12.2902 0.0000 0.0000 0.0000
# 2 32.5314 148.5894 25.8291 0.0000 0.0000 0.0000
# 3 12.2902 25.8291 20.8875 0.0000 0.0000 0.0000
# 4 0.0000 0.0000 0.0000 7.6375 0.0000 0.0000
# 5 0.0000 0.0000 0.0000 0.0000 -4.4480 0.0000
# 6 0.0000 0.0000 0.0000 0.0000 0.0000 38.3162
#
#
#
# Elastic Compliance Matrix: (Units=1/GPa)
#
#
# Indices 1 2 3 4 5 6 
#
# 1 0.005278 -0.000784 -0.002136 0.000000 0.000000 0.000000
# 2 -0.000784 0.008689 -0.010283 0.000000 0.000000 0.000000
# 3 -0.002136 -0.010283 0.061848 0.000000 0.000000 0.000000
# 4 0.000000 0.000000 0.000000 0.130932 0.000000 0.000000
# 5 0.000000 0.000000 0.000000 0.000000 -0.224818 0.000000
# 6 0.000000 0.000000 0.000000 0.000000 0.000000 0.026099
#
#
# Mechanical properties :
#
#
# Convention : Reuss Voigt Hill
#
# Bulk Modulus (GPa) = 20.23932 56.67195 38.45563
# Shear Modulus (GPa) = 98.22120 28.17417 63.19769
#
# Velocity S-wave (km/s) = 6.64628 3.55960 5.33122
# Velocity P-wave (km/s) = 8.24619 6.51010 7.42903
#
# Compressibility (1/GPa) = 0.04940878
#
# Stress axis : x y z
#
# Youngs Moduli (GPa) = 189.46204 115.08512 16.16854
#
# Poissons Ratio (x) = 0.09026 0.03453
# Poissons Ratio (y) = 0.14860 0.16627
# Poissons Ratio (z) = 0.40465 1.18347
#
# Static dielectric constant tensor:
#      x y z
#    x 4.492940 0.000000 0.000000 
#    y 0.000000 4.273380 0.000000 
#    z 0.000000 0.000000 3.436690 
# 
# 
# High freq. dielectric constant tensor:
#      x y z
#    x 1.922390 0.000000 0.000000 
#    y 0.000000 1.887000 0.000000 
#    z 0.000000 0.000000 1.828790 
# 
# From -- ./inp_files/10994.got.cif
#   From: 2010.03.12/outbox.cif.g09.slc.cpg/sg54_6_cif.got.tgz:10994.got - 2010.04.16 15:00:50.
