data_PCOD8222655
_publ_section_title
;
Structure prediction by ZEFSAII (Michael W. Deem and Ramdas Pophale) SiO2 
 PCOD8222655
Probable space group: P C C A
;
_chemical_formula_sum "Si O2"
_cell_formula_units_Z 56
_cell_length_a 28.753965
_cell_length_b 5.397421
_cell_length_c 14.798600
_cell_angle_alpha 90.000000
_cell_angle_beta 90.000000
_cell_angle_gamma 90.000000
_cell_volume 2296.702091
_symmetry_space_group_name_H-M "P C C A"
_symmetry_group_IT_number 54
_symmetry_cell_setting 'orthorhombic'
loop_
_space_group_symop_operation_xyz
x,y,z
1/2-x,-y,z
1/2+x,-y,1/2-z
-x,y,1/2-z
-x,-y,-z
1/2+x,y,-z
1/2-x,y,1/2+z
x,-y,1/2+z
loop_
_atom_site_type_symbol
_atom_site_label
_atom_site_fract_x
_atom_site_fract_y
_atom_site_fract_z
Si Si1 0.563965 0.940005 0.822961
Si Si2 0.728319 0.752282 0.771020
Si Si3 0.583104 0.492931 0.069934
Si Si4 0.868216 0.573751 0.245426
Si Si5 0.633081 0.718649 0.412881
Si Si6 0.234554 0.246419 0.027187
Si Si7 0.961073 0.978169 0.628551
O O1 0.599252 0.050350 0.896280
O O2 0.557615 0.092856 0.728992
O O3 0.514368 0.932244 0.872008
O O4 0.583449 0.675121 0.789393
O O5 0.750000 0.500000 0.728551
O O6 0.673611 0.772898 0.744775
O O7 0.736428 0.751512 0.878864
O O8 0.750000 0.000000 0.727426
O O9 0.622402 0.537912 0.146439
O O10 0.546268 0.721698 0.072019
O O11 0.564421 0.214158 0.085526
O O12 0.606155 0.493128 0.970637
O O13 0.850249 0.364460 0.313792
O O14 0.679396 0.788878 0.465651
O O15 0.250000 0.500000 0.975908
O O16 0.250000 0.000000 0.972274
#
# Coordination Sequence:
#
# PCOD8222655 Si02
#       7
#     8   8   8   8   8   8   8
#     4  10  23  40  73  90 129 184 216 269 338 392
#     4  10  19  35  63  91 123 164 209 265 318 385
#     4  11  27  43  65  99 136 168 221 281 316 401
#     4  11  23  44  67  97 132 175 222 270 337 393
#     4  12  24  41  70  96 129 181 218 264 341 389
#     4  10  20  36  60  92 124 161 208 262 310 384
#     4  10  24  46  63  97 136 168 225 275 327 388
#
# _framework density 24.382787
#
# number of rings (size 3 to 8) (size 9 to 14) (size 15 to 20)
#    0.000    1.429    4.286    1.714    4.000    2.286 
#    0.000    1.429    0.000    0.000    0.000    1.000 
#    0.000    0.000    0.000    0.000    0.000    0.000 
#
# Total GULP energy -693910.244641 kJ/mol
# GULP energy per Si atom -12391.254369 kJ/mol
# Density = 2.432729 g / cm^3
# Si number density = 24.382787 Si / 1000 Ang^3
#
#
#
# Elastic Constant Matrix: (Units=GPa)
#
#
# Indices 1 2 3 4 5 6 
#
# 1 111.1412 22.3524 1.5357 0.0000 0.0000 0.0000
# 2 22.3524 150.3499 3.3712 0.0000 0.0000 0.0000
# 3 1.5357 3.3712 53.4192 0.0000 0.0000 0.0000
# 4 0.0000 0.0000 0.0000 12.5205 0.0000 0.0000
# 5 0.0000 0.0000 0.0000 0.0000 -0.3964 0.0000
# 6 0.0000 0.0000 0.0000 0.0000 0.0000 35.0982
#
#
#
# Elastic Compliance Matrix: (Units=1/GPa)
#
#
# Indices 1 2 3 4 5 6 
#
# 1 0.009277 -0.001375 -0.000180 0.000000 0.000000 0.000000
# 2 -0.001375 0.006864 -0.000394 0.000000 0.000000 0.000000
# 3 -0.000180 -0.000394 0.018750 0.000000 0.000000 0.000000
# 4 0.000000 0.000000 0.000000 0.079869 0.000000 0.000000
# 5 0.000000 0.000000 0.000000 0.000000 -2.522634 0.000000
# 6 0.000000 0.000000 0.000000 0.000000 0.000000 0.028492
#
#
# Mechanical properties :
#
#
# Convention : Reuss Voigt Hill
#
# Bulk Modulus (GPa) = 32.26481 41.04765 36.65623
# Shear Modulus (GPa) = -2.11403 28.62119 13.25358
#
# Velocity S-wave (km/s) = -0.93215 3.42983 2.33397
# Velocity P-wave (km/s) = 3.47891 5.70581 4.72541
#
# Compressibility (1/GPa) = 0.03099352
#
# Stress axis : x y z
#
# Youngs Moduli (GPa) = 107.79806 145.67878 53.33373
#
# Poissons Ratio (x) = 0.20032 0.00959
# Poissons Ratio (y) = 0.14823 0.02100
# Poissons Ratio (z) = 0.01939 0.05735
#
# Static dielectric constant tensor:
#      x y z
#    x 4.501180 0.000000 0.000000 
#    y 0.000000 4.828920 0.000000 
#    z 0.000000 0.000000 4.171960 
# 
# 
# High freq. dielectric constant tensor:
#      x y z
#    x 1.971790 0.000000 0.000000 
#    y 0.000000 1.965870 0.000000 
#    z 0.000000 0.000000 1.943980 
# 
# From -- ./inp_files/15344.got.cif
#   From: 2010.03.12/outbox.cif.g09.slc.cpg/sg54_8_cif.got.tgz:15344.got - 2010.04.16 15:00:50.
