data_PCOD8222363
_publ_section_title
;
Structure prediction by ZEFSAII (Michael W. Deem and Ramdas Pophale) SiO2 
 PCOD8222363
Probable space group: P C C A
;
_chemical_formula_sum "Si O2"
_cell_formula_units_Z 52
_cell_length_a 27.858038
_cell_length_b 9.705521
_cell_length_c 8.910524
_cell_angle_alpha 90.000000
_cell_angle_beta 90.000000
_cell_angle_gamma 90.000000
_cell_volume 2409.198723
_symmetry_space_group_name_H-M "P C C A"
_symmetry_group_IT_number 54
_symmetry_cell_setting 'orthorhombic'
loop_
_space_group_symop_operation_xyz
x,y,z
1/2-x,-y,z
1/2+x,-y,1/2-z
-x,y,1/2-z
-x,-y,-z
1/2+x,y,-z
1/2-x,y,1/2+z
x,-y,1/2+z
loop_
_atom_site_type_symbol
_atom_site_label
_atom_site_fract_x
_atom_site_fract_y
_atom_site_fract_z
Si Si1 0.000000 0.520980 0.750000
Si Si2 0.479016 0.313158 0.017843
Si Si3 0.918453 0.189386 0.537129
Si Si4 0.243405 0.217884 0.262668
Si Si5 0.685444 0.253527 0.001335
Si Si6 0.308640 0.074075 0.028759
Si Si7 0.087634 0.083213 0.630421
O O1 0.967384 0.618946 0.643584
O O2 0.034319 0.423450 0.647949
O O3 0.536286 0.289052 0.028556
O O4 0.451218 0.171878 0.039237
O O5 0.871014 0.286931 0.518742
O O6 0.917169 0.104953 0.692381
O O7 0.921544 0.077604 0.403241
O O8 0.282439 0.307600 0.357645
O O9 0.209615 0.311973 0.152766
O O10 0.271928 0.109706 0.160175
O O11 0.206763 0.140361 0.372088
O O12 0.690221 0.088109 0.997364
O O13 0.360544 0.132127 0.073919
#
# Coordination Sequence:
#
# PCOD8222363 Si02
#       7
#     4   8   8   8   8   8   8
#     4  10  24  42  66  84 100 148 186 244 276 332
#     4  11  23  44  63  82 116 138 190 231 287 323
#     4  11  23  36  55  84 119 154 185 224 277 344
#     4  10  17  28  42  66 104 155 188 223 256 310
#     4  10  18  27  45  69 107 148 192 217 262 321
#     4  10  18  27  45  69 107 148 192 217 262 321
#     4  11  23  36  55  84 119 154 185 224 277 344
#
# _framework density 21.583939999999998
#
# number of rings (size 3 to 8) (size 9 to 14) (size 15 to 20)
#    0.000    1.538    3.077    4.154    8.615    0.000 
#    0.000    0.000    0.000    0.000    0.000    0.000 
#    0.000   86.154    0.000    0.000    0.000    0.000 
#
# Total GULP energy -644498.120542 kJ/mol
# GULP energy per Si atom -12394.194626 kJ/mol
# Density = 2.153481 g / cm^3
# Si number density = 21.583940 Si / 1000 Ang^3
#
#
#
# Elastic Constant Matrix: (Units=GPa)
#
#
# Indices 1 2 3 4 5 6 
#
# 1 138.4077 18.7635 33.4221 0.0000 0.0000 0.0000
# 2 18.7635 25.3311 14.1727 0.0000 0.0000 0.0000
# 3 33.4221 14.1727 130.3090 0.0000 0.0000 0.0000
# 4 0.0000 0.0000 0.0000 18.9946 0.0000 0.0000
# 5 0.0000 0.0000 0.0000 0.0000 26.8373 0.0000
# 6 0.0000 0.0000 0.0000 0.0000 0.0000 4.5725
#
#
#
# Elastic Compliance Matrix: (Units=1/GPa)
#
#
# Indices 1 2 3 4 5 6 
#
# 1 0.008318 -0.005290 -0.001558 0.000000 0.000000 0.000000
# 2 -0.005290 0.045399 -0.003581 0.000000 0.000000 0.000000
# 3 -0.001558 -0.003581 0.008463 0.000000 0.000000 0.000000
# 4 0.000000 0.000000 0.000000 0.052647 0.000000 0.000000
# 5 0.000000 0.000000 0.000000 0.000000 0.037262 0.000000
# 6 0.000000 0.000000 0.000000 0.000000 0.000000 0.218700
#
#
# Mechanical properties :
#
#
# Convention : Reuss Voigt Hill
#
# Bulk Modulus (GPa) = 24.19980 47.41826 35.80903
# Shear Modulus (GPa) = 12.33286 25.26017 18.79652
#
# Velocity S-wave (km/s) = 2.39297 3.42471 2.95423
# Velocity P-wave (km/s) = 4.34412 6.13638 5.31632
#
# Compressibility (1/GPa) = 0.04132266
#
# Stress axis : x y z
#
# Youngs Moduli (GPa) = 120.21494 22.02687 118.15873
#
# Poissons Ratio (x) = 0.11652 0.18412
# Poissons Ratio (y) = 0.63592 0.42312
# Poissons Ratio (z) = 0.18732 0.07888
#
# Static dielectric constant tensor:
#      x y z
#    x 4.447960 0.000000 0.000000 
#    y 0.000000 3.207520 0.000000 
#    z 0.000000 0.000000 4.416210 
# 
# 
# High freq. dielectric constant tensor:
#      x y z
#    x 1.850800 0.000000 0.000000 
#    y 0.000000 1.779300 0.000000 
#    z 0.000000 0.000000 1.874640 
# 
# From -- ./inp_files/5920.got.cif
#   From: 2010.03.12/outbox.cif.g09.slc.cpg/sg54_3_cif.got.tgz:5920.got - 2010.04.16 15:00:50.
