data_PCOD8222307
_publ_section_title
;
Structure prediction by ZEFSAII (Michael W. Deem and Ramdas Pophale) SiO2 
 PCOD8222307
Probable space group: P C C A
;
_chemical_formula_sum "Si O2"
_cell_formula_units_Z 48
_cell_length_a 12.402316
_cell_length_b 13.680216
_cell_length_c 13.495893
_cell_angle_alpha 90.000000
_cell_angle_beta 90.000000
_cell_angle_gamma 90.000000
_cell_volume 2289.799064
_symmetry_space_group_name_H-M "P C C A"
_symmetry_group_IT_number 54
_symmetry_cell_setting 'orthorhombic'
loop_
_space_group_symop_operation_xyz
x,y,z
1/2-x,-y,z
1/2+x,-y,1/2-z
-x,y,1/2-z
-x,-y,-z
1/2+x,y,-z
1/2-x,y,1/2+z
x,-y,1/2+z
loop_
_atom_site_type_symbol
_atom_site_label
_atom_site_fract_x
_atom_site_fract_y
_atom_site_fract_z
Si Si1 0.843446 0.062905 0.653348
Si Si2 0.250000 0.500000 0.713346
Si Si3 0.769083 0.657146 0.641602
Si Si4 0.048179 0.745008 0.357320
Si Si5 0.796123 0.816296 0.786982
Si Si6 0.000000 0.077505 0.250000
Si Si7 0.168999 0.666143 0.081127
O O1 0.790558 0.099496 0.758484
O O2 0.893060 0.157746 0.596719
O O3 0.750000 0.000000 0.594932
O O4 0.940682 0.988811 0.669784
O O5 0.316050 0.429008 0.788064
O O6 0.328061 0.566319 0.645004
O O7 0.638090 0.660518 0.653379
O O8 0.816427 0.758084 0.683574
O O9 0.798052 0.638253 0.528916
O O10 0.951976 0.707605 0.426380
O O11 0.000000 0.772088 0.250000
O O12 0.750917 0.747017 0.874054
O O13 0.913248 0.859420 0.813660
#
# Coordination Sequence:
#
# PCOD8222307 Si02
#       7
#     8   4   8   8   8   4   8
#     4   9  16  30  59  90 111 158 213 242 288 362
#     4  10  20  40  60  86 120 146 200 252 306 352
#     4  10  22  38  59  88 119 152 203 254 300 368
#     4  11  18  39  63  86 118 173 205 235 313 380
#     4   9  19  33  53  81 117 154 196 243 295 363
#     4  10  16  28  56  84 110 150 196 246 300 336
#     4  11  21  38  63  85 119 162 198 254 309 366
#
# _framework density 20.962537999999999
#
# number of rings (size 3 to 8) (size 9 to 14) (size 15 to 20)
#    0.000    2.000    5.833    0.500    0.000    1.333 
#    0.000   11.667    0.000   60.000    0.000    0.000 
#    0.000    0.000    0.000    0.000    0.000    0.000 
#
# Total GULP energy -594650.639252 kJ/mol
# GULP energy per Si atom -12388.554984 kJ/mol
# Density = 2.091483 g / cm^3
# Si number density = 20.962538 Si / 1000 Ang^3
#
#
#
# Elastic Constant Matrix: (Units=GPa)
#
#
# Indices 1 2 3 4 5 6 
#
# 1 135.3934 64.1002 27.1929 0.0000 0.0000 0.0000
# 2 64.1002 121.3753 45.7693 0.0000 0.0000 0.0000
# 3 27.1929 45.7693 101.2674 0.0000 0.0000 0.0000
# 4 0.0000 0.0000 0.0000 9.9490 0.0000 0.0000
# 5 0.0000 0.0000 0.0000 0.0000 17.5151 0.0000
# 6 0.0000 0.0000 0.0000 0.0000 0.0000 26.4411
#
#
#
# Elastic Compliance Matrix: (Units=1/GPa)
#
#
# Indices 1 2 3 4 5 6 
#
# 1 0.009859 -0.005073 -0.000355 0.000000 0.000000 0.000000
# 2 -0.005073 0.012542 -0.004306 0.000000 0.000000 0.000000
# 3 -0.000355 -0.004306 0.011916 0.000000 0.000000 0.000000
# 4 0.000000 0.000000 0.000000 0.100513 0.000000 0.000000
# 5 0.000000 0.000000 0.000000 0.000000 0.057094 0.000000
# 6 0.000000 0.000000 0.000000 0.000000 0.000000 0.037820
#
#
# Mechanical properties :
#
#
# Convention : Reuss Voigt Hill
#
# Bulk Modulus (GPa) = 67.34226 70.24009 68.79117
# Shear Modulus (GPa) = 19.67258 25.51261 22.59260
#
# Velocity S-wave (km/s) = 3.06676 3.49242 3.28649
# Velocity P-wave (km/s) = 6.68841 7.05995 6.87669
#
# Compressibility (1/GPa) = 0.01484952
#
# Stress axis : x y z
#
# Youngs Moduli (GPa) = 101.43239 79.73322 83.91843
#
# Poissons Ratio (x) = 0.40448 0.02976
# Poissons Ratio (y) = 0.51455 0.36137
# Poissons Ratio (z) = 0.03597 0.34335
#
# Static dielectric constant tensor:
#      x y z
#    x 4.023980 0.000000 0.000000 
#    y 0.000000 4.135960 0.000000 
#    z 0.000000 0.000000 3.309440 
# 
# 
# High freq. dielectric constant tensor:
#      x y z
#    x 1.815730 0.000000 0.000000 
#    y 0.000000 1.837660 0.000000 
#    z 0.000000 0.000000 1.770570 
# 
# From -- ./inp_files/12665.got.cif
#   From: 2010.03.12/outbox.cif.g09.slc.cpg/sg54_7_cif.got.tgz:12665.got - 2010.04.16 15:00:50.
