data_PCOD8222779
_publ_section_title
;
Structure prediction by ZEFSAII (Michael W. Deem and Ramdas Pophale) SiO2 
 PCOD8222779
Probable space group: P C C A
;
_chemical_formula_sum "Si O2"
_cell_formula_units_Z 48
_cell_length_a 9.184187
_cell_length_b 14.345505
_cell_length_c 17.881697
_cell_angle_alpha 90.000000
_cell_angle_beta 90.000000
_cell_angle_gamma 90.000000
_cell_volume 2355.945776
_symmetry_space_group_name_H-M "P C C A"
_symmetry_group_IT_number 54
_symmetry_cell_setting 'orthorhombic'
loop_
_space_group_symop_operation_xyz
x,y,z
1/2-x,-y,z
1/2+x,-y,1/2-z
-x,y,1/2-z
-x,-y,-z
1/2+x,y,-z
1/2-x,y,1/2+z
x,-y,1/2+z
loop_
_atom_site_type_symbol
_atom_site_label
_atom_site_fract_x
_atom_site_fract_y
_atom_site_fract_z
Si Si1 0.491370 0.292488 0.528465
Si Si2 0.146690 0.718382 0.293082
Si Si3 0.510609 0.154556 0.403835
Si Si4 0.318599 0.782692 0.156647
Si Si5 0.082078 0.020667 0.175075
Si Si6 0.779690 0.392371 0.572712
O O1 0.483736 0.189255 0.488963
O O2 0.401984 0.293071 0.606165
O O3 0.654869 0.324130 0.542523
O O4 0.425385 0.368726 0.472576
O O5 0.282352 0.744333 0.239307
O O6 0.195262 0.627788 0.339639
O O7 0.000000 0.691119 0.250000
O O8 0.114499 0.804572 0.349266
O O9 0.666961 0.193490 0.381252
O O10 0.515701 0.041932 0.393352
O O11 0.431469 0.869678 0.159061
O O12 0.000000 0.990089 0.250000
O O13 0.250000 0.000000 0.189048
O O14 0.750000 0.500000 0.560495
#
# Coordination Sequence:
#
# PCOD8222779 Si02
#       6
#     8   8   8   8   8   8
#     4  11  22  40  65  87 125 160 202 250 311 368
#     4   9  20  40  65  85 125 164 197 249 318 362
#     4   9  18  38  59  84 120 170 195 236 307 356
#     4  10  20  36  60  90 120 158 203 248 295 357
#     4  10  20  34  57  88 123 160 207 248 286 358
#     4  11  24  43  65  92 119 160 205 256 313 375
#
# _framework density 20.373984
#
# number of rings (size 3 to 8) (size 9 to 14) (size 15 to 20)
#    0.000    2.000    1.667    3.000    2.333    0.667 
#    3.000    0.000    0.000    0.000    0.000    0.000 
#    0.000    0.000    0.000    0.000    0.000    0.000 
#
# Total GULP energy -595048.690413 kJ/mol
# GULP energy per Si atom -12396.847717 kJ/mol
# Density = 2.032761 g / cm^3
# Si number density = 20.373984 Si / 1000 Ang^3
#
#
#
# Elastic Constant Matrix: (Units=GPa)
#
#
# Indices 1 2 3 4 5 6 
#
# 1 50.8270 17.6053 37.8072 0.0000 0.0000 0.0000
# 2 17.6053 90.6301 43.7720 0.0000 0.0000 0.0000
# 3 37.8072 43.7720 112.0291 0.0000 0.0000 0.0000
# 4 0.0000 0.0000 0.0000 20.6479 0.0000 0.0000
# 5 0.0000 0.0000 0.0000 0.0000 33.6898 0.0000
# 6 0.0000 0.0000 0.0000 0.0000 0.0000 22.1956
#
#
#
# Elastic Compliance Matrix: (Units=1/GPa)
#
#
# Indices 1 2 3 4 5 6 
#
# 1 0.026344 -0.001015 -0.008494 0.000000 0.000000 0.000000
# 2 -0.001015 0.013639 -0.004987 0.000000 0.000000 0.000000
# 3 -0.008494 -0.004987 0.013741 0.000000 0.000000 0.000000
# 4 0.000000 0.000000 0.000000 0.048431 0.000000 0.000000
# 5 0.000000 0.000000 0.000000 0.000000 0.029683 0.000000
# 6 0.000000 0.000000 0.000000 0.000000 0.000000 0.045054
#
#
# Mechanical properties :
#
#
# Convention : Reuss Voigt Hill
#
# Bulk Modulus (GPa) = 40.43098 50.20613 45.31855
# Shear Modulus (GPa) = 23.35045 25.59344 24.47195
#
# Velocity S-wave (km/s) = 3.38907 3.54811 3.46950
# Velocity P-wave (km/s) = 5.93312 6.44059 6.19206
#
# Compressibility (1/GPa) = 0.02473351
#
# Stress axis : x y z
#
# Youngs Moduli (GPa) = 37.95877 73.31664 72.77408
#
# Poissons Ratio (x) = 0.07443 0.61814
# Poissons Ratio (y) = 0.03853 0.36290
# Poissons Ratio (z) = 0.32242 0.36560
#
# Static dielectric constant tensor:
#      x y z
#    x 3.658720 0.000000 0.000000 
#    y 0.000000 3.547250 0.000000 
#    z 0.000000 0.000000 3.813770 
# 
# 
# High freq. dielectric constant tensor:
#      x y z
#    x 1.798440 0.000000 0.000000 
#    y 0.000000 1.769140 0.000000 
#    z 0.000000 0.000000 1.796680 
# 
# From -- ./inp_files/16634.got.cif
#   From: 2010.03.12/outbox.cif.g09.slc.cpg/sg54_9_cif.got.tgz:16634.got - 2010.04.16 15:00:50.
