data_PCOD8222319
_publ_section_title
;
Structure prediction by ZEFSAII (Michael W. Deem and Ramdas Pophale) SiO2 
 PCOD8222319
Probable space group: P C C A
;
_chemical_formula_sum "Si O2"
_cell_formula_units_Z 44
_cell_length_a 5.086219
_cell_length_b 16.821161
_cell_length_c 33.535393
_cell_angle_alpha 90.000000
_cell_angle_beta 90.000000
_cell_angle_gamma 90.000000
_cell_volume 2869.157728
_symmetry_space_group_name_H-M "P C C A"
_symmetry_group_IT_number 54
_symmetry_cell_setting 'orthorhombic'
loop_
_space_group_symop_operation_xyz
x,y,z
1/2-x,-y,z
1/2+x,-y,1/2-z
-x,y,1/2-z
-x,-y,-z
1/2+x,y,-z
1/2-x,y,1/2+z
x,-y,1/2+z
loop_
_atom_site_type_symbol
_atom_site_label
_atom_site_fract_x
_atom_site_fract_y
_atom_site_fract_z
Si Si1 0.254430 0.085155 0.222338
Si Si2 0.045827 0.754459 0.202970
Si Si3 0.506545 0.552537 0.392720
Si Si4 0.552674 0.664277 0.179858
Si Si5 0.000000 0.549713 0.750000
Si Si6 0.973251 0.588447 0.982148
O O1 0.500000 0.070964 0.250000
O O2 0.330363 0.158312 0.192991
O O3 0.000000 0.105819 0.250000
O O4 0.250000 0.000000 0.198707
O O5 0.257640 0.691976 0.187927
O O6 0.000000 0.747425 0.250000
O O7 0.768403 0.735728 0.181152
O O8 0.250000 0.500000 0.398460
O O9 0.439501 0.624153 0.363202
O O10 0.583877 0.589663 0.435211
O O11 0.750000 0.500000 0.376367
O O12 0.622918 0.600828 0.213993
O O13 0.750000 0.500000 0.766110
O O14 0.239117 0.634018 0.994587
O O15 0.000000 0.500000 0.000000
#
# Coordination Sequence:
#
# PCOD8222319 Si02
#       6
#     8   8   8   8   4   8
#     4   9  17  29  49  73  88 106 144 191 228 265
#     4  11  19  35  48  62  88 121 150 184 226 281
#     4  12  21  33  47  65  86 109 151 203 226 266
#     4  12  23  33  46  63  84 121 156 188 240 260
#     4  12  22  36  44  54  78 114 166 202 222 250
#     4  10  16  30  49  66  81 102 134 182 236 289
#
# _framework density 15.335512
#
# number of rings (size 3 to 8) (size 9 to 14) (size 15 to 20)
#    0.000    1.091    5.455    5.455    0.000    0.000 
#    0.000    0.000    0.000    0.000    0.000    0.000 
#    0.000    0.000    0.000    0.000    0.000   18.182 
#
# Total GULP energy -545198.698781 kJ/mol
# GULP energy per Si atom -12390.879518 kJ/mol
# Density = 1.530061 g / cm^3
# Si number density = 15.335512 Si / 1000 Ang^3
#
#
#
# Elastic Constant Matrix: (Units=GPa)
#
#
# Indices 1 2 3 4 5 6 
#
# 1 109.2759 18.4112 11.3084 0.0000 0.0000 0.0000
# 2 18.4112 64.0207 27.6803 0.0000 0.0000 0.0000
# 3 11.3084 27.6803 77.2473 0.0000 0.0000 0.0000
# 4 0.0000 0.0000 0.0000 -7.0596 0.0000 0.0000
# 5 0.0000 0.0000 0.0000 0.0000 12.9382 0.0000
# 6 0.0000 0.0000 0.0000 0.0000 0.0000 25.0527
#
#
#
# Elastic Compliance Matrix: (Units=1/GPa)
#
#
# Indices 1 2 3 4 5 6 
#
# 1 0.009633 -0.002557 -0.000494 0.000000 0.000000 0.000000
# 2 -0.002557 0.019162 -0.006492 0.000000 0.000000 0.000000
# 3 -0.000494 -0.006492 0.015344 0.000000 0.000000 0.000000
# 4 0.000000 0.000000 0.000000 -0.141651 0.000000 0.000000
# 5 0.000000 0.000000 0.000000 0.000000 0.077291 0.000000
# 6 0.000000 0.000000 0.000000 0.000000 0.000000 0.039916
#
#
# Mechanical properties :
#
#
# Convention : Reuss Voigt Hill
#
# Bulk Modulus (GPa) = 39.91452 40.59374 40.25413
# Shear Modulus (GPa) = 106.08511 19.06252 62.57381
#
# Velocity S-wave (km/s) = 8.32624 3.52949 6.39467
# Velocity P-wave (km/s) = 10.88665 6.56792 8.99046
#
# Compressibility (1/GPa) = 0.02505354
#
# Stress axis : x y z
#
# Youngs Moduli (GPa) = 103.80945 52.18614 65.17159
#
# Poissons Ratio (x) = 0.13342 0.03220
# Poissons Ratio (y) = 0.26541 0.42310
# Poissons Ratio (z) = 0.05129 0.33880
#
# Static dielectric constant tensor:
#      x y z
#    x 3.601290 0.000000 0.000000 
#    y 0.000000 3.166290 0.000000 
#    z 0.000000 0.000000 2.703180 
# 
# 
# High freq. dielectric constant tensor:
#      x y z
#    x 1.626240 0.000000 0.000000 
#    y 0.000000 1.551960 0.000000 
#    z 0.000000 0.000000 1.545860 
# 
# From -- ./inp_files/27138.got.cif
#   From: 2010.03.12/outbox.cif.g09.slc.cpg/sg54_14_cif.got.tgz:27138.got - 2010.04.16 15:00:50.
