data_PCOD8222190
_publ_section_title
;
Structure prediction by ZEFSAII (Michael W. Deem and Ramdas Pophale) SiO2 
 PCOD8222190
Probable space group: P M N A
;
_chemical_formula_sum "Si O2"
_cell_formula_units_Z 40
_cell_length_a 27.095282
_cell_length_b 8.699324
_cell_length_c 7.723354
_cell_angle_alpha 90.000000
_cell_angle_beta 90.000000
_cell_angle_gamma 90.000000
_cell_volume 1820.476691
_symmetry_space_group_name_H-M "P M N A"
_symmetry_group_IT_number 53
_symmetry_cell_setting 'orthorhombic'
loop_
_space_group_symop_operation_xyz
x,y,z
1/2-x,-y,1/2+z
x,-y,-z
1/2-x,y,1/2-z
-x,-y,-z
1/2+x,y,1/2-z
-x,y,z
1/2+x,-y,1/2+z
loop_
_atom_site_type_symbol
_atom_site_label
_atom_site_fract_x
_atom_site_fract_y
_atom_site_fract_z
Si Si1 0.218322 0.849088 0.590921
Si Si2 0.055836 0.821909 0.961256
Si Si3 0.110339 0.341223 0.730100
Si Si4 0.616969 0.696489 0.844512
Si Si5 0.788285 0.367217 0.878026
O O1 0.250000 0.910378 0.750000
O O2 0.175025 0.735631 0.655497
O O3 0.257089 0.764884 0.467783
O O4 0.195210 0.000000 0.500000
O O5 0.073365 0.722465 0.125838
O O6 0.000000 0.770381 0.921723
O O7 0.088282 0.803112 0.789354
O O8 0.059365 0.000000 0.000000
O O9 0.108942 0.524866 0.723399
O O10 0.096156 0.277601 0.539499
O O11 0.166043 0.288212 0.777535
O O12 0.750000 0.453297 0.750000
O O13 0.810398 0.500000 0.000000
#
# Coordination Sequence:
#
# PCOD8222190 Si02
#       5
#     8   8   8   8   8
#     4  12  26  40  60  96 139 185 233 278 337 399
#     4  11  27  48  73 103 135 174 222 286 360 424
#     4  11  24  44  72 102 139 182 231 282 342 408
#     4  11  25  45  69 102 136 183 232 283 341 408
#     4  12  22  38  64  96 136 182 225 277 331 401
#
# _framework density 21.972268
#
# number of rings (size 3 to 8) (size 9 to 14) (size 15 to 20)
#    0.000    0.600    2.000    6.600    2.800    4.000 
#    0.000    4.000    0.000    0.000    0.000    0.000 
#    0.000    0.000    0.000    0.000    0.000    0.000 
#
# Total GULP energy -496062.789813 kJ/mol
# GULP energy per Si atom -12401.569745 kJ/mol
# Density = 2.192226 g / cm^3
# Si number density = 21.972268 Si / 1000 Ang^3
#
#
#
# Elastic Constant Matrix: (Units=GPa)
#
#
# Indices 1 2 3 4 5 6 
#
# 1 106.3713 26.6791 62.0413 0.0000 0.0000 0.0000
# 2 26.6791 84.7316 43.5008 0.0000 0.0000 0.0000
# 3 62.0413 43.5008 154.2002 0.0000 0.0000 0.0000
# 4 0.0000 0.0000 0.0000 30.5946 0.0000 0.0000
# 5 0.0000 0.0000 0.0000 0.0000 25.6105 0.0000
# 6 0.0000 0.0000 0.0000 0.0000 0.0000 48.1242
#
#
#
# Elastic Compliance Matrix: (Units=1/GPa)
#
#
# Indices 1 2 3 4 5 6 
#
# 1 0.012461 -0.001578 -0.004569 0.000000 0.000000 0.000000
# 2 -0.001578 0.014001 -0.003315 0.000000 0.000000 0.000000
# 3 -0.004569 -0.003315 0.009258 0.000000 0.000000 0.000000
# 4 0.000000 0.000000 0.000000 0.032685 0.000000 0.000000
# 5 0.000000 0.000000 0.000000 0.000000 0.039046 0.000000
# 6 0.000000 0.000000 0.000000 0.000000 0.000000 0.020780
#
#
# Mechanical properties :
#
#
# Convention : Reuss Voigt Hill
#
# Bulk Modulus (GPa) = 59.53268 67.74951 63.64109
# Shear Modulus (GPa) = 32.73237 35.07133 33.90185
#
# Velocity S-wave (km/s) = 3.86387 3.99954 3.93229
# Velocity P-wave (km/s) = 6.85997 7.22699 7.04587
#
# Compressibility (1/GPa) = 0.01679750
#
# Stress axis : x y z
#
# Youngs Moduli (GPa) = 80.24725 71.42529 108.01133
#
# Poissons Ratio (x) = 0.11273 0.49346
# Poissons Ratio (y) = 0.12665 0.35802
# Poissons Ratio (z) = 0.36661 0.23675
#
# Static dielectric constant tensor:
#      x y z
#    x 3.944900 0.000000 0.000000 
#    y 0.000000 3.787950 0.000000 
#    z 0.000000 0.000000 3.456450 
# 
# 
# High freq. dielectric constant tensor:
#      x y z
#    x 1.849070 0.000000 0.000000 
#    y 0.000000 1.862150 0.000000 
#    z 0.000000 0.000000 1.891290 
# 
# From -- ./inp_files/11591.got.cif
#   From: 2010.03.12/outbox.cif.g09.slc.cpg/sg53_6_cif.got.tgz:11591.got - 2010.04.16 14:36:59.
