data_PCOD8222169
_publ_section_title
;
Structure prediction by ZEFSAII (Michael W. Deem and Ramdas Pophale) SiO2 
 PCOD8222169
Probable space group: P M N A
;
_chemical_formula_sum "Si O2"
_cell_formula_units_Z 40
_cell_length_a 18.013636
_cell_length_b 12.273708
_cell_length_c 8.680739
_cell_angle_alpha 90.000000
_cell_angle_beta 90.000000
_cell_angle_gamma 90.000000
_cell_volume 1919.260248
_symmetry_space_group_name_H-M "P M N A"
_symmetry_group_IT_number 53
_symmetry_cell_setting 'orthorhombic'
loop_
_space_group_symop_operation_xyz
x,y,z
1/2-x,-y,1/2+z
x,-y,-z
1/2-x,y,1/2-z
-x,-y,-z
1/2+x,y,1/2-z
-x,y,z
1/2+x,-y,1/2+z
loop_
_atom_site_type_symbol
_atom_site_label
_atom_site_fract_x
_atom_site_fract_y
_atom_site_fract_z
Si Si1 0.194505 0.704502 0.886612
Si Si2 0.170189 0.586444 0.181817
Si Si3 0.778364 0.116536 0.577011
Si Si4 0.915347 0.261602 0.612591
Si Si5 0.083422 0.621391 0.700656
O O1 0.250000 0.669647 0.750000
O O2 0.115164 0.725046 0.799409
O O3 0.181208 0.598603 0.997374
O O4 0.221739 0.808473 0.980425
O O5 0.250000 0.614414 0.250000
O O6 0.113579 0.682862 0.231624
O O7 0.137773 0.475600 0.249614
O O8 0.750000 0.107763 0.750000
O O9 0.862364 0.161025 0.568874
O O10 0.777964 0.000000 0.500000
O O11 0.911501 0.354420 0.480280
O O12 0.000000 0.219625 0.631950
O O13 0.000000 0.593755 0.750728
#
# Coordination Sequence:
#
# PCOD8222169 Si02
#       5
#     8   8   8   8   8
#     4  12  22  42  66  96 133 180 227 278 330 398
#     4  12  22  39  64  98 137 179 233 271 325 394
#     4  12  25  47  74 101 125 169 229 287 349 404
#     4  11  23  44  69  99 139 179 224 277 341 406
#     4  11  25  39  61  99 141 186 222 270 334 398
#
# _framework density 20.841363999999999
#
# number of rings (size 3 to 8) (size 9 to 14) (size 15 to 20)
#    0.000    0.400    6.000    3.000    0.000    6.000 
#    0.000    0.000    0.000    1.200    0.000    0.000 
#    0.000    0.000    0.000    0.000    0.000    0.000 
#
# Total GULP energy -495753.721716 kJ/mol
# GULP energy per Si atom -12393.843043 kJ/mol
# Density = 2.079393 g / cm^3
# Si number density = 20.841364 Si / 1000 Ang^3
#
#
#
# Elastic Constant Matrix: (Units=GPa)
#
#
# Indices 1 2 3 4 5 6 
#
# 1 105.0174 36.8410 53.1576 0.0000 0.0000 0.0000
# 2 36.8410 100.6886 33.5165 0.0000 0.0000 0.0000
# 3 53.1576 33.5165 129.5529 0.0000 0.0000 0.0000
# 4 0.0000 0.0000 0.0000 30.4002 0.0000 0.0000
# 5 0.0000 0.0000 0.0000 0.0000 29.4098 0.0000
# 6 0.0000 0.0000 0.0000 0.0000 0.0000 21.8507
#
#
#
# Elastic Compliance Matrix: (Units=1/GPa)
#
#
# Indices 1 2 3 4 5 6 
#
# 1 0.012918 -0.003241 -0.004462 0.000000 0.000000 0.000000
# 2 -0.003241 0.011681 -0.001692 0.000000 0.000000 0.000000
# 3 -0.004462 -0.001692 0.009987 0.000000 0.000000 0.000000
# 4 0.000000 0.000000 0.000000 0.032895 0.000000 0.000000
# 5 0.000000 0.000000 0.000000 0.000000 0.034002 0.000000
# 6 0.000000 0.000000 0.000000 0.000000 0.000000 0.045765
#
#
# Mechanical properties :
#
#
# Convention : Reuss Voigt Hill
#
# Bulk Modulus (GPa) = 63.30815 64.69878 64.00346
# Shear Modulus (GPa) = 29.18803 30.44841 29.81822
#
# Velocity S-wave (km/s) = 3.74637 3.82640 3.78659
# Velocity P-wave (km/s) = 7.01112 7.11566 7.06358
#
# Compressibility (1/GPa) = 0.01579576
#
# Stress axis : x y z
#
# Youngs Moduli (GPa) = 77.41274 85.61078 100.12677
#
# Poissons Ratio (x) = 0.27749 0.44675
# Poissons Ratio (y) = 0.25092 0.16941
# Poissons Ratio (z) = 0.34540 0.14485
#
# Static dielectric constant tensor:
#      x y z
#    x 4.089320 0.000000 0.000000 
#    y 0.000000 3.567870 0.000000 
#    z 0.000000 0.000000 4.223150 
# 
# 
# High freq. dielectric constant tensor:
#      x y z
#    x 1.823930 0.000000 0.000000 
#    y 0.000000 1.787980 0.000000 
#    z 0.000000 0.000000 1.841870 
# 
# From -- ./inp_files/9662.got.cif
#   From: 2010.03.12/outbox.cif.g09.slc.cpg/sg53_5_cif.got.tgz:9662.got - 2010.04.16 14:36:59.
