data_PCOD8222450
_publ_section_title
;
Structure prediction by ZEFSAII (Michael W. Deem and Ramdas Pophale) SiO2 
 PCOD8222450
Probable space group: P C C A
;
_chemical_formula_sum "Si O2"
_cell_formula_units_Z 60
_cell_length_a 14.199309
_cell_length_b 15.453114
_cell_length_c 14.384210
_cell_angle_alpha 90.000000
_cell_angle_beta 90.000000
_cell_angle_gamma 90.000000
_cell_volume 3156.234288
_symmetry_space_group_name_H-M "P C C A"
_symmetry_group_IT_number 54
_symmetry_cell_setting 'orthorhombic'
loop_
_space_group_symop_operation_xyz
x,y,z
1/2-x,-y,z
1/2+x,-y,1/2-z
-x,y,1/2-z
-x,-y,-z
1/2+x,y,-z
1/2-x,y,1/2+z
x,-y,1/2+z
loop_
_atom_site_type_symbol
_atom_site_label
_atom_site_fract_x
_atom_site_fract_y
_atom_site_fract_z
Si Si1 0.678280 0.203824 0.748708
Si Si2 0.000000 0.092957 0.250000
Si Si3 0.733686 0.718216 0.064964
Si Si4 0.834646 0.559606 0.015975
Si Si5 0.412764 0.581426 0.377738
Si Si6 0.742418 0.130484 0.423612
Si Si7 0.881086 0.614737 0.822569
Si Si8 0.413370 0.988664 0.069272
O O1 0.584278 0.154708 0.714007
O O2 0.740425 0.226250 0.658733
O O3 0.742444 0.144033 0.813614
O O4 0.654191 0.288014 0.809353
O O5 0.039991 0.032437 0.168496
O O6 0.826411 0.657084 0.056193
O O7 0.643259 0.655097 0.065608
O O8 0.726178 0.780265 0.976884
O O9 0.750000 0.500000 0.053803
O O10 0.922611 0.508282 0.062857
O O11 0.827761 0.562951 0.904058
O O12 0.369035 0.563075 0.274657
O O13 0.513508 0.622915 0.360671
O O14 0.838214 0.085099 0.462553
O O15 0.646712 0.076415 0.430141
O O16 0.500000 0.000000 0.000000
#
# Coordination Sequence:
#
# PCOD8222450 Si02
#       8
#     8   4   8   8   8   8   8   8
#     4  10  19  33  58  80 109 148 187 234 280 339
#     4  10  20  36  56  86 108 142 192 228 278 348
#     4  10  19  35  54  79 110 141 187 226 280 335
#     4  10  20  33  51  80 110 146 184 229 278 328
#     4   9  20  33  53  79 105 148 188 231 274 330
#     4  10  21  38  57  87 115 148 189 235 289 342
#     4  10  18  34  55  76 107 146 190 233 276 327
#     4  10  22  38  61  85 116 149 186 234 288 348
#
# _framework density 19.009995
#
# number of rings (size 3 to 8) (size 9 to 14) (size 15 to 20)
#    0.000    2.133    1.333    2.800    0.000    4.800 
#    0.000    2.667    0.000    0.000    0.000    0.000 
#    0.000    0.000    0.000    0.000    0.000    0.000 
#
# Total GULP energy -743527.929302 kJ/mol
# GULP energy per Si atom -12392.132155 kJ/mol
# Density = 1.896673 g / cm^3
# Si number density = 19.009995 Si / 1000 Ang^3
#
#
#
# Elastic Constant Matrix: (Units=GPa)
#
#
# Indices 1 2 3 4 5 6 
#
# 1 77.2064 34.6161 43.6416 0.0000 0.0000 0.0000
# 2 34.6161 94.7402 44.2460 0.0000 0.0000 0.0000
# 3 43.6416 44.2460 92.1656 0.0000 0.0000 0.0000
# 4 0.0000 0.0000 0.0000 37.0915 0.0000 0.0000
# 5 0.0000 0.0000 0.0000 0.0000 32.1417 0.0000
# 6 0.0000 0.0000 0.0000 0.0000 0.0000 20.8435
#
#
#
# Elastic Compliance Matrix: (Units=1/GPa)
#
#
# Indices 1 2 3 4 5 6 
#
# 1 0.018518 -0.003443 -0.007116 0.000000 0.000000 0.000000
# 2 -0.003443 0.014246 -0.005209 0.000000 0.000000 0.000000
# 3 -0.007116 -0.005209 0.016720 0.000000 0.000000 0.000000
# 4 0.000000 0.000000 0.000000 0.026960 0.000000 0.000000
# 5 0.000000 0.000000 0.000000 0.000000 0.031112 0.000000
# 6 0.000000 0.000000 0.000000 0.000000 0.000000 0.047977
#
#
# Mechanical properties :
#
#
# Convention : Reuss Voigt Hill
#
# Bulk Modulus (GPa) = 55.71290 56.56885 56.14087
# Shear Modulus (GPa) = 25.89988 27.45590 26.67789
#
# Velocity S-wave (km/s) = 3.69512 3.80450 3.75021
# Velocity P-wave (km/s) = 6.89754 7.00864 6.95331
#
# Compressibility (1/GPa) = 0.01794916
#
# Stress axis : x y z
#
# Youngs Moduli (GPa) = 54.00084 70.19641 59.80863
#
# Poissons Ratio (x) = 0.24168 0.42559
# Poissons Ratio (y) = 0.18592 0.31152
# Poissons Ratio (z) = 0.38426 0.36563
#
# Static dielectric constant tensor:
#      x y z
#    x 3.456610 0.000000 0.000000 
#    y 0.000000 3.620880 0.000000 
#    z 0.000000 0.000000 3.612410 
# 
# 
# High freq. dielectric constant tensor:
#      x y z
#    x 1.726440 0.000000 0.000000 
#    y 0.000000 1.740160 0.000000 
#    z 0.000000 0.000000 1.741750 
# 
# From -- ./inp_files/13617.got.cif
#   From: 2010.03.12/outbox.cif.g09.slc.cpg/sg54_7_cif.got.tgz:13617.got - 2010.04.16 15:00:50.
