data_PCOD8222967
_publ_section_title
;
Structure prediction by ZEFSAII (Michael W. Deem and Ramdas Pophale) SiO2 
 PCOD8222967
Probable space group: P C C A
;
_chemical_formula_sum "Si O2"
_cell_formula_units_Z 60
_cell_length_a 24.897043
_cell_length_b 11.423628
_cell_length_c 9.599608
_cell_angle_alpha 90.000000
_cell_angle_beta 90.000000
_cell_angle_gamma 90.000000
_cell_volume 2730.268262
_symmetry_space_group_name_H-M "P C C A"
_symmetry_group_IT_number 54
_symmetry_cell_setting 'orthorhombic'
loop_
_space_group_symop_operation_xyz
x,y,z
1/2-x,-y,z
1/2+x,-y,1/2-z
-x,y,1/2-z
-x,-y,-z
1/2+x,y,-z
1/2-x,y,1/2+z
x,-y,1/2+z
loop_
_atom_site_type_symbol
_atom_site_label
_atom_site_fract_x
_atom_site_fract_y
_atom_site_fract_z
Si Si1 0.077341 0.969149 0.395406
Si Si2 0.000000 0.304586 0.250000
Si Si3 0.146215 0.974764 0.646185
Si Si4 0.697773 0.248213 0.722847
Si Si5 0.519013 0.819193 0.979726
Si Si6 0.108088 0.434585 0.318802
Si Si7 0.703355 0.795757 0.908039
Si Si8 0.601934 0.643198 0.878478
O O1 0.097833 0.968147 0.236781
O O2 0.024308 0.889116 0.388406
O O3 0.123790 0.923580 0.499986
O O4 0.065402 0.098484 0.455815
O O5 0.012671 0.228147 0.114139
O O6 0.947509 0.380471 0.228792
O O7 0.195156 0.065424 0.619376
O O8 0.166297 0.867776 0.736950
O O9 0.658994 0.360848 0.738094
O O10 0.749537 0.263330 0.819168
O O11 0.718527 0.230783 0.566576
O O12 0.545567 0.713926 0.890250
O O13 0.110179 0.439508 0.486521
O O14 0.106915 0.565941 0.260197
O O15 0.647681 0.738729 0.865410
#
# Coordination Sequence:
#
# PCOD8222967 Si02
#       8
#     8   4   8   8   8   8   8   8
#     4  11  22  37  64  97 133 178 211 268 329 395
#     4  10  20  42  64  90 130 180 210 266 330 388
#     4  12  22  42  63  98 133 171 217 271 338 393
#     4  11  25  44  67  94 131 174 220 272 340 395
#     4  10  20  38  63  93 137 173 220 264 324 399
#     4  10  23  43  69  92 132 173 215 278 327 393
#     4  11  25  44  66  94 132 172 220 285 331 400
#     4  10  22  47  63  97 133 170 227 273 331 392
#
# _framework density 21.975864999999999
#
# number of rings (size 3 to 8) (size 9 to 14) (size 15 to 20)
#    0.000    1.333    2.667    3.600    1.867    6.400 
#    4.800    2.667    0.000    0.000    0.000    0.000 
#    0.000    0.000    0.000    0.000    0.000    0.000 
#
# Total GULP energy -744127.559465 kJ/mol
# GULP energy per Si atom -12402.125991 kJ/mol
# Density = 2.192585 g / cm^3
# Si number density = 21.975865 Si / 1000 Ang^3
#
#
#
# Elastic Constant Matrix: (Units=GPa)
#
#
# Indices 1 2 3 4 5 6 
#
# 1 79.4669 9.4957 34.4516 0.0000 0.0000 0.0000
# 2 9.4957 79.6734 31.3101 0.0000 0.0000 0.0000
# 3 34.4516 31.3101 76.9967 0.0000 0.0000 0.0000
# 4 0.0000 0.0000 0.0000 25.8742 0.0000 0.0000
# 5 0.0000 0.0000 0.0000 0.0000 41.8558 0.0000
# 6 0.0000 0.0000 0.0000 0.0000 0.0000 11.3416
#
#
#
# Elastic Compliance Matrix: (Units=1/GPa)
#
#
# Indices 1 2 3 4 5 6 
#
# 1 0.015687 0.001058 -0.007449 0.000000 0.000000 0.000000
# 2 0.001058 0.015010 -0.006577 0.000000 0.000000 0.000000
# 3 -0.007449 -0.006577 0.018995 0.000000 0.000000 0.000000
# 4 0.000000 0.000000 0.000000 0.038649 0.000000 0.000000
# 5 0.000000 0.000000 0.000000 0.000000 0.023892 0.000000
# 6 0.000000 0.000000 0.000000 0.000000 0.000000 0.088171
#
#
# Mechanical properties :
#
#
# Convention : Reuss Voigt Hill
#
# Bulk Modulus (GPa) = 42.09598 42.96130 42.52864
# Shear Modulus (GPa) = 21.34401 26.53963 23.94182
#
# Velocity S-wave (km/s) = 3.11987 3.47893 3.30428
# Velocity P-wave (km/s) = 5.67232 5.97737 5.82684
#
# Compressibility (1/GPa) = 0.02375524
#
# Stress axis : x y z
#
# Youngs Moduli (GPa) = 63.74738 66.62333 52.64528
#
# Poissons Ratio (x) = -0.07047 0.39216
# Poissons Ratio (y) = -0.06743 0.34624
# Poissons Ratio (z) = 0.47486 0.43817
#
# Static dielectric constant tensor:
#      x y z
#    x 3.950190 0.000000 0.000000 
#    y 0.000000 3.867460 0.000000 
#    z 0.000000 0.000000 3.972170 
# 
# 
# High freq. dielectric constant tensor:
#      x y z
#    x 1.867210 0.000000 0.000000 
#    y 0.000000 1.851090 0.000000 
#    z 0.000000 0.000000 1.873510 
# 
# From -- ./inp_files/5590.got.cif
#   From: 2010.03.12/outbox.cif.g09.slc.cpg/sg54_3_cif.got.tgz:5590.got - 2010.04.16 15:00:50.
