data_PCOD8222435
_publ_section_title
;
Structure prediction by ZEFSAII (Michael W. Deem and Ramdas Pophale) SiO2 
 PCOD8222435
Probable space group: P C C A
;
_chemical_formula_sum "Si O2"
_cell_formula_units_Z 44
_cell_length_a 18.700622
_cell_length_b 12.343927
_cell_length_c 8.792152
_cell_angle_alpha 90.000000
_cell_angle_beta 90.000000
_cell_angle_gamma 90.000000
_cell_volume 2029.572567
_symmetry_space_group_name_H-M "P C C A"
_symmetry_group_IT_number 54
_symmetry_cell_setting 'orthorhombic'
loop_
_space_group_symop_operation_xyz
x,y,z
1/2-x,-y,z
1/2+x,-y,1/2-z
-x,y,1/2-z
-x,-y,-z
1/2+x,y,-z
1/2-x,y,1/2+z
x,-y,1/2+z
loop_
_atom_site_type_symbol
_atom_site_label
_atom_site_fract_x
_atom_site_fract_y
_atom_site_fract_z
Si Si1 0.081519 0.625960 0.480989
Si Si2 0.000000 0.512945 0.750000
Si Si3 0.724670 0.384520 0.857321
Si Si4 0.784702 0.241584 0.081921
Si Si5 0.830902 0.959263 0.730894
Si Si6 0.369187 0.148603 0.454540
O O1 0.059777 0.563684 0.327191
O O2 0.164390 0.597917 0.513837
O O3 0.070907 0.756593 0.457581
O O4 0.033631 0.589851 0.622927
O O5 0.750000 0.500000 0.796909
O O6 0.791050 0.312556 0.926943
O O7 0.690519 0.318661 0.719310
O O8 0.830922 0.131514 0.094631
O O9 0.702647 0.208140 0.095013
O O10 0.750000 0.000000 0.763573
O O11 0.882757 0.055438 0.671865
O O12 0.863168 0.907727 0.881613
#
# Coordination Sequence:
#
# PCOD8222435 Si02
#       6
#     8   4   8   8   8   8
#     4  10  23  44  63  94 114 169 215 265 309 377
#     4  10  24  46  70  80 122 170 224 264 308 366
#     4  11  23  33  58  96 134 158 197 251 321 380
#     4  10  19  34  50  89 130 168 189 233 306 393
#     4  10  18  33  54  87 129 168 191 235 305 394
#     4  10  21  34  59  88 126 156 208 240 304 371
#
# _framework density 21.679442999999999
#
# number of rings (size 3 to 8) (size 9 to 14) (size 15 to 20)
#    0.000    1.818    3.636    2.182   10.182    0.000 
#    0.000    3.636    0.000    3.273    0.000    0.000 
#    0.000    0.000    0.000    0.000    0.000    0.000 
#
# Total GULP energy -545170.983316 kJ/mol
# GULP energy per Si atom -12390.249621 kJ/mol
# Density = 2.163010 g / cm^3
# Si number density = 21.679443 Si / 1000 Ang^3
#
#
#
# Elastic Constant Matrix: (Units=GPa)
#
#
# Indices 1 2 3 4 5 6 
#
# 1 28.5910 33.5341 16.3009 0.0000 0.0000 0.0000
# 2 33.5341 171.3475 39.0360 0.0000 0.0000 0.0000
# 3 16.3009 39.0360 56.7529 0.0000 0.0000 0.0000
# 4 0.0000 0.0000 0.0000 40.8351 0.0000 0.0000
# 5 0.0000 0.0000 0.0000 0.0000 18.1867 0.0000
# 6 0.0000 0.0000 0.0000 0.0000 0.0000 28.6809
#
#
#
# Elastic Compliance Matrix: (Units=1/GPa)
#
#
# Indices 1 2 3 4 5 6 
#
# 1 0.048874 -0.007550 -0.008845 0.000000 0.000000 0.000000
# 2 -0.007550 0.008087 -0.003394 0.000000 0.000000 0.000000
# 3 -0.008845 -0.003394 0.022495 0.000000 0.000000 0.000000
# 4 0.000000 0.000000 0.000000 0.024489 0.000000 0.000000
# 5 0.000000 0.000000 0.000000 0.000000 0.054985 0.000000
# 6 0.000000 0.000000 0.000000 0.000000 0.000000 0.034866
#
#
# Mechanical properties :
#
#
# Convention : Reuss Voigt Hill
#
# Bulk Modulus (GPa) = 25.07601 48.27040 36.67320
# Shear Modulus (GPa) = 20.27028 28.72857 24.49942
#
# Velocity S-wave (km/s) = 3.06109 3.64421 3.36531
# Velocity P-wave (km/s) = 4.90770 6.32621 5.66156
#
# Compressibility (1/GPa) = 0.03987875
#
# Stress axis : x y z
#
# Youngs Moduli (GPa) = 20.46070 123.65743 44.45430
#
# Poissons Ratio (x) = 0.93362 0.39319
# Poissons Ratio (y) = 0.15448 0.15087
# Poissons Ratio (z) = 0.18097 0.41966
#
# Static dielectric constant tensor:
#      x y z
#    x 3.356310 0.000000 0.000000 
#    y 0.000000 4.762340 0.000000 
#    z 0.000000 0.000000 3.955390 
# 
# 
# High freq. dielectric constant tensor:
#      x y z
#    x 1.770380 0.000000 0.000000 
#    y 0.000000 1.886050 0.000000 
#    z 0.000000 0.000000 1.857120 
# 
# From -- ./inp_files/5104.got.cif
#   From: 2010.03.12/outbox.cif.g09.slc.cpg/sg54_3_cif.got.tgz:5104.got - 2010.04.16 15:00:50.
