data_PCOD8222664
_publ_section_title
;
Structure prediction by ZEFSAII (Michael W. Deem and Ramdas Pophale) SiO2 
 PCOD8222664
Probable space group: P C C A
;
_chemical_formula_sum "Si O2"
_cell_formula_units_Z 40
_cell_length_a 18.207076
_cell_length_b 6.687345
_cell_length_c 16.809326
_cell_angle_alpha 90.000000
_cell_angle_beta 90.000000
_cell_angle_gamma 90.000000
_cell_volume 2046.653083
_symmetry_space_group_name_H-M "P C C A"
_symmetry_group_IT_number 54
_symmetry_cell_setting 'orthorhombic'
loop_
_space_group_symop_operation_xyz
x,y,z
1/2-x,-y,z
1/2+x,-y,1/2-z
-x,y,1/2-z
-x,-y,-z
1/2+x,y,-z
1/2-x,y,1/2+z
x,-y,1/2+z
loop_
_atom_site_type_symbol
_atom_site_label
_atom_site_fract_x
_atom_site_fract_y
_atom_site_fract_z
Si Si1 0.084311 0.787270 0.149770
Si Si2 0.051195 0.915921 0.431684
Si Si3 0.674231 0.909588 0.455501
Si Si4 0.674478 0.402528 0.818006
Si Si5 0.077929 0.880961 0.776744
O O1 0.114730 0.566592 0.159220
O O2 0.130881 0.909947 0.085576
O O3 0.088093 0.905040 0.233133
O O4 0.999472 0.763585 0.119692
O O5 0.078557 0.090516 0.371756
O O6 0.124341 0.821914 0.471943
O O7 0.000000 0.000000 0.500000
O O8 0.691345 0.731383 0.394935
O O9 0.750000 0.000000 0.489331
O O10 0.750000 0.500000 0.787772
O O11 0.643461 0.268440 0.746287
O O12 0.000000 0.785997 0.750000
#
# Coordination Sequence:
#
# PCOD8222664 Si02
#       5
#     8   8   8   8   8
#     4   9  19  37  60  83 115 151 204 245 290 352
#     4   9  19  38  61  83 116 158 189 242 303 353
#     4  10  19  36  58  84 118 159 196 238 298 362
#     4  11  21  36  64  88 117 158 200 245 299 358
#     4   9  20  38  60  86 113 153 204 248 291 354
#
# _framework density 19.544104000000001
#
# number of rings (size 3 to 8) (size 9 to 14) (size 15 to 20)
#    0.000    2.400    2.000    1.200    0.000    3.200 
#    3.600    4.000    0.000    0.000    0.000    0.000 
#    0.000    0.000    0.000    0.000    0.000    0.000 
#
# Total GULP energy -495776.869566 kJ/mol
# GULP energy per Si atom -12394.421739 kJ/mol
# Density = 1.949962 g / cm^3
# Si number density = 19.544104 Si / 1000 Ang^3
#
#
#
# Elastic Constant Matrix: (Units=GPa)
#
#
# Indices 1 2 3 4 5 6 
#
# 1 142.3289 43.5872 52.9168 0.0000 0.0000 0.0000
# 2 43.5872 75.9261 26.4181 0.0000 0.0000 0.0000
# 3 52.9168 26.4181 102.7896 0.0000 0.0000 0.0000
# 4 0.0000 0.0000 0.0000 9.1384 0.0000 0.0000
# 5 0.0000 0.0000 0.0000 0.0000 33.4957 0.0000
# 6 0.0000 0.0000 0.0000 0.0000 0.0000 33.6184
#
#
#
# Elastic Compliance Matrix: (Units=1/GPa)
#
#
# Indices 1 2 3 4 5 6 
#
# 1 0.009796 -0.004249 -0.003951 0.000000 0.000000 0.000000
# 2 -0.004249 0.016307 -0.002004 0.000000 0.000000 0.000000
# 3 -0.003951 -0.002004 0.012278 0.000000 0.000000 0.000000
# 4 0.000000 0.000000 0.000000 0.109429 0.000000 0.000000
# 5 0.000000 0.000000 0.000000 0.000000 0.029855 0.000000
# 6 0.000000 0.000000 0.000000 0.000000 0.000000 0.029746
#
#
# Mechanical properties :
#
#
# Convention : Reuss Voigt Hill
#
# Bulk Modulus (GPa) = 55.63790 62.98765 59.31277
# Shear Modulus (GPa) = 21.38502 28.45865 24.92183
#
# Velocity S-wave (km/s) = 3.31145 3.82006 3.57481
# Velocity P-wave (km/s) = 6.56891 7.19413 6.88862
#
# Compressibility (1/GPa) = 0.01797336
#
# Stress axis : x y z
#
# Youngs Moduli (GPa) = 102.08044 61.32290 81.44881
#
# Poissons Ratio (x) = 0.26056 0.32181
# Poissons Ratio (y) = 0.43374 0.16320
# Poissons Ratio (z) = 0.40333 0.12287
#
# Static dielectric constant tensor:
#      x y z
#    x 3.957580 0.000000 0.000000 
#    y 0.000000 3.224450 0.000000 
#    z 0.000000 0.000000 3.681560 
# 
# 
# High freq. dielectric constant tensor:
#      x y z
#    x 1.776890 0.000000 0.000000 
#    y 0.000000 1.728710 0.000000 
#    z 0.000000 0.000000 1.753740 
# 
# From -- ./inp_files/18357.got.cif
#   From: 2010.03.12/outbox.cif.g09.slc.cpg/sg54_10_cif.got.tgz:18357.got - 2010.04.16 15:00:50.
