data_PCOD8222266
_publ_section_title
;
Structure prediction by ZEFSAII (Michael W. Deem and Ramdas Pophale) SiO2 
 PCOD8222266
Probable space group: P M N A
;
_chemical_formula_sum "Si O2"
_cell_formula_units_Z 56
_cell_length_a 9.000000
_cell_length_b 15.000000
_cell_length_c 21.000000
_cell_angle_alpha 90.000000
_cell_angle_beta 90.000000
_cell_angle_gamma 90.000000
_cell_volume 2835.000000
_symmetry_space_group_name_H-M "P M N A"
_symmetry_group_IT_number 53
_symmetry_cell_setting 'orthorhombic'
loop_
_space_group_symop_operation_xyz
x,y,z
1/2-x,-y,1/2+z
x,-y,-z
1/2-x,y,1/2-z
-x,-y,-z
1/2+x,y,1/2-z
-x,y,z
1/2+x,-y,1/2+z
loop_
_atom_site_type_symbol
_atom_site_label
_atom_site_fract_x
_atom_site_fract_y
_atom_site_fract_z
Si Si1 0.172944 0.718225 0.417736
Si Si2 0.174601 0.792066 0.688668
Si Si3 0.321528 0.895666 0.440102
Si Si4 0.165594 0.599191 0.989430
Si Si5 0.176780 0.076117 0.425155
Si Si6 0.666514 0.611405 0.657827
Si Si7 0.673874 0.427167 0.812014
O O1 0.268099 0.807078 0.403042
O O2 0.224038 0.673526 0.483460
O O3 0.209278 0.644442 0.365621
O O4 0.000000 0.743601 0.421561
O O5 0.250000 0.838882 0.750000
O O6 0.215010 0.851674 0.628051
O O7 0.241513 0.693476 0.684806
O O8 0.000000 0.785053 0.698474
O O9 0.500000 0.902032 0.441546
O O10 0.255086 0.889619 0.510956
O O11 0.250750 0.981742 0.405172
O O12 0.154191 0.622942 0.916660
O O13 0.000000 0.604443 0.020851
O O14 0.232081 0.500000 0.000000
O O15 0.000000 0.064725 0.435446
O O16 0.500000 0.609354 0.687534
O O17 0.751572 0.521304 0.673783
O O18 0.750000 0.385598 0.750000
O O19 0.500000 0.441897 0.802488
#
# Coordination Sequence:
#
# PCOD8222266 Si02
#       7
#     8   8   8   8   8   8   8
#     4  11  23  38  58  85 117 153 192 238 287 341
#     4  11  24  40  60  86 118 156 198 242 290 346
#     4  11  22  37  63  93 120 152 189 235 291 351
#     4  10  20  35  56  85 117 151 190 236 290 341
#     4  10  21  40  64  90 120 152 189 238 291 348
#     4  11  22  37  59  84 117 155 193 238 286 344
#     4  11  24  40  58  79 109 151 197 241 285 336
#
# _framework density 19.753086
#
# number of rings (size 3 to 8) (size 9 to 14) (size 15 to 20)
#    0.000    1.286    1.429    5.571    0.000    7.714 
#    0.000    0.714    0.000    0.000    0.000    0.000 
#    0.000    0.000    0.000    0.000    0.000    0.000 
#
# Total GULP energy -694446.782201 kJ/mol
# GULP energy per Si atom -12400.835396 kJ/mol
# Density = 1.970813 g / cm^3
# Si number density = 19.753086 Si / 1000 Ang^3
#
#
#
# Elastic Constant Matrix: (Units=GPa)
#
#
# Indices 1 2 3 4 5 6 
#
# 1 141.5910 61.5862 41.8509 0.0000 0.0000 0.0000
# 2 61.5862 130.1712 30.6317 0.0000 0.0000 0.0000
# 3 41.8509 30.6317 65.8674 0.0000 0.0000 0.0000
# 4 0.0000 0.0000 0.0000 -6.7970 0.0000 0.0000
# 5 0.0000 0.0000 0.0000 0.0000 28.9155 0.0000
# 6 0.0000 0.0000 0.0000 0.0000 0.0000 38.1424
#
#
#
# Elastic Compliance Matrix: (Units=1/GPa)
#
#
# Indices 1 2 3 4 5 6 
#
# 1 0.010031 -0.003645 -0.004678 0.000000 0.000000 0.000000
# 2 -0.003645 0.009951 -0.002312 0.000000 0.000000 0.000000
# 3 -0.004678 -0.002312 0.019230 0.000000 0.000000 0.000000
# 4 0.000000 0.000000 0.000000 -0.147124 0.000000 0.000000
# 5 0.000000 0.000000 0.000000 0.000000 0.034584 0.000000
# 6 0.000000 0.000000 0.000000 0.000000 0.000000 0.026218
#
#
# Mechanical properties :
#
#
# Convention : Reuss Voigt Hill
#
# Bulk Modulus (GPa) = 55.73738 67.30746 61.52242
# Shear Modulus (GPa) = -251.73910 25.62290 -113.05810
#
# Velocity S-wave (km/s) = -11.30131 3.60552 -7.57363
# Velocity P-wave (km/s) = 11.91698 7.17505 6.72804
#
# Compressibility (1/GPa) = 0.01794128
#
# Stress axis : x y z
#
# Youngs Moduli (GPa) = 99.69357 100.49649 52.00316
#
# Poissons Ratio (x) = 0.36629 0.24329
# Poissons Ratio (y) = 0.36336 0.12022
# Poissons Ratio (z) = 0.46640 0.23232
#
# Static dielectric constant tensor:
#      x y z
#    x 3.929650 0.000000 0.000000 
#    y 0.000000 3.746910 0.000000 
#    z 0.000000 0.000000 3.640090 
# 
# 
# High freq. dielectric constant tensor:
#      x y z
#    x 1.790500 0.000000 0.000000 
#    y 0.000000 1.778800 0.000000 
#    z 0.000000 0.000000 1.756840 
# 
# From -- ./inp_files/30867.got.cif
#   From: 2010.03.12/outbox.ucp.g09.slc.cvg/sg53_16_cif.got.tgz:30867.got - 2010.05.04 19:20:06.
