data_PCOD8222276
_publ_section_title
;
Structure prediction by ZEFSAII (Michael W. Deem and Ramdas Pophale) SiO2 
 PCOD8222276
Probable space group: P C C A
;
_chemical_formula_sum "Si O2"
_cell_formula_units_Z 56
_cell_length_a 16.830326
_cell_length_b 33.548112
_cell_length_c 5.232443
_cell_angle_alpha 90.000000
_cell_angle_beta 90.000000
_cell_angle_gamma 90.000000
_cell_volume 2954.371591
_symmetry_space_group_name_H-M "P C C A"
_symmetry_group_IT_number 54
_symmetry_cell_setting 'orthorhombic'
loop_
_space_group_symop_operation_xyz
x,y,z
1/2-x,-y,z
1/2+x,-y,1/2-z
-x,y,1/2-z
-x,-y,-z
1/2+x,y,-z
1/2-x,y,1/2+z
x,-y,1/2+z
loop_
_atom_site_type_symbol
_atom_site_label
_atom_site_fract_x
_atom_site_fract_y
_atom_site_fract_z
Si Si1 0.451559 0.161763 0.500026
Si Si2 0.451746 0.255357 0.499943
Si Si3 0.659453 0.516992 0.477216
Si Si4 0.801143 0.892464 0.033562
Si Si5 0.798388 0.603448 0.040934
Si Si6 0.698237 0.309759 0.965882
Si Si7 0.338634 0.017142 0.455658
O O1 0.500000 0.148606 0.750000
O O2 0.434544 0.208568 0.499904
O O3 0.367082 0.140769 0.504124
O O4 0.500000 0.148438 0.250000
O O5 0.500000 0.268609 0.750000
O O6 0.367621 0.276642 0.495855
O O7 0.500000 0.268475 0.250000
O O8 0.750000 0.500000 0.472406
O O9 0.615510 0.501589 0.223052
O O10 0.648846 0.564734 0.484838
O O11 0.763871 0.886901 0.312992
O O12 0.840706 0.935705 0.008488
O O13 0.774028 0.601338 0.338273
O O14 0.841389 0.645953 0.990526
O O15 0.764327 0.304248 0.185431
O O16 0.250000 0.000000 0.417622
O O17 0.383011 0.996000 0.694309
#
# Coordination Sequence:
#
# PCOD8222276 Si02
#       7
#     8   8   8   8   8   8   8
#     4  10  23  41  57  79 114 147 172 221 279 322
#     4  10  21  40  61  76 103 149 188 207 257 342
#     4  10  14  20  34  53  84 131 165 185 233 318
#     4  12  21  33  59  90 106 141 187 232 257 313
#     4  10  16  25  37  62  97 131 155 203 261 307
#     4  10  21  33  53  81 112 136 164 231 283 299
#     4  10  16  30  49  78 107 138 176 218 257 299
#
# _framework density 18.954962999999999
#
# number of rings (size 3 to 8) (size 9 to 14) (size 15 to 20)
#    0.000    1.714    5.714    1.714    0.000    1.143 
#    0.000    0.000    0.000    2.571    0.000    0.000 
#    0.000    3.429    0.000    0.000    0.000    0.000 
#
# Total GULP energy -694097.513669 kJ/mol
# GULP energy per Si atom -12394.598458 kJ/mol
# Density = 1.891182 g / cm^3
# Si number density = 18.954963 Si / 1000 Ang^3
#
#
#
# Elastic Constant Matrix: (Units=GPa)
#
#
# Indices 1 2 3 4 5 6 
#
# 1 39.5862 35.7352 16.9209 0.0000 0.0000 0.0000
# 2 35.7352 74.4173 24.3743 0.0000 0.0000 0.0000
# 3 16.9209 24.3743 145.9384 0.0000 0.0000 0.0000
# 4 0.0000 0.0000 0.0000 9.6195 0.0000 0.0000
# 5 0.0000 0.0000 0.0000 0.0000 11.1447 0.0000
# 6 0.0000 0.0000 0.0000 0.0000 0.0000 -1.7060
#
#
#
# Elastic Compliance Matrix: (Units=1/GPa)
#
#
# Indices 1 2 3 4 5 6 
#
# 1 0.044986 -0.021045 -0.001701 0.000000 0.000000 0.000000
# 2 -0.021045 0.024061 -0.001578 0.000000 0.000000 0.000000
# 3 -0.001701 -0.001578 0.007313 0.000000 0.000000 0.000000
# 4 0.000000 0.000000 0.000000 0.103955 0.000000 0.000000
# 5 0.000000 0.000000 0.000000 0.000000 0.089729 0.000000
# 6 0.000000 0.000000 0.000000 0.000000 0.000000 -0.586165
#
#
# Mechanical properties :
#
#
# Convention : Reuss Voigt Hill
#
# Bulk Modulus (GPa) = 36.08735 46.00030 41.04383
# Shear Modulus (GPa) = -19.36228 16.00574 -1.67827
#
# Velocity S-wave (km/s) = -3.19954 2.90902 -0.94198
# Velocity P-wave (km/s) = 2.33032 5.96692 4.52960
#
# Compressibility (1/GPa) = 0.02771054
#
# Stress axis : x y z
#
# Youngs Moduli (GPa) = 22.22893 41.56150 136.74166
#
# Poissons Ratio (x) = 0.87468 0.23260
# Poissons Ratio (y) = 0.46782 0.21584
# Poissons Ratio (z) = 0.03781 0.06560
#
# Static dielectric constant tensor:
#      x y z
#    x 2.791350 0.000000 0.000000 
#    y 0.000000 3.647170 0.000000 
#    z 0.000000 0.000000 4.956750 
# 
# 
# High freq. dielectric constant tensor:
#      x y z
#    x 1.661850 0.000000 0.000000 
#    y 0.000000 1.750030 0.000000 
#    z 0.000000 0.000000 1.776280 
# 
# From -- ./inp_files/759.got.cif
#   From: 2010.03.12/outbox.cif.g09.slc.cpg/sg54_1_cif.got.tgz:759.got - 2010.04.16 15:00:50.
