data_PCOD8222675
_publ_section_title
;
Structure prediction by ZEFSAII (Michael W. Deem and Ramdas Pophale) SiO2 
 PCOD8222675
Probable space group: P C C A
;
_chemical_formula_sum "Si O2"
_cell_formula_units_Z 44
_cell_length_a 13.571505
_cell_length_b 8.827283
_cell_length_c 18.304560
_cell_angle_alpha 90.000000
_cell_angle_beta 90.000000
_cell_angle_gamma 90.000000
_cell_volume 2192.877417
_symmetry_space_group_name_H-M "P C C A"
_symmetry_group_IT_number 54
_symmetry_cell_setting 'orthorhombic'
loop_
_space_group_symop_operation_xyz
x,y,z
1/2-x,-y,z
1/2+x,-y,1/2-z
-x,y,1/2-z
-x,-y,-z
1/2+x,y,-z
1/2-x,y,1/2+z
x,-y,1/2+z
loop_
_atom_site_type_symbol
_atom_site_label
_atom_site_fract_x
_atom_site_fract_y
_atom_site_fract_z
Si Si1 0.603848 0.208071 0.979450
Si Si2 0.000000 0.234316 0.250000
Si Si3 0.701345 0.351829 0.501177
Si Si4 0.531974 0.424133 0.608287
Si Si5 0.037487 0.758310 0.100203
Si Si6 0.634912 0.978543 0.335348
O O1 0.553222 0.361942 0.946195
O O2 0.617242 0.084775 0.916725
O O3 0.707955 0.239905 0.018778
O O4 0.533697 0.149234 0.044642
O O5 0.035576 0.338548 0.315576
O O6 0.093004 0.132908 0.226223
O O7 0.750000 0.500000 0.465913
O O8 0.638853 0.395317 0.572808
O O9 0.640133 0.272396 0.438766
O O10 0.514553 0.601818 0.624466
O O11 0.070198 0.865672 0.167851
O O12 0.750000 0.000000 0.318384
#
# Coordination Sequence:
#
# PCOD8222675 Si02
#       6
#     8   4   8   8   8   8
#     4  10  19  36  61  93 127 144 187 255 317 360
#     4  10  26  48  52  78 126 166 208 246 292 362
#     4  11  17  33  63  99 120 141 193 258 311 359
#     4  10  21  37  62  84 119 162 197 249 298 355
#     4  11  20  34  63  96 116 154 198 251 311 359
#     4  11  23  41  63  85 124 167 200 244 308 377
#
# _framework density 20.064962000000001
#
# number of rings (size 3 to 8) (size 9 to 14) (size 15 to 20)
#    0.000    1.455    5.455    1.636    0.000    0.727 
#    3.273    1.818    0.000    0.000    0.000    0.000 
#    0.000    0.000    0.000    0.000    0.000    0.000 
#
# Total GULP energy -545430.459568 kJ/mol
# GULP energy per Si atom -12396.146808 kJ/mol
# Density = 2.001929 g / cm^3
# Si number density = 20.064962 Si / 1000 Ang^3
#
#
#
# Elastic Constant Matrix: (Units=GPa)
#
#
# Indices 1 2 3 4 5 6 
#
# 1 141.9428 42.2577 50.5945 0.0000 0.0000 0.0000
# 2 42.2577 85.4679 35.5433 0.0000 0.0000 0.0000
# 3 50.5945 35.5433 71.8607 0.0000 0.0000 0.0000
# 4 0.0000 0.0000 0.0000 24.1763 0.0000 0.0000
# 5 0.0000 0.0000 0.0000 0.0000 14.1899 0.0000
# 6 0.0000 0.0000 0.0000 0.0000 0.0000 32.1274
#
#
#
# Elastic Compliance Matrix: (Units=1/GPa)
#
#
# Indices 1 2 3 4 5 6 
#
# 1 0.009809 -0.002490 -0.005675 0.000000 0.000000 0.000000
# 2 -0.002490 0.015362 -0.005845 0.000000 0.000000 0.000000
# 3 -0.005675 -0.005845 0.020802 0.000000 0.000000 0.000000
# 4 0.000000 0.000000 0.000000 0.041363 0.000000 0.000000
# 5 0.000000 0.000000 0.000000 0.000000 0.070473 0.000000
# 6 0.000000 0.000000 0.000000 0.000000 0.000000 0.031126
#
#
# Mechanical properties :
#
#
# Convention : Reuss Voigt Hill
#
# Bulk Modulus (GPa) = 55.69845 61.78471 58.74158
# Shear Modulus (GPa) = 22.42762 25.49047 23.95904
#
# Velocity S-wave (km/s) = 3.34690 3.56813 3.45929
# Velocity P-wave (km/s) = 6.53873 6.91625 6.73014
#
# Compressibility (1/GPa) = 0.01795382
#
# Stress axis : x y z
#
# Youngs Moduli (GPa) = 101.94659 65.09454 48.07172
#
# Poissons Ratio (x) = 0.16208 0.27279
# Poissons Ratio (y) = 0.25385 0.28099
# Poissons Ratio (z) = 0.57851 0.38050
#
# Static dielectric constant tensor:
#      x y z
#    x 3.859640 0.000000 0.000000 
#    y 0.000000 3.742880 0.000000 
#    z 0.000000 0.000000 3.304120 
# 
# 
# High freq. dielectric constant tensor:
#      x y z
#    x 1.798820 0.000000 0.000000 
#    y 0.000000 1.791150 0.000000 
#    z 0.000000 0.000000 1.744360 
# 
# From -- ./inp_files/17935.got.cif
#   From: 2010.03.12/outbox.cif.g09.slc.cpg/sg54_9_cif.got.tgz:17935.got - 2010.04.16 15:00:50.
