data_PCOD8222929
_publ_section_title
;
Structure prediction by ZEFSAII (Michael W. Deem and Ramdas Pophale) SiO2 
 PCOD8222929
Probable space group: P C C A
;
_chemical_formula_sum "Si O2"
_cell_formula_units_Z 64
_cell_length_a 14.120998
_cell_length_b 9.081526
_cell_length_c 24.798260
_cell_angle_alpha 90.000000
_cell_angle_beta 90.000000
_cell_angle_gamma 90.000000
_cell_volume 3180.134082
_symmetry_space_group_name_H-M "P C C A"
_symmetry_group_IT_number 54
_symmetry_cell_setting 'orthorhombic'
loop_
_space_group_symop_operation_xyz
x,y,z
1/2-x,-y,z
1/2+x,-y,1/2-z
-x,y,1/2-z
-x,-y,-z
1/2+x,y,-z
1/2-x,y,1/2+z
x,-y,1/2+z
loop_
_atom_site_type_symbol
_atom_site_label
_atom_site_fract_x
_atom_site_fract_y
_atom_site_fract_z
Si Si1 0.752006 0.324892 0.355437
Si Si2 0.858975 0.488223 0.542072
Si Si3 0.079664 0.616443 0.343548
Si Si4 0.263102 0.326783 0.266075
Si Si5 0.937367 0.852196 0.884863
Si Si6 0.939817 0.702363 0.697978
Si Si7 0.498668 0.729542 0.490733
Si Si8 0.074278 0.815188 0.104103
O O1 0.750000 0.500000 0.361443
O O2 0.722210 0.273091 0.295190
O O3 0.854442 0.260604 0.369141
O O4 0.677367 0.258666 0.397558
O O5 0.750000 0.500000 0.523745
O O6 0.862507 0.430043 0.603220
O O7 0.914000 0.379473 0.502141
O O8 0.909874 0.645741 0.536407
O O9 0.147207 0.711091 0.303733
O O10 0.041663 0.469594 0.314708
O O11 0.991237 0.719622 0.356427
O O12 0.250000 0.500000 0.266135
O O13 0.169204 0.255514 0.291492
O O14 0.961963 0.845922 0.948023
O O15 0.029127 0.804761 0.851277
O O16 0.913193 0.021186 0.872429
O O17 0.000000 0.744876 0.750000
O O18 0.467287 0.815937 0.544012
#
# Coordination Sequence:
#
# PCOD8222929 Si02
#       8
#     8   8   8   8   8   8   8   8
#     4  11  24  41  67  95 122 162 214 259 308 374
#     4  10  20  37  64 100 119 153 217 272 302 360
#     4  10  21  39  64  92 124 161 211 263 311 371
#     4   9  20  37  63  95 123 159 205 261 315 363
#     4  12  24  44  62  90 131 169 204 260 325 383
#     4  11  20  38  65  93 122 163 211 260 308 370
#     4  10  24  39  64  90 126 168 210 259 320 374
#     4  11  26  43  60  92 129 168 208 258 323 388
#
# _framework density 20.124938
#
# number of rings (size 3 to 8) (size 9 to 14) (size 15 to 20)
#    0.000    1.500    2.500    2.625    8.750    0.000 
#    2.250    0.625    0.000    0.000    0.000    0.000 
#    0.000    0.000    0.000    0.000    0.000    0.000 
#
# Total GULP energy -793786.717746 kJ/mol
# GULP energy per Si atom -12402.917465 kJ/mol
# Density = 2.007913 g / cm^3
# Si number density = 20.124938 Si / 1000 Ang^3
#
#
#
# Elastic Constant Matrix: (Units=GPa)
#
#
# Indices 1 2 3 4 5 6 
#
# 1 96.9740 27.2156 22.0038 0.0000 0.0000 0.0000
# 2 27.2156 92.8345 15.7903 0.0000 0.0000 0.0000
# 3 22.0038 15.7903 89.4754 0.0000 0.0000 0.0000
# 4 0.0000 0.0000 0.0000 14.3586 0.0000 0.0000
# 5 0.0000 0.0000 0.0000 0.0000 29.2633 0.0000
# 6 0.0000 0.0000 0.0000 0.0000 0.0000 6.9405
#
#
#
# Elastic Compliance Matrix: (Units=1/GPa)
#
#
# Indices 1 2 3 4 5 6 
#
# 1 0.011694 -0.003030 -0.002341 0.000000 0.000000 0.000000
# 2 -0.003030 0.011890 -0.001353 0.000000 0.000000 0.000000
# 3 -0.002341 -0.001353 0.011991 0.000000 0.000000 0.000000
# 4 0.000000 0.000000 0.000000 0.069645 0.000000 0.000000
# 5 0.000000 0.000000 0.000000 0.000000 0.034172 0.000000
# 6 0.000000 0.000000 0.000000 0.000000 0.000000 0.144082
#
#
# Mechanical properties :
#
#
# Convention : Reuss Voigt Hill
#
# Bulk Modulus (GPa) = 45.19502 45.47816 45.33659
# Shear Modulus (GPa) = 16.43128 24.39743 20.41435
#
# Velocity S-wave (km/s) = 2.86048 3.48558 3.18839
# Velocity P-wave (km/s) = 5.78064 6.23266 6.01090
#
# Compressibility (1/GPa) = 0.02212633
#
# Stress axis : x y z
#
# Youngs Moduli (GPa) = 85.51713 84.10223 83.39752
#
# Poissons Ratio (x) = 0.25482 0.19523
# Poissons Ratio (y) = 0.25911 0.11286
# Poissons Ratio (z) = 0.20019 0.11381
#
# Static dielectric constant tensor:
#      x y z
#    x 3.760850 0.000000 0.000000 
#    y 0.000000 3.308360 0.000000 
#    z 0.000000 0.000000 3.863860 
# 
# 
# High freq. dielectric constant tensor:
#      x y z
#    x 1.792090 0.000000 0.000000 
#    y 0.000000 1.756120 0.000000 
#    z 0.000000 0.000000 1.799280 
# 
# From -- ./inp_files/24522.got.cif
#   From: 2010.03.12/outbox.cif.g09.slc.cpg/sg54_13_cif.got.tgz:24522.got - 2010.04.16 15:00:50.
