data_PCOD8222855
_publ_section_title
;
Structure prediction by ZEFSAII (Michael W. Deem and Ramdas Pophale) SiO2 
 PCOD8222855
Probable space group: P C C A
;
_chemical_formula_sum "Si O2"
_cell_formula_units_Z 32
_cell_length_a 5.102359
_cell_length_b 13.030254
_cell_length_c 24.711356
_cell_angle_alpha 90.000000
_cell_angle_beta 90.000000
_cell_angle_gamma 90.000000
_cell_volume 1642.935338
_symmetry_space_group_name_H-M "P C C A"
_symmetry_group_IT_number 54
_symmetry_cell_setting 'orthorhombic'
loop_
_space_group_symop_operation_xyz
x,y,z
1/2-x,-y,z
1/2+x,-y,1/2-z
-x,y,1/2-z
-x,-y,-z
1/2+x,y,-z
1/2-x,y,1/2+z
x,-y,1/2+z
loop_
_atom_site_type_symbol
_atom_site_label
_atom_site_fract_x
_atom_site_fract_y
_atom_site_fract_z
Si Si1 0.984242 0.116012 0.524150
Si Si2 0.250000 0.500000 0.214633
Si Si3 0.550493 0.289520 0.813751
Si Si4 0.064065 0.817910 0.354494
Si Si5 0.250000 0.000000 0.281822
O O1 0.748379 0.173863 0.493400
O O2 0.943213 0.126462 0.587696
O O3 0.000000 0.000000 0.500000
O O4 0.500000 0.461079 0.250000
O O5 0.351984 0.593569 0.177555
O O6 0.500000 0.270777 0.750000
O O7 0.283005 0.271947 0.848398
O O8 0.775387 0.216671 0.837420
O O9 0.149371 0.905273 0.314751
O O10 0.500000 0.956296 0.250000
#
# Coordination Sequence:
#
# PCOD8222855 Si02
#       5
#     8   4   8   8   4
#     4  10  21  38  56  77 105 142 194 249 283 322
#     4  10  20  36  60  86 118 156 190 234 280 332
#     4  11  22  38  58  88 121 152 189 230 281 349
#     4  12  23  37  57  82 114 155 192 235 286 337
#     4  12  24  34  48  76 118 158 184 214 270 348
#
# _framework density 19.477335
#
# number of rings (size 3 to 8) (size 9 to 14) (size 15 to 20)
#    0.000    1.000    0.000   10.500    0.000    4.000 
#    0.000    0.000    0.000    0.000    0.000   17.500 
#    0.000    0.000    0.000    0.000    0.000    0.000 
#
# Total GULP energy -396500.925013 kJ/mol
# GULP energy per Si atom -12390.653907 kJ/mol
# Density = 1.943300 g / cm^3
# Si number density = 19.477335 Si / 1000 Ang^3
#
#
#
# Elastic Constant Matrix: (Units=GPa)
#
#
# Indices 1 2 3 4 5 6 
#
# 1 161.4628 17.1025 52.1666 0.0000 0.0000 0.0000
# 2 17.1025 78.2230 37.5022 0.0000 0.0000 0.0000
# 3 52.1666 37.5022 127.5249 0.0000 0.0000 0.0000
# 4 0.0000 0.0000 0.0000 21.0351 0.0000 0.0000
# 5 0.0000 0.0000 0.0000 0.0000 39.4209 0.0000
# 6 0.0000 0.0000 0.0000 0.0000 0.0000 26.7556
#
#
#
# Elastic Compliance Matrix: (Units=1/GPa)
#
#
# Indices 1 2 3 4 5 6 
#
# 1 0.007139 -0.000187 -0.002865 0.000000 0.000000 0.000000
# 2 -0.000187 0.014887 -0.004301 0.000000 0.000000 0.000000
# 3 -0.002865 -0.004301 0.010279 0.000000 0.000000 0.000000
# 4 0.000000 0.000000 0.000000 0.047540 0.000000 0.000000
# 5 0.000000 0.000000 0.000000 0.000000 0.025367 0.000000
# 6 0.000000 0.000000 0.000000 0.000000 0.000000 0.037375
#
#
# Mechanical properties :
#
#
# Convention : Reuss Voigt Hill
#
# Bulk Modulus (GPa) = 56.82784 64.52816 60.67800
# Shear Modulus (GPa) = 30.64472 34.80494 32.72483
#
# Velocity S-wave (km/s) = 3.97085 4.23181 4.10341
# Velocity P-wave (km/s) = 7.08966 7.55510 7.32608
#
# Compressibility (1/GPa) = 0.01759701
#
# Stress axis : x y z
#
# Youngs Moduli (GPa) = 140.07676 67.17225 97.28894
#
# Poissons Ratio (x) = 0.01257 0.27876
# Poissons Ratio (y) = 0.02621 0.41848
# Poissons Ratio (z) = 0.40136 0.28894
#
# Static dielectric constant tensor:
#      x y z
#    x 6.420020 0.000000 0.000000 
#    y 0.000000 3.464870 0.000000 
#    z 0.000000 0.000000 3.469820 
# 
# 
# High freq. dielectric constant tensor:
#      x y z
#    x 1.805210 0.000000 0.000000 
#    y 0.000000 1.731690 0.000000 
#    z 0.000000 0.000000 1.731030 
# 
# From -- ./inp_files/19530.got.cif
#   From: 2010.03.12/outbox.cif.g09.slc.cpg/sg54_10_cif.got.tgz:19530.got - 2010.04.16 15:00:50.
