data_PCOD8222254
_publ_section_title
;
Structure prediction by ZEFSAII (Michael W. Deem and Ramdas Pophale) SiO2 
 PCOD8222254
Probable space group: P M N A
;
_chemical_formula_sum "Si O2"
_cell_formula_units_Z 64
_cell_length_a 9.589394
_cell_length_b 10.112866
_cell_length_c 39.218969
_cell_angle_alpha 90.000000
_cell_angle_beta 90.000000
_cell_angle_gamma 90.000000
_cell_volume 3803.308799
_symmetry_space_group_name_H-M "P M N A"
_symmetry_group_IT_number 53
_symmetry_cell_setting 'orthorhombic'
loop_
_space_group_symop_operation_xyz
x,y,z
1/2-x,-y,1/2+z
x,-y,-z
1/2-x,y,1/2-z
-x,-y,-z
1/2+x,y,1/2-z
-x,y,z
1/2+x,-y,1/2+z
loop_
_atom_site_type_symbol
_atom_site_label
_atom_site_fract_x
_atom_site_fract_y
_atom_site_fract_z
Si Si1 0.161303 0.787015 0.217092
Si Si2 0.662022 0.986136 0.341882
Si Si3 0.666235 0.369267 0.017613
Si Si4 0.661816 0.484854 0.283309
Si Si5 0.337389 0.710166 0.656456
Si Si6 0.841018 0.977416 0.406293
Si Si7 0.666100 0.880965 0.022067
Si Si8 0.840368 0.713826 0.591061
O O1 0.250000 0.822848 0.250000
O O2 0.209518 0.890176 0.188429
O O3 0.189786 0.636211 0.205081
O O4 0.000000 0.807164 0.226364
O O5 0.500000 0.968685 0.350063
O O6 0.745433 0.937831 0.374758
O O7 0.697291 0.138696 0.332712
O O8 0.500000 0.365231 0.017173
O O9 0.715299 0.358907 0.056943
O O10 0.726270 0.500000 0.000000
O O11 0.726801 0.251954 0.994357
O O12 0.750000 0.448522 0.250000
O O13 0.500000 0.462537 0.274413
O O14 0.710314 0.386978 0.313320
O O15 0.500000 0.692763 0.648289
O O16 0.253345 0.668360 0.622775
O O17 0.787412 0.893030 0.438582
O O18 0.000000 0.942633 0.396788
O O19 0.827005 0.130787 0.415936
O O20 0.500000 0.885578 0.020331
O O21 0.729640 0.000000 0.000000
O O22 0.000000 0.674963 0.599181
#
# Coordination Sequence:
#
# PCOD8222254 Si02
#       8
#     8   8   8   8   8   8   8   8
#     4   9  18  33  51  69  92 122 150 180 222 268
#     4   9  18  32  48  67  94 123 149 181 224 269
#     4   9  16  26  41  63  91 117 145 187 233 268
#     4   9  18  33  51  69  91 120 152 183 219 265
#     4   9  18  32  49  68  91 122 154 182 219 268
#     4   9  16  27  46  69  90 116 153 190 223 264
#     4   9  14  24  43  63  84 116 152 184 222 268
#     4   9  16  28  46  67  91 119 150 187 229 268
#
# _framework density 16.827452000000001
#
# number of rings (size 3 to 8) (size 9 to 14) (size 15 to 20)
#    0.000    3.000    1.250    0.000    0.000    1.500 
#    2.250    0.000    0.000    1.500    0.000    0.000 
#    0.000    0.000    0.000    0.000    0.000    0.000 
#
# Total GULP energy -793479.114344 kJ/mol
# GULP energy per Si atom -12398.111162 kJ/mol
# Density = 1.678915 g / cm^3
# Si number density = 16.827452 Si / 1000 Ang^3
#
#
#
# Elastic Constant Matrix: (Units=GPa)
#
#
# Indices 1 2 3 4 5 6 
#
# 1 41.8056 34.0388 59.6459 0.0000 0.0000 0.0000
# 2 34.0388 107.3989 93.8221 0.0000 0.0000 0.0000
# 3 59.6459 93.8221 172.9189 0.0000 0.0000 0.0000
# 4 0.0000 0.0000 0.0000 32.5608 0.0000 0.0000
# 5 0.0000 0.0000 0.0000 0.0000 26.9649 0.0000
# 6 0.0000 0.0000 0.0000 0.0000 0.0000 14.5437
#
#
#
# Elastic Compliance Matrix: (Units=1/GPa)
#
#
# Indices 1 2 3 4 5 6 
#
# 1 0.047210 -0.001401 -0.015524 0.000000 0.000000 0.000000
# 2 -0.001401 0.017743 -0.009144 0.000000 0.000000 0.000000
# 3 -0.015524 -0.009144 0.016099 0.000000 0.000000 0.000000
# 4 0.000000 0.000000 0.000000 0.030712 0.000000 0.000000
# 5 0.000000 0.000000 0.000000 0.000000 0.037085 0.000000
# 6 0.000000 0.000000 0.000000 0.000000 0.000000 0.068758
#
#
# Mechanical properties :
#
#
# Convention : Reuss Voigt Hill
#
# Bulk Modulus (GPa) = 34.58499 77.45966 56.02233
# Shear Modulus (GPa) = 17.89656 23.78832 20.84244
#
# Velocity S-wave (km/s) = 3.26472 3.76395 3.52319
# Velocity P-wave (km/s) = 5.89988 8.06358 7.06505
#
# Compressibility (1/GPa) = 0.02891428
#
# Stress axis : x y z
#
# Youngs Moduli (GPa) = 21.18195 56.36074 62.11512
#
# Poissons Ratio (x) = 0.07895 0.96430
# Poissons Ratio (y) = 0.02967 0.56796
# Poissons Ratio (z) = 0.32884 0.51535
#
# Static dielectric constant tensor:
#      x y z
#    x 2.902230 0.000000 0.000000 
#    y 0.000000 3.238400 0.000000 
#    z 0.000000 0.000000 3.199200 
# 
# 
# High freq. dielectric constant tensor:
#      x y z
#    x 1.617830 0.000000 0.000000 
#    y 0.000000 1.643340 0.000000 
#    z 0.000000 0.000000 1.653390 
# 
# From -- ./inp_files/38723.got.cif
#   From: 2010.03.12/outbox.cif.g09.slc.cpg/sg53_20_cif.got.tgz:38723.got - 2010.04.16 14:36:59.
