data_PCOD8222224
_publ_section_title
;
Structure prediction by ZEFSAII (Michael W. Deem and Ramdas Pophale) SiO2 
 PCOD8222224
Probable space group: P M N A
;
_chemical_formula_sum "Si O2"
_cell_formula_units_Z 32
_cell_length_a 8.767351
_cell_length_b 7.471722
_cell_length_c 26.925796
_cell_angle_alpha 90.000000
_cell_angle_beta 90.000000
_cell_angle_gamma 90.000000
_cell_volume 1763.833755
_symmetry_space_group_name_H-M "P M N A"
_symmetry_group_IT_number 53
_symmetry_cell_setting 'orthorhombic'
loop_
_space_group_symop_operation_xyz
x,y,z
1/2-x,-y,1/2+z
x,-y,-z
1/2-x,y,1/2-z
-x,-y,-z
1/2+x,y,1/2-z
-x,y,z
1/2+x,-y,1/2+z
loop_
_atom_site_type_symbol
_atom_site_label
_atom_site_fract_x
_atom_site_fract_y
_atom_site_fract_z
Si Si1 0.320566 0.444855 0.302063
Si Si2 0.173129 0.127742 0.355497
Si Si3 0.173123 0.736170 0.369556
Si Si4 0.819247 0.970556 0.056140
O O1 0.250000 0.505647 0.250000
O O2 0.500000 0.441939 0.296559
O O3 0.262969 0.247316 0.316083
O O4 0.272387 0.583764 0.344221
O O5 0.000000 0.197801 0.360431
O O6 0.176525 0.920198 0.336842
O O7 0.254762 0.134384 0.409877
O O8 0.247378 0.783622 0.423388
O O9 0.000000 0.668159 0.376586
O O10 0.000000 0.962997 0.060526
O O11 0.764594 0.000000 0.000000
#
# Coordination Sequence:
#
# PCOD8222224 Si02
#       4
#     8   8   8   8
#     4  12  24  38  59  82 113 148 186 231 277 331
#     4   9  20  37  58  82 114 147 185 230 275 329
#     4   9  20  37  58  82 114 147 185 230 275 329
#     4   9  17  33  58  85 114 147 183 225 277 331
#
# _framework density 18.142299000000001
#
# number of rings (size 3 to 8) (size 9 to 14) (size 15 to 20)
#    1.500    0.750    0.000    3.750    0.000    3.000 
#    0.000    1.250    0.000    7.500    0.000    0.000 
#    0.000    0.000    0.000    0.000    0.000    0.000 
#
# Total GULP energy -396532.332041 kJ/mol
# GULP energy per Si atom -12391.635376 kJ/mol
# Density = 1.810101 g / cm^3
# Si number density = 18.142299 Si / 1000 Ang^3
#
#
#
# Elastic Constant Matrix: (Units=GPa)
#
#
# Indices 1 2 3 4 5 6 
#
# 1 142.7196 22.1366 30.1760 0.0000 0.0000 0.0000
# 2 22.1366 46.3983 3.6687 0.0000 0.0000 0.0000
# 3 30.1760 3.6687 64.7174 0.0000 0.0000 0.0000
# 4 0.0000 0.0000 0.0000 28.9533 0.0000 0.0000
# 5 0.0000 0.0000 0.0000 0.0000 32.6862 0.0000
# 6 0.0000 0.0000 0.0000 0.0000 0.0000 27.4350
#
#
#
# Elastic Compliance Matrix: (Units=1/GPa)
#
#
# Indices 1 2 3 4 5 6 
#
# 1 0.008360 -0.003697 -0.003688 0.000000 0.000000 0.000000
# 2 -0.003697 0.023284 0.000404 0.000000 0.000000 0.000000
# 3 -0.003688 0.000404 0.017149 0.000000 0.000000 0.000000
# 4 0.000000 0.000000 0.000000 0.034538 0.000000 0.000000
# 5 0.000000 0.000000 0.000000 0.000000 0.030594 0.000000
# 6 0.000000 0.000000 0.000000 0.000000 0.000000 0.036450
#
#
# Mechanical properties :
#
#
# Convention : Reuss Voigt Hill
#
# Bulk Modulus (GPa) = 28.71086 40.64421 34.67754
# Shear Modulus (GPa) = 28.41741 31.00516 29.71129
#
# Velocity S-wave (km/s) = 3.96202 4.13849 4.05122
# Velocity P-wave (km/s) = 6.06547 6.72962 6.40616
#
# Compressibility (1/GPa) = 0.03483002
#
# Stress axis : x y z
#
# Youngs Moduli (GPa) = 119.61661 42.94724 58.31326
#
# Poissons Ratio (x) = 0.15877 0.21509
# Poissons Ratio (y) = 0.44221 -0.02355
# Poissons Ratio (z) = 0.44121 -0.01734
#
# Static dielectric constant tensor:
#      x y z
#    x 3.408610 0.000000 0.000000 
#    y 0.000000 3.134830 0.000000 
#    z 0.000000 0.000000 3.207210 
# 
# 
# High freq. dielectric constant tensor:
#      x y z
#    x 1.724070 0.000000 0.000000 
#    y 0.000000 1.684620 0.000000 
#    z 0.000000 0.000000 1.683810 
# 
# From -- ./inp_files/11432.got.cif
#   From: 2010.03.12/outbox.cif.g09.slc.cpg/sg53_6_cif.got.tgz:11432.got - 2010.04.16 14:36:59.
