data_PCOD8222512
_publ_section_title
;
Structure prediction by ZEFSAII (Michael W. Deem and Ramdas Pophale) SiO2 
 PCOD8222512
Probable space group: P C C A
;
_chemical_formula_sum "Si O2"
_cell_formula_units_Z 48
_cell_length_a 15.124322
_cell_length_b 8.724254
_cell_length_c 18.242241
_cell_angle_alpha 90.000000
_cell_angle_beta 90.000000
_cell_angle_gamma 90.000000
_cell_volume 2407.035000
_symmetry_space_group_name_H-M "P C C A"
_symmetry_group_IT_number 54
_symmetry_cell_setting 'orthorhombic'
loop_
_space_group_symop_operation_xyz
x,y,z
1/2-x,-y,z
1/2+x,-y,1/2-z
-x,y,1/2-z
-x,-y,-z
1/2+x,y,-z
1/2-x,y,1/2+z
x,-y,1/2+z
loop_
_atom_site_type_symbol
_atom_site_label
_atom_site_fract_x
_atom_site_fract_y
_atom_site_fract_z
Si Si1 0.652832 0.201692 0.051887
Si Si2 0.348624 0.147580 0.916489
Si Si3 0.517666 0.355188 0.950155
Si Si4 0.220421 0.162757 0.252064
Si Si5 0.923168 0.637162 0.793046
Si Si6 0.335520 0.399694 0.311191
O O1 0.759608 0.201189 0.040097
O O2 0.623982 0.323179 0.115487
O O3 0.624145 0.028002 0.069747
O O4 0.598451 0.252287 0.980414
O O5 0.428457 0.255984 0.941407
O O6 0.328060 0.159206 0.830485
O O7 0.546871 0.423064 0.871880
O O8 0.500000 0.500000 0.000000
O O9 0.156663 0.244545 0.193815
O O10 0.308827 0.261948 0.257435
O O11 0.250000 0.000000 0.221131
O O12 0.903330 0.498689 0.736290
O O13 0.000000 0.729488 0.750000
O O14 0.250000 0.500000 0.334153
#
# Coordination Sequence:
#
# PCOD8222512 Si02
#       6
#     8   8   8   8   8   8
#     4  10  21  40  69  91 123 169 218 259 322 387
#     4  10  20  42  68  91 123 173 214 260 323 395
#     4  12  26  41  62  96 134 172 213 265 325 386
#     4  10  18  40  67  90 117 163 217 259 320 379
#     4  11  22  39  61  92 130 160 210 267 317 378
#     4   9  19  36  63  89 120 161 211 258 312 382
#
# _framework density 19.941547
#
# number of rings (size 3 to 8) (size 9 to 14) (size 15 to 20)
#    0.000    1.667    5.000    1.500    4.667    0.000 
#   12.000    4.167    0.000    0.000    0.000    0.000 
#    0.000    0.000    0.000    0.000    0.000    0.000 
#
# Total GULP energy -594809.562738 kJ/mol
# GULP energy per Si atom -12391.865890 kJ/mol
# Density = 1.989616 g / cm^3
# Si number density = 19.941547 Si / 1000 Ang^3
#
#
#
# Elastic Constant Matrix: (Units=GPa)
#
#
# Indices 1 2 3 4 5 6 
#
# 1 93.5677 40.8341 51.8466 0.0000 0.0000 0.0000
# 2 40.8341 126.7385 42.6213 0.0000 0.0000 0.0000
# 3 51.8466 42.6213 99.5164 0.0000 0.0000 0.0000
# 4 0.0000 0.0000 0.0000 9.4465 0.0000 0.0000
# 5 0.0000 0.0000 0.0000 0.0000 35.6670 0.0000
# 6 0.0000 0.0000 0.0000 0.0000 0.0000 21.4448
#
#
#
# Elastic Compliance Matrix: (Units=1/GPa)
#
#
# Indices 1 2 3 4 5 6 
#
# 1 0.015783 -0.002710 -0.007062 0.000000 0.000000 0.000000
# 2 -0.002710 0.009683 -0.002735 0.000000 0.000000 0.000000
# 3 -0.007062 -0.002735 0.014899 0.000000 0.000000 0.000000
# 4 0.000000 0.000000 0.000000 0.105860 0.000000 0.000000
# 5 0.000000 0.000000 0.000000 0.000000 0.028037 0.000000
# 6 0.000000 0.000000 0.000000 0.000000 0.000000 0.046631
#
#
# Mechanical properties :
#
#
# Convention : Reuss Voigt Hill
#
# Bulk Modulus (GPa) = 65.14333 65.60295 65.37314
# Shear Modulus (GPa) = 19.91822 25.61304 22.76563
#
# Velocity S-wave (km/s) = 3.16386 3.58775 3.38245
# Velocity P-wave (km/s) = 6.78857 7.08037 6.93601
#
# Compressibility (1/GPa) = 0.01535076
#
# Stress axis : x y z
#
# Youngs Moduli (GPa) = 63.35744 103.27020 67.11725
#
# Poissons Ratio (x) = 0.27990 0.47399
# Poissons Ratio (y) = 0.17172 0.18358
# Poissons Ratio (z) = 0.44744 0.28246
#
# Static dielectric constant tensor:
#      x y z
#    x 3.881190 0.000000 0.000000 
#    y 0.000000 3.938480 0.000000 
#    z 0.000000 0.000000 3.419430 
# 
# 
# High freq. dielectric constant tensor:
#      x y z
#    x 1.781260 0.000000 0.000000 
#    y 0.000000 1.788960 0.000000 
#    z 0.000000 0.000000 1.754750 
# 
# From -- ./inp_files/18030.got.cif
#   From: 2010.03.12/outbox.cif.g09.slc.cpg/sg54_10_cif.got.tgz:18030.got - 2010.04.16 15:00:50.
