data_PCOD8222552
_publ_section_title
;
Structure prediction by ZEFSAII (Michael W. Deem and Ramdas Pophale) SiO2 
 PCOD8222552
Probable space group: P C C A
;
_chemical_formula_sum "Si O2"
_cell_formula_units_Z 48
_cell_length_a 16.001453
_cell_length_b 28.230006
_cell_length_c 5.118183
_cell_angle_alpha 90.000000
_cell_angle_beta 90.000000
_cell_angle_gamma 90.000000
_cell_volume 2311.991327
_symmetry_space_group_name_H-M "P C C A"
_symmetry_group_IT_number 54
_symmetry_cell_setting 'orthorhombic'
loop_
_space_group_symop_operation_xyz
x,y,z
1/2-x,-y,z
1/2+x,-y,1/2-z
-x,y,1/2-z
-x,-y,-z
1/2+x,y,-z
1/2-x,y,1/2+z
x,-y,1/2+z
loop_
_atom_site_type_symbol
_atom_site_label
_atom_site_fract_x
_atom_site_fract_y
_atom_site_fract_z
Si Si1 0.698092 0.220166 0.930311
Si Si2 0.054759 0.400506 0.001576
Si Si3 0.694162 0.878341 0.294213
Si Si4 0.787160 0.552295 0.120151
Si Si5 0.401094 0.027310 0.738180
Si Si6 0.806500 0.324125 0.374488
O O1 0.778896 0.218088 0.736689
O O2 0.646769 0.172497 0.848240
O O3 0.654050 0.270823 0.880141
O O4 0.113307 0.445890 0.925147
O O5 0.000000 0.386676 0.750000
O O6 0.113973 0.357452 0.081394
O O7 0.000000 0.415680 0.250000
O O8 0.768860 0.881940 0.503799
O O9 0.627785 0.919870 0.327135
O O10 0.750000 0.500000 0.171638
O O11 0.761510 0.579504 0.386235
O O12 0.500000 0.027811 0.750000
O O13 0.366226 0.992459 0.512146
O O14 0.737189 0.332753 0.596927
#
# Coordination Sequence:
#
# PCOD8222552 Si02
#       6
#     8   8   8   8   8   8
#     4   8  16  30  51  78 103 132 174 218 260 312
#     4  12  24  38  58  90 122 145 181 241 291 315
#     4  10  19  32  52  77 102 128 170 225 267 306
#     4  10  21  41  63  83 111 154 198 226 264 338
#     4  10  21  35  49  68  99 137 174 211 261 325
#     4  10  19  36  61  82 108 152 191 217 264 344
#
# _framework density 20.761323000000001
#
# number of rings (size 3 to 8) (size 9 to 14) (size 15 to 20)
#    0.000    2.000    0.000    4.000    0.000    2.000 
#    0.000   10.833    0.000    3.000    0.000    0.000 
#    0.000    0.000    0.000    0.000    0.000    0.000 
#
# Total GULP energy -594689.456820 kJ/mol
# GULP energy per Si atom -12389.363684 kJ/mol
# Density = 2.071407 g / cm^3
# Si number density = 20.761323 Si / 1000 Ang^3
#
#
#
# Elastic Constant Matrix: (Units=GPa)
#
#
# Indices 1 2 3 4 5 6 
#
# 1 68.2378 36.5848 28.5125 0.0000 0.0000 0.0000
# 2 36.5848 123.1893 16.5916 0.0000 0.0000 0.0000
# 3 28.5125 16.5916 131.9558 0.0000 0.0000 0.0000
# 4 0.0000 0.0000 0.0000 22.6714 0.0000 0.0000
# 5 0.0000 0.0000 0.0000 0.0000 29.8432 0.0000
# 6 0.0000 0.0000 0.0000 0.0000 0.0000 15.3909
#
#
#
# Elastic Compliance Matrix: (Units=1/GPa)
#
#
# Indices 1 2 3 4 5 6 
#
# 1 0.018838 -0.005133 -0.003425 0.000000 0.000000 0.000000
# 2 -0.005133 0.009656 -0.000105 0.000000 0.000000 0.000000
# 3 -0.003425 -0.000105 0.008332 0.000000 0.000000 0.000000
# 4 0.000000 0.000000 0.000000 0.044108 0.000000 0.000000
# 5 0.000000 0.000000 0.000000 0.000000 0.033508 0.000000
# 6 0.000000 0.000000 0.000000 0.000000 0.000000 0.064973
#
#
# Mechanical properties :
#
#
# Convention : Reuss Voigt Hill
#
# Bulk Modulus (GPa) = 51.28390 54.08452 52.68421
# Shear Modulus (GPa) = 24.60125 29.69404 27.14765
#
# Velocity S-wave (km/s) = 3.44605 3.78598 3.62001
# Velocity P-wave (km/s) = 6.37095 6.72448 6.55010
#
# Compressibility (1/GPa) = 0.01949930
#
# Stress axis : x y z
#
# Youngs Moduli (GPa) = 53.08472 103.56063 120.02569
#
# Poissons Ratio (x) = 0.53159 0.41108
# Poissons Ratio (y) = 0.27249 0.01260
# Poissons Ratio (z) = 0.18181 0.01087
#
# Static dielectric constant tensor:
#      x y z
#    x 3.348730 0.000000 0.000000 
#    y 0.000000 4.403480 0.000000 
#    z 0.000000 0.000000 4.509800 
# 
# 
# High freq. dielectric constant tensor:
#      x y z
#    x 1.752840 0.000000 0.000000 
#    y 0.000000 1.833640 0.000000 
#    z 0.000000 0.000000 1.848600 
# 
# From -- ./inp_files/689.got.cif
#   From: 2010.03.12/outbox.cif.g09.slc.cpg/sg54_1_cif.got.tgz:689.got - 2010.04.16 15:00:50.
