data_PCOD8222685
_publ_section_title
;
Structure prediction by ZEFSAII (Michael W. Deem and Ramdas Pophale) SiO2 
 PCOD8222685
Probable space group: P C C A
;
_chemical_formula_sum "Si O2"
_cell_formula_units_Z 60
_cell_length_a 11.942395
_cell_length_b 9.361210
_cell_length_c 29.022242
_cell_angle_alpha 90.000000
_cell_angle_beta 90.000000
_cell_angle_gamma 90.000000
_cell_volume 3244.549308
_symmetry_space_group_name_H-M "P C C A"
_symmetry_group_IT_number 54
_symmetry_cell_setting 'orthorhombic'
loop_
_space_group_symop_operation_xyz
x,y,z
1/2-x,-y,z
1/2+x,-y,1/2-z
-x,y,1/2-z
-x,-y,-z
1/2+x,y,-z
1/2-x,y,1/2+z
x,-y,1/2+z
loop_
_atom_site_type_symbol
_atom_site_label
_atom_site_fract_x
_atom_site_fract_y
_atom_site_fract_z
Si Si1 0.234468 0.340215 0.247815
Si Si2 0.000000 0.223796 0.250000
Si Si3 0.653938 0.231986 0.338899
Si Si4 0.968480 0.134903 0.434656
Si Si5 0.847497 0.100557 0.991568
Si Si6 0.436795 0.769431 0.797513
Si Si7 0.263065 0.332807 0.567916
Si Si8 0.015246 0.031392 0.163519
O O1 0.250000 0.500000 0.230495
O O2 0.263659 0.239903 0.204834
O O3 0.319817 0.312478 0.290911
O O4 0.107212 0.318741 0.264510
O O5 0.961736 0.136777 0.294483
O O6 0.532999 0.312315 0.328281
O O7 0.713959 0.303601 0.381738
O O8 0.627822 0.063157 0.346060
O O9 0.890906 0.276534 0.435126
O O10 0.014591 0.115589 0.382932
O O11 0.072764 0.155738 0.468159
O O12 0.905114 0.991761 0.451178
O O13 0.750000 0.000000 0.012943
O O14 0.805804 0.247776 0.970190
O O15 0.500000 0.803776 0.750000
O O16 0.413679 0.923633 0.821932
O O17 0.250000 0.500000 0.556710
#
# Coordination Sequence:
#
# PCOD8222685 Si02
#       8
#     8   4   8   8   8   8   8   8
#     4  11  23  36  53  77 120 160 197 240 296 367
#     4  12  24  32  56  88 108 152 204 248 292 346
#     4   9  19  37  59  81 112 152 194 247 300 348
#     4  10  20  36  61  87 113 151 199 248 295 351
#     4   9  19  38  60  85 116 151 195 243 298 363
#     4   8  17  36  55  74 108 151 182 239 294 331
#     4  11  21  35  60  93 119 152 192 248 305 369
#     4  10  19  37  58  88 110 146 199 254 297 338
#
# _framework density 18.492553000000001
#
# number of rings (size 3 to 8) (size 9 to 14) (size 15 to 20)
#    0.800    1.333    2.000    1.200    2.800    3.733 
#    2.400    0.000    0.000    0.800    0.000    0.000 
#    0.000    0.000    0.000    0.000    0.000    0.000 
#
# Total GULP energy -743310.965861 kJ/mol
# GULP energy per Si atom -12388.516098 kJ/mol
# Density = 1.845046 g / cm^3
# Si number density = 18.492553 Si / 1000 Ang^3
#
#
#
# Elastic Constant Matrix: (Units=GPa)
#
#
# Indices 1 2 3 4 5 6 
#
# 1 128.6239 34.7458 47.9222 0.0000 0.0000 0.0000
# 2 34.7458 88.1674 37.2087 0.0000 0.0000 0.0000
# 3 47.9222 37.2087 98.9672 0.0000 0.0000 0.0000
# 4 0.0000 0.0000 0.0000 17.4773 0.0000 0.0000
# 5 0.0000 0.0000 0.0000 0.0000 31.1887 0.0000
# 6 0.0000 0.0000 0.0000 0.0000 0.0000 21.2437
#
#
#
# Elastic Compliance Matrix: (Units=1/GPa)
#
#
# Indices 1 2 3 4 5 6 
#
# 1 0.009838 -0.002219 -0.003930 0.000000 0.000000 0.000000
# 2 -0.002219 0.013981 -0.004182 0.000000 0.000000 0.000000
# 3 -0.003930 -0.004182 0.013580 0.000000 0.000000 0.000000
# 4 0.000000 0.000000 0.000000 0.057217 0.000000 0.000000
# 5 0.000000 0.000000 0.000000 0.000000 0.032063 0.000000
# 6 0.000000 0.000000 0.000000 0.000000 0.000000 0.047073
#
#
# Mechanical properties :
#
#
# Convention : Reuss Voigt Hill
#
# Bulk Modulus (GPa) = 59.74470 61.72356 60.73413
# Shear Modulus (GPa) = 25.00095 27.04071 26.02083
#
# Velocity S-wave (km/s) = 3.68087 3.82808 3.75520
# Velocity P-wave (km/s) = 7.10230 7.27935 7.19137
#
# Compressibility (1/GPa) = 0.01673789
#
# Stress axis : x y z
#
# Youngs Moduli (GPa) = 101.64624 71.52348 73.63987
#
# Poissons Ratio (x) = 0.15869 0.28938
# Poissons Ratio (y) = 0.22552 0.30798
# Poissons Ratio (z) = 0.39944 0.29913
#
# Static dielectric constant tensor:
#      x y z
#    x 3.438330 0.000000 0.000000 
#    y 0.000000 3.189410 0.000000 
#    z 0.000000 0.000000 3.260240 
# 
# 
# High freq. dielectric constant tensor:
#      x y z
#    x 1.711500 0.000000 0.000000 
#    y 0.000000 1.698190 0.000000 
#    z 0.000000 0.000000 1.706210 
# 
# From -- ./inp_files/28114.got.cif
#   From: 2010.03.12/outbox.cif.g09.slc.cpg/sg54_15_cif.got.tgz:28114.got - 2010.04.16 15:00:50.
