data_PCOD8222079
_publ_section_title
;
Structure prediction by ZEFSAII (Michael W. Deem and Ramdas Pophale) SiO2 
 PCOD8222079
Probable space group: P M N A
;
_chemical_formula_sum "Si O2"
_cell_formula_units_Z 64
_cell_length_a 26.019244
_cell_length_b 31.437253
_cell_length_c 5.178648
_cell_angle_alpha 90.000000
_cell_angle_beta 90.000000
_cell_angle_gamma 90.000000
_cell_volume 4235.997122
_symmetry_space_group_name_H-M "P M N A"
_symmetry_group_IT_number 53
_symmetry_cell_setting 'orthorhombic'
loop_
_space_group_symop_operation_xyz
x,y,z
1/2-x,-y,1/2+z
x,-y,-z
1/2-x,y,1/2-z
-x,-y,-z
1/2+x,y,1/2-z
-x,y,z
1/2+x,-y,1/2+z
loop_
_atom_site_type_symbol
_atom_site_label
_atom_site_fract_x
_atom_site_fract_y
_atom_site_fract_z
Si Si1 0.779273 0.449325 0.999674
Si Si2 0.061174 0.735085 0.881303
Si Si3 0.559624 0.590230 0.052628
Si Si4 0.438929 0.685606 0.118765
Si Si5 0.938864 0.120012 0.683622
Si Si6 0.438869 0.975152 0.250173
Si Si7 0.104602 0.449978 0.042243
Si Si8 0.061130 0.830306 0.816107
O O1 0.750000 0.431131 0.750000
O O2 0.837742 0.432964 0.995957
O O3 0.778233 0.500000 0.000000
O O4 0.750000 0.431338 0.250000
O O5 0.083564 0.710201 0.130820
O O6 0.000000 0.736740 0.901375
O O7 0.080317 0.710403 0.630960
O O8 0.083248 0.782714 0.849070
O O9 0.500000 0.590944 0.976534
O O10 0.582072 0.637784 0.085290
O O11 0.588683 0.563658 0.831083
O O12 0.566278 0.569177 0.331683
O O13 0.500000 0.684409 0.140767
O O14 0.916697 0.072429 0.716963
O O15 0.916611 0.144827 0.433664
O O16 0.000000 0.118233 0.662413
O O17 0.920017 0.144891 0.933619
O O18 0.500000 0.973359 0.271598
O O19 0.416604 0.000000 0.500000
O O20 0.420064 0.000000 0.000000
O O21 0.101901 0.500000 0.000000
O O22 0.000000 0.828572 0.794891
#
# Coordination Sequence:
#
# PCOD8222079 Si02
#       8
#     8   8   8   8   8   8   8   8
#     4   9  17  31  50  69  87 105 128 163 203 237
#     4   9  15  24  37  50  62  79 107 139 172 209
#     4  11  22  34  46  62  87 116 142 166 190 221
#     4   9  17  28  40  52  68  93 122 148 172 203
#     4   9  15  21  27  37  52  66  83 112 152 193
#     4   9  15  21  27  33  43  63  88 109 133 177
#     4  11  22  34  49  68  87 110 139 166 196 233
#     4   9  15  21  30  43  56  68  85 119 164 201
#
# _framework density 15.108603
#
# number of rings (size 3 to 8) (size 9 to 14) (size 15 to 20)
#    0.000    2.500    0.000    3.750    0.000   11.500 
#    0.000    0.000    0.000    0.000    0.000    0.000 
#    0.000    0.000    0.000    0.000    0.000    0.000 
#
# Total GULP energy -793318.981551 kJ/mol
# GULP energy per Si atom -12395.609087 kJ/mol
# Density = 1.507421 g / cm^3
# Si number density = 15.108603 Si / 1000 Ang^3
#
#
#
# Elastic Constant Matrix: (Units=GPa)
#
#
# Indices 1 2 3 4 5 6 
#
# 1 26.6815 10.2878 10.5752 0.0000 0.0000 0.0000
# 2 10.2878 125.0918 60.5649 0.0000 0.0000 0.0000
# 3 10.5752 60.5649 138.8989 0.0000 0.0000 0.0000
# 4 0.0000 0.0000 0.0000 30.2103 0.0000 0.0000
# 5 0.0000 0.0000 0.0000 0.0000 9.7273 0.0000
# 6 0.0000 0.0000 0.0000 0.0000 0.0000 0.0780
#
#
#
# Elastic Compliance Matrix: (Units=1/GPa)
#
#
# Indices 1 2 3 4 5 6 
#
# 1 0.039139 -0.002251 -0.001998 0.000000 0.000000 0.000000
# 2 -0.002251 0.010263 -0.004304 0.000000 0.000000 0.000000
# 3 -0.001998 -0.004304 0.009228 0.000000 0.000000 0.000000
# 4 0.000000 0.000000 0.000000 0.033101 0.000000 0.000000
# 5 0.000000 0.000000 0.000000 0.000000 0.102803 0.000000
# 6 0.000000 0.000000 0.000000 0.000000 0.000000 12.826718
#
#
# Mechanical properties :
#
#
# Convention : Reuss Voigt Hill
#
# Bulk Modulus (GPa) = 24.08253 50.39200 37.23727
# Shear Modulus (GPa) = 0.38308 21.95273 11.16790
#
# Velocity S-wave (km/s) = 0.50408 3.81595 2.72173
# Velocity P-wave (km/s) = 4.03894 7.26918 5.88022
#
# Compressibility (1/GPa) = 0.04152387
#
# Stress axis : x y z
#
# Youngs Moduli (GPa) = 25.54981 97.43803 108.36421
#
# Poissons Ratio (x) = 0.21937 0.21653
# Poissons Ratio (y) = 0.05752 0.46636
# Poissons Ratio (z) = 0.05105 0.41933
#
# Static dielectric constant tensor:
#      x y z
#    x 2.271150 0.000000 0.000000 
#    y 0.000000 3.099370 0.000000 
#    z 0.000000 0.000000 3.132350 
# 
# 
# High freq. dielectric constant tensor:
#      x y z
#    x 1.483570 0.000000 0.000000 
#    y 0.000000 1.583880 0.000000 
#    z 0.000000 0.000000 1.605030 
# 
# From -- ./inp_files/3880.got.cif
#   From: 2010.03.12/outbox.cif.g09.slc.cpg/sg53_2_cif.got.tgz:3880.got - 2010.04.16 14:36:59.
