data_PCOD8222110
_publ_section_title
;
Structure prediction by ZEFSAII (Michael W. Deem and Ramdas Pophale) SiO2 
 PCOD8222110
Probable space group: P M N A
;
_chemical_formula_sum "Si O2"
_cell_formula_units_Z 48
_cell_length_a 8.341962
_cell_length_b 9.356388
_cell_length_c 30.538339
_cell_angle_alpha 90.000000
_cell_angle_beta 90.000000
_cell_angle_gamma 90.000000
_cell_volume 2383.536694
_symmetry_space_group_name_H-M "P M N A"
_symmetry_group_IT_number 53
_symmetry_cell_setting 'orthorhombic'
loop_
_space_group_symop_operation_xyz
x,y,z
1/2-x,-y,1/2+z
x,-y,-z
1/2-x,y,1/2-z
-x,-y,-z
1/2+x,y,1/2-z
-x,y,z
1/2+x,-y,1/2+z
loop_
_atom_site_type_symbol
_atom_site_label
_atom_site_fract_x
_atom_site_fract_y
_atom_site_fract_z
Si Si1 0.686175 0.350590 0.203465
Si Si2 0.309860 0.334910 0.549822
Si Si3 0.810649 0.657184 0.952096
Si Si4 0.685945 0.162152 0.371164
Si Si5 0.816318 0.853765 0.373624
Si Si6 0.687339 0.342626 0.701600
O O1 0.750000 0.294717 0.250000
O O2 0.500000 0.388990 0.207483
O O3 0.713907 0.224999 0.169040
O O4 0.779906 0.493072 0.188811
O O5 0.500000 0.315779 0.556358
O O6 0.254591 0.497130 0.560026
O O7 0.252770 0.296224 0.500490
O O8 0.216722 0.231793 0.582151
O O9 0.745775 0.767839 0.915970
O O10 0.000000 0.657058 0.953628
O O11 0.500000 0.200456 0.364678
O O12 0.705924 0.993121 0.373014
O O13 0.780087 0.758323 0.331592
O O14 0.000000 0.901924 0.372437
O O15 0.750000 0.308821 0.750000
O O16 0.500000 0.310799 0.698144
#
# Coordination Sequence:
#
# PCOD8222110 Si02
#       6
#     8   8   8   8   8   8
#     4  11  22  39  62  90 119 151 189 235 283 337
#     4   9  17  36  62  87 111 145 190 239 288 344
#     4   8  17  34  61  88 111 142 190 240 286 341
#     4  11  22  38  58  84 116 156 197 238 285 341
#     4  12  25  39  54  82 119 156 193 238 291 345
#     4  11  22  40  64  89 114 148 190 236 284 340
#
# _framework density 20.138141999999998
#
# number of rings (size 3 to 8) (size 9 to 14) (size 15 to 20)
#    0.000    1.667    0.000    8.000    0.000    2.667 
#    0.000   10.833    0.000    0.000    0.000    0.000 
#    0.000    0.000    0.000    0.000    0.000    0.000 
#
# Total GULP energy -595367.360937 kJ/mol
# GULP energy per Si atom -12403.486686 kJ/mol
# Density = 2.009231 g / cm^3
# Si number density = 20.138142 Si / 1000 Ang^3
#
#
#
# Elastic Constant Matrix: (Units=GPa)
#
#
# Indices 1 2 3 4 5 6 
#
# 1 71.0798 -0.3826 17.6549 0.0000 0.0000 0.0000
# 2 -0.3826 103.6874 75.8205 0.0000 0.0000 0.0000
# 3 17.6549 75.8205 137.8721 0.0000 0.0000 0.0000
# 4 0.0000 0.0000 0.0000 -0.0491 0.0000 0.0000
# 5 0.0000 0.0000 0.0000 0.0000 28.5457 0.0000
# 6 0.0000 0.0000 0.0000 0.0000 0.0000 25.5813
#
#
#
# Elastic Compliance Matrix: (Units=1/GPa)
#
#
# Indices 1 2 3 4 5 6 
#
# 1 0.014886 0.002423 -0.003239 0.000000 0.000000 0.000000
# 2 0.002423 0.016526 -0.009398 0.000000 0.000000 0.000000
# 3 -0.003239 -0.009398 0.012836 0.000000 0.000000 0.000000
# 4 0.000000 0.000000 0.000000-20.349966 0.000000 0.000000
# 5 0.000000 0.000000 0.000000 0.000000 0.035031 0.000000
# 6 0.000000 0.000000 0.000000 0.000000 0.000000 0.039091
#
#
# Mechanical properties :
#
#
# Convention : Reuss Voigt Hill
#
# Bulk Modulus (GPa) = 41.98074 55.42500 48.70287
# Shear Modulus (GPa) = -0.24749 25.45201 12.60226
#
# Velocity S-wave (km/s) = -0.35094 3.55895 2.50430
# Velocity P-wave (km/s) = 4.55274 6.66861 5.70954
#
# Compressibility (1/GPa) = 0.02382045
#
# Stress axis : x y z
#
# Youngs Moduli (GPa) = 67.17623 60.51125 77.90363
#
# Poissons Ratio (x) = -0.14664 0.25232
# Poissons Ratio (y) = -0.16279 0.73217
# Poissons Ratio (z) = 0.21758 0.56871
#
# Static dielectric constant tensor:
#      x y z
#    x 3.455220 0.000000 0.000000 
#    y 0.000000 3.571590 0.000000 
#    z 0.000000 0.000000 4.039530 
# 
# 
# High freq. dielectric constant tensor:
#      x y z
#    x 1.777200 0.000000 0.000000 
#    y 0.000000 1.779290 0.000000 
#    z 0.000000 0.000000 1.802010 
# 
# From -- ./inp_files/37680.got.cif
#   From: 2010.03.12/outbox.cif.g09.slc.cpg/sg53_19_cif.got.tgz:37680.got - 2010.04.16 14:36:59.
