data_PCOD8222852
_publ_section_title
;
Structure prediction by ZEFSAII (Michael W. Deem and Ramdas Pophale) SiO2 
 PCOD8222852
Probable space group: P C C A
;
_chemical_formula_sum "Si O2"
_cell_formula_units_Z 64
_cell_length_a 14.667670
_cell_length_b 9.228038
_cell_length_c 21.821252
_cell_angle_alpha 90.000000
_cell_angle_beta 90.000000
_cell_angle_gamma 90.000000
_cell_volume 2953.589731
_symmetry_space_group_name_H-M "P C C A"
_symmetry_group_IT_number 54
_symmetry_cell_setting 'orthorhombic'
loop_
_space_group_symop_operation_xyz
x,y,z
1/2-x,-y,z
1/2+x,-y,1/2-z
-x,y,1/2-z
-x,-y,-z
1/2+x,y,-z
1/2-x,y,1/2+z
x,-y,1/2+z
loop_
_atom_site_type_symbol
_atom_site_label
_atom_site_fract_x
_atom_site_fract_y
_atom_site_fract_z
Si Si1 0.199612 0.639121 0.789785
Si Si2 0.775212 0.158989 0.605237
Si Si3 0.435491 0.303562 0.072942
Si Si4 0.576599 0.213301 0.799935
Si Si5 0.855443 0.004663 0.394209
Si Si6 0.569944 0.129648 0.010666
Si Si7 0.326970 0.381511 0.967595
Si Si8 0.031069 0.443901 0.368780
O O1 0.250000 0.500000 0.762635
O O2 0.263641 0.727702 0.838169
O O3 0.170491 0.739817 0.733382
O O4 0.109078 0.566663 0.818018
O O5 0.874730 0.134766 0.575409
O O6 0.709214 0.221224 0.551606
O O7 0.750000 0.000000 0.629370
O O8 0.508794 0.273909 0.017629
O O9 0.480343 0.400211 0.126656
O O10 0.400386 0.152105 0.099130
O O11 0.350301 0.383957 0.039888
O O12 0.500000 0.181996 0.750000
O O13 0.593297 0.065012 0.835024
O O14 0.546727 0.329608 0.851066
O O15 0.864172 0.116681 0.452059
O O16 0.750000 0.000000 0.379171
O O17 0.500000 0.000000 0.000000
O O18 0.250000 0.500000 0.951537
O O19 0.421112 0.413740 0.933255
#
# Coordination Sequence:
#
# PCOD8222852 Si02
#       8
#     8   8   8   8   8   8   8   8
#     4  10  22  42  65  89 121 162 216 270 316 380
#     4  11  21  37  62  93 125 161 207 259 316 375
#     4  11  22  36  61  92 123 163 205 250 311 384
#     4  10  24  45  64  83 119 168 211 264 323 373
#     4  11  24  41  60  90 129 162 202 256 319 381
#     4  10  20  36  59  92 129 160 195 249 314 378
#     4  11  22  37  59  92 130 164 203 254 312 387
#     4  10  21  40  62  89 119 160 210 258 314 372
#
# _framework density 21.668545999999999
#
# number of rings (size 3 to 8) (size 9 to 14) (size 15 to 20)
#    0.000    1.500    0.000    6.750    0.000    8.500 
#    0.000    3.125    0.000    0.000    0.000    0.000 
#    0.000    0.000    0.000    0.000    0.000    0.000 
#
# Total GULP energy -792888.323411 kJ/mol
# GULP energy per Si atom -12388.880053 kJ/mol
# Density = 2.161923 g / cm^3
# Si number density = 21.668546 Si / 1000 Ang^3
#
#
#
# Elastic Constant Matrix: (Units=GPa)
#
#
# Indices 1 2 3 4 5 6 
#
# 1 94.5824 51.9139 46.2391 0.0000 0.0000 0.0000
# 2 51.9139 115.0240 54.1120 0.0000 0.0000 0.0000
# 3 46.2391 54.1120 93.0603 0.0000 0.0000 0.0000
# 4 0.0000 0.0000 0.0000 24.1156 0.0000 0.0000
# 5 0.0000 0.0000 0.0000 0.0000 29.1261 0.0000
# 6 0.0000 0.0000 0.0000 0.0000 0.0000 33.7344
#
#
#
# Elastic Compliance Matrix: (Units=1/GPa)
#
#
# Indices 1 2 3 4 5 6 
#
# 1 0.015598 -0.004672 -0.005034 0.000000 0.000000 0.000000
# 2 -0.004672 0.013367 -0.005451 0.000000 0.000000 0.000000
# 3 -0.005034 -0.005451 0.016416 0.000000 0.000000 0.000000
# 4 0.000000 0.000000 0.000000 0.041467 0.000000 0.000000
# 5 0.000000 0.000000 0.000000 0.000000 0.034333 0.000000
# 6 0.000000 0.000000 0.000000 0.000000 0.000000 0.029643
#
#
# Mechanical properties :
#
#
# Convention : Reuss Voigt Hill
#
# Bulk Modulus (GPa) = 66.36569 67.46628 66.91599
# Shear Modulus (GPa) = 26.85853 27.42200 27.14027
#
# Velocity S-wave (km/s) = 3.52450 3.56128 3.54293
# Velocity P-wave (km/s) = 6.87437 6.93638 6.90545
#
# Compressibility (1/GPa) = 0.01506803
#
# Stress axis : x y z
#
# Youngs Moduli (GPa) = 64.11156 74.81230 60.91442
#
# Poissons Ratio (x) = 0.34950 0.30662
# Poissons Ratio (y) = 0.29951 0.33205
# Poissons Ratio (z) = 0.32271 0.40781
#
# Static dielectric constant tensor:
#      x y z
#    x 4.255880 0.000000 0.000000 
#    y 0.000000 3.914000 0.000000 
#    z 0.000000 0.000000 3.842670 
# 
# 
# High freq. dielectric constant tensor:
#      x y z
#    x 1.859090 0.000000 0.000000 
#    y 0.000000 1.850820 0.000000 
#    z 0.000000 0.000000 1.830150 
# 
# From -- ./inp_files/24529.got.cif
#   From: 2010.03.12/outbox.cif.g09.slc.cpg/sg54_13_cif.got.tgz:24529.got - 2010.04.16 15:00:50.
