data_PCOD8222769
_publ_section_title
;
Structure prediction by ZEFSAII (Michael W. Deem and Ramdas Pophale) SiO2 
 PCOD8222769
Probable space group: P C C A
;
_chemical_formula_sum "Si O2"
_cell_formula_units_Z 60
_cell_length_a 8.616490
_cell_length_b 27.460528
_cell_length_c 12.212253
_cell_angle_alpha 90.000000
_cell_angle_beta 90.000000
_cell_angle_gamma 90.000000
_cell_volume 2889.582275
_symmetry_space_group_name_H-M "P C C A"
_symmetry_group_IT_number 54
_symmetry_cell_setting 'orthorhombic'
loop_
_space_group_symop_operation_xyz
x,y,z
1/2-x,-y,z
1/2+x,-y,1/2-z
-x,y,1/2-z
-x,-y,-z
1/2+x,y,-z
1/2-x,y,1/2+z
x,-y,1/2+z
loop_
_atom_site_type_symbol
_atom_site_label
_atom_site_fract_x
_atom_site_fract_y
_atom_site_fract_z
Si Si1 0.242714 0.053711 0.347034
Si Si2 0.999336 0.554631 0.873099
Si Si3 0.750000 0.500000 0.488775
Si Si4 0.309436 0.871657 0.652640
Si Si5 0.190350 0.721741 0.488300
Si Si6 0.539203 0.088954 0.973774
Si Si7 0.938942 0.767795 0.358940
Si Si8 0.451150 0.667622 0.370765
O O1 0.307060 0.093066 0.259218
O O2 0.346772 0.053272 0.458111
O O3 0.064018 0.062036 0.381937
O O4 0.250000 0.000000 0.293086
O O5 0.057173 0.609887 0.880569
O O6 0.000000 0.536186 0.750000
O O7 0.825494 0.543894 0.917404
O O8 0.118581 0.522032 0.937087
O O9 0.140959 0.871960 0.594965
O O10 0.432272 0.885308 0.560758
O O11 0.367706 0.818568 0.686432
O O12 0.298477 0.740362 0.584924
O O13 0.287070 0.693787 0.394685
O O14 0.089579 0.767407 0.439758
O O15 0.074597 0.682805 0.538573
O O16 0.000000 0.740123 0.250000
O O17 0.500000 0.684716 0.250000
#
# Coordination Sequence:
#
# PCOD8222769 Si02
#       8
#     8   8   4   8   8   8   8   8
#     4  11  23  40  62  87 116 150 187 228 274 330
#     4  10  20  34  55  80 117 155 200 247 291 346
#     4  10  20  34  52  82 116 162 202 238 292 350
#     4  11  23  40  60  85 115 148 187 228 280 337
#     4  10  22  38  60  85 114 148 192 240 300 356
#     4  10  23  40  59  85 115 148 186 228 272 330
#     4  11  22  39  60  85 114 148 186 236 289 353
#     4  10  20  37  58  86 115 151 195 248 298 347
#
# _framework density 20.764247000000001
#
# number of rings (size 3 to 8) (size 9 to 14) (size 15 to 20)
#    0.000    1.600    0.000    4.800    0.000    5.333 
#    0.000    4.000    0.000   12.800    0.000    0.000 
#    0.000    0.000    0.000    0.000    0.000    0.000 
#
# Total GULP energy -743585.428605 kJ/mol
# GULP energy per Si atom -12393.090477 kJ/mol
# Density = 2.071699 g / cm^3
# Si number density = 20.764247 Si / 1000 Ang^3
#
#
#
# Elastic Constant Matrix: (Units=GPa)
#
#
# Indices 1 2 3 4 5 6 
#
# 1 127.7890 35.5403 49.6549 0.0000 0.0000 0.0000
# 2 35.5403 80.7111 34.6521 0.0000 0.0000 0.0000
# 3 49.6549 34.6521 119.6127 0.0000 0.0000 0.0000
# 4 0.0000 0.0000 0.0000 32.5410 0.0000 0.0000
# 5 0.0000 0.0000 0.0000 0.0000 33.2919 0.0000
# 6 0.0000 0.0000 0.0000 0.0000 0.0000 22.5830
#
#
#
# Elastic Compliance Matrix: (Units=1/GPa)
#
#
# Indices 1 2 3 4 5 6 
#
# 1 0.009916 -0.002968 -0.003257 0.000000 0.000000 0.000000
# 2 -0.002968 0.015038 -0.003124 0.000000 0.000000 0.000000
# 3 -0.003257 -0.003124 0.010617 0.000000 0.000000 0.000000
# 4 0.000000 0.000000 0.000000 0.030730 0.000000 0.000000
# 5 0.000000 0.000000 0.000000 0.000000 0.030037 0.000000
# 6 0.000000 0.000000 0.000000 0.000000 0.000000 0.044281
#
#
# Mechanical properties :
#
#
# Convention : Reuss Voigt Hill
#
# Bulk Modulus (GPa) = 59.26520 63.08973 61.17746
# Shear Modulus (GPa) = 30.31326 31.56755 30.94040
#
# Velocity S-wave (km/s) = 3.82498 3.90331 3.86434
# Velocity P-wave (km/s) = 6.93622 7.12490 7.03120
#
# Compressibility (1/GPa) = 0.01687331
#
# Stress axis : x y z
#
# Youngs Moduli (GPa) = 100.84315 66.49652 94.18507
#
# Poissons Ratio (x) = 0.19739 0.30673
# Poissons Ratio (y) = 0.29934 0.29427
# Poissons Ratio (z) = 0.32841 0.20776
#
# Static dielectric constant tensor:
#      x y z
#    x 4.219980 0.000000 0.000000 
#    y 0.000000 3.553610 0.000000 
#    z 0.000000 0.000000 3.980320 
# 
# 
# High freq. dielectric constant tensor:
#      x y z
#    x 1.833720 0.000000 0.000000 
#    y 0.000000 1.789820 0.000000 
#    z 0.000000 0.000000 1.827330 
# 
# From -- ./inp_files/7001.got.cif
#   From: 2010.03.12/outbox.cif.g09.slc.cpg/sg54_4_cif.got.tgz:7001.got - 2010.04.16 15:00:50.
