data_PCOD8222408
_publ_section_title
;
Structure prediction by ZEFSAII (Michael W. Deem and Ramdas Pophale) SiO2 
 PCOD8222408
Probable space group: P C C A
;
_chemical_formula_sum "Si O2"
_cell_formula_units_Z 56
_cell_length_a 22.140337
_cell_length_b 8.836844
_cell_length_c 15.164915
_cell_angle_alpha 90.000000
_cell_angle_beta 90.000000
_cell_angle_gamma 90.000000
_cell_volume 2967.026299
_symmetry_space_group_name_H-M "P C C A"
_symmetry_group_IT_number 54
_symmetry_cell_setting 'orthorhombic'
loop_
_space_group_symop_operation_xyz
x,y,z
1/2-x,-y,z
1/2+x,-y,1/2-z
-x,y,1/2-z
-x,-y,-z
1/2+x,y,-z
1/2-x,y,1/2+z
x,-y,1/2+z
loop_
_atom_site_type_symbol
_atom_site_label
_atom_site_fract_x
_atom_site_fract_y
_atom_site_fract_z
Si Si1 0.901949 0.474462 0.352714
Si Si2 0.583950 0.082450 0.672969
Si Si3 0.684655 0.553396 0.510406
Si Si4 0.552354 0.135060 0.864275
Si Si5 0.125851 0.591768 0.831595
Si Si6 0.982192 0.423087 0.590639
Si Si7 0.608489 0.833650 0.541672
O O1 0.861717 0.507105 0.437917
O O2 0.935874 0.313381 0.355309
O O3 0.860492 0.477958 0.265519
O O4 0.955632 0.600600 0.353517
O O5 0.576225 0.046009 0.777325
O O6 0.519139 0.107040 0.626236
O O7 0.627096 0.227600 0.665561
O O8 0.620068 0.951132 0.620899
O O9 0.750000 0.500000 0.476503
O O10 0.676500 0.468635 0.602860
O O11 0.669529 0.732751 0.525187
O O12 0.588715 0.079441 0.951529
O O13 0.059313 0.537577 0.855883
O O14 0.948177 0.267187 0.572924
O O15 0.000000 0.500000 0.500000
#
# Coordination Sequence:
#
# PCOD8222408 Si02
#       7
#     8   8   8   8   8   8   8
#     4  10  18  33  57  80 107 147 183 223 274 342
#     4  10  18  31  49  80 113 148 174 207 282 344
#     4  10  22  39  55  76 105 143 195 242 272 315
#     4   9  17  30  50  76 115 146 170 207 273 347
#     4  10  19  33  56  79 109 148 179 222 282 343
#     4  11  16  31  54  83 116 139 176 219 279 336
#     4  10  20  33  53  81 114 144 182 229 268 333
#
# _framework density 18.874116999999998
#
# number of rings (size 3 to 8) (size 9 to 14) (size 15 to 20)
#    0.000    2.000    5.714    0.857    0.000    0.571 
#   10.286    0.714    0.000    0.000    0.000    6.000 
#    0.000    0.000    0.000    0.000    0.000    0.000 
#
# Total GULP energy -693934.659232 kJ/mol
# GULP energy per Si atom -12391.690343 kJ/mol
# Density = 1.883116 g / cm^3
# Si number density = 18.874117 Si / 1000 Ang^3
#
#
#
# Elastic Constant Matrix: (Units=GPa)
#
#
# Indices 1 2 3 4 5 6 
#
# 1 69.5722 17.8838 10.0858 0.0000 0.0000 0.0000
# 2 17.8838 51.4268 34.3858 0.0000 0.0000 0.0000
# 3 10.0858 34.3858 95.1126 0.0000 0.0000 0.0000
# 4 0.0000 0.0000 0.0000 30.5965 0.0000 0.0000
# 5 0.0000 0.0000 0.0000 0.0000 14.9949 0.0000
# 6 0.0000 0.0000 0.0000 0.0000 0.0000 19.2742
#
#
#
# Elastic Compliance Matrix: (Units=1/GPa)
#
#
# Indices 1 2 3 4 5 6 
#
# 1 0.015797 -0.005767 0.000410 0.000000 0.000000 0.000000
# 2 -0.005767 0.027750 -0.009421 0.000000 0.000000 0.000000
# 3 0.000410 -0.009421 0.013876 0.000000 0.000000 0.000000
# 4 0.000000 0.000000 0.000000 0.032683 0.000000 0.000000
# 5 0.000000 0.000000 0.000000 0.000000 0.066689 0.000000
# 6 0.000000 0.000000 0.000000 0.000000 0.000000 0.051883
#
#
# Mechanical properties :
#
#
# Convention : Reuss Voigt Hill
#
# Bulk Modulus (GPa) = 35.88563 37.86917 36.87740
# Shear Modulus (GPa) = 20.20011 23.22354 21.71182
#
# Velocity S-wave (km/s) = 3.27502 3.51157 3.39536
# Velocity P-wave (km/s) = 5.77542 6.04559 5.91205
#
# Compressibility (1/GPa) = 0.02786631
#
# Stress axis : x y z
#
# Youngs Moduli (GPa) = 63.30454 36.03626 72.06561
#
# Poissons Ratio (x) = 0.20784 -0.02955
# Poissons Ratio (y) = 0.36511 0.67891
# Poissons Ratio (z) = -0.02596 0.33949
#
# Static dielectric constant tensor:
#      x y z
#    x 3.719060 0.000000 0.000000 
#    y 0.000000 3.245330 0.000000 
#    z 0.000000 0.000000 5.721810 
# 
# 
# High freq. dielectric constant tensor:
#      x y z
#    x 1.688110 0.000000 0.000000 
#    y 0.000000 1.702160 0.000000 
#    z 0.000000 0.000000 1.755840 
# 
# From -- ./inp_files/14658.got.cif
#   From: 2010.03.12/outbox.cif.g09.slc.cpg/sg54_8_cif.got.tgz:14658.got - 2010.04.16 15:00:50.
