data_PCOD8222923
_publ_section_title
;
Structure prediction by ZEFSAII (Michael W. Deem and Ramdas Pophale) SiO2 
 PCOD8222923
Probable space group: P C C A
;
_chemical_formula_sum "Si O2"
_cell_formula_units_Z 32
_cell_length_a 21.715141
_cell_length_b 7.972451
_cell_length_c 8.606821
_cell_angle_alpha 90.000000
_cell_angle_beta 90.000000
_cell_angle_gamma 90.000000
_cell_volume 1490.037790
_symmetry_space_group_name_H-M "P C C A"
_symmetry_group_IT_number 54
_symmetry_cell_setting 'orthorhombic'
loop_
_space_group_symop_operation_xyz
x,y,z
1/2-x,-y,z
1/2+x,-y,1/2-z
-x,y,1/2-z
-x,-y,-z
1/2+x,y,-z
1/2-x,y,1/2+z
x,-y,1/2+z
loop_
_atom_site_type_symbol
_atom_site_label
_atom_site_fract_x
_atom_site_fract_y
_atom_site_fract_z
Si Si1 0.818857 0.687107 0.882184
Si Si2 0.432561 0.654301 0.298899
Si Si3 0.216060 0.825591 0.297049
Si Si4 0.618118 0.638659 0.874337
O O1 0.800156 0.808262 0.022682
O O2 0.830928 0.495753 0.938907
O O3 0.881326 0.758035 0.799024
O O4 0.764890 0.683979 0.753807
O O5 0.500000 0.715506 0.250000
O O6 0.425036 0.691173 0.482121
O O7 0.422770 0.454795 0.259074
O O8 0.250000 0.000000 0.262202
O O9 0.153227 0.800406 0.196578
#
# Coordination Sequence:
#
# PCOD8222923 Si02
#       4
#     8   8   8   8
#     4  10  22  37  58  91 126 165 214 264 313 382
#     4  10  20  37  66  95 128 162 221 269 304 367
#     4  12  23  39  61  93 131 169 207 267 331 386
#     4  10  20  37  62  95 123 163 214 262 316 373
#
# _framework density 21.475964999999999
#
# number of rings (size 3 to 8) (size 9 to 14) (size 15 to 20)
#    1.500    0.000    2.500    3.750    0.000    2.000 
#    0.000    1.250    0.000    7.500    0.000    0.000 
#    0.000    0.000    0.000    0.000    0.000    0.000 
#
# Total GULP energy -396485.828421 kJ/mol
# GULP energy per Si atom -12390.182138 kJ/mol
# Density = 2.142708 g / cm^3
# Si number density = 21.475965 Si / 1000 Ang^3
#
#
#
# Elastic Constant Matrix: (Units=GPa)
#
#
# Indices 1 2 3 4 5 6 
#
# 1 101.9184 -7.3829 43.5668 0.0000 0.0000 0.0000
# 2 -7.3829 32.9947 8.5344 0.0000 0.0000 0.0000
# 3 43.5668 8.5344 120.2977 0.0000 0.0000 0.0000
# 4 0.0000 0.0000 0.0000 18.8237 0.0000 0.0000
# 5 0.0000 0.0000 0.0000 0.0000 42.3141 0.0000
# 6 0.0000 0.0000 0.0000 0.0000 0.0000 18.6398
#
#
#
# Elastic Compliance Matrix: (Units=1/GPa)
#
#
# Indices 1 2 3 4 5 6 
#
# 1 0.012084 0.003908 -0.004654 0.000000 0.000000 0.000000
# 2 0.003908 0.032138 -0.003695 0.000000 0.000000 0.000000
# 3 -0.004654 -0.003695 0.010260 0.000000 0.000000 0.000000
# 4 0.000000 0.000000 0.000000 0.053125 0.000000 0.000000
# 5 0.000000 0.000000 0.000000 0.000000 0.023633 0.000000
# 6 0.000000 0.000000 0.000000 0.000000 0.000000 0.053649
#
#
# Mechanical properties :
#
#
# Convention : Reuss Voigt Hill
#
# Bulk Modulus (GPa) = 21.92979 38.29418 30.11198
# Shear Modulus (GPa) = 23.92682 29.98836 26.95759
#
# Velocity S-wave (km/s) = 3.34147 3.74086 3.54679
# Velocity P-wave (km/s) = 5.01205 6.04389 5.55199
#
# Compressibility (1/GPa) = 0.04560008
#
# Stress axis : x y z
#
# Youngs Moduli (GPa) = 82.75347 31.11575 97.46408
#
# Poissons Ratio (x) = -0.12159 0.45356
# Poissons Ratio (y) = -0.32337 0.36015
# Poissons Ratio (z) = 0.38510 0.11498
#
# Static dielectric constant tensor:
#      x y z
#    x 3.783560 0.000000 0.000000 
#    y 0.000000 3.249340 0.000000 
#    z 0.000000 0.000000 3.714190 
# 
# 
# High freq. dielectric constant tensor:
#      x y z
#    x 1.838000 0.000000 0.000000 
#    y 0.000000 1.784330 0.000000 
#    z 0.000000 0.000000 1.851760 
# 
# From -- ./inp_files/5394.got.cif
#   From: 2010.03.12/outbox.cif.g09.slc.cpg/sg54_3_cif.got.tgz:5394.got - 2010.04.16 15:00:50.
