data_PCOD8222246
_publ_section_title
;
Structure prediction by ZEFSAII (Michael W. Deem and Ramdas Pophale) SiO2 
 PCOD8222246
Probable space group: P M N A
;
_chemical_formula_sum "Si O2"
_cell_formula_units_Z 56
_cell_length_a 9.398171
_cell_length_b 25.952491
_cell_length_c 14.320343
_cell_angle_alpha 90.000000
_cell_angle_beta 90.000000
_cell_angle_gamma 90.000000
_cell_volume 3492.816839
_symmetry_space_group_name_H-M "P M N A"
_symmetry_group_IT_number 53
_symmetry_cell_setting 'orthorhombic'
loop_
_space_group_symop_operation_xyz
x,y,z
1/2-x,-y,1/2+z
x,-y,-z
1/2-x,y,1/2-z
-x,-y,-z
1/2+x,y,1/2-z
-x,y,z
1/2+x,-y,1/2+z
loop_
_atom_site_type_symbol
_atom_site_label
_atom_site_fract_x
_atom_site_fract_y
_atom_site_fract_z
Si Si1 0.669305 0.523032 0.652570
Si Si2 0.334854 0.083336 0.340711
Si Si3 0.666239 0.667241 0.343449
Si Si4 0.666637 0.783971 0.343139
Si Si5 0.668438 0.124724 0.529765
Si Si6 0.667452 0.574199 0.465753
Si Si7 0.665682 0.034039 0.658397
O O1 0.750000 0.533975 0.750000
O O2 0.500000 0.525299 0.671605
O O3 0.718983 0.564603 0.572741
O O4 0.719581 0.468238 0.609590
O O5 0.250000 0.099924 0.250000
O O6 0.500000 0.090699 0.318447
O O7 0.280420 0.121170 0.422735
O O8 0.303485 0.024601 0.372351
O O9 0.750000 0.652401 0.250000
O O10 0.500000 0.659640 0.321654
O O11 0.700230 0.725625 0.374877
O O12 0.716352 0.630242 0.428274
O O13 0.750000 0.798450 0.250000
O O14 0.500000 0.791778 0.323310
O O15 0.723300 0.822363 0.423661
O O16 0.500000 0.123446 0.531681
O O17 0.724334 0.073478 0.581188
O O18 0.500000 0.568873 0.469385
O O19 0.750000 0.048753 0.750000
O O20 0.500000 0.042513 0.678512
#
# Coordination Sequence:
#
# PCOD8222246 Si02
#       7
#     8   8   8   8   8   8   8
#     4   9  16  27  42  60  83 110 138 168 201 236
#     4   9  17  29  43  58  77 102 133 165 194 228
#     4   9  16  27  43  62  83 107 134 163 196 235
#     4   9  17  28  43  63  84 105 130 161 197 237
#     4   9  16  27  43  60  79 105 133 158 191 238
#     4   8  15  27  42  59  82 112 139 162 197 244
#     4   9  16  26  41  60  81 104 128 156 192 234
#
# _framework density 16.032905
#
# number of rings (size 3 to 8) (size 9 to 14) (size 15 to 20)
#    0.000    3.143    0.000    2.143    0.000    1.714 
#    0.000    3.571    0.000    4.286    0.000    0.000 
#    0.000    0.000    0.000    0.000    0.000    0.000 
#
# Total GULP energy -693957.689397 kJ/mol
# GULP energy per Si atom -12392.101596 kJ/mol
# Density = 1.599641 g / cm^3
# Si number density = 16.032905 Si / 1000 Ang^3
#
#
#
# Elastic Constant Matrix: (Units=GPa)
#
#
# Indices 1 2 3 4 5 6 
#
# 1 27.8575 25.8848 39.7805 0.0000 0.0000 0.0000
# 2 25.8848 101.4984 86.4819 0.0000 0.0000 0.0000
# 3 39.7805 86.4819 152.2567 0.0000 0.0000 0.0000
# 4 0.0000 0.0000 0.0000 28.7071 0.0000 0.0000
# 5 0.0000 0.0000 0.0000 0.0000 25.8985 0.0000
# 6 0.0000 0.0000 0.0000 0.0000 0.0000 13.5859
#
#
#
# Elastic Compliance Matrix: (Units=1/GPa)
#
#
# Indices 1 2 3 4 5 6 
#
# 1 0.057946 -0.003639 -0.013073 0.000000 0.000000 0.000000
# 2 -0.003639 0.019321 -0.010024 0.000000 0.000000 0.000000
# 3 -0.013073 -0.010024 0.015677 0.000000 0.000000 0.000000
# 4 0.000000 0.000000 0.000000 0.034835 0.000000 0.000000
# 5 0.000000 0.000000 0.000000 0.000000 0.038612 0.000000
# 6 0.000000 0.000000 0.000000 0.000000 0.000000 0.073606
#
#
# Mechanical properties :
#
#
# Convention : Reuss Voigt Hill
#
# Bulk Modulus (GPa) = 25.33371 65.10079 45.21725
# Shear Modulus (GPa) = 16.30654 22.26931 19.28793
#
# Velocity S-wave (km/s) = 3.19261 3.73094 3.47222
# Velocity P-wave (km/s) = 5.42455 7.69757 6.65876
#
# Compressibility (1/GPa) = 0.03947310
#
# Stress axis : x y z
#
# Youngs Moduli (GPa) = 17.25740 51.75695 63.78869
#
# Poissons Ratio (x) = 0.18836 0.83389
# Poissons Ratio (y) = 0.06280 0.63939
# Poissons Ratio (z) = 0.22560 0.51879
#
# Static dielectric constant tensor:
#      x y z
#    x 2.790070 0.000000 0.000000 
#    y 0.000000 3.211940 0.000000 
#    z 0.000000 0.000000 3.252860 
# 
# 
# High freq. dielectric constant tensor:
#      x y z
#    x 1.587580 0.000000 0.000000 
#    y 0.000000 1.607290 0.000000 
#    z 0.000000 0.000000 1.613160 
# 
# From -- ./inp_files/15030.got.cif
#   From: 2010.03.12/outbox.cif.g09.slc.cpg/sg53_8_cif.got.tgz:15030.got - 2010.04.16 14:36:59.
