data_PCOD8222681
_publ_section_title
;
Structure prediction by ZEFSAII (Michael W. Deem and Ramdas Pophale) SiO2 
 PCOD8222681
Probable space group: P C C A
;
_chemical_formula_sum "Si O2"
_cell_formula_units_Z 56
_cell_length_a 30.908473
_cell_length_b 5.559696
_cell_length_c 13.668021
_cell_angle_alpha 90.000000
_cell_angle_beta 90.000000
_cell_angle_gamma 90.000000
_cell_volume 2348.736152
_symmetry_space_group_name_H-M "P C C A"
_symmetry_group_IT_number 54
_symmetry_cell_setting 'orthorhombic'
loop_
_space_group_symop_operation_xyz
x,y,z
1/2-x,-y,z
1/2+x,-y,1/2-z
-x,y,1/2-z
-x,-y,-z
1/2+x,y,-z
1/2-x,y,1/2+z
x,-y,1/2+z
loop_
_atom_site_type_symbol
_atom_site_label
_atom_site_fract_x
_atom_site_fract_y
_atom_site_fract_z
Si Si1 0.492950 0.652598 0.366461
Si Si2 0.617638 0.999039 0.326823
Si Si3 0.604627 0.681363 0.146235
Si Si4 0.834640 0.003500 0.514420
Si Si5 0.025708 0.155238 0.647934
Si Si6 0.750000 0.000000 0.403853
Si Si7 0.330601 0.308675 0.307495
Si Si8 0.250000 0.500000 0.709578
O O1 0.500000 0.634018 0.250000
O O2 0.442929 0.668661 0.398797
O O3 0.511303 0.398246 0.411379
O O4 0.515642 0.898418 0.406674
O O5 0.577398 0.180557 0.341058
O O6 0.660321 0.126497 0.281660
O O7 0.600863 0.800039 0.252700
O O8 0.633738 0.887886 0.430118
O O9 0.622667 0.419752 0.168863
O O10 0.637980 0.802529 0.071274
O O11 0.816422 0.194277 0.590796
O O12 0.790668 0.908097 0.466991
O O13 0.000000 0.147052 0.750000
O O14 0.740430 0.752689 0.344885
O O15 0.292653 0.487070 0.276686
#
# Coordination Sequence:
#
# PCOD8222681 Si02
#       8
#     8   8   8   8   8   4   8   4
#     4  10  19  37  66  99 137 192 243 299 359 432
#     4  11  22  47  69 104 148 197 251 303 381 445
#     4  11  24  43  71 105 147 196 251 306 381 445
#     4  11  28  45  74 111 151 192 247 321 370 453
#     4  10  19  36  69  99 134 194 242 301 359 433
#     4  12  28  54  76 112 150 192 254 302 382 450
#     4  11  26  44  76 105 148 195 250 309 373 454
#     4  12  28  50  84 108 144 202 250 298 386 458
#
# _framework density 23.842607999999998
#
# number of rings (size 3 to 8) (size 9 to 14) (size 15 to 20)
#    0.000    1.143    4.286    2.571    8.000    1.143 
#    0.000    1.429    0.000    0.000    0.000    0.000 
#    0.000    0.000    0.000    0.000    0.000    0.000 
#
# Total GULP energy -693891.944958 kJ/mol
# GULP energy per Si atom -12390.927589 kJ/mol
# Density = 2.378834 g / cm^3
# Si number density = 23.842608 Si / 1000 Ang^3
#
#
#
# Elastic Constant Matrix: (Units=GPa)
#
#
# Indices 1 2 3 4 5 6 
#
# 1 133.0020 23.9598 53.2592 0.0000 0.0000 0.0000
# 2 23.9598 149.8551 42.5720 0.0000 0.0000 0.0000
# 3 53.2592 42.5720 90.0305 0.0000 0.0000 0.0000
# 4 0.0000 0.0000 0.0000 26.1269 0.0000 0.0000
# 5 0.0000 0.0000 0.0000 0.0000 19.6520 0.0000
# 6 0.0000 0.0000 0.0000 0.0000 0.0000 45.4279
#
#
#
# Elastic Compliance Matrix: (Units=1/GPa)
#
#
# Indices 1 2 3 4 5 6 
#
# 1 0.009854 0.000093 -0.005873 0.000000 0.000000 0.000000
# 2 0.000093 0.007710 -0.003701 0.000000 0.000000 0.000000
# 3 -0.005873 -0.003701 0.016332 0.000000 0.000000 0.000000
# 4 0.000000 0.000000 0.000000 0.038275 0.000000 0.000000
# 5 0.000000 0.000000 0.000000 0.000000 0.050885 0.000000
# 6 0.000000 0.000000 0.000000 0.000000 0.000000 0.022013
#
#
# Mechanical properties :
#
#
# Convention : Reuss Voigt Hill
#
# Bulk Modulus (GPa) = 66.96379 68.05220 67.50799
# Shear Modulus (GPa) = 29.58454 35.11446 32.34950
#
# Velocity S-wave (km/s) = 3.52636 3.84182 3.68746
# Velocity P-wave (km/s) = 6.68783 6.94864 6.81948
#
# Compressibility (1/GPa) = 0.01493344
#
# Stress axis : x y z
#
# Youngs Moduli (GPa) = 101.48399 129.70961 61.23105
#
# Poissons Ratio (x) = -0.01206 0.35962
# Poissons Ratio (y) = -0.00944 0.22659
# Poissons Ratio (z) = 0.59603 0.48000
#
# Static dielectric constant tensor:
#      x y z
#    x 4.612160 0.000000 0.000000 
#    y 0.000000 4.678700 0.000000 
#    z 0.000000 0.000000 4.207770 
# 
# 
# High freq. dielectric constant tensor:
#      x y z
#    x 1.961100 0.000000 0.000000 
#    y 0.000000 1.940340 0.000000 
#    z 0.000000 0.000000 1.937630 
# 
# From -- ./inp_files/15390.got.cif
#   From: 2010.03.12/outbox.cif.g09.slc.cpg/sg54_8_cif.got.tgz:15390.got - 2010.04.16 15:00:50.
