data_PCOD8222741
_publ_section_title
;
Structure prediction by ZEFSAII (Michael W. Deem and Ramdas Pophale) SiO2 
 PCOD8222741
Probable space group: P C C A
;
_chemical_formula_sum "Si O2"
_cell_formula_units_Z 44
_cell_length_a 5.189435
_cell_length_b 14.340359
_cell_length_c 32.773145
_cell_angle_alpha 90.000000
_cell_angle_beta 90.000000
_cell_angle_gamma 90.000000
_cell_volume 2438.923733
_symmetry_space_group_name_H-M "P C C A"
_symmetry_group_IT_number 54
_symmetry_cell_setting 'orthorhombic'
loop_
_space_group_symop_operation_xyz
x,y,z
1/2-x,-y,z
1/2+x,-y,1/2-z
-x,y,1/2-z
-x,-y,-z
1/2+x,y,-z
1/2-x,y,1/2+z
x,-y,1/2+z
loop_
_atom_site_type_symbol
_atom_site_label
_atom_site_fract_x
_atom_site_fract_y
_atom_site_fract_z
Si Si1 0.250795 0.609338 0.224454
Si Si2 0.267775 0.107053 0.474003
Si Si3 0.750000 0.000000 0.150005
Si Si4 0.267585 0.187189 0.389046
Si Si5 0.243086 0.753287 0.155543
Si Si6 0.132670 0.091972 0.211780
O O1 0.250000 0.500000 0.215555
O O2 0.500000 0.639887 0.250000
O O3 0.260952 0.656781 0.179955
O O4 0.000000 0.640258 0.250000
O O5 0.547569 0.126490 0.492834
O O6 0.227005 0.181769 0.437602
O O7 0.250000 0.000000 0.458472
O O8 0.636504 0.082830 0.122534
O O9 0.961291 0.050894 0.176284
O O10 0.506040 0.253594 0.376140
O O11 0.009246 0.225305 0.367775
O O12 0.180608 0.833698 0.189773
O O13 0.000000 0.145412 0.250000
O O14 0.250000 0.000000 0.233081
#
# Coordination Sequence:
#
# PCOD8222741 Si02
#       6
#     8   8   4   8   8   8
#     4  10  21  39  60  80 106 140 182 231 276 317
#     4  10  20  34  53  75 101 142 184 219 257 314
#     4  10  20  32  42  64  96 142 174 214 250 294
#     4  11  21  35  52  74 108 135 177 216 265 313
#     4  11  23  34  53  77 103 140 176 223 269 313
#     4  11  20  30  43  62  96 138 182 208 245 290
#
# _framework density 18.040745000000001
#
# number of rings (size 3 to 8) (size 9 to 14) (size 15 to 20)
#    0.000    1.455    3.636    2.727    0.000    2.182 
#    0.000    0.000    0.000    0.000    0.000    0.000 
#    0.000   14.545    0.000    0.000    0.000    0.000 
#
# Total GULP energy -545301.406808 kJ/mol
# GULP energy per Si atom -12393.213791 kJ/mol
# Density = 1.799968 g / cm^3
# Si number density = 18.040745 Si / 1000 Ang^3
#
#
#
# Elastic Constant Matrix: (Units=GPa)
#
#
# Indices 1 2 3 4 5 6 
#
# 1 114.1491 23.1267 35.2243 0.0000 0.0000 0.0000
# 2 23.1267 52.7551 33.5701 0.0000 0.0000 0.0000
# 3 35.2243 33.5701 95.8855 0.0000 0.0000 0.0000
# 4 0.0000 0.0000 0.0000 29.8738 0.0000 0.0000
# 5 0.0000 0.0000 0.0000 0.0000 27.3093 0.0000
# 6 0.0000 0.0000 0.0000 0.0000 0.0000 12.5132
#
#
#
# Elastic Compliance Matrix: (Units=1/GPa)
#
#
# Indices 1 2 3 4 5 6 
#
# 1 0.010166 -0.002676 -0.002798 0.000000 0.000000 0.000000
# 2 -0.002676 0.025094 -0.007802 0.000000 0.000000 0.000000
# 3 -0.002798 -0.007802 0.014188 0.000000 0.000000 0.000000
# 4 0.000000 0.000000 0.000000 0.033474 0.000000 0.000000
# 5 0.000000 0.000000 0.000000 0.000000 0.036618 0.000000
# 6 0.000000 0.000000 0.000000 0.000000 0.000000 0.079916
#
#
# Mechanical properties :
#
#
# Convention : Reuss Voigt Hill
#
# Bulk Modulus (GPa) = 43.67627 49.62576 46.65102
# Shear Modulus (GPa) = 21.40047 25.33051 23.36549
#
# Velocity S-wave (km/s) = 3.44791 3.75116 3.60272
# Velocity P-wave (km/s) = 6.33349 6.80654 6.57427
#
# Compressibility (1/GPa) = 0.02289573
#
# Stress axis : x y z
#
# Youngs Moduli (GPa) = 98.36741 39.85077 70.48007
#
# Poissons Ratio (x) = 0.10665 0.19717
# Poissons Ratio (y) = 0.26327 0.54990
# Poissons Ratio (z) = 0.27519 0.31093
#
# Static dielectric constant tensor:
#      x y z
#    x 3.365440 0.000000 0.000000 
#    y 0.000000 3.315280 0.000000 
#    z 0.000000 0.000000 3.272160 
# 
# 
# High freq. dielectric constant tensor:
#      x y z
#    x 1.709040 0.000000 0.000000 
#    y 0.000000 1.657930 0.000000 
#    z 0.000000 0.000000 1.694030 
# 
# From -- ./inp_files/27145.got.cif
#   From: 2010.03.12/outbox.cif.g09.slc.cpg/sg54_14_cif.got.tgz:27145.got - 2010.04.16 15:00:50.
