data_PCOD8222589
_publ_section_title
;
Structure prediction by ZEFSAII (Michael W. Deem and Ramdas Pophale) SiO2 
 PCOD8222589
Probable space group: P C C A
;
_chemical_formula_sum "Si O2"
_cell_formula_units_Z 40
_cell_length_a 9.821870
_cell_length_b 10.505641
_cell_length_c 20.559847
_cell_angle_alpha 90.000000
_cell_angle_beta 90.000000
_cell_angle_gamma 90.000000
_cell_volume 2121.468639
_symmetry_space_group_name_H-M "P C C A"
_symmetry_group_IT_number 54
_symmetry_cell_setting 'orthorhombic'
loop_
_space_group_symop_operation_xyz
x,y,z
1/2-x,-y,z
1/2+x,-y,1/2-z
-x,y,1/2-z
-x,-y,-z
1/2+x,y,-z
1/2-x,y,1/2+z
x,-y,1/2+z
loop_
_atom_site_type_symbol
_atom_site_label
_atom_site_fract_x
_atom_site_fract_y
_atom_site_fract_z
Si Si1 0.500000 0.368669 0.750000
Si Si2 0.250000 0.500000 0.822235
Si Si3 0.384492 0.945036 0.794699
Si Si4 0.374500 0.093018 0.511553
Si Si5 0.715809 0.254780 0.103314
Si Si6 0.496207 0.185246 0.634704
O O1 0.371466 0.449778 0.775596
O O2 0.444400 0.280159 0.691149
O O3 0.316729 0.603794 0.870946
O O4 0.500000 0.882333 0.750000
O O5 0.327659 0.837240 0.839729
O O6 0.250000 0.000000 0.756948
O O7 0.460263 0.052591 0.834967
O O8 0.364434 0.212501 0.461515
O O9 0.376623 0.157319 0.582882
O O10 0.250000 0.000000 0.501487
O O11 0.500000 0.000000 0.500000
O O12 0.878636 0.245315 0.093911
#
# Coordination Sequence:
#
# PCOD8222589 Si02
#       6
#     4   4   8   8   8   8
#     4  10  22  46  62  86 126 162 216 260 304 370
#     4  10  24  44  64  82 124 180 206 252 306 372
#     4  10  19  33  56  89 120 152 194 252 318 365
#     4  12  21  39  64  95 124 156 204 258 325 381
#     4  10  21  40  60  84 128 163 199 252 313 367
#     4  10  20  39  61  88 124 160 191 264 325 357
#
# _framework density 18.854861
#
# number of rings (size 3 to 8) (size 9 to 14) (size 15 to 20)
#    0.000    1.600    5.000    0.600    1.400    0.800 
#    3.600    5.000    0.000    0.000    0.000    0.000 
#    0.000    0.000    0.000    0.000    0.000    0.000 
#
# Total GULP energy -495665.906395 kJ/mol
# GULP energy per Si atom -12391.647660 kJ/mol
# Density = 1.881195 g / cm^3
# Si number density = 18.854861 Si / 1000 Ang^3
#
#
#
# Elastic Constant Matrix: (Units=GPa)
#
#
# Indices 1 2 3 4 5 6 
#
# 1 86.9342 41.2386 50.2548 0.0000 0.0000 0.0000
# 2 41.2386 109.7414 44.3614 0.0000 0.0000 0.0000
# 3 50.2548 44.3614 104.9257 0.0000 0.0000 0.0000
# 4 0.0000 0.0000 0.0000 53.2872 0.0000 0.0000
# 5 0.0000 0.0000 0.0000 0.0000 36.8354 0.0000
# 6 0.0000 0.0000 0.0000 0.0000 0.0000 22.4836
#
#
#
# Elastic Compliance Matrix: (Units=1/GPa)
#
#
# Indices 1 2 3 4 5 6 
#
# 1 0.017102 -0.003758 -0.006603 0.000000 0.000000 0.000000
# 2 -0.003758 0.011816 -0.003196 0.000000 0.000000 0.000000
# 3 -0.006603 -0.003196 0.014044 0.000000 0.000000 0.000000
# 4 0.000000 0.000000 0.000000 0.018766 0.000000 0.000000
# 5 0.000000 0.000000 0.000000 0.000000 0.027148 0.000000
# 6 0.000000 0.000000 0.000000 0.000000 0.000000 0.044477
#
#
# Mechanical properties :
#
#
# Convention : Reuss Voigt Hill
#
# Bulk Modulus (GPa) = 63.09071 63.70122 63.39597
# Shear Modulus (GPa) = 30.16599 33.57101 31.86850
#
# Velocity S-wave (km/s) = 4.00422 4.22417 4.11566
# Velocity P-wave (km/s) = 7.41028 7.59275 7.50207
#
# Compressibility (1/GPa) = 0.01585019
#
# Stress axis : x y z
#
# Youngs Moduli (GPa) = 58.47183 84.62836 71.20421
#
# Poissons Ratio (x) = 0.31801 0.47013
# Poissons Ratio (y) = 0.21972 0.22757
# Poissons Ratio (z) = 0.38606 0.27048
#
# Static dielectric constant tensor:
#      x y z
#    x 3.350500 0.000000 0.000000 
#    y 0.000000 3.878910 0.000000 
#    z 0.000000 0.000000 3.556320 
# 
# 
# High freq. dielectric constant tensor:
#      x y z
#    x 1.728770 0.000000 0.000000 
#    y 0.000000 1.725900 0.000000 
#    z 0.000000 0.000000 1.728940 
# 
# From -- ./inp_files/20344.got.cif
#   From: 2010.03.12/outbox.cif.g09.slc.cpg/sg54_11_cif.got.tgz:20344.got - 2010.04.16 15:00:50.
