data_PCOD8222528
_publ_section_title
;
Structure prediction by ZEFSAII (Michael W. Deem and Ramdas Pophale) SiO2 
 PCOD8222528
Probable space group: P C C A
;
_chemical_formula_sum "Si O2"
_cell_formula_units_Z 40
_cell_length_a 30.369953
_cell_length_b 13.012934
_cell_length_c 5.358325
_cell_angle_alpha 90.000000
_cell_angle_beta 90.000000
_cell_angle_gamma 90.000000
_cell_volume 2117.621796
_symmetry_space_group_name_H-M "P C C A"
_symmetry_group_IT_number 54
_symmetry_cell_setting 'orthorhombic'
loop_
_space_group_symop_operation_xyz
x,y,z
1/2-x,-y,z
1/2+x,-y,1/2-z
-x,y,1/2-z
-x,-y,-z
1/2+x,y,-z
1/2-x,y,1/2+z
x,-y,1/2+z
loop_
_atom_site_type_symbol
_atom_site_label
_atom_site_fract_x
_atom_site_fract_y
_atom_site_fract_z
Si Si1 0.948220 0.472257 0.868526
Si Si2 0.949051 0.938569 0.257272
Si Si3 0.768260 0.387092 0.308836
Si Si4 0.130621 0.638702 0.652275
Si Si5 0.900908 0.728234 0.353546
O O1 0.974971 0.490216 0.612170
O O2 0.903069 0.541366 0.833006
O O3 0.940892 0.351349 0.883909
O O4 0.919209 0.841043 0.312747
O O5 0.000000 0.905784 0.250000
O O6 0.938051 0.016643 0.483380
O O7 0.750000 0.500000 0.268421
O O8 0.746950 0.329533 0.551162
O O9 0.820268 0.402270 0.331623
O O10 0.126980 0.698924 0.391050
O O11 0.125185 0.718390 0.884465
#
# Coordination Sequence:
#
# PCOD8222528 Si02
#       5
#     8   8   8   8   8
#     4   8  16  25  44  63  98 133 171 192 239 287
#     4  10  21  38  59  82 107 129 162 225 291 322
#     4  10  21  27  43  67 108 152 174 213 249 300
#     4  10  19  31  47  73 110 148 175 206 255 295
#     4  10  19  31  53  73 101 140 178 206 257 321
#
# _framework density 18.889116000000001
#
# number of rings (size 3 to 8) (size 9 to 14) (size 15 to 20)
#    0.000    2.400    0.000    2.400   16.800    0.000 
#    0.000    0.000    0.000   10.800    0.000    0.000 
#    0.000   56.000    0.000    0.000    0.000    0.000 
#
# Total GULP energy -495527.350178 kJ/mol
# GULP energy per Si atom -12388.183754 kJ/mol
# Density = 1.884612 g / cm^3
# Si number density = 18.889116 Si / 1000 Ang^3
#
#
#
# Elastic Constant Matrix: (Units=GPa)
#
#
# Indices 1 2 3 4 5 6 
#
# 1 83.5983 25.5772 23.1057 0.0000 0.0000 0.0000
# 2 25.5772 71.7438 16.2425 0.0000 0.0000 0.0000
# 3 23.1057 16.2425 169.7281 0.0000 0.0000 0.0000
# 4 0.0000 0.0000 0.0000 20.8568 0.0000 0.0000
# 5 0.0000 0.0000 0.0000 0.0000 27.7776 0.0000
# 6 0.0000 0.0000 0.0000 0.0000 0.0000 21.4102
#
#
#
# Elastic Compliance Matrix: (Units=1/GPa)
#
#
# Indices 1 2 3 4 5 6 
#
# 1 0.013760 -0.004581 -0.001435 0.000000 0.000000 0.000000
# 2 -0.004581 0.015772 -0.000886 0.000000 0.000000 0.000000
# 3 -0.001435 -0.000886 0.006172 0.000000 0.000000 0.000000
# 4 0.000000 0.000000 0.000000 0.047946 0.000000 0.000000
# 5 0.000000 0.000000 0.000000 0.000000 0.036000 0.000000
# 6 0.000000 0.000000 0.000000 0.000000 0.000000 0.046707
#
#
# Mechanical properties :
#
#
# Convention : Reuss Voigt Hill
#
# Bulk Modulus (GPa) = 45.65925 50.54677 48.10301
# Shear Modulus (GPa) = 26.67237 31.35192 29.01214
#
# Velocity S-wave (km/s) = 3.76180 4.07847 3.92333
# Velocity P-wave (km/s) = 6.56452 6.99974 6.78562
#
# Compressibility (1/GPa) = 0.02190137
#
# Stress axis : x y z
#
# Youngs Moduli (GPa) = 72.67431 63.40324 162.02548
#
# Poissons Ratio (x) = 0.29043 0.23248
# Poissons Ratio (y) = 0.33290 0.14351
# Poissons Ratio (z) = 0.10428 0.05616
#
# Static dielectric constant tensor:
#      x y z
#    x 3.318730 0.000000 0.000000 
#    y 0.000000 3.133890 0.000000 
#    z 0.000000 0.000000 5.158400 
# 
# 
# High freq. dielectric constant tensor:
#      x y z
#    x 1.728720 0.000000 0.000000 
#    y 0.000000 1.676650 0.000000 
#    z 0.000000 0.000000 1.791220 
# 
# From -- ./inp_files/1821.got.cif
#   From: 2010.03.12/outbox.cif.g09.slc.cpg/sg54_1_cif.got.tgz:1821.got - 2010.04.16 15:00:50.
