data_PCOD8222405
_publ_section_title
;
Structure prediction by ZEFSAII (Michael W. Deem and Ramdas Pophale) SiO2 
 PCOD8222405
Probable space group: P C C A
;
_chemical_formula_sum "Si O2"
_cell_formula_units_Z 60
_cell_length_a 18.327145
_cell_length_b 12.408415
_cell_length_c 15.564805
_cell_angle_alpha 90.000000
_cell_angle_beta 90.000000
_cell_angle_gamma 90.000000
_cell_volume 3539.605083
_symmetry_space_group_name_H-M "P C C A"
_symmetry_group_IT_number 54
_symmetry_cell_setting 'orthorhombic'
loop_
_space_group_symop_operation_xyz
x,y,z
1/2-x,-y,z
1/2+x,-y,1/2-z
-x,y,1/2-z
-x,-y,-z
1/2+x,y,-z
1/2-x,y,1/2+z
x,-y,1/2+z
loop_
_atom_site_type_symbol
_atom_site_label
_atom_site_fract_x
_atom_site_fract_y
_atom_site_fract_z
Si Si1 0.824000 0.067417 0.250934
Si Si2 0.661648 0.313849 0.748390
Si Si3 0.750000 0.500000 0.308686
Si Si4 0.413320 0.927457 0.076647
Si Si5 0.582931 0.068413 0.584150
Si Si6 0.170529 0.512192 0.027408
Si Si7 0.416680 0.316855 0.573958
Si Si8 0.584555 0.316143 0.574805
O O1 0.805150 0.193970 0.243182
O O2 0.865197 0.043165 0.340311
O O3 0.874904 0.033863 0.170619
O O4 0.750000 0.000000 0.247774
O O5 0.729186 0.397122 0.751051
O O6 0.608101 0.325903 0.828239
O O7 0.611884 0.346271 0.668820
O O8 0.681897 0.467534 0.370298
O O9 0.497255 0.949432 0.102047
O O10 0.402062 0.805203 0.043976
O O11 0.388354 0.999076 0.996084
O O12 0.598569 0.190853 0.557077
O O13 0.250000 0.500000 0.981654
O O14 0.126948 0.400123 0.013098
O O15 0.128473 0.615741 0.994512
O O16 0.500729 0.348207 0.567072
#
# Coordination Sequence:
#
# PCOD8222405 Si02
#       8
#     8   8   4   8   8   8   8   8
#     4  10  20  33  49  78 104 130 168 211 252 298
#     4   9  18  33  50  71  97 128 165 204 244 286
#     4   8  18  32  46  64 102 134 154 194 248 298
#     4   9  18  35  57  72 100 137 170 207 260 292
#     4   9  19  35  52  78 100 131 174 213 245 303
#     4   9  19  32  46  72 104 128 156 198 249 297
#     4   9  17  34  53  74  95 129 169 206 240 292
#     4  10  18  30  55  75  96 125 171 207 240 291
#
# _framework density 16.951042999999999
#
# number of rings (size 3 to 8) (size 9 to 14) (size 15 to 20)
#    0.400    2.400    0.000    1.200    0.933    4.800 
#    4.800    0.000    0.000    0.000    0.000    7.467 
#    0.000    0.000    0.000    0.000    0.000    0.000 
#
# Total GULP energy -743743.241036 kJ/mol
# GULP energy per Si atom -12395.720684 kJ/mol
# Density = 1.691246 g / cm^3
# Si number density = 16.951043 Si / 1000 Ang^3
#
#
#
# Elastic Constant Matrix: (Units=GPa)
#
#
# Indices 1 2 3 4 5 6 
#
# 1 110.4682 67.8535 43.9148 0.0000 0.0000 0.0000
# 2 67.8535 98.7517 58.3919 0.0000 0.0000 0.0000
# 3 43.9148 58.3919 82.2108 0.0000 0.0000 0.0000
# 4 0.0000 0.0000 0.0000 24.5314 0.0000 0.0000
# 5 0.0000 0.0000 0.0000 0.0000 18.4966 0.0000
# 6 0.0000 0.0000 0.0000 0.0000 0.0000 34.6576
#
#
#
# Elastic Compliance Matrix: (Units=1/GPa)
#
#
# Indices 1 2 3 4 5 6 
#
# 1 0.015737 -0.010073 -0.001252 0.000000 0.000000 0.000000
# 2 -0.010073 0.023906 -0.011599 0.000000 0.000000 0.000000
# 3 -0.001252 -0.011599 0.021071 0.000000 0.000000 0.000000
# 4 0.000000 0.000000 0.000000 0.040764 0.000000 0.000000
# 5 0.000000 0.000000 0.000000 0.000000 0.054064 0.000000
# 6 0.000000 0.000000 0.000000 0.000000 0.000000 0.028854
#
#
# Mechanical properties :
#
#
# Convention : Reuss Voigt Hill
#
# Bulk Modulus (GPa) = 67.26518 70.19457 68.72988
# Shear Modulus (GPa) = 21.25847 23.62182 22.44014
#
# Velocity S-wave (km/s) = 3.54518 3.73705 3.64238
# Velocity P-wave (km/s) = 7.51837 7.75376 7.63698
#
# Compressibility (1/GPa) = 0.01486653
#
# Stress axis : x y z
#
# Youngs Moduli (GPa) = 63.54352 41.82981 47.45828
#
# Poissons Ratio (x) = 0.42135 0.05941
# Poissons Ratio (y) = 0.64008 0.55048
# Poissons Ratio (z) = 0.07954 0.48519
#
# Static dielectric constant tensor:
#      x y z
#    x 3.151130 0.000000 0.000000 
#    y 0.000000 3.297380 0.000000 
#    z 0.000000 0.000000 3.057130 
# 
# 
# High freq. dielectric constant tensor:
#      x y z
#    x 1.651040 0.000000 0.000000 
#    y 0.000000 1.654680 0.000000 
#    z 0.000000 0.000000 1.643400 
# 
# From -- ./inp_files/14291.got.cif
#   From: 2010.03.12/outbox.cif.g09.slc.cpg/sg54_8_cif.got.tgz:14291.got - 2010.04.16 15:00:50.
