data_PCOD8222706
_publ_section_title
;
Structure prediction by ZEFSAII (Michael W. Deem and Ramdas Pophale) SiO2 
 PCOD8222706
Probable space group: P C C A
;
_chemical_formula_sum "Si O2"
_cell_formula_units_Z 60
_cell_length_a 8.749685
_cell_length_b 30.307374
_cell_length_c 11.503919
_cell_angle_alpha 90.000000
_cell_angle_beta 90.000000
_cell_angle_gamma 90.000000
_cell_volume 3050.608961
_symmetry_space_group_name_H-M "P C C A"
_symmetry_group_IT_number 54
_symmetry_cell_setting 'orthorhombic'
loop_
_space_group_symop_operation_xyz
x,y,z
1/2-x,-y,z
1/2+x,-y,1/2-z
-x,y,1/2-z
-x,-y,-z
1/2+x,y,-z
1/2-x,y,1/2+z
x,-y,1/2+z
loop_
_atom_site_type_symbol
_atom_site_label
_atom_site_fract_x
_atom_site_fract_y
_atom_site_fract_z
Si Si1 0.500000 0.695842 0.250000
Si Si2 0.248067 0.549934 0.149749
Si Si3 0.545445 0.880263 0.623017
Si Si4 0.807160 0.379049 0.158786
Si Si5 0.922152 0.983223 0.122381
Si Si6 0.533945 0.588386 0.529872
Si Si7 0.200079 0.828938 0.001741
Si Si8 0.546958 0.219203 0.870458
O O1 0.650039 0.666512 0.222073
O O2 0.445820 0.727367 0.143238
O O3 0.250000 0.500000 0.195505
O O4 0.315778 0.580602 0.250731
O O5 0.073523 0.562343 0.119505
O O6 0.353254 0.553988 0.034689
O O7 0.500000 0.866095 0.750000
O O8 0.587207 0.931011 0.610358
O O9 0.687482 0.849029 0.593562
O O10 0.397218 0.870709 0.544927
O O11 0.638735 0.377065 0.102294
O O12 0.935542 0.384127 0.060698
O O13 0.000000 0.995987 0.250000
O O14 0.750000 0.000000 0.127560
O O15 0.000000 0.000000 0.000000
O O16 0.087084 0.790971 0.959700
O O17 0.292872 0.802946 0.099625
O O18 0.500000 0.196127 0.750000
#
# Coordination Sequence:
#
# PCOD8222706 Si02
#       8
#     4   8   8   8   8   8   8   8
#     4  10  22  42  62  82 124 150 194 246 318 358
#     4  11  22  39  62  90 122 154 199 245 293 339
#     4  10  21  36  62  88 125 163 207 265 314 373
#     4  11  22  42  60  86 122 154 197 244 290 371
#     4  11  23  40  60  92 135 179 231 276 329 398
#     4  10  23  38  62  85 118 158 197 240 289 349
#     4  10  19  38  62  89 117 154 202 253 323 369
#     4   9  21  37  60  85 116 148 192 251 300 374
#
# _framework density 19.668203999999999
#
# number of rings (size 3 to 8) (size 9 to 14) (size 15 to 20)
#    0.400    1.333    1.333    2.800    0.000    6.400 
#    0.000    3.333    5.867    0.000    0.000    0.000 
#    0.000    0.000    0.000    0.000    0.000    0.000 
#
# Total GULP energy -743529.376748 kJ/mol
# GULP energy per Si atom -12392.156279 kJ/mol
# Density = 1.962344 g / cm^3
# Si number density = 19.668204 Si / 1000 Ang^3
#
#
#
# Elastic Constant Matrix: (Units=GPa)
#
#
# Indices 1 2 3 4 5 6 
#
# 1 150.6607 63.7843 55.2189 0.0000 0.0000 0.0000
# 2 63.7843 134.3074 47.5754 0.0000 0.0000 0.0000
# 3 55.2189 47.5754 106.5199 0.0000 0.0000 0.0000
# 4 0.0000 0.0000 0.0000 41.9134 0.0000 0.0000
# 5 0.0000 0.0000 0.0000 0.0000 30.4930 0.0000
# 6 0.0000 0.0000 0.0000 0.0000 0.0000 41.1926
#
#
#
# Elastic Compliance Matrix: (Units=1/GPa)
#
#
# Indices 1 2 3 4 5 6 
#
# 1 0.009217 -0.003189 -0.003353 0.000000 0.000000 0.000000
# 2 -0.003189 0.009949 -0.002790 0.000000 0.000000 0.000000
# 3 -0.003353 -0.002790 0.012372 0.000000 0.000000 0.000000
# 4 0.000000 0.000000 0.000000 0.023859 0.000000 0.000000
# 5 0.000000 0.000000 0.000000 0.000000 0.032794 0.000000
# 6 0.000000 0.000000 0.000000 0.000000 0.000000 0.024276
#
#
# Mechanical properties :
#
#
# Convention : Reuss Voigt Hill
#
# Bulk Modulus (GPa) = 77.68693 80.51615 79.10154
# Shear Modulus (GPa) = 36.92125 37.71374 37.31749
#
# Velocity S-wave (km/s) = 4.33737 4.38367 4.36059
# Velocity P-wave (km/s) = 8.04166 8.16384 8.10298
#
# Compressibility (1/GPa) = 0.01287218
#
# Stress axis : x y z
#
# Youngs Moduli (GPa) = 108.49847 100.51718 80.82474
#
# Poissons Ratio (x) = 0.32058 0.27104
# Poissons Ratio (y) = 0.34603 0.22551
# Poissons Ratio (z) = 0.36384 0.28045
#
# Static dielectric constant tensor:
#      x y z
#    x 3.374120 0.000000 0.000000 
#    y 0.000000 3.364540 0.000000 
#    z 0.000000 0.000000 3.833470 
# 
# 
# High freq. dielectric constant tensor:
#      x y z
#    x 1.781660 0.000000 0.000000 
#    y 0.000000 1.751060 0.000000 
#    z 0.000000 0.000000 1.774670 
# 
# From -- ./inp_files/7009.got.cif
#   From: 2010.03.12/outbox.cif.g09.slc.cpg/sg54_4_cif.got.tgz:7009.got - 2010.04.16 15:00:50.
