data_PCOD8222770
_publ_section_title
;
Structure prediction by ZEFSAII (Michael W. Deem and Ramdas Pophale) SiO2 
 PCOD8222770
Probable space group: P C C A
;
_chemical_formula_sum "Si O2"
_cell_formula_units_Z 60
_cell_length_a 12.598357
_cell_length_b 25.767548
_cell_length_c 8.834000
_cell_angle_alpha 90.000000
_cell_angle_beta 90.000000
_cell_angle_gamma 90.000000
_cell_volume 2867.770543
_symmetry_space_group_name_H-M "P C C A"
_symmetry_group_IT_number 54
_symmetry_cell_setting 'orthorhombic'
loop_
_space_group_symop_operation_xyz
x,y,z
1/2-x,-y,z
1/2+x,-y,1/2-z
-x,y,1/2-z
-x,-y,-z
1/2+x,y,-z
1/2-x,y,1/2+z
x,-y,1/2+z
loop_
_atom_site_type_symbol
_atom_site_label
_atom_site_fract_x
_atom_site_fract_y
_atom_site_fract_z
Si Si1 0.750000 0.500000 0.030499
Si Si2 0.381950 0.097193 0.233025
Si Si3 0.378869 0.210071 0.713201
Si Si4 0.697317 0.113417 0.949082
Si Si5 0.246964 0.266679 0.462210
Si Si6 0.576327 0.015673 0.865101
Si Si7 0.620202 0.556099 0.778951
Si Si8 0.619629 0.322094 0.285632
O O1 0.808106 0.542614 0.133943
O O2 0.661731 0.527696 0.928620
O O3 0.500000 0.119357 0.250000
O O4 0.317652 0.120752 0.373684
O O5 0.322796 0.121152 0.086789
O O6 0.379008 0.034929 0.222275
O O7 0.500000 0.224910 0.750000
O O8 0.372726 0.150565 0.657235
O O9 0.336298 0.243606 0.572223
O O10 0.307438 0.221018 0.862332
O O11 0.670384 0.053355 0.913119
O O12 0.303353 0.307710 0.352634
O O13 0.155876 0.295028 0.558787
O O14 0.500000 0.046730 0.750000
O O15 0.500000 0.000000 0.000000
O O16 0.500000 0.537578 0.750000
O O17 0.625747 0.616850 0.809953
O O18 0.500000 0.303711 0.250000
#
# Coordination Sequence:
#
# PCOD8222770 Si02
#       8
#     4   8   8   8   8   8   8   8
#     4  10  20  34  52  82 130 166 202 266 304 374
#     4  11  26  44  63  96 124 160 201 242 289 350
#     4  11  24  43  65  93 121 160 196 249 315 373
#     4  12  25  42  66  90 126 160 198 241 296 364
#     4  10  22  41  62  91 122 154 206 257 319 363
#     4  11  22  42  66  94 122 158 198 240 288 346
#     4  10  20  34  55  85 119 167 214 252 317 363
#     4  10  20  37  63  88 118 162 210 264 305 371
#
# _framework density 20.922176
#
# number of rings (size 3 to 8) (size 9 to 14) (size 15 to 20)
#    0.000    1.333    2.667    3.600    1.867    3.200 
#    0.000    3.333    0.000   12.800    0.000    0.000 
#    0.000    0.000    0.000    0.000    0.000    0.000 
#
# Total GULP energy -743842.869360 kJ/mol
# GULP energy per Si atom -12397.381156 kJ/mol
# Density = 2.087456 g / cm^3
# Si number density = 20.922176 Si / 1000 Ang^3
#
#
#
# Elastic Constant Matrix: (Units=GPa)
#
#
# Indices 1 2 3 4 5 6 
#
# 1 121.8224 28.7574 48.5279 0.0000 0.0000 0.0000
# 2 28.7574 73.9016 36.6290 0.0000 0.0000 0.0000
# 3 48.5279 36.6290 125.0231 0.0000 0.0000 0.0000
# 4 0.0000 0.0000 0.0000 26.3935 0.0000 0.0000
# 5 0.0000 0.0000 0.0000 0.0000 38.9587 0.0000
# 6 0.0000 0.0000 0.0000 0.0000 0.0000 29.6491
#
#
#
# Elastic Compliance Matrix: (Units=1/GPa)
#
#
# Indices 1 2 3 4 5 6 
#
# 1 0.010036 -0.002310 -0.003219 0.000000 0.000000 0.000000
# 2 -0.002310 0.016362 -0.003897 0.000000 0.000000 0.000000
# 3 -0.003219 -0.003897 0.010390 0.000000 0.000000 0.000000
# 4 0.000000 0.000000 0.000000 0.037888 0.000000 0.000000
# 5 0.000000 0.000000 0.000000 0.000000 0.025668 0.000000
# 6 0.000000 0.000000 0.000000 0.000000 0.000000 0.033728
#
#
# Mechanical properties :
#
#
# Convention : Reuss Voigt Hill
#
# Bulk Modulus (GPa) = 55.75350 60.95285 58.35318
# Shear Modulus (GPa) = 31.46588 32.78912 32.12750
#
# Velocity S-wave (km/s) = 3.88229 3.96308 3.92289
# Velocity P-wave (km/s) = 6.84120 7.08080 6.96203
#
# Compressibility (1/GPa) = 0.01793609
#
# Stress axis : x y z
#
# Youngs Moduli (GPa) = 99.63959 61.11738 96.24974
#
# Poissons Ratio (x) = 0.14118 0.30981
# Poissons Ratio (y) = 0.23017 0.37509
# Poissons Ratio (z) = 0.32072 0.23818
#
# Static dielectric constant tensor:
#      x y z
#    x 4.020970 0.000000 0.000000 
#    y 0.000000 3.660710 0.000000 
#    z 0.000000 0.000000 3.972580 
# 
# 
# High freq. dielectric constant tensor:
#      x y z
#    x 1.828780 0.000000 0.000000 
#    y 0.000000 1.803860 0.000000 
#    z 0.000000 0.000000 1.836500 
# 
# From -- ./inp_files/3059.got.cif
#   From: 2010.03.12/outbox.cif.g09.slc.cpg/sg54_2_cif.got.tgz:3059.got - 2010.04.16 15:00:50.
