data_PCOD8222796
_publ_section_title
;
Structure prediction by ZEFSAII (Michael W. Deem and Ramdas Pophale) SiO2 
 PCOD8222796
Probable space group: P C C A
;
_chemical_formula_sum "Si O2"
_cell_formula_units_Z 40
_cell_length_a 8.668702
_cell_length_b 10.144117
_cell_length_c 21.459659
_cell_angle_alpha 90.000000
_cell_angle_beta 90.000000
_cell_angle_gamma 90.000000
_cell_volume 1887.083598
_symmetry_space_group_name_H-M "P C C A"
_symmetry_group_IT_number 54
_symmetry_cell_setting 'orthorhombic'
loop_
_space_group_symop_operation_xyz
x,y,z
1/2-x,-y,z
1/2+x,-y,1/2-z
-x,y,1/2-z
-x,-y,-z
1/2+x,y,-z
1/2-x,y,1/2+z
x,-y,1/2+z
loop_
_atom_site_type_symbol
_atom_site_label
_atom_site_fract_x
_atom_site_fract_y
_atom_site_fract_z
Si Si1 0.247323 0.322034 0.479005
Si Si2 0.642114 0.125404 0.294719
Si Si3 0.960011 0.559871 0.918630
Si Si4 0.965088 0.744772 0.417201
Si Si5 0.845303 0.370077 0.289275
O O1 0.361631 0.421723 0.517646
O O2 0.358660 0.228400 0.438280
O O3 0.136814 0.400710 0.431237
O O4 0.150095 0.228771 0.524961
O O5 0.500000 0.094080 0.250000
O O6 0.573999 0.156422 0.362471
O O7 0.741444 0.246902 0.268516
O O8 0.750000 0.000000 0.299956
O O9 0.886546 0.645345 0.862749
O O10 0.948298 0.408487 0.896443
O O11 0.750000 0.500000 0.273236
O O12 0.000000 0.371640 0.250000
#
# Coordination Sequence:
#
# PCOD8222796 Si02
#       5
#     8   8   8   8   8
#     4  10  20  34  64 104 146 178 204 267 336 410
#     4  12  28  51  69  91 130 184 234 284 345 410
#     4  11  19  35  62 103 143 170 213 262 342 388
#     4  11  20  38  64  98 136 176 219 263 331 404
#     4  12  25  42  68 103 135 168 229 291 336 396
#
# _framework density 21.196729000000001
#
# number of rings (size 3 to 8) (size 9 to 14) (size 15 to 20)
#    0.000    0.800    4.000    6.000    2.800    0.000 
#    0.000    1.000    0.000    0.000    0.000    0.000 
#    0.000    0.000    0.000    0.000    0.000    0.000 
#
# Total GULP energy -496119.847202 kJ/mol
# GULP energy per Si atom -12402.996180 kJ/mol
# Density = 2.114848 g / cm^3
# Si number density = 21.196729 Si / 1000 Ang^3
#
#
#
# Elastic Constant Matrix: (Units=GPa)
#
#
# Indices 1 2 3 4 5 6 
#
# 1 189.7138 65.6320 66.2657 0.0000 0.0000 0.0000
# 2 65.6320 109.3364 53.1283 0.0000 0.0000 0.0000
# 3 66.2657 53.1283 93.2275 0.0000 0.0000 0.0000
# 4 0.0000 0.0000 0.0000 2.2853 0.0000 0.0000
# 5 0.0000 0.0000 0.0000 0.0000 797.3371 0.0000
# 6 0.0000 0.0000 0.0000 0.0000 0.0000 34.5521
#
#
#
# Elastic Compliance Matrix: (Units=1/GPa)
#
#
# Indices 1 2 3 4 5 6 
#
# 1 0.007531 -0.002655 -0.003840 0.000000 0.000000 0.000000
# 2 -0.002655 0.013584 -0.005855 0.000000 0.000000 0.000000
# 3 -0.003840 -0.005855 0.016792 0.000000 0.000000 0.000000
# 4 0.000000 0.000000 0.000000 0.437579 0.000000 0.000000
# 5 0.000000 0.000000 0.000000 0.000000 0.001254 0.000000
# 6 0.000000 0.000000 0.000000 0.000000 0.000000 0.028942
#
#
# Mechanical properties :
#
#
# Convention : Reuss Voigt Hill
#
# Bulk Modulus (GPa) = 75.70556 84.70330 80.20443
# Shear Modulus (GPa) = 9.34957 180.65169 95.00063
#
# Velocity S-wave (km/s) = 2.10248 9.24182 6.70193
# Velocity P-wave (km/s) = 6.45656 12.40681 9.88979
#
# Compressibility (1/GPa) = 0.01320907
#
# Stress axis : x y z
#
# Youngs Moduli (GPa) = 132.78865 73.61379 59.55101
#
# Poissons Ratio (x) = 0.19542 0.22868
# Poissons Ratio (y) = 0.35250 0.34865
# Poissons Ratio (z) = 0.50991 0.43098
#
# Static dielectric constant tensor:
#      x y z
#    x 4.947580 0.000000 0.000000 
#    y 0.000000 3.270620 0.000000 
#    z 0.000000 0.000000 3.881820 
# 
# 
# High freq. dielectric constant tensor:
#      x y z
#    x 1.869770 0.000000 0.000000 
#    y 0.000000 1.777030 0.000000 
#    z 0.000000 0.000000 1.829910 
# 
# From -- ./inp_files/23206.got.cif
#   From: 2010.03.12/outbox.cif.g09.slc.cpg/sg54_12_cif.got.tgz:23206.got - 2010.04.16 15:00:50.
