data_PCOD8222375
_publ_section_title
;
Structure prediction by ZEFSAII (Michael W. Deem and Ramdas Pophale) SiO2 
 PCOD8222375
Probable space group: P C C A
;
_chemical_formula_sum "Si O2"
_cell_formula_units_Z 60
_cell_length_a 17.171769
_cell_length_b 31.380740
_cell_length_c 5.254370
_cell_angle_alpha 90.000000
_cell_angle_beta 90.000000
_cell_angle_gamma 90.000000
_cell_volume 2831.384627
_symmetry_space_group_name_H-M "P C C A"
_symmetry_group_IT_number 54
_symmetry_cell_setting 'orthorhombic'
loop_
_space_group_symop_operation_xyz
x,y,z
1/2-x,-y,z
1/2+x,-y,1/2-z
-x,y,1/2-z
-x,-y,-z
1/2+x,y,-z
1/2-x,y,1/2+z
x,-y,1/2+z
loop_
_atom_site_type_symbol
_atom_site_label
_atom_site_fract_x
_atom_site_fract_y
_atom_site_fract_z
Si Si1 0.421030 0.098731 0.877623
Si Si2 0.797520 0.831426 0.623025
Si Si3 0.644569 0.016242 0.702011
Si Si4 0.296836 0.266605 0.876165
Si Si5 0.000000 0.963969 0.250000
Si Si6 0.838461 0.481757 0.719141
Si Si7 0.591579 0.391958 0.251207
Si Si8 0.089928 0.660111 0.750717
O O1 0.500000 0.114893 0.750000
O O2 0.373255 0.140917 0.942344
O O3 0.367349 0.065772 0.711818
O O4 0.441913 0.068894 0.112676
O O5 0.735315 0.842038 0.402701
O O6 0.823702 0.782354 0.625693
O O7 0.560654 0.995028 0.596163
O O8 0.688973 0.009484 0.429530
O O9 0.232097 0.276801 0.661328
O O10 0.370033 0.295028 0.802655
O O11 0.750000 0.500000 0.719149
O O12 0.881461 0.500028 0.469237
O O13 0.848638 0.431067 0.717058
O O14 0.500000 0.405466 0.250000
O O15 0.612824 0.371996 0.523125
O O16 0.612618 0.359749 0.022353
O O17 0.000000 0.670956 0.750000
#
# Coordination Sequence:
#
# PCOD8222375 Si02
#       8
#     8   8   8   8   4   8   8   8
#     4  11  20  34  62  90 114 149 216 246 296 353
#     4  10  25  43  61  82 128 167 190 243 310 381
#     4  10  17  30  50  84 111 147 181 257 299 334
#     4  10  21  43  63  89 117 159 202 235 306 369
#     4  10  18  32  54  92 116 146 196 266 298 342
#     4  10  21  38  53  79 122 162 200 251 288 329
#     4  10  21  38  60  89 120 160 200 241 310 360
#     4  10  21  39  64  92 124 149 194 262 309 356
#
# _framework density 21.191044999999999
#
# number of rings (size 3 to 8) (size 9 to 14) (size 15 to 20)
#    0.000    1.867    2.000    2.400    1.867    1.067 
#   14.400    0.000    4.400    9.600    0.000    0.000 
#    0.000    0.000    0.000    0.000    0.000    0.000 
#
# Total GULP energy -743377.846954 kJ/mol
# GULP energy per Si atom -12389.630783 kJ/mol
# Density = 2.114281 g / cm^3
# Si number density = 21.191045 Si / 1000 Ang^3
#
#
#
# Elastic Constant Matrix: (Units=GPa)
#
#
# Indices 1 2 3 4 5 6 
#
# 1 69.2565 60.9045 9.7671 0.0000 0.0000 0.0000
# 2 60.9045 127.3294 33.6521 0.0000 0.0000 0.0000
# 3 9.7671 33.6521 137.0836 0.0000 0.0000 0.0000
# 4 0.0000 0.0000 0.0000 51.6458 0.0000 0.0000
# 5 0.0000 0.0000 0.0000 0.0000 -34.2414 0.0000
# 6 0.0000 0.0000 0.0000 0.0000 0.0000 34.1218
#
#
#
# Elastic Compliance Matrix: (Units=1/GPa)
#
#
# Indices 1 2 3 4 5 6 
#
# 1 0.025118 -0.012342 0.001240 0.000000 0.000000 0.000000
# 2 -0.012342 0.014463 -0.002671 0.000000 0.000000 0.000000
# 3 0.001240 -0.002671 0.007862 0.000000 0.000000 0.000000
# 4 0.000000 0.000000 0.000000 0.019363 0.000000 0.000000
# 5 0.000000 0.000000 0.000000 0.000000 -0.029204 0.000000
# 6 0.000000 0.000000 0.000000 0.000000 0.000000 0.029307
#
#
# Mechanical properties :
#
#
# Convention : Reuss Voigt Hill
#
# Bulk Modulus (GPa) = 50.25884 60.25744 55.25814
# Shear Modulus (GPa) = 49.46224 25.59497 37.52860
#
# Velocity S-wave (km/s) = 4.83650 3.47914 4.21285
# Velocity P-wave (km/s) = 7.41334 6.68104 7.05669
#
# Compressibility (1/GPa) = 0.01989700
#
# Stress axis : x y z
#
# Youngs Moduli (GPa) = 39.81199 69.14096 127.19116
#
# Poissons Ratio (x) = 0.85336 -0.15774
# Poissons Ratio (y) = 0.49137 0.33974
# Poissons Ratio (z) = -0.04938 0.18468
#
# Static dielectric constant tensor:
#      x y z
#    x 3.546350 0.000000 0.000000 
#    y 0.000000 3.722450 0.000000 
#    z 0.000000 0.000000 4.639490 
# 
# 
# High freq. dielectric constant tensor:
#      x y z
#    x 1.811140 0.000000 0.000000 
#    y 0.000000 1.824140 0.000000 
#    z 0.000000 0.000000 1.859250 
# 
# From -- ./inp_files/1070.got.cif
#   From: 2010.03.12/outbox.cif.g09.slc.cpg/sg54_1_cif.got.tgz:1070.got - 2010.04.16 15:00:50.
