data_PCOD8222524
_publ_section_title
;
Structure prediction by ZEFSAII (Michael W. Deem and Ramdas Pophale) SiO2 
 PCOD8222524
Probable space group: P C C A
;
_chemical_formula_sum "Si O2"
_cell_formula_units_Z 32
_cell_length_a 5.127118
_cell_length_b 9.989319
_cell_length_c 30.844903
_cell_angle_alpha 90.000000
_cell_angle_beta 90.000000
_cell_angle_gamma 90.000000
_cell_volume 1579.765422
_symmetry_space_group_name_H-M "P C C A"
_symmetry_group_IT_number 54
_symmetry_cell_setting 'orthorhombic'
loop_
_space_group_symop_operation_xyz
x,y,z
1/2-x,-y,z
1/2+x,-y,1/2-z
-x,y,1/2-z
-x,-y,-z
1/2+x,y,-z
1/2-x,y,1/2+z
x,-y,1/2+z
loop_
_atom_site_type_symbol
_atom_site_label
_atom_site_fract_x
_atom_site_fract_y
_atom_site_fract_z
Si Si1 0.750000 0.000000 0.220601
Si Si2 0.295333 0.258324 0.336626
Si Si3 0.750000 0.500000 0.723524
Si Si4 0.717186 0.347893 0.882249
Si Si5 0.554079 0.648857 0.481521
O O1 0.676949 0.121930 0.189474
O O2 0.500000 0.964363 0.250000
O O3 0.360416 0.378303 0.304335
O O4 0.514263 0.266517 0.374596
O O5 0.007993 0.272515 0.356087
O O6 0.500000 0.447021 0.750000
O O7 0.750000 0.500000 0.865545
O O8 0.639257 0.350805 0.932178
O O9 0.500000 0.500000 0.500000
O O10 0.278408 0.723037 0.489791
#
# Coordination Sequence:
#
# PCOD8222524 Si02
#       5
#     4   8   4   8   8
#     4  12  26  50  70  86 120 168 224 260 308 388
#     4  12  25  40  63  91 122 163 203 263 319 367
#     4  12  22  36  56  86 116 144 188 246 318 374
#     4  12  21  37  59  95 134 157 198 261 312 366
#     4  10  19  30  53  86 133 164 200 235 305 361
#
# _framework density 20.256170999999998
#
# number of rings (size 3 to 8) (size 9 to 14) (size 15 to 20)
#    0.000    0.500    5.000    6.000    3.500    0.000 
#    0.000    0.000    0.000    0.000    0.000   17.500 
#    0.000    0.000    0.000    0.000    0.000    0.000 
#
# Total GULP energy -396698.318816 kJ/mol
# GULP energy per Si atom -12396.822463 kJ/mol
# Density = 2.021007 g / cm^3
# Si number density = 20.256171 Si / 1000 Ang^3
#
#
#
# Elastic Constant Matrix: (Units=GPa)
#
#
# Indices 1 2 3 4 5 6 
#
# 1 166.9305 15.5784 41.6842 0.0000 0.0000 0.0000
# 2 15.5784 86.3103 38.2051 0.0000 0.0000 0.0000
# 3 41.6842 38.2051 109.5961 0.0000 0.0000 0.0000
# 4 0.0000 0.0000 0.0000 20.0225 0.0000 0.0000
# 5 0.0000 0.0000 0.0000 0.0000 34.4281 0.0000
# 6 0.0000 0.0000 0.0000 0.0000 0.0000 22.0914
#
#
#
# Elastic Compliance Matrix: (Units=1/GPa)
#
#
# Indices 1 2 3 4 5 6 
#
# 1 0.006620 -0.000095 -0.002485 0.000000 0.000000 0.000000
# 2 -0.000095 0.013701 -0.004740 0.000000 0.000000 0.000000
# 3 -0.002485 -0.004740 0.011722 0.000000 0.000000 0.000000
# 4 0.000000 0.000000 0.000000 0.049944 0.000000 0.000000
# 5 0.000000 0.000000 0.000000 0.000000 0.029046 0.000000
# 6 0.000000 0.000000 0.000000 0.000000 0.000000 0.045267
#
#
# Mechanical properties :
#
#
# Convention : Reuss Voigt Hill
#
# Bulk Modulus (GPa) = 57.45993 61.53026 59.49509
# Shear Modulus (GPa) = 28.29006 33.13301 30.71153
#
# Velocity S-wave (km/s) = 3.74118 4.04877 3.89801
# Velocity P-wave (km/s) = 6.86223 7.23178 7.04943
#
# Compressibility (1/GPa) = 0.01740343
#
# Stress axis : x y z
#
# Youngs Moduli (GPa) = 151.06120 72.98475 85.31057
#
# Poissons Ratio (x) = 0.00693 0.21197
# Poissons Ratio (y) = 0.01435 0.40439
# Poissons Ratio (z) = 0.37534 0.34596
#
# Static dielectric constant tensor:
#      x y z
#    x 2.771270 0.000000 0.000000 
#    y 0.000000 3.180780 0.000000 
#    z 0.000000 0.000000 3.793500 
# 
# 
# High freq. dielectric constant tensor:
#      x y z
#    x 1.830360 0.000000 0.000000 
#    y 0.000000 1.732180 0.000000 
#    z 0.000000 0.000000 1.802320 
# 
# From -- ./inp_files/26889.got.cif
#   From: 2010.03.12/outbox.cif.g09.slc.cpg/sg54_14_cif.got.tgz:26889.got - 2010.04.16 15:00:50.
