data_PCOD8222641
_publ_section_title
;
Structure prediction by ZEFSAII (Michael W. Deem and Ramdas Pophale) SiO2 
 PCOD8222641
Probable space group: P C C A
;
_chemical_formula_sum "Si O2"
_cell_formula_units_Z 56
_cell_length_a 14.373560
_cell_length_b 14.363007
_cell_length_c 13.509757
_cell_angle_alpha 90.000000
_cell_angle_beta 90.000000
_cell_angle_gamma 90.000000
_cell_volume 2789.056138
_symmetry_space_group_name_H-M "P C C A"
_symmetry_group_IT_number 54
_symmetry_cell_setting 'orthorhombic'
loop_
_space_group_symop_operation_xyz
x,y,z
1/2-x,-y,z
1/2+x,-y,1/2-z
-x,y,1/2-z
-x,-y,-z
1/2+x,y,-z
1/2-x,y,1/2+z
x,-y,1/2+z
loop_
_atom_site_type_symbol
_atom_site_label
_atom_site_fract_x
_atom_site_fract_y
_atom_site_fract_z
Si Si1 0.240060 0.287264 0.169200
Si Si2 0.383353 0.918273 0.523777
Si Si3 0.794562 0.905734 0.275605
Si Si4 0.111066 0.712903 0.000743
Si Si5 0.913651 0.090395 0.595306
Si Si6 0.250693 0.609104 0.365130
Si Si7 0.895835 0.287510 0.507363
O O1 0.233153 0.189097 0.229727
O O2 0.335883 0.293926 0.106126
O O3 0.242572 0.369868 0.248747
O O4 0.149685 0.303159 0.100472
O O5 0.306714 0.920044 0.608086
O O6 0.383489 0.820514 0.464721
O O7 0.478235 0.931426 0.585391
O O8 0.360281 0.000169 0.447363
O O9 0.887348 0.891181 0.209650
O O10 0.750000 0.000000 0.231953
O O11 0.003668 0.681862 0.010695
O O12 0.158144 0.649051 0.918881
O O13 0.882765 0.178877 0.531053
O O14 0.250000 0.500000 0.382500
O O15 0.156697 0.651752 0.410491
#
# Coordination Sequence:
#
# PCOD8222641 Si02
#       7
#     8   8   8   8   8   8   8
#     4  10  22  39  59  89 124 155 203 250 306 359
#     4   9  20  36  54  86 120 154 201 236 288 348
#     4  11  21  31  55  84 116 158 199 238 288 356
#     4   9  22  41  65  90 120 164 200 248 306 362
#     4  10  19  35  58  82 119 161 192 243 285 352
#     4  11  24  42  63  90 120 152 201 258 314 365
#     4  10  21  42  65  88 124 159 203 250 303 367
#
# _framework density 20.078476999999999
#
# number of rings (size 3 to 8) (size 9 to 14) (size 15 to 20)
#    0.000    2.000    1.429    1.286    2.000    5.714 
#    0.000    1.429    0.000    0.000    0.000    0.000 
#    0.000    0.000    0.000    0.000    0.000    0.000 
#
# Total GULP energy -694245.179308 kJ/mol
# GULP energy per Si atom -12397.235345 kJ/mol
# Density = 2.003278 g / cm^3
# Si number density = 20.078477 Si / 1000 Ang^3
#
#
#
# Elastic Constant Matrix: (Units=GPa)
#
#
# Indices 1 2 3 4 5 6 
#
# 1 116.9639 39.9077 37.0844 0.0000 0.0000 0.0000
# 2 39.9077 112.5937 39.2281 0.0000 0.0000 0.0000
# 3 37.0844 39.2281 90.0712 0.0000 0.0000 0.0000
# 4 0.0000 0.0000 0.0000 25.9211 0.0000 0.0000
# 5 0.0000 0.0000 0.0000 0.0000 19.4035 0.0000
# 6 0.0000 0.0000 0.0000 0.0000 0.0000 20.6255
#
#
#
# Elastic Compliance Matrix: (Units=1/GPa)
#
#
# Indices 1 2 3 4 5 6 
#
# 1 0.010440 -0.002597 -0.003167 0.000000 0.000000 0.000000
# 2 -0.002597 0.011116 -0.003772 0.000000 0.000000 0.000000
# 3 -0.003167 -0.003772 0.014049 0.000000 0.000000 0.000000
# 4 0.000000 0.000000 0.000000 0.038579 0.000000 0.000000
# 5 0.000000 0.000000 0.000000 0.000000 0.051537 0.000000
# 6 0.000000 0.000000 0.000000 0.000000 0.000000 0.048484
#
#
# Mechanical properties :
#
#
# Convention : Reuss Voigt Hill
#
# Bulk Modulus (GPa) = 60.48649 61.34104 60.91377
# Shear Modulus (GPa) = 25.15237 26.75058 25.95147
#
# Velocity S-wave (km/s) = 3.54319 3.65403 3.59904
# Velocity P-wave (km/s) = 6.85050 6.95842 6.90467
#
# Compressibility (1/GPa) = 0.01653262
#
# Stress axis : x y z
#
# Youngs Moduli (GPa) = 95.78624 89.95927 71.17794
#
# Poissons Ratio (x) = 0.23361 0.22545
# Poissons Ratio (y) = 0.24874 0.26850
# Poissons Ratio (z) = 0.30339 0.33934
#
# Static dielectric constant tensor:
#      x y z
#    x 3.597050 0.000000 0.000000 
#    y 0.000000 3.644170 0.000000 
#    z 0.000000 0.000000 3.494240 
# 
# 
# High freq. dielectric constant tensor:
#      x y z
#    x 1.777870 0.000000 0.000000 
#    y 0.000000 1.776870 0.000000 
#    z 0.000000 0.000000 1.781780 
# 
# From -- ./inp_files/8408.got.cif
#   From: 2010.03.12/outbox.cif.g09.slc.cpg/sg54_5_cif.got.tgz:8408.got - 2010.04.16 15:00:50.
