data_PCOD8222198
_publ_section_title
;
Structure prediction by ZEFSAII (Michael W. Deem and Ramdas Pophale) SiO2 
 PCOD8222198
Probable space group: P M N A
;
_chemical_formula_sum "Si O2"
_cell_formula_units_Z 24
_cell_length_a 10.001097
_cell_length_b 14.028606
_cell_length_c 8.452658
_cell_angle_alpha 90.000000
_cell_angle_beta 90.000000
_cell_angle_gamma 90.000000
_cell_volume 1185.920169
_symmetry_space_group_name_H-M "P M N A"
_symmetry_group_IT_number 53
_symmetry_cell_setting 'orthorhombic'
loop_
_space_group_symop_operation_xyz
x,y,z
1/2-x,-y,1/2+z
x,-y,-z
1/2-x,y,1/2-z
-x,-y,-z
1/2+x,y,1/2-z
-x,y,z
1/2+x,-y,1/2+z
loop_
_atom_site_type_symbol
_atom_site_label
_atom_site_fract_x
_atom_site_fract_y
_atom_site_fract_z
Si Si1 0.000000 0.391500 0.061358
Si Si2 0.000000 0.395362 0.437035
Si Si3 0.346475 0.906647 0.895456
Si Si4 0.254567 0.719091 0.063256
O O1 0.000000 0.392567 0.249214
O O2 0.000000 0.500000 0.000000
O O3 0.123917 0.331825 0.000121
O O4 0.000000 0.500000 0.500000
O O5 0.872501 0.346978 0.509246
O O6 0.250000 0.929230 0.750000
O O7 0.500000 0.878777 0.845559
O O8 0.274713 0.823261 0.991872
O O9 0.352608 0.000000 0.000000
O O10 0.250000 0.729360 0.250000
#
# Coordination Sequence:
#
# PCOD8222198 Si02
#       4
#     4   4   8   8
#     4  12  26  44  69 100 135 184 230 282 344 402
#     4  12  24  44  67  96 137 176 232 284 338 410
#     4  11  25  46  71 103 141 181 228 281 342 409
#     4  12  25  44  68 100 137 181 226 282 343 405
#
# _framework density 20.237449999999999
#
# number of rings (size 3 to 8) (size 9 to 14) (size 15 to 20)
#    0.000    0.333    1.667    8.000    2.333    0.667 
#    0.000    0.000    0.000    0.000    0.000    0.000 
#    0.000    0.000    0.000    0.000    0.000    0.000 
#
# Total GULP energy -297617.087159 kJ/mol
# GULP energy per Si atom -12400.711965 kJ/mol
# Density = 2.019139 g / cm^3
# Si number density = 20.237450 Si / 1000 Ang^3
#
#
#
# Elastic Constant Matrix: (Units=GPa)
#
#
# Indices 1 2 3 4 5 6 
#
# 1 190.6687 67.3672 64.4601 0.0000 0.0000 0.0000
# 2 67.3672 139.3386 20.6994 0.0000 0.0000 0.0000
# 3 64.4601 20.6994 117.5789 0.0000 0.0000 0.0000
# 4 0.0000 0.0000 0.0000 42.4252 0.0000 0.0000
# 5 0.0000 0.0000 0.0000 0.0000 41.3255 0.0000
# 6 0.0000 0.0000 0.0000 0.0000 0.0000 43.1182
#
#
#
# Elastic Compliance Matrix: (Units=1/GPa)
#
#
# Indices 1 2 3 4 5 6 
#
# 1 0.007564 -0.003123 -0.003597 0.000000 0.000000 0.000000
# 2 -0.003123 0.008659 0.000188 0.000000 0.000000 0.000000
# 3 -0.003597 0.000188 0.010444 0.000000 0.000000 0.000000
# 4 0.000000 0.000000 0.000000 0.023571 0.000000 0.000000
# 5 0.000000 0.000000 0.000000 0.000000 0.024198 0.000000
# 6 0.000000 0.000000 0.000000 0.000000 0.000000 0.023192
#
#
# Mechanical properties :
#
#
# Convention : Reuss Voigt Hill
#
# Bulk Modulus (GPa) = 73.51697 83.62663 78.57180
# Shear Modulus (GPa) = 43.39289 45.04443 44.21866
#
# Velocity S-wave (km/s) = 4.63556 4.72295 4.67946
# Velocity P-wave (km/s) = 8.06581 8.43529 8.25262
#
# Compressibility (1/GPa) = 0.01360230
#
# Stress axis : x y z
#
# Youngs Moduli (GPa) = 132.20331 115.49140 95.74936
#
# Poissons Ratio (x) = 0.36065 0.34442
# Poissons Ratio (y) = 0.41283 -0.01797
# Poissons Ratio (z) = 0.47555 -0.02167
#
# Static dielectric constant tensor:
#      x y z
#    x 4.116820 0.000000 0.000000 
#    y 0.000000 3.986480 0.000000 
#    z 0.000000 0.000000 4.030910 
# 
# 
# High freq. dielectric constant tensor:
#      x y z
#    x 1.816240 0.000000 0.000000 
#    y 0.000000 1.817240 0.000000 
#    z 0.000000 0.000000 1.807390 
# 
# From -- ./inp_files/5796.got.cif
#   From: 2010.03.12/outbox.cif.g09.slc.cpg/sg53_3_cif.got.tgz:5796.got - 2010.04.16 14:36:59.
