data_PCOD8222446
_publ_section_title
;
Structure prediction by ZEFSAII (Michael W. Deem and Ramdas Pophale) SiO2 
 PCOD8222446
Probable space group: P C C A
;
_chemical_formula_sum "Si O2"
_cell_formula_units_Z 60
_cell_length_a 9.158369
_cell_length_b 11.532222
_cell_length_c 29.575965
_cell_angle_alpha 90.000000
_cell_angle_beta 90.000000
_cell_angle_gamma 90.000000
_cell_volume 3123.705307
_symmetry_space_group_name_H-M "P C C A"
_symmetry_group_IT_number 54
_symmetry_cell_setting 'orthorhombic'
loop_
_space_group_symop_operation_xyz
x,y,z
1/2-x,-y,z
1/2+x,-y,1/2-z
-x,y,1/2-z
-x,-y,-z
1/2+x,y,-z
1/2-x,y,1/2+z
x,-y,1/2+z
loop_
_atom_site_type_symbol
_atom_site_label
_atom_site_fract_x
_atom_site_fract_y
_atom_site_fract_z
Si Si1 0.879536 0.780812 0.640001
Si Si2 0.418722 0.980045 0.296691
Si Si3 0.529407 0.932861 0.059765
Si Si4 0.964734 0.596769 0.900376
Si Si5 0.443377 0.145432 0.377313
Si Si6 0.362015 0.654817 0.584685
Si Si7 0.378582 0.413951 0.986498
Si Si8 0.750000 0.000000 0.489963
O O1 0.932159 0.849190 0.684495
O O2 0.963170 0.836130 0.597492
O O3 0.706380 0.785857 0.632032
O O4 0.942677 0.648546 0.642338
O O5 0.500000 0.994357 0.250000
O O6 0.250000 0.000000 0.288082
O O7 0.485054 0.072973 0.332285
O O8 0.363040 0.927849 0.041188
O O9 0.574059 0.057848 0.080945
O O10 0.648721 0.913153 0.019927
O O11 0.960562 0.457202 0.901820
O O12 0.800793 0.642922 0.897092
O O13 0.057686 0.652156 0.942810
O O14 0.569326 0.235084 0.390553
O O15 0.349223 0.669082 0.529908
O O16 0.250000 0.500000 0.972575
O O17 0.500000 0.500000 0.000000
#
# Coordination Sequence:
#
# PCOD8222446 Si02
#       8
#     8   8   8   8   8   8   8   4
#     4  10  21  37  57  81 111 144 181 231 282 337
#     4   9  20  41  65  91 113 137 175 225 288 358
#     4  10  20  38  47  73 108 144 187 227 272 326
#     4  10  22  35  52  77 112 151 198 238 279 317
#     4  10  21  37  58  79 113 144 180 231 285 332
#     4  10  21  37  50  77 113 150 196 243 274 322
#     4  10  18  34  49  69 106 153 206 243 270 305
#     4  10  20  32  52  70 108 150 184 222 276 328
#
# _framework density 19.207958000000001
#
# number of rings (size 3 to 8) (size 9 to 14) (size 15 to 20)
#    0.000    2.133    4.000    0.800    5.600    3.200 
#    2.400    0.000    0.000    0.800    0.000    0.000 
#    0.000    0.000    0.000    0.000    0.000    0.000 
#
# Total GULP energy -743318.385424 kJ/mol
# GULP energy per Si atom -12388.639757 kJ/mol
# Density = 1.916424 g / cm^3
# Si number density = 19.207958 Si / 1000 Ang^3
#
#
#
# Elastic Constant Matrix: (Units=GPa)
#
#
# Indices 1 2 3 4 5 6 
#
# 1 82.4012 22.0495 31.1733 0.0000 0.0000 0.0000
# 2 22.0495 72.2844 30.8302 0.0000 0.0000 0.0000
# 3 31.1733 30.8302 89.6863 0.0000 0.0000 0.0000
# 4 0.0000 0.0000 0.0000 44.4220 0.0000 0.0000
# 5 0.0000 0.0000 0.0000 0.0000 27.3024 0.0000
# 6 0.0000 0.0000 0.0000 0.0000 0.0000 29.9141
#
#
#
# Elastic Compliance Matrix: (Units=1/GPa)
#
#
# Indices 1 2 3 4 5 6 
#
# 1 0.014392 -0.002644 -0.004093 0.000000 0.000000 0.000000
# 2 -0.002644 0.016697 -0.004821 0.000000 0.000000 0.000000
# 3 -0.004093 -0.004821 0.014230 0.000000 0.000000 0.000000
# 4 0.000000 0.000000 0.000000 0.022511 0.000000 0.000000
# 5 0.000000 0.000000 0.000000 0.000000 0.036627 0.000000
# 6 0.000000 0.000000 0.000000 0.000000 0.000000 0.033429
#
#
# Mechanical properties :
#
#
# Convention : Reuss Voigt Hill
#
# Bulk Modulus (GPa) = 45.04039 45.83086 45.43562
# Shear Modulus (GPa) = 29.69070 31.01562 30.35316
#
# Velocity S-wave (km/s) = 3.93587 4.02273 3.97953
# Velocity P-wave (km/s) = 6.64488 6.74452 6.69489
#
# Compressibility (1/GPa) = 0.02220230
#
# Stress axis : x y z
#
# Youngs Moduli (GPa) = 69.48362 59.89156 70.27475
#
# Poissons Ratio (x) = 0.15836 0.28766
# Poissons Ratio (y) = 0.18373 0.33876
# Poissons Ratio (z) = 0.28442 0.28871
#
# Static dielectric constant tensor:
#      x y z
#    x 3.497920 0.000000 0.000000 
#    y 0.000000 3.366290 0.000000 
#    z 0.000000 0.000000 3.430280 
# 
# 
# High freq. dielectric constant tensor:
#      x y z
#    x 1.761770 0.000000 0.000000 
#    y 0.000000 1.736450 0.000000 
#    z 0.000000 0.000000 1.708270 
# 
# From -- ./inp_files/27903.got.cif
#   From: 2010.03.12/outbox.cif.g09.slc.cpg/sg54_14_cif.got.tgz:27903.got - 2010.04.16 15:00:50.
