data_PCOD8222382
_publ_section_title
;
Structure prediction by ZEFSAII (Michael W. Deem and Ramdas Pophale) SiO2 
 PCOD8222382
Probable space group: P C C A
;
_chemical_formula_sum "Si O2"
_cell_formula_units_Z 56
_cell_length_a 15.149143
_cell_length_b 10.037562
_cell_length_c 18.031941
_cell_angle_alpha 90.000000
_cell_angle_beta 90.000000
_cell_angle_gamma 90.000000
_cell_volume 2741.945281
_symmetry_space_group_name_H-M "P C C A"
_symmetry_group_IT_number 54
_symmetry_cell_setting 'orthorhombic'
loop_
_space_group_symop_operation_xyz
x,y,z
1/2-x,-y,z
1/2+x,-y,1/2-z
-x,y,1/2-z
-x,-y,-z
1/2+x,y,-z
1/2-x,y,1/2+z
x,-y,1/2+z
loop_
_atom_site_type_symbol
_atom_site_label
_atom_site_fract_x
_atom_site_fract_y
_atom_site_fract_z
Si Si1 0.406399 0.973222 0.240117
Si Si2 0.684465 0.112830 0.623191
Si Si3 0.802217 0.125387 0.868224
Si Si4 0.566154 0.122486 0.493329
Si Si5 0.825422 0.607611 0.668776
Si Si6 0.493824 0.391590 0.935111
Si Si7 0.858918 0.291796 0.330709
O O1 0.500000 0.045933 0.250000
O O2 0.333424 0.081671 0.215022
O O3 0.395022 0.903919 0.319444
O O4 0.407664 0.850076 0.181506
O O5 0.653032 0.088002 0.540259
O O6 0.721747 0.260981 0.635013
O O7 0.750000 0.000000 0.647805
O O8 0.739858 0.256299 0.862300
O O9 0.750000 0.000000 0.904250
O O10 0.893978 0.151534 0.911896
O O11 0.518216 0.251703 0.524109
O O12 0.500000 0.000000 0.500000
O O13 0.750000 0.500000 0.658045
O O14 0.913353 0.574152 0.620812
O O15 0.850682 0.623275 0.755175
O O16 0.585619 0.381063 0.888919
O O17 0.500000 0.500000 0.000000
#
# Coordination Sequence:
#
# PCOD8222382 Si02
#       7
#     8   8   8   8   8   8   8
#     4  10  17  32  57  86 119 154 196 247 299 360
#     4  10  20  35  57  85 115 151 191 238 296 352
#     4  10  20  34  57  90 122 158 203 253 309 366
#     4  11  22  37  58  88 121 158 198 245 303 365
#     4  10  22  40  63  88 117 157 206 255 308 371
#     4  11  25  41  60  87 122 162 202 253 317 377
#     4  10  20  39  62  84 117 164 209 251 310 381
#
# _framework density 20.423456999999999
#
# number of rings (size 3 to 8) (size 9 to 14) (size 15 to 20)
#    0.000    1.714    0.000    8.143    0.000    4.571 
#    0.000    1.429    0.000    0.000    0.000    0.000 
#    0.000    0.000    0.000    0.000    0.000    0.000 
#
# Total GULP energy -693915.625004 kJ/mol
# GULP energy per Si atom -12391.350447 kJ/mol
# Density = 2.037697 g / cm^3
# Si number density = 20.423457 Si / 1000 Ang^3
#
#
#
# Elastic Constant Matrix: (Units=GPa)
#
#
# Indices 1 2 3 4 5 6 
#
# 1 119.7095 73.4047 43.5207 0.0000 0.0000 0.0000
# 2 73.4047 103.4476 58.2935 0.0000 0.0000 0.0000
# 3 43.5207 58.2935 100.8116 0.0000 0.0000 0.0000
# 4 0.0000 0.0000 0.0000 29.1361 0.0000 0.0000
# 5 0.0000 0.0000 0.0000 0.0000 33.8927 0.0000
# 6 0.0000 0.0000 0.0000 0.0000 0.0000 35.7643
#
#
#
# Elastic Compliance Matrix: (Units=1/GPa)
#
#
# Indices 1 2 3 4 5 6 
#
# 1 0.014803 -0.010239 -0.000470 0.000000 0.000000 0.000000
# 2 -0.010239 0.021421 -0.007966 0.000000 0.000000 0.000000
# 3 -0.000470 -0.007966 0.014729 0.000000 0.000000 0.000000
# 4 0.000000 0.000000 0.000000 0.034322 0.000000 0.000000
# 5 0.000000 0.000000 0.000000 0.000000 0.029505 0.000000
# 6 0.000000 0.000000 0.000000 0.000000 0.000000 0.027961
#
#
# Mechanical properties :
#
#
# Convention : Reuss Voigt Hill
#
# Bulk Modulus (GPa) = 73.51662 74.93405 74.22533
# Shear Modulus (GPa) = 27.08183 29.67527 28.37855
#
# Velocity S-wave (km/s) = 3.64540 3.81596 3.73165
# Velocity P-wave (km/s) = 7.33436 7.49568 7.41546
#
# Compressibility (1/GPa) = 0.01360237
#
# Stress axis : x y z
#
# Youngs Moduli (GPa) = 67.55428 46.68211 67.89405
#
# Poissons Ratio (x) = 0.47799 0.03189
# Poissons Ratio (y) = 0.69170 0.54088
# Poissons Ratio (z) = 0.03173 0.37189
#
# Static dielectric constant tensor:
#      x y z
#    x 3.596690 0.000000 0.000000 
#    y 0.000000 3.495100 0.000000 
#    z 0.000000 0.000000 3.831210 
# 
# 
# High freq. dielectric constant tensor:
#      x y z
#    x 1.798530 0.000000 0.000000 
#    y 0.000000 1.773120 0.000000 
#    z 0.000000 0.000000 1.807860 
# 
# From -- ./inp_files/21602.got.cif
#   From: 2010.03.12/outbox.cif.g09.slc.cpg/sg54_11_cif.got.tgz:21602.got - 2010.04.16 15:00:50.
