data_PCOD8222497
_publ_section_title
;
Structure prediction by ZEFSAII (Michael W. Deem and Ramdas Pophale) SiO2 
 PCOD8222497
Probable space group: P C C A
;
_chemical_formula_sum "Si O2"
_cell_formula_units_Z 48
_cell_length_a 9.271928
_cell_length_b 17.947713
_cell_length_c 14.267479
_cell_angle_alpha 90.000000
_cell_angle_beta 90.000000
_cell_angle_gamma 90.000000
_cell_volume 2374.249792
_symmetry_space_group_name_H-M "P C C A"
_symmetry_group_IT_number 54
_symmetry_cell_setting 'orthorhombic'
loop_
_space_group_symop_operation_xyz
x,y,z
1/2-x,-y,z
1/2+x,-y,1/2-z
-x,y,1/2-z
-x,-y,-z
1/2+x,y,-z
1/2-x,y,1/2+z
x,-y,1/2+z
loop_
_atom_site_type_symbol
_atom_site_label
_atom_site_fract_x
_atom_site_fract_y
_atom_site_fract_z
Si Si1 0.851515 0.154382 0.700948
Si Si2 0.813770 0.694478 0.111284
Si Si3 0.742902 0.847256 0.392340
Si Si4 0.351786 0.687939 0.573055
Si Si5 0.521861 0.915059 0.526077
Si Si6 0.662912 0.575214 0.767526
O O1 0.774117 0.224908 0.653399
O O2 0.751497 0.121372 0.785029
O O3 0.000000 0.182407 0.750000
O O4 0.883137 0.092274 0.621470
O O5 0.787872 0.631688 0.187613
O O6 0.976768 0.700881 0.072988
O O7 0.700740 0.673091 0.031561
O O8 0.764694 0.758520 0.385820
O O9 0.592013 0.870538 0.438830
O O10 0.865379 0.880655 0.459305
O O11 0.313313 0.615168 0.633097
O O12 0.500000 0.000000 0.500000
O O13 0.750000 0.500000 0.764158
O O14 0.500000 0.551900 0.750000
#
# Coordination Sequence:
#
# PCOD8222497 Si02
#       6
#     8   8   8   8   8   8
#     4  10  18  37  66  86 118 169 215 249 311 384
#     4  11  20  38  65  92 122 166 214 256 314 378
#     4  11  20  40  67  89 122 169 212 256 313 379
#     4  11  20  37  67  94 118 169 217 257 307 384
#     4  11  23  39  62  94 129 160 205 267 319 371
#     4  10  23  41  63  91 131 168 208 266 323 377
#
# _framework density 20.216913000000002
#
# number of rings (size 3 to 8) (size 9 to 14) (size 15 to 20)
#    0.000    1.333    6.667    1.000    0.000    2.000 
#    0.000   14.167    0.000    0.000    0.000    0.000 
#    0.000    0.000    0.000    0.000    0.000    0.000 
#
# Total GULP energy -595203.222934 kJ/mol
# GULP energy per Si atom -12400.067144 kJ/mol
# Density = 2.017090 g / cm^3
# Si number density = 20.216913 Si / 1000 Ang^3
#
#
#
# Elastic Constant Matrix: (Units=GPa)
#
#
# Indices 1 2 3 4 5 6 
#
# 1 50.5801 45.8763 49.0329 0.0000 0.0000 0.0000
# 2 45.8763 137.8452 52.9298 0.0000 0.0000 0.0000
# 3 49.0329 52.9298 147.4130 0.0000 0.0000 0.0000
# 4 0.0000 0.0000 0.0000 -15.3380 0.0000 0.0000
# 5 0.0000 0.0000 0.0000 0.0000 30.4190 0.0000
# 6 0.0000 0.0000 0.0000 0.0000 0.0000 29.2912
#
#
#
# Elastic Compliance Matrix: (Units=1/GPa)
#
#
# Indices 1 2 3 4 5 6 
#
# 1 0.036304 -0.008636 -0.008975 0.000000 0.000000 0.000000
# 2 -0.008636 0.010469 -0.000886 0.000000 0.000000 0.000000
# 3 -0.008975 -0.000886 0.010087 0.000000 0.000000 0.000000
# 4 0.000000 0.000000 0.000000 -0.065197 0.000000 0.000000
# 5 0.000000 0.000000 0.000000 0.000000 0.032874 0.000000
# 6 0.000000 0.000000 0.000000 0.000000 0.000000 0.034140
#
#
# Mechanical properties :
#
#
# Convention : Reuss Voigt Hill
#
# Bulk Modulus (GPa) = 50.33834 70.16846 60.25340
# Shear Modulus (GPa) = 48.87929 21.40772 35.14350
#
# Velocity S-wave (km/s) = 4.92239 3.25761 4.17384
# Velocity P-wave (km/s) = 7.56702 6.99518 7.28671
#
# Compressibility (1/GPa) = 0.01986558
#
# Stress axis : x y z
#
# Youngs Moduli (GPa) = 27.54538 95.51924 99.13683
#
# Poissons Ratio (x) = 0.82492 0.88971
# Poissons Ratio (y) = 0.23789 0.08788
# Poissons Ratio (z) = 0.24721 0.08467
#
# Static dielectric constant tensor:
#      x y z
#    x 3.571760 0.000000 0.000000 
#    y 0.000000 3.599650 0.000000 
#    z 0.000000 0.000000 4.082030 
# 
# 
# High freq. dielectric constant tensor:
#      x y z
#    x 1.771080 0.000000 0.000000 
#    y 0.000000 1.779350 0.000000 
#    z 0.000000 0.000000 1.807280 
# 
# From -- ./inp_files/11709.got.cif
#   From: 2010.03.12/outbox.cif.g09.slc.cpg/sg54_6_cif.got.tgz:11709.got - 2010.04.16 15:00:50.
