data_PCOD8222519
_publ_section_title
;
Structure prediction by ZEFSAII (Michael W. Deem and Ramdas Pophale) SiO2 
 PCOD8222519
Probable space group: P C C A
;
_chemical_formula_sum "Si O2"
_cell_formula_units_Z 48
_cell_length_a 5.030268
_cell_length_b 28.813861
_cell_length_c 16.897543
_cell_angle_alpha 90.000000
_cell_angle_beta 90.000000
_cell_angle_gamma 90.000000
_cell_volume 2449.154265
_symmetry_space_group_name_H-M "P C C A"
_symmetry_group_IT_number 54
_symmetry_cell_setting 'orthorhombic'
loop_
_space_group_symop_operation_xyz
x,y,z
1/2-x,-y,z
1/2+x,-y,1/2-z
-x,y,1/2-z
-x,-y,-z
1/2+x,y,-z
1/2-x,y,1/2+z
x,-y,1/2+z
loop_
_atom_site_type_symbol
_atom_site_label
_atom_site_fract_x
_atom_site_fract_y
_atom_site_fract_z
Si Si1 0.323371 0.352591 0.052353
Si Si2 0.499081 0.968825 0.341349
Si Si3 0.998104 0.269281 0.657923
Si Si4 0.150577 0.545351 0.052152
Si Si5 0.494337 0.210905 0.657123
Si Si6 0.484100 0.878449 0.053016
O O1 0.413598 0.316861 0.118399
O O2 0.325406 0.404045 0.092716
O O3 0.523527 0.345718 0.978423
O O4 0.500000 0.952833 0.250000
O O5 0.482340 0.924097 0.395395
O O6 0.250000 0.000000 0.362054
O O7 0.750000 0.000000 0.362929
O O8 0.205690 0.229529 0.633427
O O9 0.000000 0.279935 0.750000
O O10 0.709177 0.250309 0.632699
O O11 0.250000 0.500000 0.104606
O O12 0.346516 0.542109 0.975653
O O13 0.500000 0.199108 0.750000
O O14 0.550257 0.164683 0.608964
O O15 0.185491 0.877301 0.020397
#
# Coordination Sequence:
#
# PCOD8222519 Si02
#       6
#     8   8   8   8   8   8
#     4  10  19  30  49  76 102 132 171 217 263 307
#     4  10  22  41  63  84 110 147 184 214 253 314
#     4  10  21  36  54  76 103 139 177 217 265 314
#     4   8  14  25  41  65  96 127 162 203 248 300
#     4  10  22  40  57  74 104 144 181 212 254 320
#     4  12  25  38  58  87 114 140 173 221 274 310
#
# _framework density 19.598603000000001
#
# number of rings (size 3 to 8) (size 9 to 14) (size 15 to 20)
#    0.000    2.000    0.000    3.500    0.000    6.000 
#    0.000    6.667    0.000    0.000    0.000   15.167 
#    0.000    0.000    0.000    0.000    0.000    0.000 
#
# Total GULP energy -594904.254449 kJ/mol
# GULP energy per Si atom -12393.838634 kJ/mol
# Density = 1.955400 g / cm^3
# Si number density = 19.598603 Si / 1000 Ang^3
#
#
#
# Elastic Constant Matrix: (Units=GPa)
#
#
# Indices 1 2 3 4 5 6 
#
# 1 92.2174 25.0956 22.2360 0.0000 0.0000 0.0000
# 2 25.0956 159.6282 64.4131 0.0000 0.0000 0.0000
# 3 22.2360 64.4131 49.6669 0.0000 0.0000 0.0000
# 4 0.0000 0.0000 0.0000 54.5228 0.0000 0.0000
# 5 0.0000 0.0000 0.0000 0.0000 26.8427 0.0000
# 6 0.0000 0.0000 0.0000 0.0000 0.0000 37.6682
#
#
#
# Elastic Compliance Matrix: (Units=1/GPa)
#
#
# Indices 1 2 3 4 5 6 
#
# 1 0.012183 0.000599 -0.006232 0.000000 0.000000 0.000000
# 2 0.000599 0.013172 -0.017351 0.000000 0.000000 0.000000
# 3 -0.006232 -0.017351 0.045426 0.000000 0.000000 0.000000
# 4 0.000000 0.000000 0.000000 0.018341 0.000000 0.000000
# 5 0.000000 0.000000 0.000000 0.000000 0.037254 0.000000
# 6 0.000000 0.000000 0.000000 0.000000 0.000000 0.026548
#
#
# Mechanical properties :
#
#
# Convention : Reuss Voigt Hill
#
# Bulk Modulus (GPa) = 40.29811 58.33353 49.31582
# Shear Modulus (GPa) = 24.13576 36.45795 30.29685
#
# Velocity S-wave (km/s) = 3.51309 4.31772 3.93602
# Velocity P-wave (km/s) = 6.08786 7.39498 6.77303
#
# Compressibility (1/GPa) = 0.02481506
#
# Stress axis : x y z
#
# Youngs Moduli (GPa) = 82.07828 75.92065 22.01382
#
# Poissons Ratio (x) = -0.04549 0.13718
# Poissons Ratio (y) = -0.04918 0.38195
# Poissons Ratio (z) = 0.51148 1.31727
#
# Static dielectric constant tensor:
#      x y z
#    x 3.610710 0.000000 0.000000 
#    y 0.000000 3.857830 0.000000 
#    z 0.000000 0.000000 3.218690 
# 
# 
# High freq. dielectric constant tensor:
#      x y z
#    x 1.788900 0.000000 0.000000 
#    y 0.000000 1.785950 0.000000 
#    z 0.000000 0.000000 1.717720 
# 
# From -- ./inp_files/10913.got.cif
#   From: 2010.03.12/outbox.cif.g09.slc.cpg/sg54_6_cif.got.tgz:10913.got - 2010.04.16 15:00:50.
