data_PCOD8222215
_publ_section_title
;
Structure prediction by ZEFSAII (Michael W. Deem and Ramdas Pophale) SiO2 
 PCOD8222215
Probable space group: P M N A
;
_chemical_formula_sum "Si O2"
_cell_formula_units_Z 40
_cell_length_a 10.130331
_cell_length_b 15.515483
_cell_length_c 13.613085
_cell_angle_alpha 90.000000
_cell_angle_beta 90.000000
_cell_angle_gamma 90.000000
_cell_volume 2139.663567
_symmetry_space_group_name_H-M "P M N A"
_symmetry_group_IT_number 53
_symmetry_cell_setting 'orthorhombic'
loop_
_space_group_symop_operation_xyz
x,y,z
1/2-x,-y,1/2+z
x,-y,-z
1/2-x,y,1/2-z
-x,-y,-z
1/2+x,y,1/2-z
-x,y,z
1/2+x,-y,1/2+z
loop_
_atom_site_type_symbol
_atom_site_label
_atom_site_fract_x
_atom_site_fract_y
_atom_site_fract_z
Si Si1 0.759394 0.318260 0.049644
Si Si2 0.848277 0.136522 0.470674
Si Si3 0.000000 0.597665 0.467412
Si Si4 0.000000 0.593495 0.049361
Si Si5 0.250000 0.409995 0.250000
Si Si6 0.500000 0.528656 0.235033
Si Si7 0.151927 0.026436 0.660191
O O1 0.751918 0.214920 0.048258
O O2 0.789610 0.349376 0.159607
O O3 0.624981 0.355121 0.009552
O O4 0.873327 0.351539 0.978841
O O5 0.815883 0.065225 0.388943
O O6 0.000000 0.166802 0.459984
O O7 0.824176 0.100523 0.579776
O O8 0.000000 0.500000 0.500000
O O9 0.000000 0.601253 0.349276
O O10 0.000000 0.581456 0.165206
O O11 0.000000 0.500000 0.000000
O O12 0.372572 0.469206 0.221797
O O13 0.250000 0.043419 0.750000
O O14 0.000000 0.028795 0.696790
#
# Coordination Sequence:
#
# PCOD8222215 Si02
#       7
#     8   8   4   4   4   4   8
#     4  12  23  40  61  89 122 156 204 257 299 356
#     4   9  20  41  63  88 123 158 198 244 295 358
#     4  12  22  40  64  85 110 159 216 248 282 371
#     4  12  24  44  56  83 134 161 188 258 328 345
#     4  12  22  36  62  86 112 152 208 256 294 356
#     4  12  24  40  60  82 110 164 208 238 314 352
#     4   9  19  41  67  90 121 159 194 238 300 367
#
# _framework density 18.694527999999998
#
# number of rings (size 3 to 8) (size 9 to 14) (size 15 to 20)
#    0.000    1.200    5.000    3.000    1.400    0.000 
#    7.200    1.000    0.000    0.000    0.000    0.000 
#    0.000    0.000    0.000    0.000    0.000    0.000 
#
# Total GULP energy -496134.232996 kJ/mol
# GULP energy per Si atom -12403.355825 kJ/mol
# Density = 1.865198 g / cm^3
# Si number density = 18.694528 Si / 1000 Ang^3
#
#
#
# Elastic Constant Matrix: (Units=GPa)
#
#
# Indices 1 2 3 4 5 6 
#
# 1 80.7569 11.3850 5.7626 0.0000 0.0000 0.0000
# 2 11.3850 72.2953 3.8331 0.0000 0.0000 0.0000
# 3 5.7626 3.8331 103.6554 0.0000 0.0000 0.0000
# 4 0.0000 0.0000 0.0000 17.8798 0.0000 0.0000
# 5 0.0000 0.0000 0.0000 0.0000 36.1628 0.0000
# 6 0.0000 0.0000 0.0000 0.0000 0.0000 19.8609
#
#
#
# Elastic Compliance Matrix: (Units=1/GPa)
#
#
# Indices 1 2 3 4 5 6 
#
# 1 0.012705 -0.001967 -0.000634 0.000000 0.000000 0.000000
# 2 -0.001967 0.014164 -0.000414 0.000000 0.000000 0.000000
# 3 -0.000634 -0.000414 0.009698 0.000000 0.000000 0.000000
# 4 0.000000 0.000000 0.000000 0.055929 0.000000 0.000000
# 5 0.000000 0.000000 0.000000 0.000000 0.027653 0.000000
# 6 0.000000 0.000000 0.000000 0.000000 0.000000 0.050350
#
#
# Mechanical properties :
#
#
# Convention : Reuss Voigt Hill
#
# Bulk Modulus (GPa) = 32.74744 33.18545 32.96644
# Shear Modulus (GPa) = 26.77972 30.49584 28.63778
#
# Velocity S-wave (km/s) = 3.78893 4.04328 3.91817
# Velocity P-wave (km/s) = 6.05776 6.29186 6.17592
#
# Compressibility (1/GPa) = 0.03053674
#
# Stress axis : x y z
#
# Youngs Moduli (GPa) = 78.70673 70.60185 103.11516
#
# Poissons Ratio (x) = 0.13889 0.06533
# Poissons Ratio (y) = 0.15483 0.04273
# Poissons Ratio (z) = 0.04987 0.02926
#
# Static dielectric constant tensor:
#      x y z
#    x 3.347170 0.000000 0.000000 
#    y 0.000000 3.674360 0.000000 
#    z 0.000000 0.000000 3.574480 
# 
# 
# High freq. dielectric constant tensor:
#      x y z
#    x 1.728610 0.000000 0.000000 
#    y 0.000000 1.722640 0.000000 
#    z 0.000000 0.000000 1.735440 
# 
# From -- ./inp_files/19958.got.cif
#   From: 2010.03.12/outbox.cif.g09.slc.cpg/sg53_10_cif.got.tgz:19958.got - 2010.04.16 14:36:59.
