data_PCOD8222368
_publ_section_title
;
Structure prediction by ZEFSAII (Michael W. Deem and Ramdas Pophale) SiO2 
 PCOD8222368
Probable space group: P C C A
;
_chemical_formula_sum "Si O2"
_cell_formula_units_Z 56
_cell_length_a 17.608254
_cell_length_b 16.108695
_cell_length_c 9.218029
_cell_angle_alpha 90.000000
_cell_angle_beta 90.000000
_cell_angle_gamma 90.000000
_cell_volume 2614.656991
_symmetry_space_group_name_H-M "P C C A"
_symmetry_group_IT_number 54
_symmetry_cell_setting 'orthorhombic'
loop_
_space_group_symop_operation_xyz
x,y,z
1/2-x,-y,z
1/2+x,-y,1/2-z
-x,y,1/2-z
-x,-y,-z
1/2+x,y,-z
1/2-x,y,1/2+z
x,-y,1/2+z
loop_
_atom_site_type_symbol
_atom_site_label
_atom_site_fract_x
_atom_site_fract_y
_atom_site_fract_z
Si Si1 0.305460 0.218663 0.706107
Si Si2 0.064291 0.089040 0.147142
Si Si3 0.961914 0.091612 0.883080
Si Si4 0.630985 0.492015 0.147170
Si Si5 0.794807 0.602643 0.888248
Si Si6 0.386581 0.608021 0.594852
Si Si7 0.656107 0.782275 0.964899
O O1 0.359701 0.143889 0.654957
O O2 0.330488 0.305724 0.633290
O O3 0.219503 0.200603 0.656816
O O4 0.304653 0.229975 0.879452
O O5 0.000000 0.130622 0.250000
O O6 0.076029 0.991939 0.188258
O O7 0.034325 0.079740 0.984990
O O8 0.896652 0.137820 0.971177
O O9 0.000000 0.142574 0.750000
O O10 0.683625 0.546581 0.251652
O O11 0.580782 0.432106 0.254509
O O12 0.677350 0.431846 0.041566
O O13 0.582129 0.554820 0.043947
O O14 0.704729 0.602356 0.899055
O O15 0.401308 0.705777 0.575024
#
# Coordination Sequence:
#
# PCOD8222368 Si02
#       7
#     8   8   8   8   8   8   8
#     4  11  24  38  59  90 130 160 195 249 312 359
#     4  10  21  44  68  88 116 156 202 246 290 362
#     4  10  23  42  68  92 115 153 207 250 292 359
#     4  10  17  28  46  75 112 160 199 240 289 348
#     4  10  18  28  47  77 115 158 196 241 295 347
#     4  10  18  28  48  75 119 154 198 240 294 346
#     4  11  24  39  57  92 130 158 195 250 309 360
#
# _framework density 21.417724
#
# number of rings (size 3 to 8) (size 9 to 14) (size 15 to 20)
#    0.000    1.714    2.857    3.429    8.000    0.571 
#    0.000    1.429    0.000    0.000    0.000   20.000 
#    0.000    0.000    0.000    0.000    0.000    0.000 
#
# Total GULP energy -693751.605069 kJ/mol
# GULP energy per Si atom -12388.421519 kJ/mol
# Density = 2.136898 g / cm^3
# Si number density = 21.417724 Si / 1000 Ang^3
#
#
#
# Elastic Constant Matrix: (Units=GPa)
#
#
# Indices 1 2 3 4 5 6 
#
# 1 36.1461 32.5349 12.6950 0.0000 0.0000 0.0000
# 2 32.5349 114.4133 35.1140 0.0000 0.0000 0.0000
# 3 12.6950 35.1140 131.5775 0.0000 0.0000 0.0000
# 4 0.0000 0.0000 0.0000 32.3287 0.0000 0.0000
# 5 0.0000 0.0000 0.0000 0.0000 19.0341 0.0000
# 6 0.0000 0.0000 0.0000 0.0000 0.0000 5.8983
#
#
#
# Elastic Compliance Matrix: (Units=1/GPa)
#
#
# Indices 1 2 3 4 5 6 
#
# 1 0.037267 -0.010341 -0.000836 0.000000 0.000000 0.000000
# 2 -0.010341 0.012389 -0.002309 0.000000 0.000000 0.000000
# 3 -0.000836 -0.002309 0.008297 0.000000 0.000000 0.000000
# 4 0.000000 0.000000 0.000000 0.030932 0.000000 0.000000
# 5 0.000000 0.000000 0.000000 0.000000 0.052537 0.000000
# 6 0.000000 0.000000 0.000000 0.000000 0.000000 0.169539
#
#
# Mechanical properties :
#
#
# Convention : Reuss Voigt Hill
#
# Bulk Modulus (GPa) = 32.27659 49.20272 40.73966
# Shear Modulus (GPa) = 14.35712 24.90511 19.63111
#
# Velocity S-wave (km/s) = 2.59190 3.41372 3.03080
# Velocity P-wave (km/s) = 4.90510 6.20973 5.59557
#
# Compressibility (1/GPa) = 0.03098221
#
# Stress axis : x y z
#
# Youngs Moduli (GPa) = 26.83366 80.71508 120.52778
#
# Poissons Ratio (x) = 0.83465 0.10076
# Poissons Ratio (y) = 0.27748 0.27825
# Poissons Ratio (z) = 0.02243 0.18634
#
# Static dielectric constant tensor:
#      x y z
#    x 3.213560 0.000000 0.000000 
#    y 0.000000 4.434500 0.000000 
#    z 0.000000 0.000000 4.254610 
# 
# 
# High freq. dielectric constant tensor:
#      x y z
#    x 1.783370 0.000000 0.000000 
#    y 0.000000 1.848960 0.000000 
#    z 0.000000 0.000000 1.866670 
# 
# From -- ./inp_files/4812.got.cif
#   From: 2010.03.12/outbox.cif.g09.slc.cpg/sg54_3_cif.got.tgz:4812.got - 2010.04.16 15:00:50.
