data_PCOD8222901
_publ_section_title
;
Structure prediction by ZEFSAII (Michael W. Deem and Ramdas Pophale) SiO2 
 PCOD8222901
Probable space group: P C C A
;
_chemical_formula_sum "Si O2"
_cell_formula_units_Z 60
_cell_length_a 12.026101
_cell_length_b 19.661669
_cell_length_c 12.984771
_cell_angle_alpha 90.000000
_cell_angle_beta 90.000000
_cell_angle_gamma 90.000000
_cell_volume 3070.290878
_symmetry_space_group_name_H-M "P C C A"
_symmetry_group_IT_number 54
_symmetry_cell_setting 'orthorhombic'
loop_
_space_group_symop_operation_xyz
x,y,z
1/2-x,-y,z
1/2+x,-y,1/2-z
-x,y,1/2-z
-x,-y,-z
1/2+x,y,-z
1/2-x,y,1/2+z
x,-y,1/2+z
loop_
_atom_site_type_symbol
_atom_site_label
_atom_site_fract_x
_atom_site_fract_y
_atom_site_fract_z
Si Si1 0.616648 0.107988 0.117397
Si Si2 0.543928 0.437999 0.364496
Si Si3 0.304131 0.215633 0.540219
Si Si4 0.829475 0.651264 0.493045
Si Si5 0.642544 0.113468 0.356508
Si Si6 0.862758 0.435703 0.461270
Si Si7 0.971541 0.310483 0.366763
Si Si8 0.750000 0.000000 0.993658
O O1 0.654947 0.102287 0.234982
O O2 0.485285 0.122163 0.109864
O O3 0.657719 0.038542 0.062909
O O4 0.675357 0.171040 0.061221
O O5 0.500000 0.440491 0.250000
O O6 0.603102 0.364881 0.386602
O O7 0.631704 0.498991 0.386148
O O8 0.443100 0.446069 0.442884
O O9 0.246961 0.284033 0.506069
O O10 0.219891 0.177991 0.617776
O O11 0.421308 0.238149 0.592375
O O12 0.757720 0.581634 0.512264
O O13 0.914773 0.664560 0.583442
O O14 0.684082 0.049073 0.418666
O O15 0.884914 0.371101 0.386506
O O16 0.000000 0.297856 0.250000
#
# Coordination Sequence:
#
# PCOD8222901 Si02
#       8
#     8   8   8   8   8   8   8   4
#     4  10  21  38  60  88 123 158 198 256 297 368
#     4  10  20  37  58  85 112 147 199 244 306 360
#     4  10  22  38  56  84 119 159 202 249 296 361
#     4  10  21  38  56  82 116 154 196 246 301 357
#     4  10  21  38  61  89 118 163 200 243 315 360
#     4   9  20  37  56  82 115 149 189 252 301 360
#     4  10  21  36  57  83 115 155 203 248 302 357
#     4  10  20  38  64  90 124 150 204 250 308 362
#
# _framework density 19.542121000000002
#
# number of rings (size 3 to 8) (size 9 to 14) (size 15 to 20)
#    0.000    2.133    0.000    2.400    1.867    2.133 
#    7.200    4.000    5.867    0.000    0.000    0.000 
#    0.000    0.000    0.000    0.000    0.000    0.000 
#
# Total GULP energy -743461.428583 kJ/mol
# GULP energy per Si atom -12391.023810 kJ/mol
# Density = 1.949764 g / cm^3
# Si number density = 19.542121 Si / 1000 Ang^3
#
#
#
# Elastic Constant Matrix: (Units=GPa)
#
#
# Indices 1 2 3 4 5 6 
#
# 1 112.3755 42.3895 50.5781 0.0000 0.0000 0.0000
# 2 42.3895 88.0179 50.4034 0.0000 0.0000 0.0000
# 3 50.5781 50.4034 123.2567 0.0000 0.0000 0.0000
# 4 0.0000 0.0000 0.0000 -23.2758 0.0000 0.0000
# 5 0.0000 0.0000 0.0000 0.0000 24.8889 0.0000
# 6 0.0000 0.0000 0.0000 0.0000 0.0000 39.0686
#
#
#
# Elastic Compliance Matrix: (Units=1/GPa)
#
#
# Indices 1 2 3 4 5 6 
#
# 1 0.011816 -0.003805 -0.003293 0.000000 0.000000 0.000000
# 2 -0.003805 0.016061 -0.005006 0.000000 0.000000 0.000000
# 3 -0.003293 -0.005006 0.011512 0.000000 0.000000 0.000000
# 4 0.000000 0.000000 0.000000 -0.042963 0.000000 0.000000
# 5 0.000000 0.000000 0.000000 0.000000 0.040179 0.000000
# 6 0.000000 0.000000 0.000000 0.000000 0.000000 0.025596
#
#
# Mechanical properties :
#
#
# Convention : Reuss Voigt Hill
#
# Bulk Modulus (GPa) = 65.87543 67.82134 66.84839
# Shear Modulus (GPa) = 54.66401 20.15495 37.40948
#
# Velocity S-wave (km/s) = 5.29463 3.21496 4.38002
# Velocity P-wave (km/s) = 8.43565 6.96863 7.73699
#
# Compressibility (1/GPa) = 0.01518017
#
# Stress axis : x y z
#
# Youngs Moduli (GPa) = 84.63083 62.26381 86.86953
#
# Poissons Ratio (x) = 0.23692 0.28603
# Poissons Ratio (y) = 0.32202 0.43489
# Poissons Ratio (z) = 0.27866 0.31171
#
# Static dielectric constant tensor:
#      x y z
#    x 4.297660 0.000000 0.000000 
#    y 0.000000 3.812690 0.000000 
#    z 0.000000 0.000000 3.432560 
# 
# 
# High freq. dielectric constant tensor:
#      x y z
#    x 1.779210 0.000000 0.000000 
#    y 0.000000 1.767820 0.000000 
#    z 0.000000 0.000000 1.749480 
# 
# From -- ./inp_files/7642.got.cif
#   From: 2010.03.12/outbox.cif.g09.slc.cpg/sg54_4_cif.got.tgz:7642.got - 2010.04.16 15:00:50.
