data_PCOD8222960
_publ_section_title
;
Structure prediction by ZEFSAII (Michael W. Deem and Ramdas Pophale) SiO2 
 PCOD8222960
Probable space group: P C C A
;
_chemical_formula_sum "Si O2"
_cell_formula_units_Z 28
_cell_length_a 5.050714
_cell_length_b 8.576102
_cell_length_c 31.419623
_cell_angle_alpha 90.000000
_cell_angle_beta 90.000000
_cell_angle_gamma 90.000000
_cell_volume 1360.954746
_symmetry_space_group_name_H-M "P C C A"
_symmetry_group_IT_number 54
_symmetry_cell_setting 'orthorhombic'
loop_
_space_group_symop_operation_xyz
x,y,z
1/2-x,-y,z
1/2+x,-y,1/2-z
-x,y,1/2-z
-x,-y,-z
1/2+x,y,-z
1/2-x,y,1/2+z
x,-y,1/2+z
loop_
_atom_site_type_symbol
_atom_site_label
_atom_site_fract_x
_atom_site_fract_y
_atom_site_fract_z
Si Si1 0.672649 0.678529 0.338772
Si Si2 0.000000 0.396817 0.250000
Si Si3 0.210802 0.817528 0.477336
Si Si4 0.823921 0.821480 0.120095
O O1 0.750000 0.500000 0.345491
O O2 0.599497 0.709718 0.289210
O O3 0.416609 0.711748 0.366737
O O4 0.914022 0.788741 0.352497
O O5 0.750000 0.500000 0.233978
O O6 0.490269 0.742626 0.491289
O O7 0.123269 0.783766 0.429191
O O8 0.250000 0.000000 0.485401
O O9 0.750000 0.000000 0.127865
#
# Coordination Sequence:
#
# PCOD8222960 Si02
#       4
#     8   4   8   8
#     4  11  22  39  62  85 114 154 196 236 285 348
#     4  10  20  38  62  86 110 150 202 236 270 346
#     4   9  17  31  53  80 111 150 193 231 271 333
#     4  11  22  37  60  91 120 148 191 245 294 335
#
# _framework density 20.573792999999998
#
# number of rings (size 3 to 8) (size 9 to 14) (size 15 to 20)
#    0.000    1.714    0.000    6.857    0.000    4.571 
#    0.000    2.857    0.000   18.857    0.000    0.000 
#    0.000    0.000    0.000    0.000    0.000    0.000 
#
# Total GULP energy -347150.830766 kJ/mol
# GULP energy per Si atom -12398.243956 kJ/mol
# Density = 2.052697 g / cm^3
# Si number density = 20.573793 Si / 1000 Ang^3
#
#
#
# Elastic Constant Matrix: (Units=GPa)
#
#
# Indices 1 2 3 4 5 6 
#
# 1 170.2803 15.6546 86.2676 0.0000 0.0000 0.0000
# 2 15.6546 27.3366 48.3157 0.0000 0.0000 0.0000
# 3 86.2676 48.3157 139.1608 0.0000 0.0000 0.0000
# 4 0.0000 0.0000 0.0000 27.1370 0.0000 0.0000
# 5 0.0000 0.0000 0.0000 0.0000 50.1201 0.0000
# 6 0.0000 0.0000 0.0000 0.0000 0.0000 23.6036
#
#
#
# Elastic Compliance Matrix: (Units=1/GPa)
#
#
# Indices 1 2 3 4 5 6 
#
# 1 0.010262 0.013891 -0.011184 0.000000 0.000000 0.000000
# 2 0.013891 0.113486 -0.048013 0.000000 0.000000 0.000000
# 3 -0.011184 -0.048013 0.030789 0.000000 0.000000 0.000000
# 4 0.000000 0.000000 0.000000 0.036850 0.000000 0.000000
# 5 0.000000 0.000000 0.000000 0.000000 0.019952 0.000000
# 6 0.000000 0.000000 0.000000 0.000000 0.000000 0.042366
#
#
# Mechanical properties :
#
#
# Convention : Reuss Voigt Hill
#
# Bulk Modulus (GPa) = 15.64342 70.80594 43.22468
# Shear Modulus (GPa) = 13.67519 32.60814 23.14166
#
# Velocity S-wave (km/s) = 2.58095 3.98544 3.35746
# Velocity P-wave (km/s) = 4.06225 7.46114 6.00710
#
# Compressibility (1/GPa) = 0.06392465
#
# Stress axis : x y z
#
# Youngs Moduli (GPa) = 97.44840 8.81166 32.47911
#
# Poissons Ratio (x) = -0.12240 0.36326
# Poissons Ratio (y) = -1.35367 1.55942
# Poissons Ratio (z) = 1.08990 0.42307
#
# Static dielectric constant tensor:
#      x y z
#    x 4.118980 0.000000 0.000000 
#    y 0.000000 3.450620 0.000000 
#    z 0.000000 0.000000 3.841330 
# 
# 
# High freq. dielectric constant tensor:
#      x y z
#    x 1.834990 0.000000 0.000000 
#    y 0.000000 1.757990 0.000000 
#    z 0.000000 0.000000 1.814400 
# 
# From -- ./inp_files/26860.got.cif
#   From: 2010.03.12/outbox.cif.g09.slc.cpg/sg54_14_cif.got.tgz:26860.got - 2010.04.16 15:00:50.
