data_PCOD8222200
_publ_section_title
;
Structure prediction by ZEFSAII (Michael W. Deem and Ramdas Pophale) SiO2 
 PCOD8222200
Probable space group: P M N A
;
_chemical_formula_sum "Si O2"
_cell_formula_units_Z 36
_cell_length_a 19.083293
_cell_length_b 8.602870
_cell_length_c 9.968706
_cell_angle_alpha 90.000000
_cell_angle_beta 90.000000
_cell_angle_gamma 90.000000
_cell_volume 1636.573318
_symmetry_space_group_name_H-M "P M N A"
_symmetry_group_IT_number 53
_symmetry_cell_setting 'orthorhombic'
loop_
_space_group_symop_operation_xyz
x,y,z
1/2-x,-y,1/2+z
x,-y,-z
1/2-x,y,1/2-z
-x,-y,-z
1/2+x,y,1/2-z
-x,y,z
1/2+x,-y,1/2+z
loop_
_atom_site_type_symbol
_atom_site_label
_atom_site_fract_x
_atom_site_fract_y
_atom_site_fract_z
Si Si1 0.500000 0.910096 0.195614
Si Si2 0.362807 0.071646 0.632886
Si Si3 0.750000 0.164121 0.250000
Si Si4 0.688100 0.413093 0.640713
Si Si5 0.500000 0.758261 0.933709
Si Si6 0.356518 0.598654 0.867755
O O1 0.427698 0.896551 0.272850
O O2 0.500000 0.070917 0.121579
O O3 0.500000 0.764859 0.094625
O O4 0.325422 0.235137 0.606421
O O5 0.396621 0.000000 0.500000
O O6 0.305196 0.947440 0.678039
O O7 0.705718 0.272676 0.147651
O O8 0.700886 0.500000 0.500000
O O9 0.750000 0.430788 0.750000
O O10 0.629113 0.499772 0.730237
O O11 0.431099 0.674453 0.885963
O O12 0.335442 0.500000 0.000000
#
# Coordination Sequence:
#
# PCOD8222200 Si02
#       6
#     4   8   4   8   4   8
#     4  11  25  48  74 110 148 194 251 311 367 437
#     4  12  27  47  74 107 146 196 252 303 378 447
#     4  12  26  44  74 114 146 194 248 308 370 448
#     4  12  27  47  72 108 148 192 242 312 378 443
#     4  11  25  48  78 109 147 200 249 309 372 445
#     4  12  26  47  77 111 155 194 248 307 373 443
#
# _framework density 21.997183
#
# number of rings (size 3 to 8) (size 9 to 14) (size 15 to 20)
#    0.000    0.222    4.444    4.000    3.111    2.667 
#    0.000    1.111    0.000    0.000    0.000    0.000 
#    0.000    0.000    0.000    0.000    0.000    0.000 
#
# Total GULP energy -446081.124712 kJ/mol
# GULP energy per Si atom -12391.142353 kJ/mol
# Density = 2.194712 g / cm^3
# Si number density = 21.997183 Si / 1000 Ang^3
#
#
#
# Elastic Constant Matrix: (Units=GPa)
#
#
# Indices 1 2 3 4 5 6 
#
# 1 157.2628 58.2507 53.0365 0.0000 0.0000 0.0000
# 2 58.2507 146.1406 55.4625 0.0000 0.0000 0.0000
# 3 53.0365 55.4625 149.4155 0.0000 0.0000 0.0000
# 4 0.0000 0.0000 0.0000 41.8605 0.0000 0.0000
# 5 0.0000 0.0000 0.0000 0.0000 15.5953 0.0000
# 6 0.0000 0.0000 0.0000 0.0000 0.0000 57.7225
#
#
#
# Elastic Compliance Matrix: (Units=1/GPa)
#
#
# Indices 1 2 3 4 5 6 
#
# 1 0.007899 -0.002426 -0.001903 0.000000 0.000000 0.000000
# 2 -0.002426 0.008710 -0.002372 0.000000 0.000000 0.000000
# 3 -0.001903 -0.002372 0.008249 0.000000 0.000000 0.000000
# 4 0.000000 0.000000 0.000000 0.023889 0.000000 0.000000
# 5 0.000000 0.000000 0.000000 0.000000 0.064122 0.000000
# 6 0.000000 0.000000 0.000000 0.000000 0.000000 0.017324
#
#
# Mechanical properties :
#
#
# Convention : Reuss Voigt Hill
#
# Bulk Modulus (GPa) = 87.29706 87.36873 87.33289
# Shear Modulus (GPa) = 33.91796 42.10694 38.01245
#
# Velocity S-wave (km/s) = 3.93099 4.37990 4.16150
# Velocity P-wave (km/s) = 7.77016 8.08594 7.92962
#
# Compressibility (1/GPa) = 0.01145514
#
# Stress axis : x y z
#
# Youngs Moduli (GPa) = 126.59210 114.81062 121.22998
#
# Poissons Ratio (x) = 0.27857 0.23074
# Poissons Ratio (y) = 0.30715 0.28754
# Poissons Ratio (z) = 0.24095 0.27232
#
# Static dielectric constant tensor:
#      x y z
#    x 4.016330 0.000000 0.000000 
#    y 0.000000 4.372260 0.000000 
#    z 0.000000 0.000000 3.378080 
# 
# 
# High freq. dielectric constant tensor:
#      x y z
#    x 1.871500 0.000000 0.000000 
#    y 0.000000 1.889780 0.000000 
#    z 0.000000 0.000000 1.877810 
# 
# From -- ./inp_files/10622.got.cif
#   From: 2010.03.12/outbox.cif.g09.slc.cpg/sg53_6_cif.got.tgz:10622.got - 2010.04.16 14:36:59.
