data_PCOD8222946
_publ_section_title
;
Structure prediction by ZEFSAII (Michael W. Deem and Ramdas Pophale) SiO2 
 PCOD8222946
Probable space group: P C C A
;
_chemical_formula_sum "Si O2"
_cell_formula_units_Z 60
_cell_length_a 27.701639
_cell_length_b 12.067525
_cell_length_c 8.907892
_cell_angle_alpha 90.000000
_cell_angle_beta 90.000000
_cell_angle_gamma 90.000000
_cell_volume 2977.821187
_symmetry_space_group_name_H-M "P C C A"
_symmetry_group_IT_number 54
_symmetry_cell_setting 'orthorhombic'
loop_
_space_group_symop_operation_xyz
x,y,z
1/2-x,-y,z
1/2+x,-y,1/2-z
-x,y,1/2-z
-x,-y,-z
1/2+x,y,-z
1/2-x,y,1/2+z
x,-y,1/2+z
loop_
_atom_site_type_symbol
_atom_site_label
_atom_site_fract_x
_atom_site_fract_y
_atom_site_fract_z
Si Si1 0.973190 0.847280 0.402070
Si Si2 0.314729 0.054980 0.198777
Si Si3 0.295140 0.365839 0.581869
Si Si4 0.802657 0.396339 0.777006
Si Si5 0.642712 0.184537 0.760281
Si Si6 0.957954 0.090748 0.364004
Si Si7 0.750000 0.000000 0.555272
Si Si8 0.873870 0.761060 0.422927
O O1 0.931957 0.754499 0.425955
O O2 0.000000 0.826662 0.250000
O O3 0.017468 0.829050 0.515498
O O4 0.946078 0.967274 0.427880
O O5 0.360614 0.133801 0.184559
O O6 0.327336 0.927018 0.220193
O O7 0.284367 0.074909 0.047413
O O8 0.281425 0.085435 0.342433
O O9 0.305984 0.476247 0.676569
O O10 0.241195 0.332002 0.637316
O O11 0.297089 0.386379 0.403089
O O12 0.334865 0.274036 0.625822
O O13 0.852410 0.344657 0.837987
O O14 0.587291 0.156436 0.798518
O O15 0.646352 0.229535 0.591499
O O16 0.000000 0.062040 0.250000
#
# Coordination Sequence:
#
# PCOD8222946 Si02
#       8
#     8   8   8   8   8   8   4   8
#     4  10  22  36  61  89 130 166 212 257 309 374
#     4  11  24  36  55  85 128 167 210 245 309 372
#     4  11  25  45  69  94 123 166 209 263 312 377
#     4  11  25  45  69  93 125 162 214 258 318 371
#     4  12  24  38  64  91 128 165 215 257 312 374
#     4  10  20  38  59  89 128 172 206 255 312 371
#     4  10  24  38  48  78 130 174 200 248 302 378
#     4  12  24  39  62  93 127 166 212 262 308 376
#
# _framework density 20.148961
#
# number of rings (size 3 to 8) (size 9 to 14) (size 15 to 20)
#    0.000    1.067    4.000    3.200    7.467    0.000 
#    0.000    0.000    0.000    1.600    0.000    0.000 
#    0.000    0.000    0.000    0.000    0.000    0.000 
#
# Total GULP energy -743633.704308 kJ/mol
# GULP energy per Si atom -12393.895072 kJ/mol
# Density = 2.010310 g / cm^3
# Si number density = 20.148961 Si / 1000 Ang^3
#
#
#
# Elastic Constant Matrix: (Units=GPa)
#
#
# Indices 1 2 3 4 5 6 
#
# 1 101.8024 27.9035 27.2722 0.0000 0.0000 0.0000
# 2 27.9035 57.9221 20.7278 0.0000 0.0000 0.0000
# 3 27.2722 20.7278 130.3308 0.0000 0.0000 0.0000
# 4 0.0000 0.0000 0.0000 27.1609 0.0000 0.0000
# 5 0.0000 0.0000 0.0000 0.0000 31.0705 0.0000
# 6 0.0000 0.0000 0.0000 0.0000 0.0000 31.1148
#
#
#
# Elastic Compliance Matrix: (Units=1/GPa)
#
#
# Indices 1 2 3 4 5 6 
#
# 1 0.011638 -0.005021 -0.001637 0.000000 0.000000 0.000000
# 2 -0.005021 0.020472 -0.002205 0.000000 0.000000 0.000000
# 3 -0.001637 -0.002205 0.008366 0.000000 0.000000 0.000000
# 4 0.000000 0.000000 0.000000 0.036818 0.000000 0.000000
# 5 0.000000 0.000000 0.000000 0.000000 0.032185 0.000000
# 6 0.000000 0.000000 0.000000 0.000000 0.000000 0.032139
#
#
# Mechanical properties :
#
#
# Convention : Reuss Voigt Hill
#
# Bulk Modulus (GPa) = 43.95482 49.09579 46.52531
# Shear Modulus (GPa) = 29.95332 32.14601 31.04967
#
# Velocity S-wave (km/s) = 3.85982 3.99860 3.92982
# Velocity P-wave (km/s) = 6.45961 6.76297 6.61303
#
# Compressibility (1/GPa) = 0.02275063
#
# Stress axis : x y z
#
# Youngs Moduli (GPa) = 85.92885 48.84630 119.53121
#
# Poissons Ratio (x) = 0.24524 0.19564
# Poissons Ratio (y) = 0.43141 0.26361
# Poissons Ratio (z) = 0.14064 0.10772
#
# Static dielectric constant tensor:
#      x y z
#    x 3.707770 0.000000 0.000000 
#    y 0.000000 3.316660 0.000000 
#    z 0.000000 0.000000 3.821050 
# 
# 
# High freq. dielectric constant tensor:
#      x y z
#    x 1.791010 0.000000 0.000000 
#    y 0.000000 1.746150 0.000000 
#    z 0.000000 0.000000 1.810220 
# 
# From -- ./inp_files/5569.got.cif
#   From: 2010.03.12/outbox.cif.g09.slc.cpg/sg54_3_cif.got.tgz:5569.got - 2010.04.16 15:00:50.
