data_PCOD8222349
_publ_section_title
;
Structure prediction by ZEFSAII (Michael W. Deem and Ramdas Pophale) SiO2 
 PCOD8222349
Probable space group: P C C A
;
_chemical_formula_sum "Si O2"
_cell_formula_units_Z 36
_cell_length_a 12.447917
_cell_length_b 25.337687
_cell_length_c 5.207605
_cell_angle_alpha 90.000000
_cell_angle_beta 90.000000
_cell_angle_gamma 90.000000
_cell_volume 1642.486037
_symmetry_space_group_name_H-M "P C C A"
_symmetry_group_IT_number 54
_symmetry_cell_setting 'orthorhombic'
loop_
_space_group_symop_operation_xyz
x,y,z
1/2-x,-y,z
1/2+x,-y,1/2-z
-x,y,1/2-z
-x,-y,-z
1/2+x,y,-z
1/2-x,y,1/2+z
x,-y,1/2+z
loop_
_atom_site_type_symbol
_atom_site_label
_atom_site_fract_x
_atom_site_fract_y
_atom_site_fract_z
Si Si1 0.129904 0.022569 0.372338
Si Si2 0.000000 0.223457 0.250000
Si Si3 0.821433 0.377623 0.753197
Si Si4 0.681725 0.140725 0.705331
Si Si5 0.000000 0.708037 0.250000
Si Si6 0.500000 0.464428 0.250000
O O1 0.123241 0.085066 0.335156
O O2 0.250000 0.000000 0.407543
O O3 0.070097 0.005055 0.633156
O O4 0.900549 0.187818 0.164273
O O5 0.972897 0.258228 0.497896
O O6 0.768323 0.376973 0.472836
O O7 0.894977 0.326756 0.801270
O O8 0.892768 0.429898 0.766560
O O9 0.774560 0.145418 0.493944
O O10 0.500000 0.500000 0.500000
#
# Coordination Sequence:
#
# PCOD8222349 Si02
#       6
#     8   4   8   8   4   4
#     4  10  16  32  59  81 111 157 189 234 303 373
#     4  12  28  43  62  98 124 157 216 272 332 402
#     4  11  24  43  72  99 128 184 239 264 316 396
#     4  12  23  40  64  88 123 159 198 253 322 387
#     4  11  26  48  64  90 134 162 218 293 326 366
#     4  11  24  41  64 106 156 183 212 279 328 358
#
# _framework density 21.917995000000001
#
# number of rings (size 3 to 8) (size 9 to 14) (size 15 to 20)
#    0.000    0.889    4.444    4.000    0.000   11.556 
#    0.000    1.111    0.000    0.000    0.000    0.000 
#    0.000    0.000    0.000    0.000    0.000    0.000 
#
# Total GULP energy -446495.038076 kJ/mol
# GULP energy per Si atom -12402.639947 kJ/mol
# Density = 2.186811 g / cm^3
# Si number density = 21.917995 Si / 1000 Ang^3
#
#
#
# Elastic Constant Matrix: (Units=GPa)
#
#
# Indices 1 2 3 4 5 6 
#
# 1 78.0023 44.0790 28.2064 0.0000 0.0000 0.0000
# 2 44.0790 153.9468 52.0211 0.0000 0.0000 0.0000
# 3 28.2064 52.0211 160.5208 0.0000 0.0000 0.0000
# 4 0.0000 0.0000 0.0000 38.4164 0.0000 0.0000
# 5 0.0000 0.0000 0.0000 0.0000 41.1029 0.0000
# 6 0.0000 0.0000 0.0000 0.0000 0.0000 18.5431
#
#
#
# Elastic Compliance Matrix: (Units=1/GPa)
#
#
# Indices 1 2 3 4 5 6 
#
# 1 0.015590 -0.003973 -0.001452 0.000000 0.000000 0.000000
# 2 -0.003973 0.008307 -0.001994 0.000000 0.000000 0.000000
# 3 -0.001452 -0.001994 0.007131 0.000000 0.000000 0.000000
# 4 0.000000 0.000000 0.000000 0.026031 0.000000 0.000000
# 5 0.000000 0.000000 0.000000 0.000000 0.024329 0.000000
# 6 0.000000 0.000000 0.000000 0.000000 0.000000 0.053928
#
#
# Mechanical properties :
#
#
# Convention : Reuss Voigt Hill
#
# Bulk Modulus (GPa) = 61.76517 71.23142 66.49829
# Shear Modulus (GPa) = 32.14360 37.49004 34.81682
#
# Velocity S-wave (km/s) = 3.83370 4.14027 3.98993
# Velocity P-wave (km/s) = 6.91647 7.44482 7.18551
#
# Compressibility (1/GPa) = 0.01619035
#
# Stress axis : x y z
#
# Youngs Moduli (GPa) = 64.14170 120.37707 140.23185
#
# Poissons Ratio (x) = 0.47830 0.20360
# Poissons Ratio (y) = 0.25486 0.27962
# Poissons Ratio (z) = 0.09312 0.24003
#
# Static dielectric constant tensor:
#      x y z
#    x 3.800130 0.000000 0.000000 
#    y 0.000000 4.094590 0.000000 
#    z 0.000000 0.000000 5.681690 
# 
# 
# High freq. dielectric constant tensor:
#      x y z
#    x 1.879630 0.000000 0.000000 
#    y 0.000000 1.867930 0.000000 
#    z 0.000000 0.000000 1.894780 
# 
# From -- ./inp_files/483.got.cif
#   From: 2010.03.12/outbox.cif.g09.slc.cpg/sg54_1_cif.got.tgz:483.got - 2010.04.16 15:00:50.
