data_PCOD8222495
_publ_section_title
;
Structure prediction by ZEFSAII (Michael W. Deem and Ramdas Pophale) SiO2 
 PCOD8222495
Probable space group: P C C A
;
_chemical_formula_sum "Si O2"
_cell_formula_units_Z 48
_cell_length_a 17.355695
_cell_length_b 8.955164
_cell_length_c 15.553267
_cell_angle_alpha 90.000000
_cell_angle_beta 90.000000
_cell_angle_gamma 90.000000
_cell_volume 2417.336895
_symmetry_space_group_name_H-M "P C C A"
_symmetry_group_IT_number 54
_symmetry_cell_setting 'orthorhombic'
loop_
_space_group_symop_operation_xyz
x,y,z
1/2-x,-y,z
1/2+x,-y,1/2-z
-x,y,1/2-z
-x,-y,-z
1/2+x,y,-z
1/2-x,y,1/2+z
x,-y,1/2+z
loop_
_atom_site_type_symbol
_atom_site_label
_atom_site_fract_x
_atom_site_fract_y
_atom_site_fract_z
Si Si1 0.687937 0.154221 0.305360
Si Si2 0.668586 0.021773 0.978764
Si Si3 0.334480 0.571569 0.584131
Si Si4 0.920222 0.275543 0.406171
Si Si5 0.858422 0.865590 0.744375
Si Si6 0.406402 0.235087 0.938344
O O1 0.654181 0.313075 0.335784
O O2 0.773145 0.187149 0.271351
O O3 0.687316 0.043710 0.385762
O O4 0.640152 0.050294 0.235892
O O5 0.640057 0.192848 0.971000
O O6 0.750000 0.000000 0.031083
O O7 0.600593 0.931215 0.023858
O O8 0.250000 0.500000 0.579213
O O9 0.396001 0.445546 0.604971
O O10 0.353430 0.650633 0.493021
O O11 0.920438 0.188707 0.315378
O O12 0.004995 0.280061 0.445849
O O13 0.878041 0.773956 0.659183
#
# Coordination Sequence:
#
# PCOD8222495 Si02
#       6
#     8   8   8   8   8   8
#     4   9  18  37  63  85 104 158 205 239 284 361
#     4  10  18  37  61  85 112 156 212 237 279 356
#     4  11  21  41  61  86 118 166 206 235 290 370
#     4  11  20  39  61  84 124 163 191 238 309 367
#     4  10  19  38  59  86 118 147 205 252 298 346
#     4  11  24  34  59  94 121 150 196 261 296 335
#
# _framework density 19.856560999999999
#
# number of rings (size 3 to 8) (size 9 to 14) (size 15 to 20)
#    0.000    1.667    5.000    2.500    2.333    0.000 
#    3.000    0.000    0.000    6.000    0.000    0.000 
#    0.000    0.000    0.000    0.000    0.000    0.000 
#
# Total GULP energy -594634.476408 kJ/mol
# GULP energy per Si atom -12388.218259 kJ/mol
# Density = 1.981137 g / cm^3
# Si number density = 19.856561 Si / 1000 Ang^3
#
#
#
# Elastic Constant Matrix: (Units=GPa)
#
#
# Indices 1 2 3 4 5 6 
#
# 1 96.5338 50.1262 25.4210 0.0000 0.0000 0.0000
# 2 50.1262 146.0100 27.2275 0.0000 0.0000 0.0000
# 3 25.4210 27.2275 53.7970 0.0000 0.0000 0.0000
# 4 0.0000 0.0000 0.0000 18.2592 0.0000 0.0000
# 5 0.0000 0.0000 0.0000 0.0000 8.8770 0.0000
# 6 0.0000 0.0000 0.0000 0.0000 0.0000 29.2929
#
#
#
# Elastic Compliance Matrix: (Units=1/GPa)
#
#
# Indices 1 2 3 4 5 6 
#
# 1 0.013509 -0.003807 -0.004457 0.000000 0.000000 0.000000
# 2 -0.003807 0.008635 -0.002572 0.000000 0.000000 0.000000
# 3 -0.004457 -0.002572 0.021996 0.000000 0.000000 0.000000
# 4 0.000000 0.000000 0.000000 0.054767 0.000000 0.000000
# 5 0.000000 0.000000 0.000000 0.000000 0.112651 0.000000
# 6 0.000000 0.000000 0.000000 0.000000 0.000000 0.034138
#
#
# Mechanical properties :
#
#
# Convention : Reuss Voigt Hill
#
# Bulk Modulus (GPa) = 44.50391 55.76559 50.13475
# Shear Modulus (GPa) = 18.19124 24.19021 21.19072
#
# Velocity S-wave (km/s) = 3.03005 3.49413 3.27033
# Velocity P-wave (km/s) = 5.89092 6.66511 6.28994
#
# Compressibility (1/GPa) = 0.02246994
#
# Stress axis : x y z
#
# Youngs Moduli (GPa) = 74.02203 115.80400 45.46273
#
# Poissons Ratio (x) = 0.44084 0.20263
# Poissons Ratio (y) = 0.28178 0.11691
# Poissons Ratio (z) = 0.32992 0.29780
#
# Static dielectric constant tensor:
#      x y z
#    x 3.631270 0.000000 0.000000 
#    y 0.000000 3.847300 0.000000 
#    z 0.000000 0.000000 3.584210 
# 
# 
# High freq. dielectric constant tensor:
#      x y z
#    x 1.769240 0.000000 0.000000 
#    y 0.000000 1.776430 0.000000 
#    z 0.000000 0.000000 1.751470 
# 
# From -- ./inp_files/14113.got.cif
#   From: 2010.03.12/outbox.cif.g09.slc.cpg/sg54_8_cif.got.tgz:14113.got - 2010.04.16 15:00:50.
