data_PCOD8222704
_publ_section_title
;
Structure prediction by ZEFSAII (Michael W. Deem and Ramdas Pophale) SiO2 
 PCOD8222704
Probable space group: P C C A
;
_chemical_formula_sum "Si O2"
_cell_formula_units_Z 52
_cell_length_a 12.743354
_cell_length_b 22.384481
_cell_length_c 8.394390
_cell_angle_alpha 90.000000
_cell_angle_beta 90.000000
_cell_angle_gamma 90.000000
_cell_volume 2394.527999
_symmetry_space_group_name_H-M "P C C A"
_symmetry_group_IT_number 54
_symmetry_cell_setting 'orthorhombic'
loop_
_space_group_symop_operation_xyz
x,y,z
1/2-x,-y,z
1/2+x,-y,1/2-z
-x,y,1/2-z
-x,-y,-z
1/2+x,y,-z
1/2-x,y,1/2+z
x,-y,1/2+z
loop_
_atom_site_type_symbol
_atom_site_label
_atom_site_fract_x
_atom_site_fract_y
_atom_site_fract_z
Si Si1 0.809642 0.757242 0.225237
Si Si2 0.137672 0.808981 0.585783
Si Si3 0.346411 0.453566 0.998439
Si Si4 0.000000 0.712661 0.750000
Si Si5 0.000000 0.497041 0.250000
Si Si6 0.656224 0.679211 0.008729
Si Si7 0.750000 0.000000 0.065012
Si Si8 0.388435 0.939673 0.190302
O O1 0.755910 0.804932 0.345835
O O2 0.738964 0.718499 0.105073
O O3 0.871695 0.710832 0.339202
O O4 0.877593 0.798892 0.104899
O O5 0.087578 0.753698 0.675010
O O6 0.089653 0.871675 0.639107
O O7 0.250000 0.500000 0.009570
O O8 0.408522 0.457893 0.831719
O O9 0.297957 0.387251 0.019021
O O10 0.436492 0.461133 0.129746
O O11 0.049577 0.672201 0.889068
O O12 0.699783 0.946966 0.172082
O O13 0.846503 0.974611 0.963501
O O14 0.500000 0.966203 0.250000
#
# Coordination Sequence:
#
# PCOD8222704 Si02
#       8
#     8   8   8   4   4   8   4   8
#     4   9  21  37  60  88 119 155 213 252 329 390
#     4  10  19  38  60  88 121 164 207 268 319 381
#     4  11  24  42  66  88 128 164 212 258 330 382
#     4  10  21  38  60  90 124 154 205 262 328 374
#     4  10  25  42  58  96 118 158 215 262 296 406
#     4  10  22  39  62  89 120 161 200 266 320 394
#     4  10  24  38  62 100 132 184 224 274 322 380
#     4  11  21  40  66  92 137 176 226 272 327 383
#
# _framework density 21.716180000000001
#
# number of rings (size 3 to 8) (size 9 to 14) (size 15 to 20)
#    0.000    1.846    0.769    2.308    4.308    1.846 
#    5.538    0.000    6.769    0.000    0.000    0.000 
#    0.000    0.000    0.000    0.000    0.000    0.000 
#
# Total GULP energy -644341.307432 kJ/mol
# GULP energy per Si atom -12391.178989 kJ/mol
# Density = 2.166675 g / cm^3
# Si number density = 21.716180 Si / 1000 Ang^3
#
#
#
# Elastic Constant Matrix: (Units=GPa)
#
#
# Indices 1 2 3 4 5 6 
#
# 1 80.4704 24.9671 40.2098 0.0000 0.0000 0.0000
# 2 24.9671 92.9597 37.9235 0.0000 0.0000 0.0000
# 3 40.2098 37.9235 145.6661 0.0000 0.0000 0.0000
# 4 0.0000 0.0000 0.0000 39.7908 0.0000 0.0000
# 5 0.0000 0.0000 0.0000 0.0000 31.5110 0.0000
# 6 0.0000 0.0000 0.0000 0.0000 0.0000 22.6899
#
#
#
# Elastic Compliance Matrix: (Units=1/GPa)
#
#
# Indices 1 2 3 4 5 6 
#
# 1 0.014961 -0.002611 -0.003450 0.000000 0.000000 0.000000
# 2 -0.002611 0.012491 -0.002531 0.000000 0.000000 0.000000
# 3 -0.003450 -0.002531 0.008476 0.000000 0.000000 0.000000
# 4 0.000000 0.000000 0.000000 0.025131 0.000000 0.000000
# 5 0.000000 0.000000 0.000000 0.000000 0.031735 0.000000
# 6 0.000000 0.000000 0.000000 0.000000 0.000000 0.044072
#
#
# Mechanical properties :
#
#
# Convention : Reuss Voigt Hill
#
# Bulk Modulus (GPa) = 53.34998 58.36633 55.85815
# Shear Modulus (GPa) = 31.19154 33.19806 32.19480
#
# Velocity S-wave (km/s) = 3.79400 3.91413 3.85454
# Velocity P-wave (km/s) = 6.61913 6.88204 6.75186
#
# Compressibility (1/GPa) = 0.01874415
#
# Stress axis : x y z
#
# Youngs Moduli (GPa) = 66.84077 80.05619 117.97427
#
# Poissons Ratio (x) = 0.20900 0.40703
# Poissons Ratio (y) = 0.17450 0.29864
# Poissons Ratio (z) = 0.23061 0.20265
#
# Static dielectric constant tensor:
#      x y z
#    x 3.758370 0.000000 0.000000 
#    y 0.000000 3.618030 0.000000 
#    z 0.000000 0.000000 4.407720 
# 
# 
# High freq. dielectric constant tensor:
#      x y z
#    x 1.835830 0.000000 0.000000 
#    y 0.000000 1.839120 0.000000 
#    z 0.000000 0.000000 1.873650 
# 
# From -- ./inp_files/3670.got.cif
#   From: 2010.03.12/outbox.cif.g09.slc.cpg/sg54_2_cif.got.tgz:3670.got - 2010.04.16 15:00:50.
