data_PCOD8222114
_publ_section_title
;
Structure prediction by ZEFSAII (Michael W. Deem and Ramdas Pophale) SiO2 
 PCOD8222114
Probable space group: P M N A
;
_chemical_formula_sum "Si O2"
_cell_formula_units_Z 56
_cell_length_a 8.674137
_cell_length_b 22.715477
_cell_length_c 14.105849
_cell_angle_alpha 90.000000
_cell_angle_beta 90.000000
_cell_angle_gamma 90.000000
_cell_volume 2779.376420
_symmetry_space_group_name_H-M "P M N A"
_symmetry_group_IT_number 53
_symmetry_cell_setting 'orthorhombic'
loop_
_space_group_symop_operation_xyz
x,y,z
1/2-x,-y,1/2+z
x,-y,-z
1/2-x,y,1/2-z
-x,-y,-z
1/2+x,y,1/2-z
-x,y,z
1/2+x,-y,1/2+z
loop_
_atom_site_type_symbol
_atom_site_label
_atom_site_fract_x
_atom_site_fract_y
_atom_site_fract_z
Si Si1 0.317683 0.644630 0.651140
Si Si2 0.825106 0.518427 0.608010
Si Si3 0.817776 0.911227 0.043731
Si Si4 0.318700 0.801125 0.145876
Si Si5 0.681687 0.310291 0.973361
Si Si6 0.680628 0.597641 0.344013
Si Si7 0.181060 0.971234 0.852197
O O1 0.250000 0.667198 0.750000
O O2 0.500000 0.638982 0.655380
O O3 0.245051 0.582034 0.624977
O O4 0.266647 0.693870 0.574620
O O5 0.822102 0.500000 0.500000
O O6 0.718081 0.471554 0.662051
O O7 0.000000 0.516692 0.647783
O O8 0.729207 0.853841 0.077359
O O9 0.000000 0.901431 0.051393
O O10 0.765429 0.964301 0.112940
O O11 0.770124 0.924886 0.934458
O O12 0.250000 0.807884 0.250000
O O13 0.500000 0.800498 0.157245
O O14 0.259771 0.741457 0.095726
O O15 0.500000 0.308180 0.989549
O O16 0.730680 0.373324 0.931591
O O17 0.750000 0.628259 0.250000
O O18 0.500000 0.609546 0.352680
O O19 0.250000 0.954435 0.750000
O O20 0.000000 0.970418 0.840510
#
# Coordination Sequence:
#
# PCOD8222114 Si02
#       7
#     8   8   8   8   8   8   8
#     4  12  25  42  65  89 116 151 193 239 292 353
#     4  11  22  38  61  86 118 152 185 232 289 348
#     4   9  19  36  57  84 122 161 202 245 293 348
#     4  11  24  40  62  89 119 154 195 241 291 347
#     4  11  24  43  62  85 116 149 193 243 289 344
#     4  12  24  38  59  86 116 149 188 232 287 348
#     4   9  18  33  55  86 122 162 201 246 295 346
#
# _framework density 20.148402999999998
#
# number of rings (size 3 to 8) (size 9 to 14) (size 15 to 20)
#    0.000    1.286    1.429    6.000    0.000    6.286 
#    0.000    2.143    0.000    1.714    0.000    0.000 
#    0.000    0.000    0.000    0.000    0.000    0.000 
#
# Total GULP energy -694441.646262 kJ/mol
# GULP energy per Si atom -12400.743683 kJ/mol
# Density = 2.010254 g / cm^3
# Si number density = 20.148403 Si / 1000 Ang^3
#
#
#
# Elastic Constant Matrix: (Units=GPa)
#
#
# Indices 1 2 3 4 5 6 
#
# 1 85.2954 25.7072 41.2159 0.0000 0.0000 0.0000
# 2 25.7072 85.8118 44.4261 0.0000 0.0000 0.0000
# 3 41.2159 44.4261 154.4231 0.0000 0.0000 0.0000
# 4 0.0000 0.0000 0.0000 28.1657 0.0000 0.0000
# 5 0.0000 0.0000 0.0000 0.0000 38.4880 0.0000
# 6 0.0000 0.0000 0.0000 0.0000 0.0000 13.7084
#
#
#
# Elastic Compliance Matrix: (Units=1/GPa)
#
#
# Indices 1 2 3 4 5 6 
#
# 1 0.013953 -0.002646 -0.002963 0.000000 0.000000 0.000000
# 2 -0.002646 0.014195 -0.003377 0.000000 0.000000 0.000000
# 3 -0.002963 -0.003377 0.008238 0.000000 0.000000 0.000000
# 4 0.000000 0.000000 0.000000 0.035504 0.000000 0.000000
# 5 0.000000 0.000000 0.000000 0.000000 0.025982 0.000000
# 6 0.000000 0.000000 0.000000 0.000000 0.000000 0.072948
#
#
# Mechanical properties :
#
#
# Convention : Reuss Voigt Hill
#
# Bulk Modulus (GPa) = 54.30889 60.91429 57.61159
# Shear Modulus (GPa) = 25.65010 30.35115 28.00062
#
# Velocity S-wave (km/s) = 3.57187 3.88542 3.73194
# Velocity P-wave (km/s) = 6.63505 7.10121 6.87208
#
# Compressibility (1/GPa) = 0.01841319
#
# Stress axis : x y z
#
# Youngs Moduli (GPa) = 71.66826 70.44903 121.38631
#
# Poissons Ratio (x) = 0.18642 0.35965
# Poissons Ratio (y) = 0.18964 0.40997
# Poissons Ratio (z) = 0.21234 0.23794
#
# Static dielectric constant tensor:
#      x y z
#    x 3.618310 0.000000 0.000000 
#    y 0.000000 3.581230 0.000000 
#    z 0.000000 0.000000 2.262770 
# 
# 
# High freq. dielectric constant tensor:
#      x y z
#    x 1.790090 0.000000 0.000000 
#    y 0.000000 1.765220 0.000000 
#    z 0.000000 0.000000 1.806970 
# 
# From -- ./inp_files/20637.got.cif
#   From: 2010.03.12/outbox.cif.g09.slc.cpg/sg53_11_cif.got.tgz:20637.got - 2010.04.16 14:36:59.
