data_PCOD8222912
_publ_section_title
;
Structure prediction by ZEFSAII (Michael W. Deem and Ramdas Pophale) SiO2 
 PCOD8222912
Probable space group: P C C A
;
_chemical_formula_sum "Si O2"
_cell_formula_units_Z 36
_cell_length_a 13.075603
_cell_length_b 6.051251
_cell_length_c 21.862367
_cell_angle_alpha 90.000000
_cell_angle_beta 90.000000
_cell_angle_gamma 90.000000
_cell_volume 1729.832586
_symmetry_space_group_name_H-M "P C C A"
_symmetry_group_IT_number 54
_symmetry_cell_setting 'orthorhombic'
loop_
_space_group_symop_operation_xyz
x,y,z
1/2-x,-y,z
1/2+x,-y,1/2-z
-x,y,1/2-z
-x,-y,-z
1/2+x,y,-z
1/2-x,y,1/2+z
x,-y,1/2+z
loop_
_atom_site_type_symbol
_atom_site_label
_atom_site_fract_x
_atom_site_fract_y
_atom_site_fract_z
Si Si1 0.047974 0.748902 0.440941
Si Si2 0.508651 0.632721 0.357972
Si Si3 0.367409 0.987141 0.826927
Si Si4 0.000000 0.322036 0.750000
Si Si5 0.133290 0.075569 0.059549
O O1 0.113335 0.755761 0.503339
O O2 0.033577 0.497525 0.417882
O O3 0.115153 0.884696 0.393212
O O4 0.936169 0.858280 0.449470
O O5 0.416979 0.769647 0.326675
O O6 0.547332 0.463994 0.305989
O O7 0.600548 0.795546 0.378395
O O8 0.250000 0.000000 0.811829
O O9 0.410098 0.833073 0.773545
O O10 0.250000 0.000000 0.064409
#
# Coordination Sequence:
#
# PCOD8222912 Si02
#       5
#     8   8   8   4   8
#     4   9  20  37  59  89 121 152 195 244 291 353
#     4  10  21  40  59  83 119 156 198 245 296 354
#     4  10  21  40  62  85 114 154 202 250 293 343
#     4  10  22  40  58  84 118 154 200 250 294 346
#     4  10  20  37  60  90 125 155 189 240 299 358
#
# _framework density 20.811261999999999
#
# number of rings (size 3 to 8) (size 9 to 14) (size 15 to 20)
#    0.000    2.222    0.000    2.000    0.000    4.444 
#    0.000   28.889    0.000    0.000    0.000    1.556 
#    0.000    0.000    0.000    0.000    0.000    0.000 
#
# Total GULP energy -446432.745395 kJ/mol
# GULP energy per Si atom -12400.909594 kJ/mol
# Density = 2.076389 g / cm^3
# Si number density = 20.811262 Si / 1000 Ang^3
#
#
#
# Elastic Constant Matrix: (Units=GPa)
#
#
# Indices 1 2 3 4 5 6 
#
# 1 173.3726 62.6512 68.0758 0.0000 0.0000 0.0000
# 2 62.6512 119.0294 47.4229 0.0000 0.0000 0.0000
# 3 68.0758 47.4229 101.7724 0.0000 0.0000 0.0000
# 4 0.0000 0.0000 0.0000 -12.3905 0.0000 0.0000
# 5 0.0000 0.0000 0.0000 0.0000 19.9461 0.0000
# 6 0.0000 0.0000 0.0000 0.0000 0.0000 16.1591
#
#
#
# Elastic Compliance Matrix: (Units=1/GPa)
#
#
# Indices 1 2 3 4 5 6 
#
# 1 0.008477 -0.002705 -0.004410 0.000000 0.000000 0.000000
# 2 -0.002705 0.011180 -0.003400 0.000000 0.000000 0.000000
# 3 -0.004410 -0.003400 0.014360 0.000000 0.000000 0.000000
# 4 0.000000 0.000000 0.000000 -0.080707 0.000000 0.000000
# 5 0.000000 0.000000 0.000000 0.000000 0.050135 0.000000
# 6 0.000000 0.000000 0.000000 0.000000 0.000000 0.061885
#
#
# Mechanical properties :
#
#
# Convention : Reuss Voigt Hill
#
# Bulk Modulus (GPa) = 77.00072 83.38605 80.19339
# Shear Modulus (GPa) = 55.13406 19.14456 37.13931
#
# Velocity S-wave (km/s) = 5.15266 3.03630 4.22901
# Velocity P-wave (km/s) = 8.51351 7.24202 7.90337
#
# Compressibility (1/GPa) = 0.01298689
#
# Stress axis : x y z
#
# Youngs Moduli (GPa) = 117.96708 89.44822 69.63822
#
# Poissons Ratio (x) = 0.24195 0.30709
# Poissons Ratio (y) = 0.31909 0.23677
# Poissons Ratio (z) = 0.52022 0.30413
#
# Static dielectric constant tensor:
#      x y z
#    x 3.383840 0.000000 0.000000 
#    y 0.000000 3.971490 0.000000 
#    z 0.000000 0.000000 3.920820 
# 
# 
# High freq. dielectric constant tensor:
#      x y z
#    x 1.784930 0.000000 0.000000 
#    y 0.000000 1.825450 0.000000 
#    z 0.000000 0.000000 1.827230 
# 
# From -- ./inp_files/23830.got.cif
#   From: 2010.03.12/outbox.cif.g09.slc.cpg/sg54_12_cif.got.tgz:23830.got - 2010.04.16 15:00:50.
