data_PCOD8222188
_publ_section_title
;
Structure prediction by ZEFSAII (Michael W. Deem and Ramdas Pophale) SiO2 
 PCOD8222188
Probable space group: P M N A
;
_chemical_formula_sum "Si O2"
_cell_formula_units_Z 32
_cell_length_a 10.098529
_cell_length_b 14.115968
_cell_length_c 11.492842
_cell_angle_alpha 90.000000
_cell_angle_beta 90.000000
_cell_angle_gamma 90.000000
_cell_volume 1638.310514
_symmetry_space_group_name_H-M "P M N A"
_symmetry_group_IT_number 53
_symmetry_cell_setting 'orthorhombic'
loop_
_space_group_symop_operation_xyz
x,y,z
1/2-x,-y,1/2+z
x,-y,-z
1/2-x,y,1/2-z
-x,-y,-z
1/2+x,y,1/2-z
-x,y,z
1/2+x,-y,1/2+z
loop_
_atom_site_type_symbol
_atom_site_label
_atom_site_fract_x
_atom_site_fract_y
_atom_site_fract_z
Si Si1 0.252053 0.788669 0.610998
Si Si2 0.750000 0.686443 0.250000
Si Si3 0.000000 0.888962 0.499211
Si Si4 0.500000 0.112622 0.501775
Si Si5 0.155656 0.392211 0.983762
Si Si6 0.000000 0.807521 0.263070
O O1 0.250000 0.787881 0.750000
O O2 0.123822 0.839559 0.560566
O O3 0.373515 0.850170 0.565753
O O4 0.263607 0.679844 0.566575
O O5 0.808650 0.622412 0.149351
O O6 0.630530 0.749584 0.204933
O O7 0.000000 0.886993 0.359695
O O8 0.000000 0.000000 0.500000
O O9 0.500000 0.151901 0.633076
O O10 0.500000 0.000000 0.500000
O O11 0.000000 0.375498 0.006315
O O12 0.199531 0.500000 0.000000
#
# Coordination Sequence:
#
# PCOD8222188 Si02
#       6
#     8   4   4   4   8   4
#     4  12  25  45  65  99 139 174 218 276 333 396
#     4  12  20  44  66  98 128 172 222 282 320 390
#     4  12  27  44  65 102 133 174 221 277 328 386
#     4  12  25  46  69  96 131 186 225 267 340 398
#     4  11  24  44  69  98 132 178 219 272 344 398
#     4  12  22  42  72  90 134 172 226 276 324 388
#
# _framework density 19.532316000000002
#
# number of rings (size 3 to 8) (size 9 to 14) (size 15 to 20)
#    0.000    0.250    7.500    1.500    5.250    0.000 
#    0.000    2.500    0.000    0.000    0.000    0.000 
#    0.000    0.000    0.000    0.000    0.000    0.000 
#
# Total GULP energy -396677.945611 kJ/mol
# GULP energy per Si atom -12396.185800 kJ/mol
# Density = 1.948786 g / cm^3
# Si number density = 19.532316 Si / 1000 Ang^3
#
#
#
# Elastic Constant Matrix: (Units=GPa)
#
#
# Indices 1 2 3 4 5 6 
#
# 1 130.3203 65.2403 23.8406 0.0000 0.0000 0.0000
# 2 65.2403 183.2977 61.7560 0.0000 0.0000 0.0000
# 3 23.8406 61.7560 145.7330 0.0000 0.0000 0.0000
# 4 0.0000 0.0000 0.0000 59.0490 0.0000 0.0000
# 5 0.0000 0.0000 0.0000 0.0000 68.2826 0.0000
# 6 0.0000 0.0000 0.0000 0.0000 0.0000 24.0133
#
#
#
# Elastic Compliance Matrix: (Units=1/GPa)
#
#
# Indices 1 2 3 4 5 6 
#
# 1 0.009340 -0.003277 -0.000139 0.000000 0.000000 0.000000
# 2 -0.003277 0.007514 -0.002648 0.000000 0.000000 0.000000
# 3 -0.000139 -0.002648 0.008007 0.000000 0.000000 0.000000
# 4 0.000000 0.000000 0.000000 0.016935 0.000000 0.000000
# 5 0.000000 0.000000 0.000000 0.000000 0.014645 0.000000
# 6 0.000000 0.000000 0.000000 0.000000 0.000000 0.041644
#
#
# Mechanical properties :
#
#
# Convention : Reuss Voigt Hill
#
# Bulk Modulus (GPa) = 78.54485 84.55832 81.55158
# Shear Modulus (GPa) = 43.68448 50.83658 47.26053
#
# Velocity S-wave (km/s) = 4.73432 5.10719 4.92429
# Velocity P-wave (km/s) = 8.37766 8.84100 8.61245
#
# Compressibility (1/GPa) = 0.01273158
#
# Stress axis : x y z
#
# Youngs Moduli (GPa) = 107.07194 133.07986 124.89403
#
# Poissons Ratio (x) = 0.43615 0.01737
# Poissons Ratio (y) = 0.35091 0.33074
# Poissons Ratio (z) = 0.01489 0.35241
#
# Static dielectric constant tensor:
#      x y z
#    x 3.779250 0.000000 0.000000 
#    y 0.000000 3.721130 0.000000 
#    z 0.000000 0.000000 3.785570 
# 
# 
# High freq. dielectric constant tensor:
#      x y z
#    x 1.775990 0.000000 0.000000 
#    y 0.000000 1.770650 0.000000 
#    z 0.000000 0.000000 1.778930 
# 
# From -- ./inp_files/13753.got.cif
#   From: 2010.03.12/outbox.cif.g09.slc.cpg/sg53_7_cif.got.tgz:13753.got - 2010.04.16 14:36:59.
