data_PCOD8222287
_publ_section_title
;
Structure prediction by ZEFSAII (Michael W. Deem and Ramdas Pophale) SiO2 
 PCOD8222287
Probable space group: P C C A
;
_chemical_formula_sum "Si O2"
_cell_formula_units_Z 56
_cell_length_a 14.022453
_cell_length_b 33.105872
_cell_length_c 5.287617
_cell_angle_alpha 90.000000
_cell_angle_beta 90.000000
_cell_angle_gamma 90.000000
_cell_volume 2454.646826
_symmetry_space_group_name_H-M "P C C A"
_symmetry_group_IT_number 54
_symmetry_cell_setting 'orthorhombic'
loop_
_space_group_symop_operation_xyz
x,y,z
1/2-x,-y,z
1/2+x,-y,1/2-z
-x,y,1/2-z
-x,-y,-z
1/2+x,y,-z
1/2-x,y,1/2+z
x,-y,1/2+z
loop_
_atom_site_type_symbol
_atom_site_label
_atom_site_fract_x
_atom_site_fract_y
_atom_site_fract_z
Si Si1 0.811147 0.398980 0.387549
Si Si2 0.891698 0.481452 0.283710
Si Si3 0.354122 0.809611 0.617345
Si Si4 0.309360 0.901466 0.613774
Si Si5 0.393511 0.016964 0.020323
Si Si6 0.190303 0.310697 0.077953
Si Si7 0.637765 0.224050 0.881427
O O1 0.765533 0.403936 0.664099
O O2 0.888906 0.433764 0.344707
O O3 0.860620 0.354379 0.379857
O O4 0.842092 0.506496 0.515458
O O5 0.000000 0.495674 0.250000
O O6 0.354360 0.857500 0.586725
O O7 0.248911 0.789659 0.632957
O O8 0.411332 0.791621 0.376481
O O9 0.409572 0.797111 0.873746
O O10 0.229784 0.907060 0.397324
O O11 0.391325 0.934860 0.566027
O O12 0.341082 0.005394 0.756716
O O13 0.500000 0.000000 0.000000
O O14 0.271294 0.307554 0.292300
O O15 0.121211 0.272391 0.109931
#
# Coordination Sequence:
#
# PCOD8222287 Si02
#       7
#     8   8   8   8   8   8   8
#     4  10  21  32  48  78 108 132 177 219 266 313
#     4  10  21  37  55  72  98 139 180 223 273 323
#     4  10  16  25  41  69 103 134 154 200 251 300
#     4  12  21  32  53  83 110 129 167 224 269 289
#     4  10  23  42  57  71 101 143 179 205 253 325
#     4  10  16  25  41  64  98 139 161 196 241 299
#     4  10  14  25  41  61 102 142 156 187 255 306
#
# _framework density 22.813870999999999
#
# number of rings (size 3 to 8) (size 9 to 14) (size 15 to 20)
#    0.000    1.714    5.714    1.714    0.000    3.429 
#    0.000    0.000    0.000    0.000    0.000    0.000 
#   12.857    0.000    0.000    0.000    0.000    0.000 
#
# Total GULP energy -693804.433457 kJ/mol
# GULP energy per Si atom -12389.364883 kJ/mol
# Density = 2.276195 g / cm^3
# Si number density = 22.813871 Si / 1000 Ang^3
#
#
#
# Elastic Constant Matrix: (Units=GPa)
#
#
# Indices 1 2 3 4 5 6 
#
# 1 11.9631 12.8894 4.2854 0.0000 0.0000 0.0000
# 2 12.8894 206.0695 47.0701 0.0000 0.0000 0.0000
# 3 4.2854 47.0701 205.3797 0.0000 0.0000 0.0000
# 4 0.0000 0.0000 0.0000 42.2412 0.0000 0.0000
# 5 0.0000 0.0000 0.0000 0.0000 7.9923 0.0000
# 6 0.0000 0.0000 0.0000 0.0000 0.0000 8.4605
#
#
#
# Elastic Compliance Matrix: (Units=1/GPa)
#
#
# Indices 1 2 3 4 5 6 
#
# 1 0.089705 -0.005470 -0.000618 0.000000 0.000000 0.000000
# 2 -0.005470 0.005454 -0.001136 0.000000 0.000000 0.000000
# 3 -0.000618 -0.001136 0.005142 0.000000 0.000000 0.000000
# 4 0.000000 0.000000 0.000000 0.023674 0.000000 0.000000
# 5 0.000000 0.000000 0.000000 0.000000 0.125120 0.000000
# 6 0.000000 0.000000 0.000000 0.000000 0.000000 0.118197
#
#
# Mechanical properties :
#
#
# Convention : Reuss Voigt Hill
#
# Bulk Modulus (GPa) = 11.64765 61.32246 36.48506
# Shear Modulus (GPa) = 12.18449 35.68329 23.93389
#
# Velocity S-wave (km/s) = 2.31353 3.95917 3.24249
# Velocity P-wave (km/s) = 3.50045 6.91649 5.48138
#
# Compressibility (1/GPa) = 0.08585419
#
# Stress axis : x y z
#
# Youngs Moduli (GPa) = 11.14761 183.34067 194.46680
#
# Poissons Ratio (x) = 1.00283 0.12022
# Poissons Ratio (y) = 0.06097 0.22090
# Poissons Ratio (z) = 0.00689 0.20826
#
# Static dielectric constant tensor:
#      x y z
#    x 3.183520 0.000000 0.000000 
#    y 0.000000 4.472320 0.000000 
#    z 0.000000 0.000000 7.232970 
# 
# 
# High freq. dielectric constant tensor:
#      x y z
#    x 1.821040 0.000000 0.000000 
#    y 0.000000 1.917310 0.000000 
#    z 0.000000 0.000000 1.947330 
# 
# From -- ./inp_files/715.got.cif
#   From: 2010.03.12/outbox.cif.g09.slc.cpg/sg54_1_cif.got.tgz:715.got - 2010.04.16 15:00:50.
