data_PCOD8222194
_publ_section_title
;
Structure prediction by ZEFSAII (Michael W. Deem and Ramdas Pophale) SiO2 
 PCOD8222194
Probable space group: P M N A
;
_chemical_formula_sum "Si O2"
_cell_formula_units_Z 48
_cell_length_a 28.888617
_cell_length_b 9.230785
_cell_length_c 8.648929
_cell_angle_alpha 90.000000
_cell_angle_beta 90.000000
_cell_angle_gamma 90.000000
_cell_volume 2306.363300
_symmetry_space_group_name_H-M "P M N A"
_symmetry_group_IT_number 53
_symmetry_cell_setting 'orthorhombic'
loop_
_space_group_symop_operation_xyz
x,y,z
1/2-x,-y,1/2+z
x,-y,-z
1/2-x,y,1/2-z
-x,-y,-z
1/2+x,y,1/2-z
-x,y,z
1/2+x,-y,1/2+z
loop_
_atom_site_type_symbol
_atom_site_label
_atom_site_fract_x
_atom_site_fract_y
_atom_site_fract_z
Si Si1 0.552928 0.700353 0.372597
Si Si2 0.871854 0.886662 0.270515
Si Si3 0.053575 0.618865 0.779439
Si Si4 0.276152 0.635924 0.901290
Si Si5 0.219677 0.140426 0.896881
Si Si6 0.868808 0.203618 0.377100
O O1 0.500000 0.740811 0.347633
O O2 0.580488 0.834545 0.303081
O O3 0.564026 0.684453 0.552934
O O4 0.564754 0.552016 0.282276
O O5 0.831185 0.818586 0.165552
O O6 0.867561 0.829755 0.443048
O O7 0.871574 0.060754 0.270902
O O8 0.087235 0.694231 0.656296
O O9 0.000000 0.645388 0.731976
O O10 0.250000 0.578509 0.750000
O O11 0.320322 0.721913 0.837094
O O12 0.293728 0.500000 0.000000
O O13 0.241537 0.729093 0.006824
O O14 0.250000 0.098224 0.750000
O O15 0.216891 0.000000 0.000000
#
# Coordination Sequence:
#
# PCOD8222194 Si02
#       6
#     8   8   8   8   8   8
#     4   9  21  42  66  98 131 167 218 269 326 397
#     4  11  25  41  65  96 130 175 216 268 323 392
#     4   9  21  42  68  96 131 171 213 270 333 392
#     4  12  28  46  66  96 132 173 220 277 331 395
#     4  12  24  44  69  94 132 175 219 267 331 391
#     4  11  25  44  62  96 135 168 220 268 328 388
#
# _framework density 20.811985
#
# number of rings (size 3 to 8) (size 9 to 14) (size 15 to 20)
#    0.000    1.333    1.667    4.000    7.000    1.333 
#    0.000    5.000    0.000    0.000    0.000    0.000 
#    0.000    0.000    0.000    0.000    0.000    0.000 
#
# Total GULP energy -595398.350804 kJ/mol
# GULP energy per Si atom -12404.132308 kJ/mol
# Density = 2.076462 g / cm^3
# Si number density = 20.811985 Si / 1000 Ang^3
#
#
#
# Elastic Constant Matrix: (Units=GPa)
#
#
# Indices 1 2 3 4 5 6 
#
# 1 112.5615 65.2957 39.4403 0.0000 0.0000 0.0000
# 2 65.2957 115.9732 39.8153 0.0000 0.0000 0.0000
# 3 39.4403 39.8153 69.0614 0.0000 0.0000 0.0000
# 4 0.0000 0.0000 0.0000 59.6278 0.0000 0.0000
# 5 0.0000 0.0000 0.0000 0.0000 47.3787 0.0000
# 6 0.0000 0.0000 0.0000 0.0000 0.0000 50.3138
#
#
#
# Elastic Compliance Matrix: (Units=1/GPa)
#
#
# Indices 1 2 3 4 5 6 
#
# 1 0.014171 -0.006483 -0.004355 0.000000 0.000000 0.000000
# 2 -0.006483 0.013717 -0.004205 0.000000 0.000000 0.000000
# 3 -0.004355 -0.004205 0.019391 0.000000 0.000000 0.000000
# 4 0.000000 0.000000 0.000000 0.016771 0.000000 0.000000
# 5 0.000000 0.000000 0.000000 0.000000 0.021107 0.000000
# 6 0.000000 0.000000 0.000000 0.000000 0.000000 0.019875
#
#
# Mechanical properties :
#
#
# Convention : Reuss Voigt Hill
#
# Bulk Modulus (GPa) = 58.16840 65.18878 61.67859
# Shear Modulus (GPa) = 35.49877 41.66706 38.58291
#
# Velocity S-wave (km/s) = 4.13448 4.47930 4.31034
# Velocity P-wave (km/s) = 7.12755 7.62515 7.38055
#
# Compressibility (1/GPa) = 0.01719146
#
# Stress axis : x y z
#
# Youngs Moduli (GPa) = 70.56680 72.90341 51.56902
#
# Poissons Ratio (x) = 0.47266 0.22459
# Poissons Ratio (y) = 0.45752 0.21687
# Poissons Ratio (z) = 0.30732 0.30659
#
# Static dielectric constant tensor:
#      x y z
#    x 3.794540 0.000000 0.000000 
#    y 0.000000 3.992510 0.000000 
#    z 0.000000 0.000000 3.722520 
# 
# 
# High freq. dielectric constant tensor:
#      x y z
#    x 1.821990 0.000000 0.000000 
#    y 0.000000 1.813910 0.000000 
#    z 0.000000 0.000000 1.823750 
# 
# From -- ./inp_files/12972.got.cif
#   From: 2010.03.12/outbox.cif.g09.slc.cpg/sg53_7_cif.got.tgz:12972.got - 2010.04.16 14:36:59.
