data_PCOD8222725
_publ_section_title
;
Structure prediction by ZEFSAII (Michael W. Deem and Ramdas Pophale) SiO2 
 PCOD8222725
Probable space group: P C C A
;
_chemical_formula_sum "Si O2"
_cell_formula_units_Z 64
_cell_length_a 17.057665
_cell_length_b 9.413244
_cell_length_c 18.796891
_cell_angle_alpha 90.000000
_cell_angle_beta 90.000000
_cell_angle_gamma 90.000000
_cell_volume 3018.178493
_symmetry_space_group_name_H-M "P C C A"
_symmetry_group_IT_number 54
_symmetry_cell_setting 'orthorhombic'
loop_
_space_group_symop_operation_xyz
x,y,z
1/2-x,-y,z
1/2+x,-y,1/2-z
-x,y,1/2-z
-x,-y,-z
1/2+x,y,-z
1/2-x,y,1/2+z
x,-y,1/2+z
loop_
_atom_site_type_symbol
_atom_site_label
_atom_site_fract_x
_atom_site_fract_y
_atom_site_fract_z
Si Si1 0.464992 0.745171 0.597495
Si Si2 0.479932 0.473985 0.828049
Si Si3 0.889998 0.188104 0.037404
Si Si4 0.580956 0.048638 0.289240
Si Si5 0.796171 0.135677 0.670461
Si Si6 0.609781 0.129659 0.035676
Si Si7 0.053647 0.793729 0.610061
Si Si8 0.193135 0.371084 0.355759
O O1 0.512505 0.602906 0.616488
O O2 0.405707 0.716098 0.532591
O O3 0.419535 0.807375 0.664919
O O4 0.521616 0.869016 0.567330
O O5 0.500000 0.531039 0.750000
O O6 0.544971 0.356427 0.849407
O O7 0.390361 0.420612 0.825616
O O8 0.820403 0.273584 0.074955
O O9 0.964811 0.167003 0.088861
O O10 0.862469 0.029774 0.016960
O O11 0.500000 0.023627 0.250000
O O12 0.648710 0.075680 0.232456
O O13 0.594207 0.908758 0.337624
O O14 0.839631 0.197440 0.599893
O O15 0.739764 0.263992 0.698416
O O16 0.750000 0.000000 0.642578
O O17 0.608271 0.218792 0.961229
O O18 0.250000 0.500000 0.374874
#
# Coordination Sequence:
#
# PCOD8222725 Si02
#       8
#     8   8   8   8   8   8   8   8
#     4  11  21  38  71 100 125 165 227 282 328 391
#     4  11  26  42  67  99 139 179 224 279 343 403
#     4  10  19  40  67  99 129 161 220 287 332 392
#     4  12  22  38  69 100 128 173 231 280 326 398
#     4  12  26  41  66  95 136 183 226 270 350 419
#     4  11  19  40  67 100 125 165 223 286 332 389
#     4  10  21  38  67  98 128 162 221 284 330 381
#     4  11  26  44  62  92 138 183 218 275 343 419
#
# _framework density 21.204841999999999
#
# number of rings (size 3 to 8) (size 9 to 14) (size 15 to 20)
#    0.000    1.000    5.000    2.250    5.250    5.500 
#    0.000    1.875    2.750    0.000    0.000    0.000 
#    0.000    0.000    0.000    0.000    0.000    0.000 
#
# Total GULP energy -793123.754009 kJ/mol
# GULP energy per Si atom -12392.558656 kJ/mol
# Density = 2.115658 g / cm^3
# Si number density = 21.204842 Si / 1000 Ang^3
#
#
#
# Elastic Constant Matrix: (Units=GPa)
#
#
# Indices 1 2 3 4 5 6 
#
# 1 76.5269 36.6648 46.8093 0.0000 0.0000 0.0000
# 2 36.6648 117.4177 37.6338 0.0000 0.0000 0.0000
# 3 46.8093 37.6338 121.7977 0.0000 0.0000 0.0000
# 4 0.0000 0.0000 0.0000 28.2206 0.0000 0.0000
# 5 0.0000 0.0000 0.0000 0.0000 6.7182 0.0000
# 6 0.0000 0.0000 0.0000 0.0000 0.0000 35.0268
#
#
#
# Elastic Compliance Matrix: (Units=1/GPa)
#
#
# Indices 1 2 3 4 5 6 
#
# 1 0.018561 -0.003895 -0.005930 0.000000 0.000000 0.000000
# 2 -0.003895 0.010270 -0.001676 0.000000 0.000000 0.000000
# 3 -0.005930 -0.001676 0.011007 0.000000 0.000000 0.000000
# 4 0.000000 0.000000 0.000000 0.035435 0.000000 0.000000
# 5 0.000000 0.000000 0.000000 0.000000 0.148849 0.000000
# 6 0.000000 0.000000 0.000000 0.000000 0.000000 0.028550
#
#
# Mechanical properties :
#
#
# Convention : Reuss Voigt Hill
#
# Bulk Modulus (GPa) = 59.39801 61.99534 60.69667
# Shear Modulus (GPa) = 17.77552 26.96876 22.37214
#
# Velocity S-wave (km/s) = 2.89844 3.57013 3.25167
# Velocity P-wave (km/s) = 6.26687 6.80399 6.54095
#
# Compressibility (1/GPa) = 0.01683558
#
# Stress axis : x y z
#
# Youngs Moduli (GPa) = 53.87785 97.36911 90.84978
#
# Poissons Ratio (x) = 0.37927 0.53870
# Poissons Ratio (y) = 0.20986 0.15230
# Poissons Ratio (z) = 0.31948 0.16323
#
# Static dielectric constant tensor:
#      x y z
#    x 3.799970 0.000000 0.000000 
#    y 0.000000 3.806390 0.000000 
#    z 0.000000 0.000000 3.969690 
# 
# 
# High freq. dielectric constant tensor:
#      x y z
#    x 1.809200 0.000000 0.000000 
#    y 0.000000 1.832330 0.000000 
#    z 0.000000 0.000000 1.830670 
# 
# From -- ./inp_files/21982.got.cif
#   From: 2010.03.12/outbox.cif.g09.slc.cpg/sg54_11_cif.got.tgz:21982.got - 2010.04.16 15:00:50.
