data_PCOD8222995
_publ_section_title
;
Structure prediction by ZEFSAII (Michael W. Deem and Ramdas Pophale) SiO2 
 PCOD8222995
Probable space group: P C C A
;
_chemical_formula_sum "Si O2"
_cell_formula_units_Z 64
_cell_length_a 15.259917
_cell_length_b 8.350856
_cell_length_c 23.364021
_cell_angle_alpha 90.000000
_cell_angle_beta 90.000000
_cell_angle_gamma 90.000000
_cell_volume 2977.355920
_symmetry_space_group_name_H-M "P C C A"
_symmetry_group_IT_number 54
_symmetry_cell_setting 'orthorhombic'
loop_
_space_group_symop_operation_xyz
x,y,z
1/2-x,-y,z
1/2+x,-y,1/2-z
-x,y,1/2-z
-x,-y,-z
1/2+x,y,-z
1/2-x,y,1/2+z
x,-y,1/2+z
loop_
_atom_site_type_symbol
_atom_site_label
_atom_site_fract_x
_atom_site_fract_y
_atom_site_fract_z
Si Si1 0.221312 0.319299 0.027250
Si Si2 0.906441 0.783573 0.878574
Si Si3 0.086640 0.282357 0.695182
Si Si4 0.341866 0.597407 0.224750
Si Si5 0.900109 0.862660 0.187897
Si Si6 0.598110 0.231321 0.661155
Si Si7 0.828765 0.895551 0.396746
Si Si8 0.262022 0.816899 0.908453
O O1 0.250000 0.500000 0.035487
O O2 0.133984 0.300764 0.065380
O O3 0.297223 0.188202 0.044037
O O4 0.199538 0.284595 0.961100
O O5 0.845620 0.738151 0.823253
O O6 0.004317 0.721096 0.865674
O O7 0.908764 0.975064 0.895122
O O8 0.082853 0.469989 0.708174
O O9 0.128119 0.181723 0.747789
O O10 0.151700 0.255515 0.642728
O O11 0.991210 0.225226 0.676362
O O12 0.250000 0.500000 0.226371
O O13 0.369747 0.660381 0.286627
O O14 0.828344 0.796499 0.144259
O O15 0.909023 0.052033 0.184674
O O16 0.667984 0.251852 0.610386
O O17 0.750000 0.000000 0.371119
O O18 0.250000 0.000000 0.926937
#
# Coordination Sequence:
#
# PCOD8222995 Si02
#       8
#     8   8   8   8   8   8   8   8
#     4  11  24  45  67  94 131 170 222 279 339 400
#     4  11  22  41  67  99 132 174 226 276 322 399
#     4  11  22  38  62 103 132 170 217 270 336 394
#     4  12  25  40  66 102 144 179 212 275 347 404
#     4  10  23  41  65  94 135 176 219 275 327 405
#     4  11  24  43  67 101 132 178 224 273 334 405
#     4  10  20  38  68  94 127 173 220 272 322 389
#     4  10  23  46  67  91 129 176 225 276 334 398
#
# _framework density 21.495584000000001
#
# number of rings (size 3 to 8) (size 9 to 14) (size 15 to 20)
#    0.000    1.250    1.250    5.625    5.250    3.000 
#    2.250    2.500    0.000    0.000    0.000    0.000 
#    0.000    0.000    0.000    0.000    0.000    0.000 
#
# Total GULP energy -793166.819315 kJ/mol
# GULP energy per Si atom -12393.231552 kJ/mol
# Density = 2.144666 g / cm^3
# Si number density = 21.495584 Si / 1000 Ang^3
#
#
#
# Elastic Constant Matrix: (Units=GPa)
#
#
# Indices 1 2 3 4 5 6 
#
# 1 117.1799 44.3619 67.7065 0.0000 0.0000 0.0000
# 2 44.3619 103.8473 26.2063 0.0000 0.0000 0.0000
# 3 67.7065 26.2063 83.9096 0.0000 0.0000 0.0000
# 4 0.0000 0.0000 0.0000 30.2335 0.0000 0.0000
# 5 0.0000 0.0000 0.0000 0.0000 22.2473 0.0000
# 6 0.0000 0.0000 0.0000 0.0000 0.0000 30.1127
#
#
#
# Elastic Compliance Matrix: (Units=1/GPa)
#
#
# Indices 1 2 3 4 5 6 
#
# 1 0.017571 -0.004264 -0.012846 0.000000 0.000000 0.000000
# 2 -0.004264 0.011488 -0.000147 0.000000 0.000000 0.000000
# 3 -0.012846 -0.000147 0.022329 0.000000 0.000000 0.000000
# 4 0.000000 0.000000 0.000000 0.033076 0.000000 0.000000
# 5 0.000000 0.000000 0.000000 0.000000 0.044949 0.000000
# 6 0.000000 0.000000 0.000000 0.000000 0.000000 0.033209
#
#
# Mechanical properties :
#
#
# Convention : Reuss Voigt Hill
#
# Bulk Modulus (GPa) = 59.26567 64.60956 61.93762
# Shear Modulus (GPa) = 24.65966 27.62950 26.14458
#
# Velocity S-wave (km/s) = 3.39070 3.58908 3.49130
# Velocity P-wave (km/s) = 6.55440 6.87733 6.71780
#
# Compressibility (1/GPa) = 0.01687318
#
# Stress axis : x y z
#
# Youngs Moduli (GPa) = 56.91344 87.04539 44.78507
#
# Poissons Ratio (x) = 0.37117 0.57530
# Poissons Ratio (y) = 0.24269 0.00659
# Poissons Ratio (z) = 0.73110 0.01282
#
# Static dielectric constant tensor:
#      x y z
#    x 3.950640 0.000000 0.000000 
#    y 0.000000 4.283860 0.000000 
#    z 0.000000 0.000000 3.757460 
# 
# 
# High freq. dielectric constant tensor:
#      x y z
#    x 1.840720 0.000000 0.000000 
#    y 0.000000 1.854580 0.000000 
#    z 0.000000 0.000000 1.834970 
# 
# From -- ./inp_files/24503.got.cif
#   From: 2010.03.12/outbox.cif.g09.slc.cpg/sg54_13_cif.got.tgz:24503.got - 2010.04.16 15:00:50.
