data_PCOD8222256
_publ_section_title
;
Structure prediction by ZEFSAII (Michael W. Deem and Ramdas Pophale) SiO2 
 PCOD8222256
Probable space group: P M N A
;
_chemical_formula_sum "Si O2"
_cell_formula_units_Z 48
_cell_length_a 9.601865
_cell_length_b 13.815248
_cell_length_c 21.217194
_cell_angle_alpha 90.000000
_cell_angle_beta 90.000000
_cell_angle_gamma 90.000000
_cell_volume 2814.506321
_symmetry_space_group_name_H-M "P M N A"
_symmetry_group_IT_number 53
_symmetry_cell_setting 'orthorhombic'
loop_
_space_group_symop_operation_xyz
x,y,z
1/2-x,-y,1/2+z
x,-y,-z
1/2-x,y,1/2-z
-x,-y,-z
1/2+x,y,1/2-z
-x,y,z
1/2+x,-y,1/2+z
loop_
_atom_site_type_symbol
_atom_site_label
_atom_site_fract_x
_atom_site_fract_y
_atom_site_fract_z
Si Si1 0.159292 0.286620 0.693460
Si Si2 0.656862 0.961888 0.571214
Si Si3 0.164701 0.424822 0.447609
Si Si4 0.845953 0.127682 0.597633
Si Si5 0.155895 0.205424 0.458598
Si Si6 0.336938 0.490179 0.189276
O O1 0.250000 0.245166 0.750000
O O2 0.200598 0.224947 0.632653
O O3 0.194202 0.397196 0.678812
O O4 0.000000 0.273862 0.712826
O O5 0.500000 0.949966 0.596865
O O6 0.735102 0.858893 0.581260
O O7 0.654666 0.000000 0.500000
O O8 0.738265 0.041682 0.612669
O O9 0.227678 0.500000 0.500000
O O10 0.209678 0.315645 0.465349
O O11 0.217493 0.442790 0.375966
O O12 0.000000 0.438243 0.448412
O O13 0.850807 0.153700 0.525073
O O14 0.000000 0.093646 0.619422
O O15 0.000000 0.204354 0.428169
O O16 0.250000 0.451236 0.250000
O O17 0.500000 0.468853 0.201550
#
# Coordination Sequence:
#
# PCOD8222256 Si02
#       6
#     8   8   8   8   8   8
#     4   9  17  28  43  64  89 116 145 178 217 263
#     4   9  17  28  42  62  88 116 143 173 216 270
#     4   9  16  27  47  73  95 117 152 196 232 262
#     4   9  16  27  44  65  88 113 143 180 221 264
#     4   9  16  27  45  67  89 114 146 184 223 261
#     4   9  17  30  47  67  93 124 155 185 222 271
#
# _framework density 17.054500000000001
#
# number of rings (size 3 to 8) (size 9 to 14) (size 15 to 20)
#    0.000    3.000    0.000    1.500    0.000    6.667 
#    0.000    0.833    0.000    5.000    0.000    2.333 
#    0.000    0.000    0.000    0.000    0.000    0.000 
#
# Total GULP energy -594853.543056 kJ/mol
# GULP energy per Si atom -12392.782147 kJ/mol
# Density = 1.701568 g / cm^3
# Si number density = 17.054500 Si / 1000 Ang^3
#
#
#
# Elastic Constant Matrix: (Units=GPa)
#
#
# Indices 1 2 3 4 5 6 
#
# 1 72.3677 46.6669 21.8397 0.0000 0.0000 0.0000
# 2 46.6669 98.4902 16.1319 0.0000 0.0000 0.0000
# 3 21.8397 16.1319 50.4178 0.0000 0.0000 0.0000
# 4 0.0000 0.0000 0.0000 21.5798 0.0000 0.0000
# 5 0.0000 0.0000 0.0000 0.0000 21.0443 0.0000
# 6 0.0000 0.0000 0.0000 0.0000 0.0000 17.3169
#
#
#
# Elastic Compliance Matrix: (Units=1/GPa)
#
#
# Indices 1 2 3 4 5 6 
#
# 1 0.021721 -0.009235 -0.006454 0.000000 0.000000 0.000000
# 2 -0.009235 0.014641 -0.000684 0.000000 0.000000 0.000000
# 3 -0.006454 -0.000684 0.022849 0.000000 0.000000 0.000000
# 4 0.000000 0.000000 0.000000 0.046340 0.000000 0.000000
# 5 0.000000 0.000000 0.000000 0.000000 0.047519 0.000000
# 6 0.000000 0.000000 0.000000 0.000000 0.000000 0.057747
#
#
# Mechanical properties :
#
#
# Convention : Reuss Voigt Hill
#
# Bulk Modulus (GPa) = 37.78646 43.39472 40.59059
# Shear Modulus (GPa) = 19.81097 21.09735 20.45416
#
# Velocity S-wave (km/s) = 3.41196 3.52099 3.46691
# Velocity P-wave (km/s) = 6.14218 6.48304 6.31491
#
# Compressibility (1/GPa) = 0.02646451
#
# Stress axis : x y z
#
# Youngs Moduli (GPa) = 46.03769 68.30101 43.76548
#
# Poissons Ratio (x) = 0.63075 0.28248
# Poissons Ratio (y) = 0.42515 0.02995
# Poissons Ratio (z) = 0.29714 0.04674
#
# Static dielectric constant tensor:
#      x y z
#    x 3.248500 0.000000 0.000000 
#    y 0.000000 3.238500 0.000000 
#    z 0.000000 0.000000 3.070800 
# 
# 
# High freq. dielectric constant tensor:
#      x y z
#    x 1.640420 0.000000 0.000000 
#    y 0.000000 1.657180 0.000000 
#    z 0.000000 0.000000 1.624830 
# 
# From -- ./inp_files/30466.got.cif
#   From: 2010.03.12/outbox.cif.g09.slc.cpg/sg53_16_cif.got.tgz:30466.got - 2010.04.16 14:36:59.
