data_PCOD8222398
_publ_section_title
;
Structure prediction by ZEFSAII (Michael W. Deem and Ramdas Pophale) SiO2 
 PCOD8222398
Probable space group: P C C A
;
_chemical_formula_sum "Si O2"
_cell_formula_units_Z 56
_cell_length_a 25.459576
_cell_length_b 11.713930
_cell_length_c 10.479591
_cell_angle_alpha 90.000000
_cell_angle_beta 90.000000
_cell_angle_gamma 90.000000
_cell_volume 3125.346146
_symmetry_space_group_name_H-M "P C C A"
_symmetry_group_IT_number 54
_symmetry_cell_setting 'orthorhombic'
loop_
_space_group_symop_operation_xyz
x,y,z
1/2-x,-y,z
1/2+x,-y,1/2-z
-x,y,1/2-z
-x,-y,-z
1/2+x,y,-z
1/2-x,y,1/2+z
x,-y,1/2+z
loop_
_atom_site_type_symbol
_atom_site_label
_atom_site_fract_x
_atom_site_fract_y
_atom_site_fract_z
Si Si1 0.869152 0.769526 0.524252
Si Si2 0.535600 0.118877 0.127675
Si Si3 0.638337 0.845377 0.752925
Si Si4 0.223412 0.378934 0.457656
Si Si5 0.027152 0.148571 0.381947
Si Si6 0.301227 0.938410 0.320306
Si Si7 0.746507 0.259285 0.290905
O O1 0.888456 0.817858 0.388474
O O2 0.840106 0.644000 0.521292
O O3 0.921181 0.770525 0.611366
O O4 0.825750 0.860888 0.569573
O O5 0.500000 0.146224 0.250000
O O6 0.593213 0.175139 0.147152
O O7 0.543742 0.983339 0.113321
O O8 0.511854 0.174286 0.999848
O O9 0.687443 0.761226 0.738941
O O10 0.656981 0.976712 0.743160
O O11 0.250000 0.500000 0.485978
O O12 0.232650 0.351383 0.309785
O O13 0.250858 0.299359 0.563557
O O14 0.000000 0.182168 0.250000
O O15 0.280908 0.855523 0.207683
O O16 0.250000 0.000000 0.380963
#
# Coordination Sequence:
#
# PCOD8222398 Si02
#       7
#     8   8   8   8   8   8   8
#     4  10  19  32  49  73 104 141 179 210 269 306
#     4  10  18  30  47  68 102 145 182 205 241 295
#     4  10  18  30  49  72 105 145 173 206 250 316
#     4  10  20  37  56  75 101 129 173 230 270 315
#     4  10  20  31  45  72 105 143 180 214 244 299
#     4   9  18  29  44  72 108 141 165 210 251 319
#     4   9  20  34  51  77 102 133 174 208 270 323
#
# _framework density 17.918015
#
# number of rings (size 3 to 8) (size 9 to 14) (size 15 to 20)
#    0.000    2.286    2.857    0.429    0.000    5.143 
#    5.143    0.000    0.000    0.000    0.000    2.000 
#    0.000    0.000    0.000    0.000    0.000    0.000 
#
# Total GULP energy -693758.640595 kJ/mol
# GULP energy per Si atom -12388.547153 kJ/mol
# Density = 1.787723 g / cm^3
# Si number density = 17.918015 Si / 1000 Ang^3
#
#
#
# Elastic Constant Matrix: (Units=GPa)
#
#
# Indices 1 2 3 4 5 6 
#
# 1 108.8645 34.2494 35.9982 0.0000 0.0000 0.0000
# 2 34.2494 57.0757 11.7169 0.0000 0.0000 0.0000
# 3 35.9982 11.7169 92.3404 0.0000 0.0000 0.0000
# 4 0.0000 0.0000 0.0000 14.0774 0.0000 0.0000
# 5 0.0000 0.0000 0.0000 0.0000 32.1061 0.0000
# 6 0.0000 0.0000 0.0000 0.0000 0.0000 20.1059
#
#
#
# Elastic Compliance Matrix: (Units=1/GPa)
#
#
# Indices 1 2 3 4 5 6 
#
# 1 0.012661 -0.006760 -0.004078 0.000000 0.000000 0.000000
# 2 -0.006760 0.021599 -0.000105 0.000000 0.000000 0.000000
# 3 -0.004078 -0.000105 0.012433 0.000000 0.000000 0.000000
# 4 0.000000 0.000000 0.000000 0.071036 0.000000 0.000000
# 5 0.000000 0.000000 0.000000 0.000000 0.031147 0.000000
# 6 0.000000 0.000000 0.000000 0.000000 0.000000 0.049737
#
#
# Mechanical properties :
#
#
# Convention : Reuss Voigt Hill
#
# Bulk Modulus (GPa) = 40.31369 46.91220 43.61294
# Shear Modulus (GPa) = 21.85629 25.01230 23.43429
#
# Velocity S-wave (km/s) = 3.49634 3.74027 3.62036
# Velocity P-wave (km/s) = 6.23274 6.70009 6.47064
#
# Compressibility (1/GPa) = 0.02480547
#
# Stress axis : x y z
#
# Youngs Moduli (GPa) = 78.98234 46.29872 80.43356
#
# Poissons Ratio (x) = 0.31300 0.32801
# Poissons Ratio (y) = 0.53395 0.00846
# Poissons Ratio (z) = 0.32209 0.00487
#
# Static dielectric constant tensor:
#      x y z
#    x 3.409000 0.000000 0.000000 
#    y 0.000000 3.020640 0.000000 
#    z 0.000000 0.000000 3.314110 
# 
# 
# High freq. dielectric constant tensor:
#      x y z
#    x 1.698510 0.000000 0.000000 
#    y 0.000000 1.638620 0.000000 
#    z 0.000000 0.000000 1.699300 
# 
# From -- ./inp_files/10026.got.cif
#   From: 2010.03.12/outbox.cif.g09.slc.cpg/sg54_6_cif.got.tgz:10026.got - 2010.04.16 15:00:50.
