data_PCOD8222470
_publ_section_title
;
Structure prediction by ZEFSAII (Michael W. Deem and Ramdas Pophale) SiO2 
 PCOD8222470
Probable space group: P C C A
;
_chemical_formula_sum "Si O2"
_cell_formula_units_Z 40
_cell_length_a 13.155307
_cell_length_b 22.254566
_cell_length_c 5.336527
_cell_angle_alpha 90.000000
_cell_angle_beta 90.000000
_cell_angle_gamma 90.000000
_cell_volume 1562.351785
_symmetry_space_group_name_H-M "P C C A"
_symmetry_group_IT_number 54
_symmetry_cell_setting 'orthorhombic'
loop_
_space_group_symop_operation_xyz
x,y,z
1/2-x,-y,z
1/2+x,-y,1/2-z
-x,y,1/2-z
-x,-y,-z
1/2+x,y,-z
1/2-x,y,1/2+z
x,-y,1/2+z
loop_
_atom_site_type_symbol
_atom_site_label
_atom_site_fract_x
_atom_site_fract_y
_atom_site_fract_z
Si Si1 0.187542 0.151276 0.416844
Si Si2 0.613459 0.026014 0.704084
Si Si3 0.364663 0.285392 0.885332
Si Si4 0.386242 0.524811 0.972239
Si Si5 0.633995 0.335097 0.113206
O O1 0.227311 0.147406 0.701279
O O2 0.111763 0.096161 0.367174
O O3 0.128481 0.213750 0.396904
O O4 0.500000 0.001988 0.750000
O O5 0.666756 0.987976 0.475450
O O6 0.420518 0.304570 0.627249
O O7 0.249800 0.311308 0.867401
O O8 0.420244 0.314911 0.126938
O O9 0.332619 0.489246 0.739929
O O10 0.376791 0.594223 0.910417
O O11 0.500000 0.500000 0.000000
#
# Coordination Sequence:
#
# PCOD8222470 Si02
#       5
#     8   8   8   8   8
#     4  12  21  37  65  95 130 156 215 273 309 368
#     4  10  23  42  62  89 131 178 210 252 316 382
#     4  10  19  35  55  87 113 154 189 245 305 358
#     4  10  21  37  57  80 111 147 192 242 292 354
#     4  10  18  35  58  78 114 150 186 231 303 364
#
# _framework density 25.602426999999999
#
# number of rings (size 3 to 8) (size 9 to 14) (size 15 to 20)
#    0.000    1.600    4.000    2.400    0.000    2.400 
#    0.000   12.000   13.200    0.000    0.000    0.000 
#    0.000    0.000    0.000    0.000    0.000    0.000 
#
# Total GULP energy -495678.252237 kJ/mol
# GULP energy per Si atom -12391.956306 kJ/mol
# Density = 2.554415 g / cm^3
# Si number density = 25.602427 Si / 1000 Ang^3
#
#
#
# Elastic Constant Matrix: (Units=GPa)
#
#
# Indices 1 2 3 4 5 6 
#
# 1 30.1742 1.8662 -1.9144 0.0000 0.0000 0.0000
# 2 1.8662 220.0092 74.7326 0.0000 0.0000 0.0000
# 3 -1.9144 74.7326 290.1609 0.0000 0.0000 0.0000
# 4 0.0000 0.0000 0.0000 53.5313 0.0000 0.0000
# 5 0.0000 0.0000 0.0000 0.0000 -3.6637 0.0000
# 6 0.0000 0.0000 0.0000 0.0000 0.0000 19.8887
#
#
#
# Elastic Compliance Matrix: (Units=1/GPa)
#
#
# Indices 1 2 3 4 5 6 
#
# 1 0.033185 -0.000390 0.000319 0.000000 0.000000 0.000000
# 2 -0.000390 0.004986 -0.001287 0.000000 0.000000 0.000000
# 3 0.000319 -0.001287 0.003780 0.000000 0.000000 0.000000
# 4 0.000000 0.000000 0.000000 0.018681 0.000000 0.000000
# 5 0.000000 0.000000 0.000000 0.000000 -0.272948 0.000000
# 6 0.000000 0.000000 0.000000 0.000000 0.000000 0.050280
#
#
# Mechanical properties :
#
#
# Convention : Reuss Voigt Hill
#
# Bulk Modulus (GPa) = 25.48661 76.63480 51.06070
# Shear Modulus (GPa) = -34.18964 44.99524 5.40280
#
# Velocity S-wave (km/s) = -3.65829 4.19675 1.45425
# Velocity P-wave (km/s) = 2.80494 7.31309 4.77565
#
# Compressibility (1/GPa) = 0.03923630
#
# Stress axis : x y z
#
# Youngs Moduli (GPa) = 30.13382 200.57679 264.56043
#
# Poissons Ratio (x) = 0.07822 -0.08450
# Poissons Ratio (y) = 0.01175 0.34040
# Poissons Ratio (z) = -0.00962 0.25807
#
# Static dielectric constant tensor:
#      x y z
#    x 4.113250 0.000000 0.000000 
#    y 0.000000 4.491780 0.000000 
#    z 0.000000 0.000000 -4.339950 
# 
# 
# High freq. dielectric constant tensor:
#      x y z
#    x 2.009500 0.000000 0.000000 
#    y 0.000000 2.018220 0.000000 
#    z 0.000000 0.000000 2.074370 
# 
# From -- ./inp_files/932.got.cif
#   From: 2010.03.12/outbox.cif.g09.slc.cpg/sg54_1_cif.got.tgz:932.got - 2010.04.16 15:00:50.
