data_PCOD8222352
_publ_section_title
;
Structure prediction by ZEFSAII (Michael W. Deem and Ramdas Pophale) SiO2 
 PCOD8222352
Probable space group: P C C A
;
_chemical_formula_sum "Si O2"
_cell_formula_units_Z 44
_cell_length_a 14.739275
_cell_length_b 8.865938
_cell_length_c 17.311968
_cell_angle_alpha 90.000000
_cell_angle_beta 90.000000
_cell_angle_gamma 90.000000
_cell_volume 2262.284669
_symmetry_space_group_name_H-M "P C C A"
_symmetry_group_IT_number 54
_symmetry_cell_setting 'orthorhombic'
loop_
_space_group_symop_operation_xyz
x,y,z
1/2-x,-y,z
1/2+x,-y,1/2-z
-x,y,1/2-z
-x,-y,-z
1/2+x,y,-z
1/2-x,y,1/2+z
x,-y,1/2+z
loop_
_atom_site_type_symbol
_atom_site_label
_atom_site_fract_x
_atom_site_fract_y
_atom_site_fract_z
Si Si1 0.046445 0.655163 0.975883
Si Si2 0.631053 0.241791 0.369869
Si Si3 0.142200 0.729376 0.504445
Si Si4 0.500000 0.343956 0.250000
Si Si5 0.750000 0.500000 0.894572
Si Si6 0.646563 0.529650 0.640480
Si Si7 0.750000 0.000000 0.928463
O O1 0.108998 0.622647 0.901398
O O2 0.109949 0.725083 0.040922
O O3 0.000000 0.500000 0.000000
O O4 0.959888 0.766324 0.963813
O O5 0.543243 0.236238 0.315506
O O6 0.697455 0.377859 0.341447
O O7 0.680575 0.080841 0.369417
O O8 0.178887 0.586174 0.551311
O O9 0.142147 0.678051 0.414599
O O10 0.201326 0.879268 0.515972
O O11 0.420059 0.445036 0.286725
O O12 0.750000 0.500000 0.667656
#
# Coordination Sequence:
#
# PCOD8222352 Si02
#       7
#     8   8   8   4   4   8   4
#     4  10  17  35  63  89 114 142 196 264 294 338
#     4  11  21  38  59  88 119 155 197 242 297 356
#     4  10  17  35  60  93 113 143 195 256 298 339
#     4  12  24  36  56  84 130 164 188 236 308 366
#     4  10  16  32  64  86 114 140 192 254 288 342
#     4  11  20  37  61  94 120 151 199 255 306 353
#     4  10  24  36  62  88 110 158 208 244 298 354
#
# _framework density 19.449365
#
# number of rings (size 3 to 8) (size 9 to 14) (size 15 to 20)
#    0.000    1.455    8.182    1.091    1.273    0.727 
#    0.000    0.909    4.000    2.182    0.000    0.000 
#    0.000    0.000    0.000    0.000    0.000    0.000 
#
# Total GULP energy -545295.372253 kJ/mol
# GULP energy per Si atom -12393.076642 kJ/mol
# Density = 1.940510 g / cm^3
# Si number density = 19.449365 Si / 1000 Ang^3
#
#
#
# Elastic Constant Matrix: (Units=GPa)
#
#
# Indices 1 2 3 4 5 6 
#
# 1 152.0320 42.9299 48.3066 0.0000 0.0000 0.0000
# 2 42.9299 88.6616 26.9170 0.0000 0.0000 0.0000
# 3 48.3066 26.9170 76.5996 0.0000 0.0000 0.0000
# 4 0.0000 0.0000 0.0000 2.8644 0.0000 0.0000
# 5 0.0000 0.0000 0.0000 0.0000 37.4307 0.0000
# 6 0.0000 0.0000 0.0000 0.0000 0.0000 32.8230
#
#
#
# Elastic Compliance Matrix: (Units=1/GPa)
#
#
# Indices 1 2 3 4 5 6 
#
# 1 0.008845 -0.002898 -0.004559 0.000000 0.000000 0.000000
# 2 -0.002898 0.013576 -0.002943 0.000000 0.000000 0.000000
# 3 -0.004559 -0.002943 0.016964 0.000000 0.000000 0.000000
# 4 0.000000 0.000000 0.000000 0.349116 0.000000 0.000000
# 5 0.000000 0.000000 0.000000 0.000000 0.026716 0.000000
# 6 0.000000 0.000000 0.000000 0.000000 0.000000 0.030466
#
#
# Mechanical properties :
#
#
# Convention : Reuss Voigt Hill
#
# Bulk Modulus (GPa) = 53.81014 61.51113 57.66064
# Shear Modulus (GPa) = 10.57801 27.89959 19.23880
#
# Velocity S-wave (km/s) = 2.33464 3.79155 3.14853
# Velocity P-wave (km/s) = 5.91559 7.13181 6.55199
#
# Compressibility (1/GPa) = 0.01858386
#
# Stress axis : x y z
#
# Youngs Moduli (GPa) = 113.06245 73.66151 58.94773
#
# Poissons Ratio (x) = 0.21350 0.26876
# Poissons Ratio (y) = 0.32770 0.17346
# Poissons Ratio (z) = 0.51548 0.21676
#
# Static dielectric constant tensor:
#      x y z
#    x 4.306570 0.000000 0.000000 
#    y 0.000000 3.447210 0.000000 
#    z 0.000000 0.000000 3.265950 
# 
# 
# High freq. dielectric constant tensor:
#      x y z
#    x 1.793410 0.000000 0.000000 
#    y 0.000000 1.718600 0.000000 
#    z 0.000000 0.000000 1.723120 
# 
# From -- ./inp_files/17942.got.cif
#   From: 2010.03.12/outbox.cif.g09.slc.cpg/sg54_9_cif.got.tgz:17942.got - 2010.04.16 15:00:50.
