data_PCOD8222789
_publ_section_title
;
Structure prediction by ZEFSAII (Michael W. Deem and Ramdas Pophale) SiO2 
 PCOD8222789
Probable space group: P C C A
;
_chemical_formula_sum "Si O2"
_cell_formula_units_Z 60
_cell_length_a 9.162870
_cell_length_b 25.846379
_cell_length_c 12.268329
_cell_angle_alpha 90.000000
_cell_angle_beta 90.000000
_cell_angle_gamma 90.000000
_cell_volume 2905.471684
_symmetry_space_group_name_H-M "P C C A"
_symmetry_group_IT_number 54
_symmetry_cell_setting 'orthorhombic'
loop_
_space_group_symop_operation_xyz
x,y,z
1/2-x,-y,z
1/2+x,-y,1/2-z
-x,y,1/2-z
-x,-y,-z
1/2+x,y,-z
1/2-x,y,1/2+z
x,-y,1/2+z
loop_
_atom_site_type_symbol
_atom_site_label
_atom_site_fract_x
_atom_site_fract_y
_atom_site_fract_z
Si Si1 0.964709 0.823169 0.628105
Si Si2 0.750000 0.000000 0.991906
Si Si3 0.999846 0.944300 0.626208
Si Si4 0.886852 0.634511 0.658625
Si Si5 0.707037 0.767689 0.507767
Si Si6 0.869627 0.462426 0.016990
Si Si7 0.056446 0.301267 0.550602
Si Si8 0.631121 0.397881 0.312005
O O1 0.961049 0.884369 0.617551
O O2 0.807675 0.798946 0.594375
O O3 0.000000 0.804793 0.750000
O O4 0.098179 0.806171 0.552209
O O5 0.630663 0.972247 0.064957
O O6 0.839141 0.958000 0.920092
O O7 0.000000 0.963561 0.750000
O O8 0.926039 0.581370 0.598032
O O9 0.896417 0.681518 0.572848
O O10 0.737124 0.624371 0.720781
O O11 0.000000 0.649310 0.750000
O O12 0.605098 0.722963 0.561212
O O13 0.818136 0.740854 0.420995
O O14 0.750000 0.500000 0.070558
O O15 0.805560 0.436526 0.904529
O O16 0.000000 0.500000 0.000000
O O17 0.057175 0.348875 0.630766
O O18 0.500000 0.427677 0.250000
#
# Coordination Sequence:
#
# PCOD8222789 Si02
#       8
#     8   4   8   8   8   8   8   8
#     4  10  22  39  59  85 121 160 197 245 298 350
#     4  10  20  34  60  88 118 162 204 250 302 346
#     4  10  20  36  57  86 121 157 203 250 296 351
#     4  11  23  39  60  83 110 145 181 228 287 336
#     4  10  21  38  59  84 114 151 195 237 292 352
#     4  11  24  40  57  82 112 140 180 224 270 343
#     4  10  22  38  57  84 112 141 188 240 279 343
#     4  11  23  38  58  82 109 142 179 226 283 336
#
# _framework density 20.650691999999999
#
# number of rings (size 3 to 8) (size 9 to 14) (size 15 to 20)
#    0.000    1.600    0.000    4.400    0.000   12.800 
#    0.000    2.000    0.000   11.200    0.000    0.000 
#    0.000    0.000    0.000    0.000    0.000    0.000 
#
# Total GULP energy -743538.858845 kJ/mol
# GULP energy per Si atom -12392.314314 kJ/mol
# Density = 2.060369 g / cm^3
# Si number density = 20.650692 Si / 1000 Ang^3
#
#
#
# Elastic Constant Matrix: (Units=GPa)
#
#
# Indices 1 2 3 4 5 6 
#
# 1 137.4229 32.1045 39.4592 0.0000 0.0000 0.0000
# 2 32.1045 77.2808 32.1597 0.0000 0.0000 0.0000
# 3 39.4592 32.1597 108.5584 0.0000 0.0000 0.0000
# 4 0.0000 0.0000 0.0000 -8.6750 0.0000 0.0000
# 5 0.0000 0.0000 0.0000 0.0000 30.2496 0.0000
# 6 0.0000 0.0000 0.0000 0.0000 0.0000 36.7624
#
#
#
# Elastic Compliance Matrix: (Units=1/GPa)
#
#
# Indices 1 2 3 4 5 6 
#
# 1 0.008552 -0.002577 -0.002345 0.000000 0.000000 0.000000
# 2 -0.002577 0.015536 -0.003666 0.000000 0.000000 0.000000
# 3 -0.002345 -0.003666 0.011150 0.000000 0.000000 0.000000
# 4 0.000000 0.000000 0.000000 -0.115274 0.000000 0.000000
# 5 0.000000 0.000000 0.000000 0.000000 0.033058 0.000000
# 6 0.000000 0.000000 0.000000 0.000000 0.000000 0.027202
#
#
# Mechanical properties :
#
#
# Convention : Reuss Voigt Hill
#
# Bulk Modulus (GPa) = 55.36362 58.96768 57.16565
# Shear Modulus (GPa) = 1461.78475 26.30332 744.04403
#
# Velocity S-wave (km/s) = 26.63455 3.57280 19.00216
# Velocity P-wave (km/s) = 31.18867 6.75549 22.56513
#
# Compressibility (1/GPa) = 0.01806240
#
# Stress axis : x y z
#
# Youngs Moduli (GPa) = 116.92883 64.36755 89.68591
#
# Poissons Ratio (x) = 0.16587 0.21033
# Poissons Ratio (y) = 0.30131 0.32876
# Poissons Ratio (z) = 0.27422 0.23595
#
# Static dielectric constant tensor:
#      x y z
#    x 3.734350 0.000000 0.000000 
#    y 0.000000 3.755080 0.000000 
#    z 0.000000 0.000000 8.611790 
# 
# 
# High freq. dielectric constant tensor:
#      x y z
#    x 1.823730 0.000000 0.000000 
#    y 0.000000 1.812500 0.000000 
#    z 0.000000 0.000000 1.804900 
# 
# From -- ./inp_files/7002.got.cif
#   From: 2010.03.12/outbox.cif.g09.slc.cpg/sg54_4_cif.got.tgz:7002.got - 2010.04.16 15:00:50.
