data_PCOD8222410
_publ_section_title
;
Structure prediction by ZEFSAII (Michael W. Deem and Ramdas Pophale) SiO2 
 PCOD8222410
Probable space group: P C C A
;
_chemical_formula_sum "Si O2"
_cell_formula_units_Z 64
_cell_length_a 20.718565
_cell_length_b 9.187603
_cell_length_c 18.362452
_cell_angle_alpha 90.000000
_cell_angle_beta 90.000000
_cell_angle_gamma 90.000000
_cell_volume 3495.365269
_symmetry_space_group_name_H-M "P C C A"
_symmetry_group_IT_number 54
_symmetry_cell_setting 'orthorhombic'
loop_
_space_group_symop_operation_xyz
x,y,z
1/2-x,-y,z
1/2+x,-y,1/2-z
-x,y,1/2-z
-x,-y,-z
1/2+x,y,-z
1/2-x,y,1/2+z
x,-y,1/2+z
loop_
_atom_site_type_symbol
_atom_site_label
_atom_site_fract_x
_atom_site_fract_y
_atom_site_fract_z
Si Si1 0.684080 0.425263 0.140455
Si Si2 0.230059 0.837680 0.690702
Si Si3 0.857798 0.678705 0.541329
Si Si4 0.608401 0.657284 0.343987
Si Si5 0.508607 0.389199 0.565642
Si Si6 0.236205 0.839804 0.861963
Si Si7 0.807633 0.604777 0.390404
Si Si8 0.060960 0.505648 0.285472
O O1 0.750000 0.500000 0.172605
O O2 0.658071 0.515147 0.070923
O O3 0.703054 0.262269 0.116073
O O4 0.629789 0.412633 0.204198
O O5 0.161759 0.785266 0.655775
O O6 0.221798 0.833002 0.776739
O O7 0.285726 0.724153 0.668761
O O8 0.250000 0.000000 0.664176
O O9 0.827779 0.793521 0.596351
O O10 0.830367 0.694689 0.460613
O O11 0.934085 0.718033 0.539691
O O12 0.557303 0.692417 0.409338
O O13 0.635617 0.494689 0.358433
O O14 0.573432 0.638621 0.265175
O O15 0.500000 0.500000 0.500000
O O16 0.537048 0.470462 0.634801
O O17 0.250000 0.000000 0.889714
O O18 0.750000 0.500000 0.414606
O O19 0.000000 0.595548 0.250000
#
# Coordination Sequence:
#
# PCOD8222410 Si02
#       8
#     8   8   8   8   8   8   8   8
#     4   9  16  29  51  76 104 130 170 216 267 310
#     4  10  21  34  50  74 106 141 175 219 269 319
#     4  10  19  33  54  80 105 133 174 219 270 324
#     4  10  18  32  53  78 106 136 178 219 270 325
#     4  10  18  31  52  80 106 138 171 227 268 323
#     4  10  20  34  53  77 106 140 177 218 269 321
#     4  10  19  31  52  77 104 134 175 221 273 319
#     4   9  18  29  50  81 107 133 172 218 271 321
#
# _framework density 18.30996
#
# number of rings (size 3 to 8) (size 9 to 14) (size 15 to 20)
#    0.000    2.250    1.250    4.125    0.000    3.500 
#    0.000    0.000    0.000    8.250    0.000    4.375 
#    0.000    0.000    0.000    0.000    0.000    0.000 
#
# Total GULP energy -792862.018196 kJ/mol
# GULP energy per Si atom -12388.469034 kJ/mol
# Density = 1.826829 g / cm^3
# Si number density = 18.309960 Si / 1000 Ang^3
#
#
#
# Elastic Constant Matrix: (Units=GPa)
#
#
# Indices 1 2 3 4 5 6 
#
# 1 121.5036 39.2864 32.8646 0.0000 0.0000 0.0000
# 2 39.2864 99.2590 23.8867 0.0000 0.0000 0.0000
# 3 32.8646 23.8867 84.2148 0.0000 0.0000 0.0000
# 4 0.0000 0.0000 0.0000 19.8291 0.0000 0.0000
# 5 0.0000 0.0000 0.0000 0.0000 28.1745 0.0000
# 6 0.0000 0.0000 0.0000 0.0000 0.0000 16.7385
#
#
#
# Elastic Compliance Matrix: (Units=1/GPa)
#
#
# Indices 1 2 3 4 5 6 
#
# 1 0.010104 -0.003274 -0.003015 0.000000 0.000000 0.000000
# 2 -0.003274 0.011873 -0.002090 0.000000 0.000000 0.000000
# 3 -0.003015 -0.002090 0.013644 0.000000 0.000000 0.000000
# 4 0.000000 0.000000 0.000000 0.050431 0.000000 0.000000
# 5 0.000000 0.000000 0.000000 0.000000 0.035493 0.000000
# 6 0.000000 0.000000 0.000000 0.000000 0.000000 0.059742
#
#
# Mechanical properties :
#
#
# Convention : Reuss Voigt Hill
#
# Bulk Modulus (GPa) = 53.01039 55.22810 54.11925
# Shear Modulus (GPa) = 24.46989 26.87773 25.67381
#
# Velocity S-wave (km/s) = 3.65968 3.83551 3.74863
# Velocity P-wave (km/s) = 6.84633 7.05997 6.95397
#
# Compressibility (1/GPa) = 0.01886423
#
# Stress axis : x y z
#
# Youngs Moduli (GPa) = 98.96967 84.22194 73.29395
#
# Poissons Ratio (x) = 0.27572 0.22095
# Poissons Ratio (y) = 0.32400 0.15320
# Poissons Ratio (z) = 0.29835 0.17604
#
# Static dielectric constant tensor:
#      x y z
#    x 3.629260 0.000000 0.000000 
#    y 0.000000 3.365300 0.000000 
#    z 0.000000 0.000000 3.427850 
# 
# 
# High freq. dielectric constant tensor:
#      x y z
#    x 1.728490 0.000000 0.000000 
#    y 0.000000 1.649330 0.000000 
#    z 0.000000 0.000000 1.719660 
# 
# From -- ./inp_files/18963.got.cif
#   From: 2010.03.12/outbox.cif.g09.slc.cpg/sg54_10_cif.got.tgz:18963.got - 2010.04.16 15:00:50.
