data_PCOD8222963
_publ_section_title
;
Structure prediction by ZEFSAII (Michael W. Deem and Ramdas Pophale) SiO2 
 PCOD8222963
Probable space group: P C C A
;
_chemical_formula_sum "Si O2"
_cell_formula_units_Z 36
_cell_length_a 11.589075
_cell_length_b 16.406559
_cell_length_c 9.038716
_cell_angle_alpha 90.000000
_cell_angle_beta 90.000000
_cell_angle_gamma 90.000000
_cell_volume 1718.592923
_symmetry_space_group_name_H-M "P C C A"
_symmetry_group_IT_number 54
_symmetry_cell_setting 'orthorhombic'
loop_
_space_group_symop_operation_xyz
x,y,z
1/2-x,-y,z
1/2+x,-y,1/2-z
-x,y,1/2-z
-x,-y,-z
1/2+x,y,-z
1/2-x,y,1/2+z
x,-y,1/2+z
loop_
_atom_site_type_symbol
_atom_site_label
_atom_site_fract_x
_atom_site_fract_y
_atom_site_fract_z
Si Si1 0.875578 0.411612 0.693512
Si Si2 0.582154 0.979895 0.872479
Si Si3 0.250000 0.500000 0.058730
Si Si4 0.215434 0.865881 0.610377
Si Si5 0.875490 0.776938 0.175841
O O1 0.849274 0.465287 0.548501
O O2 0.792206 0.427470 0.833702
O O3 0.867552 0.318405 0.643256
O O4 0.000000 0.437868 0.750000
O O5 0.500000 0.937978 0.750000
O O6 0.637685 0.064474 0.810108
O O7 0.671919 0.915869 0.941483
O O8 0.500000 0.000000 0.000000
O O9 0.142242 0.825700 0.477685
O O10 0.264186 0.798325 0.722916
O O11 0.000000 0.796888 0.250000
#
# Coordination Sequence:
#
# PCOD8222963 Si02
#       5
#     8   8   4   8   8
#     4  10  21  37  60  87 118 153 191 238 289 345
#     4  11  22  37  57  82 109 148 195 238 283 335
#     4  10  20  38  62  88 116 152 196 234 284 350
#     4  11  22  37  58  81 114 154 193 240 291 343
#     4  11  23  39  58  86 120 153 192 241 295 348
#
# _framework density 20.947368999999998
#
# number of rings (size 3 to 8) (size 9 to 14) (size 15 to 20)
#    0.000    1.333    0.000    6.667    0.000    3.556 
#    0.000    0.000    0.000   13.333    0.000    0.000 
#    0.000    0.000    0.000    0.000    0.000    0.000 
#
# Total GULP energy -445994.380771 kJ/mol
# GULP energy per Si atom -12388.732799 kJ/mol
# Density = 2.089969 g / cm^3
# Si number density = 20.947369 Si / 1000 Ang^3
#
#
#
# Elastic Constant Matrix: (Units=GPa)
#
#
# Indices 1 2 3 4 5 6 
#
# 1 84.3260 25.5808 16.0648 0.0000 0.0000 0.0000
# 2 25.5808 103.9490 26.3885 0.0000 0.0000 0.0000
# 3 16.0648 26.3885 83.5368 0.0000 0.0000 0.0000
# 4 0.0000 0.0000 0.0000 24.4259 0.0000 0.0000
# 5 0.0000 0.0000 0.0000 0.0000 40.5854 0.0000
# 6 0.0000 0.0000 0.0000 0.0000 0.0000 31.6981
#
#
#
# Elastic Compliance Matrix: (Units=1/GPa)
#
#
# Indices 1 2 3 4 5 6 
#
# 1 0.013014 -0.002791 -0.001621 0.000000 0.000000 0.000000
# 2 -0.002791 0.011057 -0.002956 0.000000 0.000000 0.000000
# 3 -0.001621 -0.002956 0.013216 0.000000 0.000000 0.000000
# 4 0.000000 0.000000 0.000000 0.040940 0.000000 0.000000
# 5 0.000000 0.000000 0.000000 0.000000 0.024639 0.000000
# 6 0.000000 0.000000 0.000000 0.000000 0.000000 0.031548
#
#
# Mechanical properties :
#
#
# Convention : Reuss Voigt Hill
#
# Bulk Modulus (GPa) = 44.34338 45.31999 44.83169
# Shear Modulus (GPa) = 31.91439 32.92705 32.42072
#
# Velocity S-wave (km/s) = 3.90750 3.96901 3.93838
# Velocity P-wave (km/s) = 6.44771 6.53347 6.49073
#
# Compressibility (1/GPa) = 0.02255128
#
# Stress axis : x y z
#
# Youngs Moduli (GPa) = 76.83866 90.43687 75.66385
#
# Poissons Ratio (x) = 0.25242 0.12265
# Poissons Ratio (y) = 0.21447 0.22368
# Poissons Ratio (z) = 0.12456 0.26735
#
# Static dielectric constant tensor:
#      x y z
#    x 2.886060 0.000000 0.000000 
#    y 0.000000 26.715920 0.000000 
#    z 0.000000 0.000000 3.611460 
# 
# 
# High freq. dielectric constant tensor:
#      x y z
#    x 1.830620 0.000000 0.000000 
#    y 0.000000 1.827930 0.000000 
#    z 0.000000 0.000000 1.812580 
# 
# From -- ./inp_files/2934.got.cif
#   From: 2010.03.12/outbox.cif.g09.slc.cpg/sg54_2_cif.got.tgz:2934.got - 2010.04.16 15:00:50.
