data_PCOD8222132
_publ_section_title
;
Structure prediction by ZEFSAII (Michael W. Deem and Ramdas Pophale) SiO2 
 PCOD8222132
Probable space group: P M N A
;
_chemical_formula_sum "Si O2"
_cell_formula_units_Z 64
_cell_length_a 13.654009
_cell_length_b 9.678360
_cell_length_c 23.418722
_cell_angle_alpha 90.000000
_cell_angle_beta 90.000000
_cell_angle_gamma 90.000000
_cell_volume 3094.746983
_symmetry_space_group_name_H-M "P M N A"
_symmetry_group_IT_number 53
_symmetry_cell_setting 'orthorhombic'
loop_
_space_group_symop_operation_xyz
x,y,z
1/2-x,-y,1/2+z
x,-y,-z
1/2-x,y,1/2-z
-x,-y,-z
1/2+x,y,1/2-z
-x,y,z
1/2+x,-y,1/2+z
loop_
_atom_site_type_symbol
_atom_site_label
_atom_site_fract_x
_atom_site_fract_y
_atom_site_fract_z
Si Si1 0.226014 0.105557 0.050333
Si Si2 0.858098 0.527793 0.768622
Si Si3 0.310500 0.680796 0.363546
Si Si4 0.615174 0.233912 0.128551
Si Si5 0.117541 0.971013 0.152949
Si Si6 0.606781 0.173925 0.252952
Si Si7 0.886212 0.344381 0.988211
Si Si8 0.606814 0.450051 0.853525
O O1 0.326909 0.148950 0.080870
O O2 0.175720 0.244184 0.028045
O O3 0.150349 0.029865 0.091992
O O4 0.253687 0.000000 0.000000
O O5 0.750000 0.563347 0.750000
O O6 0.862455 0.435389 0.825127
O O7 0.906515 0.675092 0.782141
O O8 0.908076 0.451512 0.715069
O O9 0.327861 0.827438 0.333469
O O10 0.366660 0.689066 0.422712
O O11 0.193806 0.653905 0.371709
O O12 0.500000 0.201647 0.122394
O O13 0.657615 0.187249 0.190806
O O14 0.633572 0.398004 0.122577
O O15 0.000000 0.955970 0.152361
O O16 0.159122 0.071333 0.202816
O O17 0.500000 0.111245 0.242160
O O18 0.000000 0.322757 0.002226
O O19 0.851763 0.500000 0.000000
O O20 0.500000 0.402248 0.878325
#
# Coordination Sequence:
#
# PCOD8222132 Si02
#       8
#     8   8   8   8   8   8   8   8
#     4  12  25  43  64  90 127 175 217 260 316 388
#     4   9  19  34  60  92 121 160 205 255 313 377
#     4  11  22  40  59  89 127 170 207 254 316 380
#     4   9  20  42  70  96 125 161 213 276 324 380
#     4  11  25  41  61  91 132 172 207 258 321 387
#     4   9  20  38  63  95 123 159 206 260 324 383
#     4  11  25  42  63  90 121 162 218 274 314 363
#     4   9  19  39  65  94 125 161 209 266 326 376
#
# _framework density 20.680205999999998
#
# number of rings (size 3 to 8) (size 9 to 14) (size 15 to 20)
#    0.000    1.875    1.250    2.625    7.000    2.750 
#    6.750    1.250    0.000    2.250    0.000    0.000 
#    0.000    0.000    0.000    0.000    0.000    0.000 
#
# Total GULP energy -793326.411035 kJ/mol
# GULP energy per Si atom -12395.725172 kJ/mol
# Density = 2.063314 g / cm^3
# Si number density = 20.680206 Si / 1000 Ang^3
#
#
#
# Elastic Constant Matrix: (Units=GPa)
#
#
# Indices 1 2 3 4 5 6 
#
# 1 104.7415 58.8805 38.0852 0.0000 0.0000 0.0000
# 2 58.8805 127.8550 61.5766 0.0000 0.0000 0.0000
# 3 38.0852 61.5766 100.5388 0.0000 0.0000 0.0000
# 4 0.0000 0.0000 0.0000 32.1181 0.0000 0.0000
# 5 0.0000 0.0000 0.0000 0.0000 29.2689 0.0000
# 6 0.0000 0.0000 0.0000 0.0000 0.0000 31.0153
#
#
#
# Elastic Compliance Matrix: (Units=1/GPa)
#
#
# Indices 1 2 3 4 5 6 
#
# 1 0.013108 -0.005170 -0.001799 0.000000 0.000000 0.000000
# 2 -0.005170 0.013133 -0.006085 0.000000 0.000000 0.000000
# 3 -0.001799 -0.006085 0.014355 0.000000 0.000000 0.000000
# 4 0.000000 0.000000 0.000000 0.031135 0.000000 0.000000
# 5 0.000000 0.000000 0.000000 0.000000 0.034166 0.000000
# 6 0.000000 0.000000 0.000000 0.000000 0.000000 0.032242
#
#
# Mechanical properties :
#
#
# Convention : Reuss Voigt Hill
#
# Bulk Modulus (GPa) = 69.02501 72.24665 70.63583
# Shear Modulus (GPa) = 29.57255 30.11999 29.84627
#
# Velocity S-wave (km/s) = 3.78563 3.82051 3.80311
# Velocity P-wave (km/s) = 7.24967 7.38056 7.31541
#
# Compressibility (1/GPa) = 0.01448750
#
# Stress axis : x y z
#
# Youngs Moduli (GPa) = 76.29060 76.14447 69.66368
#
# Poissons Ratio (x) = 0.39368 0.12531
# Poissons Ratio (y) = 0.39443 0.42390
# Poissons Ratio (z) = 0.13724 0.46334
#
# Static dielectric constant tensor:
#      x y z
#    x 3.611790 0.000000 0.000000 
#    y 0.000000 3.832620 0.000000 
#    z 0.000000 0.000000 3.751560 
# 
# 
# High freq. dielectric constant tensor:
#      x y z
#    x 1.817470 0.000000 0.000000 
#    y 0.000000 1.805090 0.000000 
#    z 0.000000 0.000000 1.797820 
# 
# From -- ./inp_files/35351.got.cif
#   From: 2010.03.12/outbox.cif.g09.slc.cpg/sg53_18_cif.got.tgz:35351.got - 2010.04.16 14:36:59.
