data_PCOD8222336
_publ_section_title
;
Structure prediction by ZEFSAII (Michael W. Deem and Ramdas Pophale) SiO2 
 PCOD8222336
Probable space group: P C C A
;
_chemical_formula_sum "Si O2"
_cell_formula_units_Z 40
_cell_length_a 12.952118
_cell_length_b 22.155460
_cell_length_c 5.328774
_cell_angle_alpha 90.000000
_cell_angle_beta 90.000000
_cell_angle_gamma 90.000000
_cell_volume 1529.145692
_symmetry_space_group_name_H-M "P C C A"
_symmetry_group_IT_number 54
_symmetry_cell_setting 'orthorhombic'
loop_
_space_group_symop_operation_xyz
x,y,z
1/2-x,-y,z
1/2+x,-y,1/2-z
-x,y,1/2-z
-x,-y,-z
1/2+x,y,-z
1/2-x,y,1/2+z
x,-y,1/2+z
loop_
_atom_site_type_symbol
_atom_site_label
_atom_site_fract_x
_atom_site_fract_y
_atom_site_fract_z
Si Si1 0.866751 0.475453 0.599966
Si Si2 0.634551 0.975890 0.911020
Si Si3 0.815134 0.658307 0.055449
Si Si4 0.890568 0.785140 0.000007
Si Si5 0.380596 0.163648 0.002366
O O1 0.750000 0.500000 0.644706
O O2 0.921537 0.511900 0.370253
O O3 0.873542 0.405094 0.532188
O O4 0.632520 0.907684 0.003407
O O5 0.750000 0.000000 0.853908
O O6 0.580195 0.984753 0.635730
O O7 0.768928 0.663100 0.334803
O O8 0.896844 0.712412 0.013806
O O9 0.830162 0.807512 0.749392
O O10 0.828422 0.809870 0.244128
O O11 0.001454 0.815516 0.001525
#
# Coordination Sequence:
#
# PCOD8222336 Si02
#       5
#     8   8   8   8   8
#     4  10  16  30  51  77 122 157 190 244 315 351
#     4  10  21  40  64  95 120 145 187 254 310 354
#     4  12  21  35  55  92 127 152 204 256 302 358
#     4  10  23  40  60  88 114 170 200 240 295 365
#     4  10  21  45  64  82 122 158 205 237 294 376
#
# _framework density 26.158394000000001
#
# number of rings (size 3 to 8) (size 9 to 14) (size 15 to 20)
#    0.000    1.600    4.000    2.400    0.000    0.000 
#   21.600   12.000    0.000    0.000    0.000   16.800 
#    0.000    0.000    0.000    0.000    0.000    0.000 
#
# Total GULP energy -495721.007348 kJ/mol
# GULP energy per Si atom -12393.025184 kJ/mol
# Density = 2.609886 g / cm^3
# Si number density = 26.158394 Si / 1000 Ang^3
#
#
#
# Elastic Constant Matrix: (Units=GPa)
#
#
# Indices 1 2 3 4 5 6 
#
# 1 48.6597 12.2902 -5.4916 0.0000 0.0000 0.0000
# 2 12.2902 234.1305 63.7319 0.0000 0.0000 0.0000
# 3 -5.4916 63.7319 295.7638 0.0000 0.0000 0.0000
# 4 0.0000 0.0000 0.0000 47.8654 0.0000 0.0000
# 5 0.0000 0.0000 0.0000 0.0000 -32.0052 0.0000
# 6 0.0000 0.0000 0.0000 0.0000 0.0000 54.7284
#
#
#
# Elastic Compliance Matrix: (Units=1/GPa)
#
#
# Indices 1 2 3 4 5 6 
#
# 1 0.020949 -0.001281 0.000665 0.000000 0.000000 0.000000
# 2 -0.001281 0.004616 -0.001018 0.000000 0.000000 0.000000
# 3 0.000665 -0.001018 0.003613 0.000000 0.000000 0.000000
# 4 0.000000 0.000000 0.000000 0.020892 0.000000 0.000000
# 5 0.000000 0.000000 0.000000 0.000000 -0.031245 0.000000
# 6 0.000000 0.000000 0.000000 0.000000 0.000000 0.018272
#
#
# Mechanical properties :
#
#
# Convention : Reuss Voigt Hill
#
# Bulk Modulus (GPa) = 38.59574 79.95725 59.27649
# Shear Modulus (GPa) = 102.03739 47.98593 75.01166
#
# Velocity S-wave (km/s) = 6.25238 4.28768 5.36080
# Velocity P-wave (km/s) = 8.17983 7.42598 7.81200
#
# Compressibility (1/GPa) = 0.02590960
#
# Stress axis : x y z
#
# Youngs Moduli (GPa) = 47.73406 216.65881 276.78906
#
# Poissons Ratio (x) = 0.27748 -0.18405
# Poissons Ratio (y) = 0.06113 0.28187
# Poissons Ratio (z) = -0.03174 0.22063
#
# Static dielectric constant tensor:
#      x y z
#    x 4.226930 0.000000 0.000000 
#    y 0.000000 4.624750 0.000000 
#    z 0.000000 0.000000 -4.366290 
# 
# 
# High freq. dielectric constant tensor:
#      x y z
#    x 2.042870 0.000000 0.000000 
#    y 0.000000 2.039390 0.000000 
#    z 0.000000 0.000000 2.099760 
# 
# From -- ./inp_files/930.got.cif
#   From: 2010.03.12/outbox.cif.g09.slc.cpg/sg54_1_cif.got.tgz:930.got - 2010.04.16 15:00:50.
