data_PCOD8222339
_publ_section_title
;
Structure prediction by ZEFSAII (Michael W. Deem and Ramdas Pophale) SiO2 
 PCOD8222339
Probable space group: P C C A
;
_chemical_formula_sum "Si O2"
_cell_formula_units_Z 32
_cell_length_a 15.649438
_cell_length_b 17.405381
_cell_length_c 5.262680
_cell_angle_alpha 90.000000
_cell_angle_beta 90.000000
_cell_angle_gamma 90.000000
_cell_volume 1433.472096
_symmetry_space_group_name_H-M "P C C A"
_symmetry_group_IT_number 54
_symmetry_cell_setting 'orthorhombic'
loop_
_space_group_symop_operation_xyz
x,y,z
1/2-x,-y,z
1/2+x,-y,1/2-z
-x,y,1/2-z
-x,-y,-z
1/2+x,y,-z
1/2-x,y,1/2+z
x,-y,1/2+z
loop_
_atom_site_type_symbol
_atom_site_label
_atom_site_fract_x
_atom_site_fract_y
_atom_site_fract_z
Si Si1 0.214092 0.414534 0.112139
Si Si2 0.054260 0.335074 0.000102
Si Si3 0.305046 0.792062 0.911397
Si Si4 0.844996 0.967237 0.106901
O O1 0.250000 0.500000 0.154607
O O2 0.262028 0.371708 0.876992
O O3 0.112544 0.410379 0.064594
O O4 0.115177 0.264162 0.940550
O O5 0.000000 0.354832 0.750000
O O6 0.000000 0.315517 0.250000
O O7 0.260862 0.778470 0.640315
O O8 0.344792 0.876476 0.928677
O O9 0.750000 0.000000 0.147624
O O10 0.892587 0.992051 0.368411
#
# Coordination Sequence:
#
# PCOD8222339 Si02
#       4
#     8   8   8   8
#     4  10  21  43  70  95 123 160 212 260 292 363
#     4  12  26  43  61  93 137 168 197 251 324 381
#     4  12  21  36  65  92 118 168 216 263 301 364
#     4  10  16  30  52  91 116 143 207 278 301 332
#
# _framework density 22.323422999999998
#
# number of rings (size 3 to 8) (size 9 to 14) (size 15 to 20)
#    0.000    1.000    5.000    4.500    0.000    0.000 
#    0.000   15.000    0.000    4.500    0.000    0.000 
#    0.000    0.000    0.000    0.000    0.000    0.000 
#
# Total GULP energy -396621.849870 kJ/mol
# GULP energy per Si atom -12394.432808 kJ/mol
# Density = 2.227261 g / cm^3
# Si number density = 22.323423 Si / 1000 Ang^3
#
#
#
# Elastic Constant Matrix: (Units=GPa)
#
#
# Indices 1 2 3 4 5 6 
#
# 1 93.6067 28.8876 44.5067 0.0000 0.0000 0.0000
# 2 28.8876 75.8297 2.0169 0.0000 0.0000 0.0000
# 3 44.5067 2.0169 213.8908 0.0000 0.0000 0.0000
# 4 0.0000 0.0000 0.0000 12.2513 0.0000 0.0000
# 5 0.0000 0.0000 0.0000 0.0000 30.2284 0.0000
# 6 0.0000 0.0000 0.0000 0.0000 0.0000 14.0035
#
#
#
# Elastic Compliance Matrix: (Units=1/GPa)
#
#
# Indices 1 2 3 4 5 6 
#
# 1 0.013577 -0.005098 -0.002777 0.000000 0.000000 0.000000
# 2 -0.005098 0.015105 0.000918 0.000000 0.000000 0.000000
# 3 -0.002777 0.000918 0.005244 0.000000 0.000000 0.000000
# 4 0.000000 0.000000 0.000000 0.081624 0.000000 0.000000
# 5 0.000000 0.000000 0.000000 0.000000 0.033081 0.000000
# 6 0.000000 0.000000 0.000000 0.000000 0.000000 0.071411
#
#
# Mechanical properties :
#
#
# Convention : Reuss Voigt Hill
#
# Bulk Modulus (GPa) = 49.96813 59.34996 54.65905
# Shear Modulus (GPa) = 20.77904 31.82438 26.30171
#
# Velocity S-wave (km/s) = 3.05424 3.77981 3.43623
# Velocity P-wave (km/s) = 5.90510 6.75969 6.34680
#
# Compressibility (1/GPa) = 0.02001276
#
# Stress axis : x y z
#
# Youngs Moduli (GPa) = 73.65559 66.20233 190.67739
#
# Poissons Ratio (x) = 0.33751 0.52951
# Poissons Ratio (y) = 0.37551 -0.17512
# Poissons Ratio (z) = 0.20454 -0.06080
#
# Static dielectric constant tensor:
#      x y z
#    x 3.578980 0.000000 0.000000 
#    y 0.000000 4.279350 0.000000 
#    z 0.000000 0.000000 5.629000 
# 
# 
# High freq. dielectric constant tensor:
#      x y z
#    x 1.837900 0.000000 0.000000 
#    y 0.000000 1.882950 0.000000 
#    z 0.000000 0.000000 1.926910 
# 
# From -- ./inp_files/386.got.cif
#   From: 2010.03.12/outbox.cif.g09.slc.cpg/sg54_1_cif.got.tgz:386.got - 2010.04.16 15:00:50.
