data_PCOD8222389
_publ_section_title
;
Structure prediction by ZEFSAII (Michael W. Deem and Ramdas Pophale) SiO2 
 PCOD8222389
Probable space group: P C C A
;
_chemical_formula_sum "Si O2"
_cell_formula_units_Z 40
_cell_length_a 5.760780
_cell_length_b 11.204172
_cell_length_c 31.216190
_cell_angle_alpha 90.000000
_cell_angle_beta 90.000000
_cell_angle_gamma 90.000000
_cell_volume 2014.841803
_symmetry_space_group_name_H-M "P C C A"
_symmetry_group_IT_number 54
_symmetry_cell_setting 'orthorhombic'
loop_
_space_group_symop_operation_xyz
x,y,z
1/2-x,-y,z
1/2+x,-y,1/2-z
-x,y,1/2-z
-x,-y,-z
1/2+x,y,-z
1/2-x,y,1/2+z
x,-y,1/2+z
loop_
_atom_site_type_symbol
_atom_site_label
_atom_site_fract_x
_atom_site_fract_y
_atom_site_fract_z
Si Si1 0.970016 0.210329 0.335339
Si Si2 0.349179 0.373286 0.211008
Si Si3 0.750000 0.000000 0.642944
Si Si4 0.099848 0.163370 0.595652
Si Si5 0.750000 0.000000 0.975405
Si Si6 0.843431 0.375003 0.626176
O O1 0.855946 0.275618 0.294465
O O2 0.770995 0.159974 0.364947
O O3 0.111822 0.307563 0.361327
O O4 0.128836 0.094886 0.324614
O O5 0.250000 0.500000 0.225815
O O6 0.500000 0.321750 0.250000
O O7 0.496089 0.393455 0.167865
O O8 0.908906 0.067188 0.608657
O O9 0.985763 0.296592 0.590926
O O10 0.234377 0.121160 0.552976
O O11 0.500000 0.000000 0.000000
O O12 0.750000 0.500000 0.606755
#
# Coordination Sequence:
#
# PCOD8222389 Si02
#       6
#     8   8   4   8   4   8
#     4  10  20  34  60  87 118 155 211 250 318 369
#     4  11  22  34  53  89 124 156 202 266 325 372
#     4  10  17  36  62  86 119 158 210 262 307 374
#     4  10  21  36  60  94 120 160 201 259 310 378
#     4  12  25  40  66 100 135 160 212 270 339 394
#     4  10  20  36  59  89 119 160 210 256 310 375
#
# _framework density 19.852675999999999
#
# number of rings (size 3 to 8) (size 9 to 14) (size 15 to 20)
#    0.000    1.600    4.000    1.200    2.800    0.000 
#    0.000    0.000    0.000    1.200  187.200    0.000 
#    0.000    0.000    0.000    0.000    0.000    0.000 
#
# Total GULP energy -495559.152718 kJ/mol
# GULP energy per Si atom -12388.978818 kJ/mol
# Density = 1.980749 g / cm^3
# Si number density = 19.852676 Si / 1000 Ang^3
#
#
#
# Elastic Constant Matrix: (Units=GPa)
#
#
# Indices 1 2 3 4 5 6 
#
# 1 111.6423 62.5382 32.1344 0.0000 0.0000 0.0000
# 2 62.5382 167.4381 44.4118 0.0000 0.0000 0.0000
# 3 32.1344 44.4118 63.2042 0.0000 0.0000 0.0000
# 4 0.0000 0.0000 0.0000 -75.9933 0.0000 0.0000
# 5 0.0000 0.0000 0.0000 0.0000 5.9018 0.0000
# 6 0.0000 0.0000 0.0000 0.0000 0.0000 44.2880
#
#
#
# Elastic Compliance Matrix: (Units=1/GPa)
#
#
# Indices 1 2 3 4 5 6 
#
# 1 0.011964 -0.003509 -0.003617 0.000000 0.000000 0.000000
# 2 -0.003509 0.008370 -0.004097 0.000000 0.000000 0.000000
# 3 -0.003617 -0.004097 0.020540 0.000000 0.000000 0.000000
# 4 0.000000 0.000000 0.000000 -0.013159 0.000000 0.000000
# 5 0.000000 0.000000 0.000000 0.000000 0.169441 0.000000
# 6 0.000000 0.000000 0.000000 0.000000 0.000000 0.022579
#
#
# Mechanical properties :
#
#
# Convention : Reuss Voigt Hill
#
# Bulk Modulus (GPa) = 54.26840 68.93928 61.60384
# Shear Modulus (GPa) = 20.13507 8.38597 14.26052
#
# Velocity S-wave (km/s) = 3.18814 2.05749 2.68305
# Velocity P-wave (km/s) = 6.39900 6.35965 6.37936
#
# Compressibility (1/GPa) = 0.01842693
#
# Stress axis : x y z
#
# Youngs Moduli (GPa) = 83.58420 119.47791 48.68655
#
# Poissons Ratio (x) = 0.41927 0.17610
# Poissons Ratio (y) = 0.29331 0.19947
# Poissons Ratio (z) = 0.30232 0.48951
#
# Static dielectric constant tensor:
#      x y z
#    x 4.015370 0.000000 0.000000 
#    y 0.000000 1.998890 0.000000 
#    z 0.000000 0.000000 3.218360 
# 
# 
# High freq. dielectric constant tensor:
#      x y z
#    x 1.806480 0.000000 0.000000 
#    y 0.000000 1.785470 0.000000 
#    z 0.000000 0.000000 1.712610 
# 
# From -- ./inp_files/27092.got.cif
#   From: 2010.03.12/outbox.cif.g09.slc.cpg/sg54_14_cif.got.tgz:27092.got - 2010.04.16 15:00:50.
