data_PCOD8222977
_publ_section_title
;
Structure prediction by ZEFSAII (Michael W. Deem and Ramdas Pophale) SiO2 
 PCOD8222977
Probable space group: P C C A
;
_chemical_formula_sum "Si O2"
_cell_formula_units_Z 44
_cell_length_a 15.337356
_cell_length_b 12.565257
_cell_length_c 10.060291
_cell_angle_alpha 90.000000
_cell_angle_beta 90.000000
_cell_angle_gamma 90.000000
_cell_volume 1938.797348
_symmetry_space_group_name_H-M "P C C A"
_symmetry_group_IT_number 54
_symmetry_cell_setting 'orthorhombic'
loop_
_space_group_symop_operation_xyz
x,y,z
1/2-x,-y,z
1/2+x,-y,1/2-z
-x,y,1/2-z
-x,-y,-z
1/2+x,y,-z
1/2-x,y,1/2+z
x,-y,1/2+z
loop_
_atom_site_type_symbol
_atom_site_label
_atom_site_fract_x
_atom_site_fract_y
_atom_site_fract_z
Si Si1 0.156152 0.543091 0.066279
Si Si2 0.866794 0.397436 0.210874
Si Si3 0.219615 0.742822 0.181657
Si Si4 0.101477 0.081775 0.789753
Si Si5 0.632571 0.899834 0.408100
Si Si6 0.500000 0.227922 0.750000
O O1 0.250000 0.500000 0.102230
O O2 0.097716 0.469427 0.164922
O O3 0.157016 0.671055 0.087610
O O4 0.132127 0.521700 0.913650
O O5 0.772595 0.341272 0.227890
O O6 0.930352 0.300981 0.177049
O O7 0.152647 0.808238 0.271613
O O8 0.285604 0.818296 0.097267
O O9 0.000000 0.092564 0.750000
O O10 0.148994 0.994618 0.696927
O O11 0.115994 0.051931 0.945050
O O12 0.543043 0.842849 0.365042
#
# Coordination Sequence:
#
# PCOD8222977 Si02
#       6
#     8   8   8   8   8   4
#     4  10  20  38  64  93 123 167 213 269 319 388
#     4  10  22  40  65  92 131 167 218 264 329 384
#     4  10  23  41  68  98 129 175 220 266 326 401
#     4  12  26  43  68 102 135 174 223 282 330 390
#     4  11  25  45  67  95 136 177 225 266 340 394
#     4  10  24  42  64  90 132 176 212 280 328 392
#
# _framework density 22.694479999999999
#
# number of rings (size 3 to 8) (size 9 to 14) (size 15 to 20)
#    0.000    1.455    0.909    3.818    2.545    8.000 
#    1.636    0.000    0.000    0.000    0.000    0.000 
#    0.000    0.000    0.000    0.000    0.000    0.000 
#
# Total GULP energy -545307.830186 kJ/mol
# GULP energy per Si atom -12393.359777 kJ/mol
# Density = 2.264283 g / cm^3
# Si number density = 22.694480 Si / 1000 Ang^3
#
#
#
# Elastic Constant Matrix: (Units=GPa)
#
#
# Indices 1 2 3 4 5 6 
#
# 1 44.8228 22.6120 22.6547 0.0000 0.0000 0.0000
# 2 22.6120 120.4301 71.8169 0.0000 0.0000 0.0000
# 3 22.6547 71.8169 169.4159 0.0000 0.0000 0.0000
# 4 0.0000 0.0000 0.0000 38.0858 0.0000 0.0000
# 5 0.0000 0.0000 0.0000 0.0000 18.8416 0.0000
# 6 0.0000 0.0000 0.0000 0.0000 0.0000 16.7782
#
#
#
# Elastic Compliance Matrix: (Units=1/GPa)
#
#
# Indices 1 2 3 4 5 6 
#
# 1 0.025055 -0.003622 -0.001815 0.000000 0.000000 0.000000
# 2 -0.003622 0.011636 -0.004448 0.000000 0.000000 0.000000
# 3 -0.001815 -0.004448 0.008031 0.000000 0.000000 0.000000
# 4 0.000000 0.000000 0.000000 0.026257 0.000000 0.000000
# 5 0.000000 0.000000 0.000000 0.000000 0.053074 0.000000
# 6 0.000000 0.000000 0.000000 0.000000 0.000000 0.059601
#
#
# Mechanical properties :
#
#
# Convention : Reuss Voigt Hill
#
# Bulk Modulus (GPa) = 40.07796 63.20399 51.64097
# Shear Modulus (GPa) = 23.61372 29.24682 26.43027
#
# Velocity S-wave (km/s) = 3.22919 3.59377 3.41634
# Velocity P-wave (km/s) = 5.62153 6.71793 6.19404
#
# Compressibility (1/GPa) = 0.02495137
#
# Stress axis : x y z
#
# Youngs Moduli (GPa) = 39.91282 85.93734 124.51645
#
# Poissons Ratio (x) = 0.31126 0.22600
# Poissons Ratio (y) = 0.14456 0.55390
# Poissons Ratio (z) = 0.07244 0.38229
#
# Static dielectric constant tensor:
#      x y z
#    x 4.025980 0.000000 0.000000 
#    y 0.000000 4.408490 0.000000 
#    z 0.000000 0.000000 4.007800 
# 
# 
# High freq. dielectric constant tensor:
#      x y z
#    x 1.882340 0.000000 0.000000 
#    y 0.000000 1.906660 0.000000 
#    z 0.000000 0.000000 1.889010 
# 
# From -- ./inp_files/8857.got.cif
#   From: 2010.03.12/outbox.cif.g09.slc.cpg/sg54_5_cif.got.tgz:8857.got - 2010.04.16 15:00:50.
