data_PCOD8222293
_publ_section_title
;
Structure prediction by ZEFSAII (Michael W. Deem and Ramdas Pophale) SiO2 
 PCOD8222293
Probable space group: P C C A
;
_chemical_formula_sum "Si O2"
_cell_formula_units_Z 64
_cell_length_a 5.289686
_cell_length_b 27.132521
_cell_length_c 35.339739
_cell_angle_alpha 90.000000
_cell_angle_beta 90.000000
_cell_angle_gamma 90.000000
_cell_volume 5072.048273
_symmetry_space_group_name_H-M "P C C A"
_symmetry_group_IT_number 54
_symmetry_cell_setting 'orthorhombic'
loop_
_space_group_symop_operation_xyz
x,y,z
1/2-x,-y,z
1/2+x,-y,1/2-z
-x,y,1/2-z
-x,-y,-z
1/2+x,y,-z
1/2-x,y,1/2+z
x,-y,1/2+z
loop_
_atom_site_type_symbol
_atom_site_label
_atom_site_fract_x
_atom_site_fract_y
_atom_site_fract_z
Si Si1 0.257881 0.058574 0.600997
Si Si2 0.094927 0.223278 0.038900
Si Si3 0.754867 0.058600 0.643532
Si Si4 0.451781 0.369640 0.475325
Si Si5 0.590167 0.735641 0.544786
Si Si6 0.251083 0.941240 0.771006
Si Si7 0.865460 0.891451 0.977792
Si Si8 0.502169 0.520849 0.542923
O O1 0.496650 0.078148 0.624913
O O2 0.290607 0.079357 0.559375
O O3 0.999189 0.078087 0.620349
O O4 0.250000 0.000000 0.598663
O O5 0.341465 0.239072 0.063096
O O6 0.122782 0.166301 0.029868
O O7 0.841301 0.238281 0.062163
O O8 0.085717 0.254637 0.000310
O O9 0.762119 0.079027 0.686234
O O10 0.750000 0.000000 0.643905
O O11 0.698928 0.367148 0.500619
O O12 0.430841 0.322902 0.447077
O O13 0.476758 0.420496 0.452779
O O14 0.500000 0.921011 0.750000
O O15 0.000000 0.921239 0.750000
O O16 0.250000 0.000000 0.770764
O O17 0.644091 0.906233 0.007428
O O18 0.750000 0.500000 0.563999
O O19 0.500000 0.500000 0.500000
O O20 0.250000 0.500000 0.563312
#
# Coordination Sequence:
#
# PCOD8222293 Si02
#       8
#     8   8   8   8   8   8   8   8
#     4  10  21  33  43  55  71  95 116 134 167 202
#     4  10  16  27  37  49  61  71  87 125 172 201
#     4   9  17  31  44  56  79  99 111 129 153 187
#     4  12  16  20  31  42  52  71  90 106 135 184
#     4  10  16  25  36  48  60  70  87 117 166 205
#     4   9  15  23  40  64  81  95 113 129 145 169
#     4  12  21  31  45  55  65  83 112 148 180 207
#     4  10  16  22  26  35  53  72  90 108 124 151
#
# _framework density 12.618178
#
# number of rings (size 3 to 8) (size 9 to 14) (size 15 to 20)
#    0.000    1.750    7.500    1.500    0.000    3.500 
#    0.000    0.000    0.000    0.000    0.000    0.000 
#    0.000    0.000    0.000    0.000    0.000    0.000 
#
# Total GULP energy -792964.514170 kJ/mol
# GULP energy per Si atom -12390.070534 kJ/mol
# Density = 1.258946 g / cm^3
# Si number density = 12.618178 Si / 1000 Ang^3
#
#
#
# Elastic Constant Matrix: (Units=GPa)
#
#
# Indices 1 2 3 4 5 6 
#
# 1 142.0440 17.5827 28.2447 0.0000 0.0000 0.0000
# 2 17.5827 25.2496 16.4479 0.0000 0.0000 0.0000
# 3 28.2447 16.4479 44.3618 0.0000 0.0000 0.0000
# 4 0.0000 0.0000 0.0000 0.1313 0.0000 0.0000
# 5 0.0000 0.0000 0.0000 0.0000 15.8723 0.0000
# 6 0.0000 0.0000 0.0000 0.0000 0.0000 15.2927
#
#
#
# Elastic Compliance Matrix: (Units=1/GPa)
#
#
# Indices 1 2 3 4 5 6 
#
# 1 0.008236 -0.003058 -0.004110 0.000000 0.000000 0.000000
# 2 -0.003058 0.053351 -0.017834 0.000000 0.000000 0.000000
# 3 -0.004110 -0.017834 0.031771 0.000000 0.000000 0.000000
# 4 0.000000 0.000000 0.000000 7.616129 0.000000 0.000000
# 5 0.000000 0.000000 0.000000 0.000000 0.063003 0.000000
# 6 0.000000 0.000000 0.000000 0.000000 0.000000 0.065391
#
#
# Mechanical properties :
#
#
# Convention : Reuss Voigt Hill
#
# Bulk Modulus (GPa) = 23.06564 37.35620 30.21092
# Shear Modulus (GPa) = 0.63272 16.21794 8.42533
#
# Velocity S-wave (km/s) = 0.70889 3.58898 2.58682
# Velocity P-wave (km/s) = 4.35768 6.84424 5.73729
#
# Compressibility (1/GPa) = 0.04335453
#
# Stress axis : x y z
#
# Youngs Moduli (GPa) = 121.42091 18.74374 31.47534
#
# Poissons Ratio (x) = 0.05731 0.12936
# Poissons Ratio (y) = 0.37128 0.56133
# Poissons Ratio (z) = 0.49903 0.33427
#
# Static dielectric constant tensor:
#      x y z
#    x 3.789900 0.000000 0.000000 
#    y 0.000000 2.598910 0.000000 
#    z 0.000000 0.000000 2.164720 
# 
# 
# High freq. dielectric constant tensor:
#      x y z
#    x 1.518900 0.000000 0.000000 
#    y 0.000000 1.456400 0.000000 
#    z 0.000000 0.000000 1.403920 
# 
# From -- ./inp_files/25564.got.cif
#   From: 2010.03.12/outbox.cif.g09.slc.cpg/sg54_13_cif.got.tgz:25564.got - 2010.04.16 15:00:50.
