data_PCOD8222955
_publ_section_title
;
Structure prediction by ZEFSAII (Michael W. Deem and Ramdas Pophale) SiO2 
 PCOD8222955
Probable space group: P C C A
;
_chemical_formula_sum "Si O2"
_cell_formula_units_Z 40
_cell_length_a 23.006810
_cell_length_b 7.785234
_cell_length_c 10.015253
_cell_angle_alpha 90.000000
_cell_angle_beta 90.000000
_cell_angle_gamma 90.000000
_cell_volume 1793.866011
_symmetry_space_group_name_H-M "P C C A"
_symmetry_group_IT_number 54
_symmetry_cell_setting 'orthorhombic'
loop_
_space_group_symop_operation_xyz
x,y,z
1/2-x,-y,z
1/2+x,-y,1/2-z
-x,y,1/2-z
-x,-y,-z
1/2+x,y,-z
1/2-x,y,1/2+z
x,-y,1/2+z
loop_
_atom_site_type_symbol
_atom_site_label
_atom_site_fract_x
_atom_site_fract_y
_atom_site_fract_z
Si Si1 0.223127 0.176725 0.872591
Si Si2 0.125566 0.022656 0.723278
Si Si3 0.131677 0.393474 0.025356
Si Si4 0.838448 0.348480 0.194678
Si Si5 0.938320 0.087226 0.521333
O O1 0.180795 0.253708 0.984153
O O2 0.270030 0.321218 0.833875
O O3 0.250000 0.000000 0.931390
O O4 0.185477 0.129027 0.739855
O O5 0.131510 0.831090 0.779166
O O6 0.105971 0.028419 0.569201
O O7 0.075899 0.094805 0.821778
O O8 0.129986 0.555420 0.927275
O O9 0.069969 0.287522 0.026768
O O10 0.150090 0.462526 0.171934
O O11 0.000000 0.000000 0.500000
#
# Coordination Sequence:
#
# PCOD8222955 Si02
#       5
#     8   8   8   8   8
#     4   9  19  34  55  83 115 151 190 236 285 340
#     4   9  20  36  58  84 111 146 193 237 285 346
#     4  10  22  36  55  85 116 153 192 233 290 352
#     4  10  21  36  54  82 120 150 183 232 287 349
#     4  10  20  38  61  84 109 146 197 248 289 333
#
# _framework density 22.298209
#
# number of rings (size 3 to 8) (size 9 to 14) (size 15 to 20)
#    0.000    2.400    0.000    1.200    0.000   13.600 
#    0.000    1.000    0.000    7.200    0.000    0.000 
#    0.000    0.000    0.000    0.000    0.000    0.000 
#
# Total GULP energy -495593.178663 kJ/mol
# GULP energy per Si atom -12389.829467 kJ/mol
# Density = 2.224746 g / cm^3
# Si number density = 22.298209 Si / 1000 Ang^3
#
#
#
# Elastic Constant Matrix: (Units=GPa)
#
#
# Indices 1 2 3 4 5 6 
#
# 1 90.8679 25.8769 -1.4171 0.0000 0.0000 0.0000
# 2 25.8769 65.3448 7.2210 0.0000 0.0000 0.0000
# 3 -1.4171 7.2210 83.7215 0.0000 0.0000 0.0000
# 4 0.0000 0.0000 0.0000 38.8980 0.0000 0.0000
# 5 0.0000 0.0000 0.0000 0.0000 23.3989 0.0000
# 6 0.0000 0.0000 0.0000 0.0000 0.0000 29.4418
#
#
#
# Elastic Compliance Matrix: (Units=1/GPa)
#
#
# Indices 1 2 3 4 5 6 
#
# 1 0.012438 -0.004996 0.000641 0.000000 0.000000 0.000000
# 2 -0.004996 0.017458 -0.001590 0.000000 0.000000 0.000000
# 3 0.000641 -0.001590 0.012092 0.000000 0.000000 0.000000
# 4 0.000000 0.000000 0.000000 0.025708 0.000000 0.000000
# 5 0.000000 0.000000 0.000000 0.000000 0.042737 0.000000
# 6 0.000000 0.000000 0.000000 0.000000 0.000000 0.033965
#
#
# Mechanical properties :
#
#
# Convention : Reuss Voigt Hill
#
# Bulk Modulus (GPa) = 33.22524 33.69954 33.46239
# Shear Modulus (GPa) = 30.06227 32.23131 31.14679
#
# Velocity S-wave (km/s) = 3.67576 3.80605 3.74147
# Velocity P-wave (km/s) = 5.74001 5.87032 5.80553
#
# Compressibility (1/GPa) = 0.03009760
#
# Stress axis : x y z
#
# Youngs Moduli (GPa) = 80.39990 57.28110 82.69673
#
# Poissons Ratio (x) = 0.28620 -0.05305
# Poissons Ratio (y) = 0.40171 0.13151
# Poissons Ratio (z) = -0.05157 0.09109
#
# Static dielectric constant tensor:
#      x y z
#    x 3.883340 0.000000 0.000000 
#    y 0.000000 3.933260 0.000000 
#    z 0.000000 0.000000 4.192930 
# 
# 
# High freq. dielectric constant tensor:
#      x y z
#    x 1.848050 0.000000 0.000000 
#    y 0.000000 1.870860 0.000000 
#    z 0.000000 0.000000 1.882650 
# 
# From -- ./inp_files/5028.got.cif
#   From: 2010.03.12/outbox.cif.g09.slc.cpg/sg54_3_cif.got.tgz:5028.got - 2010.04.16 15:00:50.
