data_PCOD8222654
_publ_section_title
;
Structure prediction by ZEFSAII (Michael W. Deem and Ramdas Pophale) SiO2 
 PCOD8222654
Probable space group: P C C A
;
_chemical_formula_sum "Si O2"
_cell_formula_units_Z 52
_cell_length_a 14.783603
_cell_length_b 20.002135
_cell_length_c 9.162630
_cell_angle_alpha 90.000000
_cell_angle_beta 90.000000
_cell_angle_gamma 90.000000
_cell_volume 2709.422887
_symmetry_space_group_name_H-M "P C C A"
_symmetry_group_IT_number 54
_symmetry_cell_setting 'orthorhombic'
loop_
_space_group_symop_operation_xyz
x,y,z
1/2-x,-y,z
1/2+x,-y,1/2-z
-x,y,1/2-z
-x,-y,-z
1/2+x,y,-z
1/2-x,y,1/2+z
x,-y,1/2+z
loop_
_atom_site_type_symbol
_atom_site_label
_atom_site_fract_x
_atom_site_fract_y
_atom_site_fract_z
Si Si1 0.126389 0.183414 0.119299
Si Si2 0.326919 0.666479 0.114407
Si Si3 0.750000 0.000000 0.174349
Si Si4 0.010679 0.430312 0.079321
Si Si5 0.144102 0.666216 0.954283
Si Si6 0.795891 0.091832 0.925913
Si Si7 0.076127 0.810502 0.949333
O O1 0.149914 0.258049 0.064463
O O2 0.123748 0.178171 0.293597
O O3 0.028218 0.167872 0.052605
O O4 0.198487 0.128950 0.062929
O O5 0.397059 0.611642 0.050061
O O6 0.324023 0.664381 0.288015
O O7 0.228033 0.649508 0.056947
O O8 0.688443 0.955017 0.067787
O O9 0.808496 0.951760 0.279528
O O10 0.000000 0.441969 0.250000
O O11 0.928212 0.389919 0.012071
O O12 0.000000 0.500000 0.000000
O O13 0.092017 0.734253 0.994134
O O14 0.875574 0.145705 0.926349
#
# Coordination Sequence:
#
# PCOD8222654 Si02
#       7
#     8   8   4   8   8   8   8
#     4  10  19  35  62  90 114 150 197 243 292 339
#     4  10  20  36  60  89 118 151 197 244 289 343
#     4  10  24  38  58  86 124 152 190 230 298 358
#     4  10  22  40  60  84 124 163 193 236 294 351
#     4  10  20  36  60  89 118 151 197 244 289 343
#     4  11  20  40  60  84 117 160 186 240 291 350
#     4  10  19  35  62  90 114 150 197 243 292 339
#
# _framework density 19.19228
#
# number of rings (size 3 to 8) (size 9 to 14) (size 15 to 20)
#    0.000    1.846    4.615    0.000    0.000    1.846 
#    0.000    8.462    0.000    0.000    0.000    0.000 
#    0.000    0.000    0.000    0.000    0.000    0.000 
#
# Total GULP energy -644627.309133 kJ/mol
# GULP energy per Si atom -12396.679022 kJ/mol
# Density = 1.914860 g / cm^3
# Si number density = 19.192280 Si / 1000 Ang^3
#
#
#
# Elastic Constant Matrix: (Units=GPa)
#
#
# Indices 1 2 3 4 5 6 
#
# 1 104.2031 45.0435 16.0208 0.0000 0.0000 0.0000
# 2 45.0435 131.7441 37.2327 0.0000 0.0000 0.0000
# 3 16.0208 37.2327 45.8877 0.0000 0.0000 0.0000
# 4 0.0000 0.0000 0.0000 35.1422 0.0000 0.0000
# 5 0.0000 0.0000 0.0000 0.0000 30.2323 0.0000
# 6 0.0000 0.0000 0.0000 0.0000 0.0000 18.1078
#
#
#
# Elastic Compliance Matrix: (Units=1/GPa)
#
#
# Indices 1 2 3 4 5 6 
#
# 1 0.011300 -0.003566 -0.001052 0.000000 0.000000 0.000000
# 2 -0.003566 0.010974 -0.007659 0.000000 0.000000 0.000000
# 3 -0.001052 -0.007659 0.028374 0.000000 0.000000 0.000000
# 4 0.000000 0.000000 0.000000 0.028456 0.000000 0.000000
# 5 0.000000 0.000000 0.000000 0.000000 0.033077 0.000000
# 6 0.000000 0.000000 0.000000 0.000000 0.000000 0.055225
#
#
# Mechanical properties :
#
#
# Convention : Reuss Voigt Hill
#
# Bulk Modulus (GPa) = 38.32283 53.15876 45.74079
# Shear Modulus (GPa) = 24.91790 28.93231 26.92511
#
# Velocity S-wave (km/s) = 3.60714 3.88686 3.74961
# Velocity P-wave (km/s) = 6.11227 6.92111 6.52922
#
# Compressibility (1/GPa) = 0.02609411
#
# Stress axis : x y z
#
# Youngs Moduli (GPa) = 88.49639 91.12075 35.24332
#
# Poissons Ratio (x) = 0.32496 0.03706
# Poissons Ratio (y) = 0.31560 0.26994
# Poissons Ratio (z) = 0.09305 0.69793
#
# Static dielectric constant tensor:
#      x y z
#    x 3.400590 0.000000 0.000000 
#    y 0.000000 3.703570 0.000000 
#    z 0.000000 0.000000 3.350060 
# 
# 
# High freq. dielectric constant tensor:
#      x y z
#    x 1.738930 0.000000 0.000000 
#    y 0.000000 1.759290 0.000000 
#    z 0.000000 0.000000 1.732000 
# 
# From -- ./inp_files/3654.got.cif
#   From: 2010.03.12/outbox.cif.g09.slc.cpg/sg54_2_cif.got.tgz:3654.got - 2010.04.16 15:00:50.
