data_PCOD8222116
_publ_section_title
;
Structure prediction by ZEFSAII (Michael W. Deem and Ramdas Pophale) SiO2 
 PCOD8222116
Probable space group: P M N A
;
_chemical_formula_sum "Si O2"
_cell_formula_units_Z 56
_cell_length_a 20.452720
_cell_length_b 14.931319
_cell_length_c 9.011864
_cell_angle_alpha 90.000000
_cell_angle_beta 90.000000
_cell_angle_gamma 90.000000
_cell_volume 2752.097881
_symmetry_space_group_name_H-M "P M N A"
_symmetry_group_IT_number 53
_symmetry_cell_setting 'orthorhombic'
loop_
_space_group_symop_operation_xyz
x,y,z
1/2-x,-y,1/2+z
x,-y,-z
1/2-x,y,1/2-z
-x,-y,-z
1/2+x,y,1/2-z
-x,y,z
1/2+x,-y,1/2+z
loop_
_atom_site_type_symbol
_atom_site_label
_atom_site_fract_x
_atom_site_fract_y
_atom_site_fract_z
Si Si1 0.740108 0.586134 0.920089
Si Si2 0.180302 0.909586 0.573801
Si Si3 0.120630 0.591348 0.067300
Si Si4 0.574152 0.245394 0.402671
Si Si5 0.171389 0.089168 0.078348
Si Si6 0.426415 0.422273 0.886429
Si Si7 0.874243 0.277070 0.421221
O O1 0.750000 0.559768 0.750000
O O2 0.695192 0.673114 0.929919
O O3 0.707426 0.500000 0.000000
O O4 0.807130 0.609579 0.004339
O O5 0.254916 0.889800 0.522839
O O6 0.173729 0.925345 0.747290
O O7 0.135948 0.825209 0.525496
O O8 0.152925 0.000000 0.500000
O O9 0.121757 0.580382 0.245423
O O10 0.091536 0.500000 0.000000
O O11 0.074797 0.673499 0.019722
O O12 0.500000 0.208941 0.389749
O O13 0.621838 0.168267 0.464094
O O14 0.598504 0.282010 0.244853
O O15 0.144650 0.000000 0.000000
O O16 0.500000 0.439528 0.830335
O O17 0.404337 0.500000 0.000000
O O18 0.424354 0.326505 0.969753
#
# Coordination Sequence:
#
# PCOD8222116 Si02
#       7
#     8   8   8   8   8   8   8
#     4  11  24  39  62  92 126 158 200 256 318 373
#     4   9  19  36  60  87 115 153 195 246 313 384
#     4  11  24  40  61  86 119 160 201 254 307 365
#     4  11  22  38  61  88 117 161 211 250 301 372
#     4   9  19  36  60  85 118 150 192 251 314 368
#     4  11  25  42  60  86 124 168 213 256 302 364
#     4  11  22  38  63  86 122 160 204 253 317 368
#
# _framework density 20.348113999999999
#
# number of rings (size 3 to 8) (size 9 to 14) (size 15 to 20)
#    0.000    1.571    1.429    3.000    8.000    3.714 
#    0.000    2.857    0.000   10.714    0.000    0.000 
#    0.000    0.000    0.000    0.000    0.000    0.000 
#
# Total GULP energy -694456.558930 kJ/mol
# GULP energy per Si atom -12401.009981 kJ/mol
# Density = 2.030180 g / cm^3
# Si number density = 20.348114 Si / 1000 Ang^3
#
#
#
# Elastic Constant Matrix: (Units=GPa)
#
#
# Indices 1 2 3 4 5 6 
#
# 1 91.4218 37.4550 33.7509 0.0000 0.0000 0.0000
# 2 37.4550 152.7960 47.4796 0.0000 0.0000 0.0000
# 3 33.7509 47.4796 95.4330 0.0000 0.0000 0.0000
# 4 0.0000 0.0000 0.0000 40.1619 0.0000 0.0000
# 5 0.0000 0.0000 0.0000 0.0000 25.3961 0.0000
# 6 0.0000 0.0000 0.0000 0.0000 0.0000 20.8444
#
#
#
# Elastic Compliance Matrix: (Units=1/GPa)
#
#
# Indices 1 2 3 4 5 6 
#
# 1 0.013127 -0.002100 -0.003598 0.000000 0.000000 0.000000
# 2 -0.002100 0.008077 -0.003276 0.000000 0.000000 0.000000
# 3 -0.003598 -0.003276 0.013381 0.000000 0.000000 0.000000
# 4 0.000000 0.000000 0.000000 0.024899 0.000000 0.000000
# 5 0.000000 0.000000 0.000000 0.000000 0.039376 0.000000
# 6 0.000000 0.000000 0.000000 0.000000 0.000000 0.047974
#
#
# Mechanical properties :
#
#
# Convention : Reuss Voigt Hill
#
# Bulk Modulus (GPa) = 60.10393 64.11353 62.10873
# Shear Modulus (GPa) = 29.35516 32.01153 30.68334
#
# Velocity S-wave (km/s) = 3.80234 3.97065 3.88741
# Velocity P-wave (km/s) = 6.99135 7.25246 7.12310
#
# Compressibility (1/GPa) = 0.01663785
#
# Stress axis : x y z
#
# Youngs Moduli (GPa) = 76.18005 123.80234 74.73395
#
# Poissons Ratio (x) = 0.25996 0.26887
# Poissons Ratio (y) = 0.15997 0.24483
# Poissons Ratio (z) = 0.27407 0.40558
#
# Static dielectric constant tensor:
#      x y z
#    x 3.624750 0.000000 0.000000 
#    y 0.000000 3.814990 0.000000 
#    z 0.000000 0.000000 3.658150 
# 
# 
# High freq. dielectric constant tensor:
#      x y z
#    x 1.791080 0.000000 0.000000 
#    y 0.000000 1.795780 0.000000 
#    z 0.000000 0.000000 1.790490 
# 
# From -- ./inp_files/11077.got.cif
#   From: 2010.03.12/outbox.cif.g09.slc.cpg/sg53_6_cif.got.tgz:11077.got - 2010.04.16 14:36:59.
