data_PCOD8222751
_publ_section_title
;
Structure prediction by ZEFSAII (Michael W. Deem and Ramdas Pophale) SiO2 
 PCOD8222751
Probable space group: P C C A
;
_chemical_formula_sum "Si O2"
_cell_formula_units_Z 48
_cell_length_a 14.036379
_cell_length_b 6.314347
_cell_length_c 26.452410
_cell_angle_alpha 90.000000
_cell_angle_beta 90.000000
_cell_angle_gamma 90.000000
_cell_volume 2344.492113
_symmetry_space_group_name_H-M "P C C A"
_symmetry_group_IT_number 54
_symmetry_cell_setting 'orthorhombic'
loop_
_space_group_symop_operation_xyz
x,y,z
1/2-x,-y,z
1/2+x,-y,1/2-z
-x,y,1/2-z
-x,-y,-z
1/2+x,y,-z
1/2-x,y,1/2+z
x,-y,1/2+z
loop_
_atom_site_type_symbol
_atom_site_label
_atom_site_fract_x
_atom_site_fract_y
_atom_site_fract_z
Si Si1 0.992464 0.005883 0.919035
Si Si2 0.250000 0.500000 0.968978
Si Si3 0.869765 0.677723 0.615523
Si Si4 0.848811 0.069628 0.211253
Si Si5 0.500000 0.384558 0.750000
Si Si6 0.960919 0.304025 0.665910
Si Si7 0.651519 0.116327 0.000197
O O1 0.973335 0.176067 0.874175
O O2 0.027006 0.781515 0.896237
O O3 0.076911 0.090465 0.954568
O O4 0.893949 0.969534 0.948291
O O5 0.305754 0.328745 0.934550
O O6 0.323948 0.632310 0.003570
O O7 0.819588 0.822769 0.657882
O O8 0.882293 0.437258 0.634761
O O9 0.906342 0.238458 0.245001
O O10 0.750000 0.000000 0.238344
O O11 0.911178 0.860317 0.203531
O O12 0.480871 0.529246 0.700502
O O13 0.750000 0.000000 0.010586
#
# Coordination Sequence:
#
# PCOD8222751 Si02
#       7
#     8   4   8   8   4   8   8
#     4  10  22  38  58  87 125 169 202 255 313 367
#     4  12  20  32  56  90 124 158 208 262 302 370
#     4  10  20  32  57  89 121 157 202 248 315 361
#     4  10  21  36  61  92 126 158 199 255 317 369
#     4  10  22  38  62  96 124 160 206 258 312 374
#     4  10  20  39  63  89 126 159 206 258 313 366
#     4  11  23  37  57  88 127 163 208 254 310 373
#
# _framework density 20.473517999999999
#
# number of rings (size 3 to 8) (size 9 to 14) (size 15 to 20)
#    0.000    1.667    3.333    1.500    2.333    4.000 
#    0.000    0.000    0.000   24.000    0.000    0.000 
#    0.000    0.000    0.000    0.000    0.000    0.000 
#
# Total GULP energy -595024.329118 kJ/mol
# GULP energy per Si atom -12396.340190 kJ/mol
# Density = 2.042692 g / cm^3
# Si number density = 20.473518 Si / 1000 Ang^3
#
#
#
# Elastic Constant Matrix: (Units=GPa)
#
#
# Indices 1 2 3 4 5 6 
#
# 1 97.6386 56.0468 54.5581 0.0000 0.0000 0.0000
# 2 56.0468 135.6546 51.9424 0.0000 0.0000 0.0000
# 3 54.5581 51.9424 86.6850 0.0000 0.0000 0.0000
# 4 0.0000 0.0000 0.0000 26.7732 0.0000 0.0000
# 5 0.0000 0.0000 0.0000 0.0000 24.3191 0.0000
# 6 0.0000 0.0000 0.0000 0.0000 0.0000 26.5028
#
#
#
# Elastic Compliance Matrix: (Units=1/GPa)
#
#
# Indices 1 2 3 4 5 6 
#
# 1 0.017217 -0.003847 -0.008531 0.000000 0.000000 0.000000
# 2 -0.003847 0.010426 -0.003826 0.000000 0.000000 0.000000
# 3 -0.008531 -0.003826 0.019198 0.000000 0.000000 0.000000
# 4 0.000000 0.000000 0.000000 0.037351 0.000000 0.000000
# 5 0.000000 0.000000 0.000000 0.000000 0.041120 0.000000
# 6 0.000000 0.000000 0.000000 0.000000 0.000000 0.037732
#
#
# Mechanical properties :
#
#
# Convention : Reuss Voigt Hill
#
# Bulk Modulus (GPa) = 69.28632 71.67475 70.48053
# Shear Modulus (GPa) = 24.96718 26.01440 25.49079
#
# Velocity S-wave (km/s) = 3.49590 3.56847 3.53237
# Velocity P-wave (km/s) = 7.08594 7.21548 7.15100
#
# Compressibility (1/GPa) = 0.01443286
#
# Stress axis : x y z
#
# Youngs Moduli (GPa) = 58.08247 95.91329 52.08863
#
# Poissons Ratio (x) = 0.36896 0.44437
# Poissons Ratio (y) = 0.22343 0.19931
# Poissons Ratio (z) = 0.49550 0.36699
#
# Static dielectric constant tensor:
#      x y z
#    x 3.429660 0.000000 0.000000 
#    y 0.000000 4.020240 0.000000 
#    z 0.000000 0.000000 3.627080 
# 
# 
# High freq. dielectric constant tensor:
#      x y z
#    x 1.766880 0.000000 0.000000 
#    y 0.000000 1.826080 0.000000 
#    z 0.000000 0.000000 1.779890 
# 
# From -- ./inp_files/26512.got.cif
#   From: 2010.03.12/outbox.cif.g09.slc.cpg/sg54_14_cif.got.tgz:26512.got - 2010.04.16 15:00:50.
