data_PCOD8222489
_publ_section_title
;
Structure prediction by ZEFSAII (Michael W. Deem and Ramdas Pophale) SiO2 
 PCOD8222489
Probable space group: P C C A
;
_chemical_formula_sum "Si O2"
_cell_formula_units_Z 48
_cell_length_a 9.724979
_cell_length_b 8.668313
_cell_length_c 28.720493
_cell_angle_alpha 90.000000
_cell_angle_beta 90.000000
_cell_angle_gamma 90.000000
_cell_volume 2421.113489
_symmetry_space_group_name_H-M "P C C A"
_symmetry_group_IT_number 54
_symmetry_cell_setting 'orthorhombic'
loop_
_space_group_symop_operation_xyz
x,y,z
1/2-x,-y,z
1/2+x,-y,1/2-z
-x,y,1/2-z
-x,-y,-z
1/2+x,y,-z
1/2-x,y,1/2+z
x,-y,1/2+z
loop_
_atom_site_type_symbol
_atom_site_label
_atom_site_fract_x
_atom_site_fract_y
_atom_site_fract_z
Si Si1 0.750000 0.500000 0.101994
Si Si2 0.311064 0.831072 0.035957
Si Si3 0.880111 0.745367 0.541073
Si Si4 0.500000 0.646789 0.750000
Si Si5 0.750000 0.500000 0.292694
Si Si6 0.926572 0.249053 0.650773
Si Si7 0.220043 0.666068 0.120127
Si Si8 0.250000 0.000000 0.893723
O O1 0.633571 0.585408 0.070147
O O2 0.680591 0.380343 0.136966
O O3 0.469144 0.796119 0.022783
O O4 0.300037 0.794698 0.090938
O O5 0.250000 0.000000 0.025994
O O6 0.216412 0.721265 0.004134
O O7 0.826626 0.880930 0.573583
O O8 0.379058 0.527741 0.739485
O O9 0.540353 0.751981 0.705930
O O10 0.776040 0.350176 0.326501
O O11 0.864309 0.082199 0.638530
O O12 0.061336 0.283992 0.620407
O O13 0.250000 0.500000 0.095443
#
# Coordination Sequence:
#
# PCOD8222489 Si02
#       8
#     4   8   8   4   4   8   8   4
#     4  10  23  37  60  92 120 156 200 249 311 354
#     4  12  24  38  59  85 121 162 207 245 295 361
#     4  11  25  38  60  86 120 161 206 247 296 353
#     4  10  18  36  66  90 118 146 200 244 320 356
#     4   8  19  35  62  90 116 148 188 251 305 364
#     4  10  20  38  64  86 120 156 194 250 306 368
#     4   9  20  37  59  85 118 156 195 246 305 345
#     4  10  22  42  58  84 124 158 198 240 304 360
#
# _framework density 19.825589999999998
#
# number of rings (size 3 to 8) (size 9 to 14) (size 15 to 20)
#    0.500    1.333    0.833    3.000    5.833    0.667 
#    0.000    0.000   14.667    2.000    0.000    0.000 
#    0.000    0.000    0.000    0.000    0.000    0.000 
#
# Total GULP energy -594768.168487 kJ/mol
# GULP energy per Si atom -12391.003510 kJ/mol
# Density = 1.978047 g / cm^3
# Si number density = 19.825590 Si / 1000 Ang^3
#
#
#
# Elastic Constant Matrix: (Units=GPa)
#
#
# Indices 1 2 3 4 5 6 
#
# 1 131.6636 30.0456 47.6351 0.0000 0.0000 0.0000
# 2 30.0456 69.0239 25.9911 0.0000 0.0000 0.0000
# 3 47.6351 25.9911 98.6625 0.0000 0.0000 0.0000
# 4 0.0000 0.0000 0.0000 21.3328 0.0000 0.0000
# 5 0.0000 0.0000 0.0000 0.0000 33.4473 0.0000
# 6 0.0000 0.0000 0.0000 0.0000 0.0000 37.9646
#
#
#
# Elastic Compliance Matrix: (Units=1/GPa)
#
#
# Indices 1 2 3 4 5 6 
#
# 1 0.009639 -0.002713 -0.003939 0.000000 0.000000 0.000000
# 2 -0.002713 0.016846 -0.003128 0.000000 0.000000 0.000000
# 3 -0.003939 -0.003128 0.012862 0.000000 0.000000 0.000000
# 4 0.000000 0.000000 0.000000 0.046876 0.000000 0.000000
# 5 0.000000 0.000000 0.000000 0.000000 0.029898 0.000000
# 6 0.000000 0.000000 0.000000 0.000000 0.000000 0.026340
#
#
# Mechanical properties :
#
#
# Convention : Reuss Voigt Hill
#
# Bulk Modulus (GPa) = 50.53826 56.29927 53.41877
# Shear Modulus (GPa) = 29.65283 31.59414 30.62348
#
# Velocity S-wave (km/s) = 3.87160 3.99633 3.93446
# Velocity P-wave (km/s) = 6.74778 7.05359 6.90238
#
# Compressibility (1/GPa) = 0.01978699
#
# Stress axis : x y z
#
# Youngs Moduli (GPa) = 103.74127 59.35961 77.75060
#
# Poissons Ratio (x) = 0.16102 0.30629
# Poissons Ratio (y) = 0.28140 0.24323
# Poissons Ratio (z) = 0.40868 0.18569
#
# Static dielectric constant tensor:
#      x y z
#    x 3.681740 0.000000 0.000000 
#    y 0.000000 3.573260 0.000000 
#    z 0.000000 0.000000 3.608090 
# 
# 
# High freq. dielectric constant tensor:
#      x y z
#    x 1.778270 0.000000 0.000000 
#    y 0.000000 1.755320 0.000000 
#    z 0.000000 0.000000 1.775430 
# 
# From -- ./inp_files/27855.got.cif
#   From: 2010.03.12/outbox.cif.g09.slc.cpg/sg54_14_cif.got.tgz:27855.got - 2010.04.16 15:00:50.
