data_PCOD8222416
_publ_section_title
;
Structure prediction by ZEFSAII (Michael W. Deem and Ramdas Pophale) SiO2 
 PCOD8222416
Probable space group: P C C A
;
_chemical_formula_sum "Si O2"
_cell_formula_units_Z 56
_cell_length_a 21.432148
_cell_length_b 8.960872
_cell_length_c 14.920688
_cell_angle_alpha 90.000000
_cell_angle_beta 90.000000
_cell_angle_gamma 90.000000
_cell_volume 2865.529096
_symmetry_space_group_name_H-M "P C C A"
_symmetry_group_IT_number 54
_symmetry_cell_setting 'orthorhombic'
loop_
_space_group_symop_operation_xyz
x,y,z
1/2-x,-y,z
1/2+x,-y,1/2-z
-x,y,1/2-z
-x,-y,-z
1/2+x,y,-z
1/2-x,y,1/2+z
x,-y,1/2+z
loop_
_atom_site_type_symbol
_atom_site_label
_atom_site_fract_x
_atom_site_fract_y
_atom_site_fract_z
Si Si1 0.092642 0.972845 0.112205
Si Si2 0.685896 0.925628 0.039086
Si Si3 0.017650 0.162490 0.343729
Si Si4 0.051821 0.640973 0.125951
Si Si5 0.587471 0.389008 0.175804
Si Si6 0.622305 0.940899 0.696657
Si Si7 0.115023 0.360851 0.447820
O O1 0.054497 0.819057 0.116586
O O2 0.138401 0.968671 0.198794
O O3 0.132378 0.993536 0.023166
O O4 0.045856 0.112856 0.107622
O O5 0.676924 0.743982 0.036988
O O6 0.750000 0.000000 0.004741
O O7 0.676079 0.977746 0.140896
O O8 0.057645 0.264659 0.408674
O O9 0.000000 0.246787 0.250000
O O10 0.054359 0.011807 0.318595
O O11 0.082181 0.578827 0.217938
O O12 0.979191 0.598176 0.125893
O O13 0.090726 0.570751 0.042540
O O14 0.620241 0.229859 0.165234
O O15 0.631167 0.509485 0.123963
#
# Coordination Sequence:
#
# PCOD8222416 Si02
#       7
#     8   8   8   8   8   8   8
#     4   9  17  33  55  78 105 140 176 218 264 329
#     4  10  22  37  53  75 102 139 188 230 261 302
#     4   9  17  30  50  80 113 135 171 215 269 326
#     4   9  18  30  50  75 113 141 168 202 267 336
#     4  10  18  32  49  77 110 143 168 207 270 331
#     4   9  18  33  54  77 105 142 172 215 271 328
#     4  10  21  32  51  79 110 140 175 220 261 321
#
# _framework density 19.542636999999999
#
# number of rings (size 3 to 8) (size 9 to 14) (size 15 to 20)
#    0.000    2.571    1.429    0.429    4.000    2.286 
#    0.000    0.714    0.000    0.000    0.000    6.000 
#    0.000    0.000    0.000    0.000    0.000    0.000 
#
# Total GULP energy -693953.290523 kJ/mol
# GULP energy per Si atom -12392.023045 kJ/mol
# Density = 1.949816 g / cm^3
# Si number density = 19.542637 Si / 1000 Ang^3
#
#
#
# Elastic Constant Matrix: (Units=GPa)
#
#
# Indices 1 2 3 4 5 6 
#
# 1 44.9653 12.5831 9.3684 0.0000 0.0000 0.0000
# 2 12.5831 60.9201 23.5277 0.0000 0.0000 0.0000
# 3 9.3684 23.5277 88.9579 0.0000 0.0000 0.0000
# 4 0.0000 0.0000 0.0000 31.4139 0.0000 0.0000
# 5 0.0000 0.0000 0.0000 0.0000 15.5830 0.0000
# 6 0.0000 0.0000 0.0000 0.0000 0.0000 21.0761
#
#
#
# Elastic Compliance Matrix: (Units=1/GPa)
#
#
# Indices 1 2 3 4 5 6 
#
# 1 0.023746 -0.004387 -0.001340 0.000000 0.000000 0.000000
# 2 -0.004387 0.019093 -0.004588 0.000000 0.000000 0.000000
# 3 -0.001340 -0.004588 0.012596 0.000000 0.000000 0.000000
# 4 0.000000 0.000000 0.000000 0.031833 0.000000 0.000000
# 5 0.000000 0.000000 0.000000 0.000000 0.064173 0.000000
# 6 0.000000 0.000000 0.000000 0.000000 0.000000 0.047447
#
#
# Mechanical properties :
#
#
# Convention : Reuss Voigt Hill
#
# Bulk Modulus (GPa) = 28.73197 31.75575 30.24386
# Shear Modulus (GPa) = 21.63381 23.57221 22.60301
#
# Velocity S-wave (km/s) = 3.33078 3.47680 3.40457
# Velocity P-wave (km/s) = 5.43380 5.69230 5.56455
#
# Compressibility (1/GPa) = 0.03480444
#
# Stress axis : x y z
#
# Youngs Moduli (GPa) = 42.11177 52.37548 79.39152
#
# Poissons Ratio (x) = 0.22978 0.10642
# Poissons Ratio (y) = 0.18475 0.36422
# Poissons Ratio (z) = 0.05645 0.24028
#
# Static dielectric constant tensor:
#      x y z
#    x 3.120430 0.000000 0.000000 
#    y 0.000000 3.453490 0.000000 
#    z 0.000000 0.000000 3.931590 
# 
# 
# High freq. dielectric constant tensor:
#      x y z
#    x 1.702510 0.000000 0.000000 
#    y 0.000000 1.746470 0.000000 
#    z 0.000000 0.000000 1.782430 
# 
# From -- ./inp_files/14679.got.cif
#   From: 2010.03.12/outbox.cif.g09.slc.cpg/sg54_8_cif.got.tgz:14679.got - 2010.04.16 15:00:50.
