data_PCOD8222873
_publ_section_title
;
Structure prediction by ZEFSAII (Michael W. Deem and Ramdas Pophale) SiO2 
 PCOD8222873
Probable space group: P C C A
;
_chemical_formula_sum "Si O2"
_cell_formula_units_Z 48
_cell_length_a 9.452918
_cell_length_b 15.168458
_cell_length_c 16.459304
_cell_angle_alpha 90.000000
_cell_angle_beta 90.000000
_cell_angle_gamma 90.000000
_cell_volume 2360.036885
_symmetry_space_group_name_H-M "P C C A"
_symmetry_group_IT_number 54
_symmetry_cell_setting 'orthorhombic'
loop_
_space_group_symop_operation_xyz
x,y,z
1/2-x,-y,z
1/2+x,-y,1/2-z
-x,y,1/2-z
-x,-y,-z
1/2+x,y,-z
1/2-x,y,1/2+z
x,-y,1/2+z
loop_
_atom_site_type_symbol
_atom_site_label
_atom_site_fract_x
_atom_site_fract_y
_atom_site_fract_z
Si Si1 0.832998 0.177179 0.414308
Si Si2 0.966523 0.313779 0.155716
Si Si3 0.906321 0.987121 0.823159
Si Si4 0.453851 0.816293 0.661161
Si Si5 0.812154 0.278697 0.564776
Si Si6 0.885795 0.443002 0.453742
O O1 0.888708 0.077260 0.401069
O O2 0.711999 0.202648 0.349453
O O3 0.769497 0.197290 0.504264
O O4 0.966623 0.237694 0.398518
O O5 0.800252 0.302593 0.135201
O O6 0.000000 0.301136 0.250000
O O7 0.035059 0.406096 0.126564
O O8 0.000000 0.945456 0.750000
O O9 0.750000 0.000000 0.785258
O O10 0.977743 0.078508 0.853787
O O11 0.500000 0.788743 0.750000
O O12 0.540556 0.753158 0.602165
O O13 0.832964 0.366193 0.512578
O O14 0.750000 0.500000 0.426038
O O15 0.000000 0.500000 0.500000
#
# Coordination Sequence:
#
# PCOD8222873 Si02
#       6
#     8   8   8   8   8   8
#     4  10  20  36  61  86 122 166 205 250 302 361
#     4  11  23  40  62  94 122 156 208 251 305 368
#     4   9  19  35  56  86 126 166 208 254 304 355
#     4  10  21  38  58  88 124 164 207 249 305 361
#     4  11  23  40  64  88 122 160 202 251 307 371
#     4  11  23  45  67  87 122 159 196 250 313 371
#
# _framework density 20.338666
#
# number of rings (size 3 to 8) (size 9 to 14) (size 15 to 20)
#    0.000    1.667    1.667    3.500    2.333    3.333 
#    3.000    1.667    0.000    0.000    0.000    0.000 
#    0.000    0.000    0.000    0.000    0.000    0.000 
#
# Total GULP energy -594875.669668 kJ/mol
# GULP energy per Si atom -12393.243118 kJ/mol
# Density = 2.029237 g / cm^3
# Si number density = 20.338666 Si / 1000 Ang^3
#
#
#
# Elastic Constant Matrix: (Units=GPa)
#
#
# Indices 1 2 3 4 5 6 
#
# 1 79.0025 25.9476 6.3437 0.0000 0.0000 0.0000
# 2 25.9476 76.7978 23.5128 0.0000 0.0000 0.0000
# 3 6.3437 23.5128 79.3443 0.0000 0.0000 0.0000
# 4 0.0000 0.0000 0.0000 26.9883 0.0000 0.0000
# 5 0.0000 0.0000 0.0000 0.0000 35.1296 0.0000
# 6 0.0000 0.0000 0.0000 0.0000 0.0000 37.1433
#
#
#
# Elastic Compliance Matrix: (Units=1/GPa)
#
#
# Indices 1 2 3 4 5 6 
#
# 1 0.014245 -0.004910 0.000316 0.000000 0.000000 0.000000
# 2 -0.004910 0.016013 -0.004353 0.000000 0.000000 0.000000
# 3 0.000316 -0.004353 0.013868 0.000000 0.000000 0.000000
# 4 0.000000 0.000000 0.000000 0.037053 0.000000 0.000000
# 5 0.000000 0.000000 0.000000 0.000000 0.028466 0.000000
# 6 0.000000 0.000000 0.000000 0.000000 0.000000 0.026923
#
#
# Mechanical properties :
#
#
# Convention : Reuss Voigt Hill
#
# Bulk Modulus (GPa) = 38.12001 38.52807 38.32404
# Shear Modulus (GPa) = 30.63644 31.80828 31.22236
#
# Velocity S-wave (km/s) = 3.88534 3.95895 3.92232
# Velocity P-wave (km/s) = 6.23788 6.31523 6.27667
#
# Compressibility (1/GPa) = 0.02623294
#
# Stress axis : x y z
#
# Youngs Moduli (GPa) = 70.20008 62.45055 72.10905
#
# Poissons Ratio (x) = 0.30661 -0.02279
# Poissons Ratio (y) = 0.34466 0.31386
# Poissons Ratio (z) = -0.02219 0.27182
#
# Static dielectric constant tensor:
#      x y z
#    x 3.787830 0.000000 0.000000 
#    y 0.000000 3.967760 0.000000 
#    z 0.000000 0.000000 3.670700 
# 
# 
# High freq. dielectric constant tensor:
#      x y z
#    x 1.806530 0.000000 0.000000 
#    y 0.000000 1.793700 0.000000 
#    z 0.000000 0.000000 1.779120 
# 
# From -- ./inp_files/16626.got.cif
#   From: 2010.03.12/outbox.cif.g09.slc.cpg/sg54_9_cif.got.tgz:16626.got - 2010.04.16 15:00:50.
