data_PCOD8222740
_publ_section_title
;
Structure prediction by ZEFSAII (Michael W. Deem and Ramdas Pophale) SiO2 
 PCOD8222740
Probable space group: P C C A
;
_chemical_formula_sum "Si O2"
_cell_formula_units_Z 56
_cell_length_a 15.248466
_cell_length_b 18.386763
_cell_length_c 9.208464
_cell_angle_alpha 90.000000
_cell_angle_beta 90.000000
_cell_angle_gamma 90.000000
_cell_volume 2581.776411
_symmetry_space_group_name_H-M "P C C A"
_symmetry_group_IT_number 54
_symmetry_cell_setting 'orthorhombic'
loop_
_space_group_symop_operation_xyz
x,y,z
1/2-x,-y,z
1/2+x,-y,1/2-z
-x,y,1/2-z
-x,-y,-z
1/2+x,y,-z
1/2-x,y,1/2+z
x,-y,1/2+z
loop_
_atom_site_type_symbol
_atom_site_label
_atom_site_fract_x
_atom_site_fract_y
_atom_site_fract_z
Si Si1 0.997601 0.076616 0.077505
Si Si2 0.897614 0.719441 0.713174
Si Si3 0.602838 0.270654 0.235242
Si Si4 0.406469 0.439123 0.829086
Si Si5 0.653551 0.176922 0.479141
Si Si6 0.349027 0.188628 0.530713
Si Si7 0.094453 0.424556 0.675392
O O1 0.000000 0.067390 0.250000
O O2 0.905024 0.110131 0.030654
O O3 0.078577 0.125389 0.022416
O O4 0.000000 0.000000 0.000000
O O5 0.861924 0.636789 0.719725
O O6 0.880665 0.748327 0.552114
O O7 0.000000 0.725468 0.750000
O O8 0.842348 0.774683 0.811469
O O9 0.500000 0.270918 0.250000
O O10 0.642269 0.198296 0.311123
O O11 0.626872 0.258198 0.067821
O O12 0.643175 0.347562 0.293513
O O13 0.500000 0.441431 0.750000
O O14 0.355205 0.509104 0.760826
O O15 0.413703 0.442565 0.004005
O O16 0.754376 0.155446 0.510054
O O17 0.000000 0.416697 0.750000
#
# Coordination Sequence:
#
# PCOD8222740 Si02
#       7
#     8   8   8   8   8   8   8
#     4  12  28  51  73 102 137 173 213 262 329 401
#     4  11  20  41  67  94 133 180 226 276 332 387
#     4  11  22  37  67 100 134 169 230 278 329 385
#     4  10  20  31  56  88 131 175 227 281 335 391
#     4  12  23  46  69 102 134 170 225 267 325 393
#     4  12  25  42  73 100 132 179 216 276 325 387
#     4  10  20  32  53  92 130 174 227 282 332 394
#
# _framework density 21.690491999999999
#
# number of rings (size 3 to 8) (size 9 to 14) (size 15 to 20)
#    0.000    0.857    5.714    2.571   10.000    0.571 
#    0.000    1.429    0.000    5.143    0.000    0.000 
#    0.000    0.000    0.000    0.000    0.000    0.000 
#
# Total GULP energy -694047.394017 kJ/mol
# GULP energy per Si atom -12393.703465 kJ/mol
# Density = 2.164112 g / cm^3
# Si number density = 21.690492 Si / 1000 Ang^3
#
#
#
# Elastic Constant Matrix: (Units=GPa)
#
#
# Indices 1 2 3 4 5 6 
#
# 1 113.1948 49.5140 26.0021 0.0000 0.0000 0.0000
# 2 49.5140 171.7970 63.7128 0.0000 0.0000 0.0000
# 3 26.0021 63.7128 109.1563 0.0000 0.0000 0.0000
# 4 0.0000 0.0000 0.0000 46.1557 0.0000 0.0000
# 5 0.0000 0.0000 0.0000 0.0000 20.5710 0.0000
# 6 0.0000 0.0000 0.0000 0.0000 0.0000 2.4094
#
#
#
# Elastic Compliance Matrix: (Units=1/GPa)
#
#
# Indices 1 2 3 4 5 6 
#
# 1 0.010179 -0.002597 -0.000909 0.000000 0.000000 0.000000
# 2 -0.002597 0.008091 -0.004104 0.000000 0.000000 0.000000
# 3 -0.000909 -0.004104 0.011773 0.000000 0.000000 0.000000
# 4 0.000000 0.000000 0.000000 0.021666 0.000000 0.000000
# 5 0.000000 0.000000 0.000000 0.000000 0.048612 0.000000
# 6 0.000000 0.000000 0.000000 0.000000 0.000000 0.415049
#
#
# Mechanical properties :
#
#
# Convention : Reuss Voigt Hill
#
# Bulk Modulus (GPa) = 67.45959 74.73399 71.09679
# Shear Modulus (GPa) = 9.33652 30.82183 20.07917
#
# Velocity S-wave (km/s) = 2.07696 3.77368 3.04585
# Velocity P-wave (km/s) = 6.07620 7.31554 6.72448
#
# Compressibility (1/GPa) = 0.01482369
#
# Stress axis : x y z
#
# Youngs Moduli (GPa) = 98.24198 123.58996 84.93780
#
# Poissons Ratio (x) = 0.32090 0.07722
# Poissons Ratio (y) = 0.25509 0.34860
# Poissons Ratio (z) = 0.08932 0.50724
#
# Static dielectric constant tensor:
#      x y z
#    x 3.571570 0.000000 0.000000 
#    y 0.000000 4.724820 0.000000 
#    z 0.000000 0.000000 4.075300 
# 
# 
# High freq. dielectric constant tensor:
#      x y z
#    x 1.822410 0.000000 0.000000 
#    y 0.000000 1.854160 0.000000 
#    z 0.000000 0.000000 1.870260 
# 
# From -- ./inp_files/3694.got.cif
#   From: 2010.03.12/outbox.cif.g09.slc.cpg/sg54_2_cif.got.tgz:3694.got - 2010.04.16 15:00:50.
