data_PCOD8222051
_publ_section_title
;
Structure prediction by ZEFSAII (Michael W. Deem and Ramdas Pophale) SiO2 
 PCOD8222051
Probable space group: P M N A
;
_chemical_formula_sum "Si O2"
_cell_formula_units_Z 48
_cell_length_a 8.445774
_cell_length_b 20.568626
_cell_length_c 14.081862
_cell_angle_alpha 90.000000
_cell_angle_beta 90.000000
_cell_angle_gamma 90.000000
_cell_volume 2446.272434
_symmetry_space_group_name_H-M "P M N A"
_symmetry_group_IT_number 53
_symmetry_cell_setting 'orthorhombic'
loop_
_space_group_symop_operation_xyz
x,y,z
1/2-x,-y,1/2+z
x,-y,-z
1/2-x,y,1/2-z
-x,-y,-z
1/2+x,y,1/2-z
-x,y,z
1/2+x,-y,1/2+z
loop_
_atom_site_type_symbol
_atom_site_label
_atom_site_fract_x
_atom_site_fract_y
_atom_site_fract_z
Si Si1 0.812424 0.532416 0.349354
Si Si2 0.686476 0.612766 0.848579
Si Si3 0.187408 0.656283 0.455895
Si Si4 0.686725 0.908051 0.459368
Si Si5 0.186874 0.031101 0.355583
Si Si6 0.188657 0.785006 0.355713
O O1 0.750000 0.558594 0.250000
O O2 0.744714 0.459959 0.368804
O O3 0.747499 0.585943 0.422982
O O4 0.000000 0.530431 0.352253
O O5 0.750000 0.641734 0.750000
O O6 0.500000 0.607833 0.841819
O O7 0.738351 0.661348 0.933311
O O8 0.254928 0.715780 0.393997
O O9 0.000000 0.657735 0.445478
O O10 0.500000 0.917607 0.450029
O O11 0.737601 0.918722 0.568777
O O12 0.738822 0.836924 0.427748
O O13 0.770424 0.958368 0.387958
O O14 0.250000 0.045600 0.250000
O O15 0.000000 0.040220 0.356156
O O16 0.250000 0.797172 0.250000
O O17 0.000000 0.789501 0.357362
#
# Coordination Sequence:
#
# PCOD8222051 Si02
#       6
#     8   8   8   8   8   8
#     4   9  16  28  48  73  99 128 165 211 263 317
#     4   9  17  31  50  72  97 128 168 214 264 317
#     4   9  18  32  51  72  98 135 175 213 258 316
#     4  11  22  38  58  84 115 149 187 225 267 315
#     4  11  21  37  61  90 119 148 182 223 269 315
#     4  11  22  37  55  77 106 141 179 220 268 322
#
# _framework density 19.621690999999998
#
# number of rings (size 3 to 8) (size 9 to 14) (size 15 to 20)
#    0.000    2.000    0.000    6.000    0.000    2.000 
#    0.000    4.167    0.000    6.000    0.000    0.000 
#    0.000    0.000    0.000    0.000    0.000    0.000 
#
# Total GULP energy -594994.591111 kJ/mol
# GULP energy per Si atom -12395.720648 kJ/mol
# Density = 1.957703 g / cm^3
# Si number density = 19.621691 Si / 1000 Ang^3
#
#
#
# Elastic Constant Matrix: (Units=GPa)
#
#
# Indices 1 2 3 4 5 6 
#
# 1 49.2634 12.8252 18.7034 0.0000 0.0000 0.0000
# 2 12.8252 65.0746 46.3836 0.0000 0.0000 0.0000
# 3 18.7034 46.3836 147.1284 0.0000 0.0000 0.0000
# 4 0.0000 0.0000 0.0000 37.5182 0.0000 0.0000
# 5 0.0000 0.0000 0.0000 0.0000 33.3465 0.0000
# 6 0.0000 0.0000 0.0000 0.0000 0.0000 21.5876
#
#
#
# Elastic Compliance Matrix: (Units=1/GPa)
#
#
# Indices 1 2 3 4 5 6 
#
# 1 0.021770 -0.002990 -0.001825 0.000000 0.000000 0.000000
# 2 -0.002990 0.020232 -0.005998 0.000000 0.000000 0.000000
# 3 -0.001825 -0.005998 0.008920 0.000000 0.000000 0.000000
# 4 0.000000 0.000000 0.000000 0.026654 0.000000 0.000000
# 5 0.000000 0.000000 0.000000 0.000000 0.029988 0.000000
# 6 0.000000 0.000000 0.000000 0.000000 0.000000 0.046323
#
#
# Mechanical properties :
#
#
# Convention : Reuss Voigt Hill
#
# Bulk Modulus (GPa) = 34.13458 46.36565 40.25012
# Shear Modulus (GPa) = 26.98656 30.72739 28.85697
#
# Velocity S-wave (km/s) = 3.71259 3.96155 3.83909
# Velocity P-wave (km/s) = 5.98430 6.67879 6.34106
#
# Compressibility (1/GPa) = 0.02929581
#
# Stress axis : x y z
#
# Youngs Moduli (GPa) = 45.93422 49.42783 112.11094
#
# Poissons Ratio (x) = 0.14778 0.20459
# Poissons Ratio (y) = 0.13733 0.67245
# Poissons Ratio (z) = 0.08383 0.29647
#
# Static dielectric constant tensor:
#      x y z
#    x 3.439720 0.000000 0.000000 
#    y 0.000000 3.636350 0.000000 
#    z 0.000000 0.000000 3.832400 
# 
# 
# High freq. dielectric constant tensor:
#      x y z
#    x 1.750980 0.000000 0.000000 
#    y 0.000000 1.748060 0.000000 
#    z 0.000000 0.000000 1.778580 
# 
# From -- ./inp_files/20322.got.cif
#   From: 2010.03.12/outbox.cif.g09.slc.cpg/sg53_11_cif.got.tgz:20322.got - 2010.04.16 14:36:59.
