data_PCOD8222906
_publ_section_title
;
Structure prediction by ZEFSAII (Michael W. Deem and Ramdas Pophale) SiO2 
 PCOD8222906
Probable space group: P C C A
;
_chemical_formula_sum "Si O2"
_cell_formula_units_Z 40
_cell_length_a 8.404349
_cell_length_b 12.227695
_cell_length_c 20.809376
_cell_angle_alpha 90.000000
_cell_angle_beta 90.000000
_cell_angle_gamma 90.000000
_cell_volume 2138.492510
_symmetry_space_group_name_H-M "P C C A"
_symmetry_group_IT_number 54
_symmetry_cell_setting 'orthorhombic'
loop_
_space_group_symop_operation_xyz
x,y,z
1/2-x,-y,z
1/2+x,-y,1/2-z
-x,y,1/2-z
-x,-y,-z
1/2+x,y,-z
1/2-x,y,1/2+z
x,-y,1/2+z
loop_
_atom_site_type_symbol
_atom_site_label
_atom_site_fract_x
_atom_site_fract_y
_atom_site_fract_z
Si Si1 0.767366 0.369661 0.853972
Si Si2 0.250000 0.500000 0.842299
Si Si3 0.000000 0.399498 0.750000
Si Si4 0.938545 0.307597 0.102498
Si Si5 0.426566 0.242760 0.034332
Si Si6 0.236435 0.126994 0.936187
O O1 0.750000 0.500000 0.854254
O O2 0.869944 0.330452 0.791419
O O3 0.591226 0.317148 0.851117
O O4 0.857471 0.331821 0.917410
O O5 0.403561 0.525755 0.799482
O O6 0.195672 0.600050 0.886889
O O7 0.849866 0.191240 0.114747
O O8 0.993509 0.311385 0.027251
O O9 0.557355 0.169993 0.070844
O O10 0.293511 0.156336 0.009033
O O11 0.250000 0.000000 0.921248
#
# Coordination Sequence:
#
# PCOD8222906 Si02
#       6
#     8   4   4   8   8   8
#     4  12  23  38  57  86 129 159 203 240 296 369
#     4  12  20  40  54  88 120 162 200 250 292 370
#     4  12  24  36  58  80 122 168 208 242 290 358
#     4  10  22  36  59  89 124 159 193 246 310 360
#     4  10  21  36  57  93 120 158 190 240 310 354
#     4  10  20  37  59  91 129 154 197 238 301 369
#
# _framework density 18.704765999999999
#
# number of rings (size 3 to 8) (size 9 to 14) (size 15 to 20)
#    1.200    0.000    5.000    1.800    1.400    0.800 
#    0.000    0.000    0.000    0.000    0.000   33.600 
#    0.000    0.000    0.000    0.000    0.000    0.000 
#
# Total GULP energy -495576.933992 kJ/mol
# GULP energy per Si atom -12389.423350 kJ/mol
# Density = 1.866219 g / cm^3
# Si number density = 18.704766 Si / 1000 Ang^3
#
#
#
# Elastic Constant Matrix: (Units=GPa)
#
#
# Indices 1 2 3 4 5 6 
#
# 1 117.2629 58.3625 32.3670 0.0000 0.0000 0.0000
# 2 58.3625 112.7021 47.2483 0.0000 0.0000 0.0000
# 3 32.3670 47.2483 57.7285 0.0000 0.0000 0.0000
# 4 0.0000 0.0000 0.0000 4.6114 0.0000 0.0000
# 5 0.0000 0.0000 0.0000 0.0000 36.0145 0.0000
# 6 0.0000 0.0000 0.0000 0.0000 0.0000 22.7102
#
#
#
# Elastic Compliance Matrix: (Units=1/GPa)
#
#
# Indices 1 2 3 4 5 6 
#
# 1 0.011710 -0.005041 -0.002439 0.000000 0.000000 0.000000
# 2 -0.005041 0.015678 -0.010005 0.000000 0.000000 0.000000
# 3 -0.002439 -0.010005 0.026879 0.000000 0.000000 0.000000
# 4 0.000000 0.000000 0.000000 0.216855 0.000000 0.000000
# 5 0.000000 0.000000 0.000000 0.000000 0.027767 0.000000
# 6 0.000000 0.000000 0.000000 0.000000 0.000000 0.044033
#
#
# Mechanical properties :
#
#
# Convention : Reuss Voigt Hill
#
# Bulk Modulus (GPa) = 51.82641 62.62767 57.22704
# Shear Modulus (GPa) = 13.00977 22.64827 17.82902
#
# Velocity S-wave (km/s) = 2.64016 3.48347 3.09071
# Velocity P-wave (km/s) = 6.08783 7.05226 6.58771
#
# Compressibility (1/GPa) = 0.01929518
#
# Stress axis : x y z
#
# Youngs Moduli (GPa) = 85.39441 63.78272 37.20351
#
# Poissons Ratio (x) = 0.32156 0.09076
# Poissons Ratio (y) = 0.43051 0.37223
# Poissons Ratio (z) = 0.20832 0.63817
#
# Static dielectric constant tensor:
#      x y z
#    x 3.765530 0.000000 0.000000 
#    y 0.000000 3.074000 0.000000 
#    z 0.000000 0.000000 3.327980 
# 
# 
# High freq. dielectric constant tensor:
#      x y z
#    x 1.753720 0.000000 0.000000 
#    y 0.000000 1.691420 0.000000 
#    z 0.000000 0.000000 1.698760 
# 
# From -- ./inp_files/20328.got.cif
#   From: 2010.03.12/outbox.cif.g09.slc.cpg/sg54_11_cif.got.tgz:20328.got - 2010.04.16 15:00:50.
