data_PCOD8222660
_publ_section_title
;
Structure prediction by ZEFSAII (Michael W. Deem and Ramdas Pophale) SiO2 
 PCOD8222660
Probable space group: P C C A
;
_chemical_formula_sum "Si O2"
_cell_formula_units_Z 32
_cell_length_a 16.831514
_cell_length_b 4.883150
_cell_length_c 18.845043
_cell_angle_alpha 90.000000
_cell_angle_beta 90.000000
_cell_angle_gamma 90.000000
_cell_volume 1548.889303
_symmetry_space_group_name_H-M "P C C A"
_symmetry_group_IT_number 54
_symmetry_cell_setting 'orthorhombic'
loop_
_space_group_symop_operation_xyz
x,y,z
1/2-x,-y,z
1/2+x,-y,1/2-z
-x,y,1/2-z
-x,-y,-z
1/2+x,y,-z
1/2-x,y,1/2+z
x,-y,1/2+z
loop_
_atom_site_type_symbol
_atom_site_label
_atom_site_fract_x
_atom_site_fract_y
_atom_site_fract_z
Si Si1 0.661278 0.107335 0.301490
Si Si2 0.460354 0.216822 0.914862
Si Si3 0.933815 0.281449 0.929475
Si Si4 0.411925 0.602607 0.268486
O O1 0.642169 0.216486 0.380621
O O2 0.649892 0.357657 0.246216
O O3 0.750000 0.000000 0.296976
O O4 0.602570 0.860504 0.282523
O O5 0.538855 0.407321 0.917369
O O6 0.403218 0.300621 0.850019
O O7 0.491101 0.906771 0.906842
O O8 0.410380 0.240001 0.988063
O O9 0.500000 0.492363 0.250000
#
# Coordination Sequence:
#
# PCOD8222660 Si02
#       4
#     8   8   8   8
#     4  12  24  38  59  89 129 163 200 254 323 373
#     4  10  20  33  61  86 116 146 208 256 293 349
#     4  10  19  36  55  89 115 153 197 255 302 359
#     4  12  21  38  62  91 119 163 210 260 300 368
#
# _framework density 20.659967000000002
#
# number of rings (size 3 to 8) (size 9 to 14) (size 15 to 20)
#    0.000    1.000    5.000    3.000    0.000    0.000 
#    0.000    1.250    0.000    9.000    0.000    0.000 
#    0.000    0.000    0.000    0.000    0.000    0.000 
#
# Total GULP energy -396898.544835 kJ/mol
# GULP energy per Si atom -12403.079526 kJ/mol
# Density = 2.061294 g / cm^3
# Si number density = 20.659967 Si / 1000 Ang^3
#
#
#
# Elastic Constant Matrix: (Units=GPa)
#
#
# Indices 1 2 3 4 5 6 
#
# 1 66.3419 21.1038 58.0467 0.0000 0.0000 0.0000
# 2 21.1038 94.5292 32.7344 0.0000 0.0000 0.0000
# 3 58.0467 32.7344 160.3963 0.0000 0.0000 0.0000
# 4 0.0000 0.0000 0.0000 33.1212 0.0000 0.0000
# 5 0.0000 0.0000 0.0000 0.0000 22.4489 0.0000
# 6 0.0000 0.0000 0.0000 0.0000 0.0000 33.7572
#
#
#
# Elastic Compliance Matrix: (Units=1/GPa)
#
#
# Indices 1 2 3 4 5 6 
#
# 1 0.022543 -0.002376 -0.007673 0.000000 0.000000 0.000000
# 2 -0.002376 0.011634 -0.001515 0.000000 0.000000 0.000000
# 3 -0.007673 -0.001515 0.009321 0.000000 0.000000 0.000000
# 4 0.000000 0.000000 0.000000 0.030192 0.000000 0.000000
# 5 0.000000 0.000000 0.000000 0.000000 0.044546 0.000000
# 6 0.000000 0.000000 0.000000 0.000000 0.000000 0.029623
#
#
# Mechanical properties :
#
#
# Convention : Reuss Voigt Hill
#
# Bulk Modulus (GPa) = 49.09124 60.55969 54.82546
# Shear Modulus (GPa) = 28.12537 31.82430 29.97484
#
# Velocity S-wave (km/s) = 3.69365 3.92903 3.81316
# Velocity P-wave (km/s) = 6.48103 7.06819 6.78097
#
# Compressibility (1/GPa) = 0.02037023
#
# Stress axis : x y z
#
# Youngs Moduli (GPa) = 44.35953 85.95833 107.28886
#
# Poissons Ratio (x) = 0.20420 0.82327
# Poissons Ratio (y) = 0.10538 0.16249
# Poissons Ratio (z) = 0.34039 0.13019
#
# Static dielectric constant tensor:
#      x y z
#    x 3.101770 0.000000 0.000000 
#    y 0.000000 3.995010 0.000000 
#    z 0.000000 0.000000 4.132490 
# 
# 
# High freq. dielectric constant tensor:
#      x y z
#    x 1.741660 0.000000 0.000000 
#    y 0.000000 1.835270 0.000000 
#    z 0.000000 0.000000 1.826480 
# 
# From -- ./inp_files/21731.got.cif
#   From: 2010.03.12/outbox.cif.g09.slc.cpg/sg54_11_cif.got.tgz:21731.got - 2010.04.16 15:00:50.
