data_PCOD8222105
_publ_section_title
;
Structure prediction by ZEFSAII (Michael W. Deem and Ramdas Pophale) SiO2 
 PCOD8222105
Probable space group: P M N A
;
_chemical_formula_sum "Si O2"
_cell_formula_units_Z 56
_cell_length_a 32.339341
_cell_length_b 16.379864
_cell_length_c 4.999796
_cell_angle_alpha 90.000000
_cell_angle_beta 90.000000
_cell_angle_gamma 90.000000
_cell_volume 2648.461975
_symmetry_space_group_name_H-M "P M N A"
_symmetry_group_IT_number 53
_symmetry_cell_setting 'orthorhombic'
loop_
_space_group_symop_operation_xyz
x,y,z
1/2-x,-y,1/2+z
x,-y,-z
1/2-x,y,1/2-z
-x,-y,-z
1/2+x,y,1/2-z
-x,y,z
1/2+x,-y,1/2+z
loop_
_atom_site_type_symbol
_atom_site_label
_atom_site_fract_x
_atom_site_fract_y
_atom_site_fract_z
Si Si1 0.546697 0.642535 0.913308
Si Si2 0.452349 0.088079 0.406014
Si Si3 0.426019 0.184421 0.909938
Si Si4 0.701640 0.766327 0.709613
Si Si5 0.200816 0.047895 0.251339
Si Si6 0.905496 0.589092 0.098787
Si Si7 0.654692 0.279103 0.799671
O O1 0.500000 0.616897 0.845245
O O2 0.548378 0.735991 0.004811
O O3 0.562759 0.583708 0.152066
O O4 0.574191 0.636842 0.647682
O O5 0.500000 0.081567 0.314526
O O6 0.448754 0.149877 0.651208
O O7 0.435325 0.000000 0.500000
O O8 0.425837 0.119166 0.152125
O O9 0.379550 0.208547 0.827999
O O10 0.750000 0.752893 0.750000
O O11 0.687146 0.858568 0.766414
O O12 0.690324 0.746638 0.405648
O O13 0.676572 0.707996 0.913138
O O14 0.250000 0.043016 0.250000
O O15 0.181734 0.000000 0.500000
O O16 0.182053 0.000000 0.000000
O O17 0.864970 0.635991 0.202553
O O18 0.892260 0.500000 0.000000
#
# Coordination Sequence:
#
# PCOD8222105 Si02
#       7
#     8   8   8   8   8   8   8
#     4  11  22  37  62  92 121 158 201 243 287 343
#     4  11  22  37  59  85 118 165 216 259 292 327
#     4  11  22  39  58  83 121 160 202 248 299 353
#     4  11  22  39  64  89 115 151 199 249 293 349
#     4   9  17  31  52  80 113 145 179 224 280 339
#     4  11  24  41  62  89 123 161 191 232 298 363
#     4  11  23  41  61  86 117 152 193 240 299 367
#
# _framework density 21.144348000000001
#
# number of rings (size 3 to 8) (size 9 to 14) (size 15 to 20)
#    0.000    1.286    0.000    8.143    0.000    5.143 
#    0.000    7.143    0.000    1.714    0.000    0.000 
#    0.000    0.000    0.000    0.000    0.000    0.000 
#
# Total GULP energy -694585.797161 kJ/mol
# GULP energy per Si atom -12403.317806 kJ/mol
# Density = 2.109622 g / cm^3
# Si number density = 21.144348 Si / 1000 Ang^3
#
#
#
# Elastic Constant Matrix: (Units=GPa)
#
#
# Indices 1 2 3 4 5 6 
#
# 1 87.5938 38.2443 30.4700 0.0000 0.0000 0.0000
# 2 38.2443 98.3045 29.1308 0.0000 0.0000 0.0000
# 3 30.4700 29.1308 130.6043 0.0000 0.0000 0.0000
# 4 0.0000 0.0000 0.0000 41.2007 0.0000 0.0000
# 5 0.0000 0.0000 0.0000 0.0000 34.1512 0.0000
# 6 0.0000 0.0000 0.0000 0.0000 0.0000 17.7075
#
#
#
# Elastic Compliance Matrix: (Units=1/GPa)
#
#
# Indices 1 2 3 4 5 6 
#
# 1 0.014345 -0.004914 -0.002251 0.000000 0.000000 0.000000
# 2 -0.004914 0.012576 -0.001659 0.000000 0.000000 0.000000
# 3 -0.002251 -0.001659 0.008552 0.000000 0.000000 0.000000
# 4 0.000000 0.000000 0.000000 0.024271 0.000000 0.000000
# 5 0.000000 0.000000 0.000000 0.000000 0.029282 0.000000
# 6 0.000000 0.000000 0.000000 0.000000 0.000000 0.056473
#
#
# Mechanical properties :
#
#
# Convention : Reuss Voigt Hill
#
# Bulk Modulus (GPa) = 56.09735 56.91031 56.50383
# Shear Modulus (GPa) = 29.57075 33.18904 31.37989
#
# Velocity S-wave (km/s) = 3.74373 3.96617 3.85655
# Velocity P-wave (km/s) = 6.72872 6.92442 6.82727
#
# Compressibility (1/GPa) = 0.01782615
#
# Stress axis : x y z
#
# Youngs Moduli (GPa) = 69.71273 79.51922 116.93555
#
# Poissons Ratio (x) = 0.39073 0.26318
# Poissons Ratio (y) = 0.34255 0.19395
# Poissons Ratio (z) = 0.15690 0.13189
#
# Static dielectric constant tensor:
#      x y z
#    x 3.585540 0.000000 0.000000 
#    y 0.000000 3.704300 0.000000 
#    z 0.000000 0.000000 4.089400 
# 
# 
# High freq. dielectric constant tensor:
#      x y z
#    x 1.811710 0.000000 0.000000 
#    y 0.000000 1.816170 0.000000 
#    z 0.000000 0.000000 1.853160 
# 
# From -- ./inp_files/5329.got.cif
#   From: 2010.03.12/outbox.cif.g09.slc.cpg/sg53_3_cif.got.tgz:5329.got - 2010.04.16 14:36:59.
