data_PCOD8222749
_publ_section_title
;
Structure prediction by ZEFSAII (Michael W. Deem and Ramdas Pophale) SiO2 
 PCOD8222749
Probable space group: P C C A
;
_chemical_formula_sum "Si O2"
_cell_formula_units_Z 48
_cell_length_a 12.624631
_cell_length_b 10.969822
_cell_length_c 17.563396
_cell_angle_alpha 90.000000
_cell_angle_beta 90.000000
_cell_angle_gamma 90.000000
_cell_volume 2432.353920
_symmetry_space_group_name_H-M "P C C A"
_symmetry_group_IT_number 54
_symmetry_cell_setting 'orthorhombic'
loop_
_space_group_symop_operation_xyz
x,y,z
1/2-x,-y,z
1/2+x,-y,1/2-z
-x,y,1/2-z
-x,-y,-z
1/2+x,y,-z
1/2-x,y,1/2+z
x,-y,1/2+z
loop_
_atom_site_type_symbol
_atom_site_label
_atom_site_fract_x
_atom_site_fract_y
_atom_site_fract_z
Si Si1 0.636662 0.188453 0.609453
Si Si2 0.482765 0.641603 0.508832
Si Si3 0.648787 0.222543 0.383718
Si Si4 0.674482 0.814291 0.507097
Si Si5 0.203306 0.130944 0.232091
Si Si6 0.943433 0.967919 0.899974
O O1 0.581186 0.300996 0.563897
O O2 0.756433 0.162030 0.582162
O O3 0.649275 0.208722 0.700288
O O4 0.566246 0.067498 0.600041
O O5 0.500000 0.500000 0.500000
O O6 0.418391 0.660188 0.588911
O O7 0.598530 0.698716 0.517235
O O8 0.745610 0.210970 0.439737
O O9 0.700525 0.217847 0.299679
O O10 0.565331 0.111943 0.391853
O O11 0.606057 0.932371 0.482444
O O12 0.116493 0.105112 0.167107
O O13 0.250000 0.000000 0.259174
#
# Coordination Sequence:
#
# PCOD8222749 Si02
#       6
#     8   8   8   8   8   8
#     4  10  20  32  56  83 108 144 185 228 276 342
#     4  10  22  38  56  78 108 149 197 244 281 321
#     4   9  19  34  54  79 114 146 175 225 287 341
#     4   9  19  33  54  79 106 138 183 229 276 332
#     4   9  18  33  53  81 113 143 176 222 287 352
#     4   9  18  33  52  82 116 142 169 219 289 351
#
# _framework density 19.733972000000001
#
# number of rings (size 3 to 8) (size 9 to 14) (size 15 to 20)
#    0.000    2.667    0.000    2.000    0.000   14.000 
#    0.000    2.500    0.000   20.000    0.000    0.000 
#    0.000    0.000    0.000    0.000    0.000    0.000 
#
# Total GULP energy -594645.921332 kJ/mol
# GULP energy per Si atom -12388.456694 kJ/mol
# Density = 1.968906 g / cm^3
# Si number density = 19.733972 Si / 1000 Ang^3
#
#
#
# Elastic Constant Matrix: (Units=GPa)
#
#
# Indices 1 2 3 4 5 6 
#
# 1 179.3493 34.0651 38.6413 0.0000 0.0000 0.0000
# 2 34.0651 87.7967 45.2829 0.0000 0.0000 0.0000
# 3 38.6413 45.2829 102.7367 0.0000 0.0000 0.0000
# 4 0.0000 0.0000 0.0000 20.3724 0.0000 0.0000
# 5 0.0000 0.0000 0.0000 0.0000 18.6705 0.0000
# 6 0.0000 0.0000 0.0000 0.0000 0.0000 18.3620
#
#
#
# Elastic Compliance Matrix: (Units=1/GPa)
#
#
# Indices 1 2 3 4 5 6 
#
# 1 0.006229 -0.001564 -0.001653 0.000000 0.000000 0.000000
# 2 -0.001564 0.015134 -0.006082 0.000000 0.000000 0.000000
# 3 -0.001653 -0.006082 0.013036 0.000000 0.000000 0.000000
# 4 0.000000 0.000000 0.000000 0.049086 0.000000 0.000000
# 5 0.000000 0.000000 0.000000 0.000000 0.053560 0.000000
# 6 0.000000 0.000000 0.000000 0.000000 0.000000 0.054460
#
#
# Mechanical properties :
#
#
# Convention : Reuss Voigt Hill
#
# Bulk Modulus (GPa) = 63.29222 67.31795 65.30509
# Shear Modulus (GPa) = 23.21566 28.27388 25.74477
#
# Velocity S-wave (km/s) = 3.43364 3.78928 3.61583
# Velocity P-wave (km/s) = 6.91825 7.30285 7.11315
#
# Compressibility (1/GPa) = 0.01579973
#
# Stress axis : x y z
#
# Youngs Moduli (GPa) = 160.53865 66.07711 76.70848
#
# Poissons Ratio (x) = 0.10335 0.12684
# Poissons Ratio (y) = 0.25109 0.46656
# Poissons Ratio (z) = 0.26545 0.40190
#
# Static dielectric constant tensor:
#      x y z
#    x 4.090400 0.000000 0.000000 
#    y 0.000000 3.141160 0.000000 
#    z 0.000000 0.000000 3.871330 
# 
# 
# High freq. dielectric constant tensor:
#      x y z
#    x 1.793410 0.000000 0.000000 
#    y 0.000000 1.714090 0.000000 
#    z 0.000000 0.000000 1.766010 
# 
# From -- ./inp_files/17285.got.cif
#   From: 2010.03.12/outbox.cif.g09.slc.cpg/sg54_9_cif.got.tgz:17285.got - 2010.04.16 15:00:50.
