data_PCOD8222867
_publ_section_title
;
Structure prediction by ZEFSAII (Michael W. Deem and Ramdas Pophale) SiO2 
 PCOD8222867
Probable space group: P C C A
;
_chemical_formula_sum "Si O2"
_cell_formula_units_Z 56
_cell_length_a 20.496059
_cell_length_b 8.713507
_cell_length_c 15.397750
_cell_angle_alpha 90.000000
_cell_angle_beta 90.000000
_cell_angle_gamma 90.000000
_cell_volume 2749.923492
_symmetry_space_group_name_H-M "P C C A"
_symmetry_group_IT_number 54
_symmetry_cell_setting 'orthorhombic'
loop_
_space_group_symop_operation_xyz
x,y,z
1/2-x,-y,z
1/2+x,-y,1/2-z
-x,y,1/2-z
-x,-y,-z
1/2+x,y,-z
1/2-x,y,1/2+z
x,-y,1/2+z
loop_
_atom_site_type_symbol
_atom_site_label
_atom_site_fract_x
_atom_site_fract_y
_atom_site_fract_z
Si Si1 0.478698 0.829480 0.985587
Si Si2 0.178950 0.084231 0.685956
Si Si3 0.629502 0.265364 0.146534
Si Si4 0.927062 0.487843 0.259483
Si Si5 0.813395 0.404599 0.488033
Si Si6 0.617558 0.218288 0.861865
Si Si7 0.393918 0.675064 0.578993
O O1 0.429960 0.821601 0.902364
O O2 0.546813 0.742979 0.975483
O O3 0.443198 0.765395 0.071719
O O4 0.500000 0.000000 0.000000
O O5 0.164519 0.163358 0.779229
O O6 0.164451 0.203909 0.606308
O O7 0.250000 0.000000 0.683098
O O8 0.124727 0.952359 0.674197
O O9 0.602686 0.430894 0.175730
O O10 0.685717 0.313724 0.078778
O O11 0.887974 0.333035 0.280653
O O12 0.924526 0.618478 0.331880
O O13 0.000000 0.431709 0.250000
O O14 0.750000 0.500000 0.473343
O O15 0.817894 0.274492 0.413367
O O16 0.870482 0.530876 0.477821
#
# Coordination Sequence:
#
# PCOD8222867 Si02
#       7
#     8   8   8   8   8   8   8
#     4  11  21  40  62  94 123 152 206 256 314 355
#     4  11  23  43  61  88 124 166 204 244 306 367
#     4  10  24  40  61  89 124 160 201 258 303 362
#     4  10  20  36  60  90 121 155 191 244 305 368
#     4  10  22  42  63  90 120 160 211 251 297 358
#     4  10  23  37  62  94 118 158 205 249 303 371
#     4  10  21  39  68  86 121 165 195 256 304 363
#
# _framework density 20.364203
#
# number of rings (size 3 to 8) (size 9 to 14) (size 15 to 20)
#    0.000    1.714    2.857    0.857    2.000    4.000 
#    2.571    2.857    0.000    0.000    0.000    0.000 
#    0.000    0.000    0.000    0.000    0.000    0.000 
#
# Total GULP energy -693902.630345 kJ/mol
# GULP energy per Si atom -12391.118399 kJ/mol
# Density = 2.031785 g / cm^3
# Si number density = 20.364203 Si / 1000 Ang^3
#
#
#
# Elastic Constant Matrix: (Units=GPa)
#
#
# Indices 1 2 3 4 5 6 
#
# 1 64.9892 3.8754 20.5115 0.0000 0.0000 0.0000
# 2 3.8754 101.4876 33.5876 0.0000 0.0000 0.0000
# 3 20.5115 33.5876 69.6239 0.0000 0.0000 0.0000
# 4 0.0000 0.0000 0.0000 28.8423 0.0000 0.0000
# 5 0.0000 0.0000 0.0000 0.0000 11.7353 0.0000
# 6 0.0000 0.0000 0.0000 0.0000 0.0000 27.9953
#
#
#
# Elastic Compliance Matrix: (Units=1/GPa)
#
#
# Indices 1 2 3 4 5 6 
#
# 1 0.017088 0.001206 -0.005616 0.000000 0.000000 0.000000
# 2 0.001206 0.011811 -0.006053 0.000000 0.000000 0.000000
# 3 -0.005616 -0.006053 0.018937 0.000000 0.000000 0.000000
# 4 0.000000 0.000000 0.000000 0.034671 0.000000 0.000000
# 5 0.000000 0.000000 0.000000 0.000000 0.085213 0.000000
# 6 0.000000 0.000000 0.000000 0.000000 0.000000 0.035720
#
#
# Mechanical properties :
#
#
# Convention : Reuss Voigt Hill
#
# Bulk Modulus (GPa) = 37.16070 39.11664 38.13867
# Shear Modulus (GPa) = 21.42836 25.58968 23.50902
#
# Velocity S-wave (km/s) = 3.24737 3.54870 3.40137
# Velocity P-wave (km/s) = 5.68755 6.00344 5.84763
#
# Compressibility (1/GPa) = 0.02691015
#
# Stress axis : x y z
#
# Youngs Moduli (GPa) = 58.52151 84.66970 52.80555
#
# Poissons Ratio (x) = -0.10212 0.29655
# Poissons Ratio (y) = -0.07058 0.31963
# Poissons Ratio (z) = 0.32866 0.51250
#
# Static dielectric constant tensor:
#      x y z
#    x 3.506620 0.000000 0.000000 
#    y 0.000000 3.607510 0.000000 
#    z 0.000000 0.000000 2.991940 
# 
# 
# High freq. dielectric constant tensor:
#      x y z
#    x 1.788890 0.000000 0.000000 
#    y 0.000000 1.811000 0.000000 
#    z 0.000000 0.000000 1.790200 
# 
# From -- ./inp_files/14673.got.cif
#   From: 2010.03.12/outbox.cif.g09.slc.cpg/sg54_8_cif.got.tgz:14673.got - 2010.04.16 15:00:50.
