data_PCOD8222713
_publ_section_title
;
Structure prediction by ZEFSAII (Michael W. Deem and Ramdas Pophale) SiO2 
 PCOD8222713
Probable space group: P C C A
;
_chemical_formula_sum "Si O2"
_cell_formula_units_Z 64
_cell_length_a 16.844534
_cell_length_b 9.555665
_cell_length_c 19.678339
_cell_angle_alpha 90.000000
_cell_angle_beta 90.000000
_cell_angle_gamma 90.000000
_cell_volume 3167.439692
_symmetry_space_group_name_H-M "P C C A"
_symmetry_group_IT_number 54
_symmetry_cell_setting 'orthorhombic'
loop_
_space_group_symop_operation_xyz
x,y,z
1/2-x,-y,z
1/2+x,-y,1/2-z
-x,y,1/2-z
-x,-y,-z
1/2+x,y,-z
1/2-x,y,1/2+z
x,-y,1/2+z
loop_
_atom_site_type_symbol
_atom_site_label
_atom_site_fract_x
_atom_site_fract_y
_atom_site_fract_z
Si Si1 0.768692 0.142467 0.497064
Si Si2 0.905701 0.781590 0.901248
Si Si3 0.204894 0.640647 0.903908
Si Si4 0.795737 0.135438 0.211955
Si Si5 0.044186 0.638101 0.980593
Si Si6 0.136177 0.778201 0.097649
Si Si7 0.428082 0.989122 0.703397
Si Si8 0.763517 0.348471 0.322715
O O1 0.854079 0.147860 0.461051
O O2 0.761954 0.280214 0.542972
O O3 0.697726 0.123175 0.442099
O O4 0.750000 0.000000 0.540354
O O5 0.946395 0.899071 0.854856
O O6 0.850029 0.673040 0.858612
O O7 0.983969 0.716487 0.932181
O O8 0.250000 0.500000 0.878871
O O9 0.183968 0.748263 0.844017
O O10 0.123429 0.598021 0.939871
O O11 0.872694 0.067500 0.243564
O O12 0.748232 0.220889 0.270306
O O13 0.750000 0.000000 0.182601
O O14 0.065500 0.725919 0.048575
O O15 0.000000 0.500000 0.000000
O O16 0.192742 0.650550 0.121725
O O17 0.103582 0.851925 0.165259
O O18 0.500000 0.938359 0.750000
O O19 0.750000 0.500000 0.287101
#
# Coordination Sequence:
#
# PCOD8222713 Si02
#       8
#     8   8   8   8   8   8   8   8
#     4  10  19  38  65  89 121 162 210 259 306 372
#     4  10  21  36  64  89 124 164 209 261 316 371
#     4  11  24  41  61  93 128 163 206 254 318 383
#     4  11  22  41  66  87 125 161 209 260 311 366
#     4  11  23  41  60  90 129 164 204 259 321 382
#     4  10  21  38  62  88 124 163 208 255 303 378
#     4  11  22  40  60  91 126 159 206 261 314 369
#     4  10  20  37  66  91 117 165 217 254 304 372
#
# _framework density 20.205594999999999
#
# number of rings (size 3 to 8) (size 9 to 14) (size 15 to 20)
#    0.000    1.500    2.500    3.000    0.000    4.000 
#    6.750    0.000    0.000    1.500    0.000    0.000 
#    0.000    0.000    0.000    0.000    0.000    0.000 
#
# Total GULP energy -792875.503831 kJ/mol
# GULP energy per Si atom -12388.679747 kJ/mol
# Density = 2.015961 g / cm^3
# Si number density = 20.205595 Si / 1000 Ang^3
#
#
#
# Elastic Constant Matrix: (Units=GPa)
#
#
# Indices 1 2 3 4 5 6 
#
# 1 89.7589 40.4217 44.2175 0.0000 0.0000 0.0000
# 2 40.4217 103.4886 28.7855 0.0000 0.0000 0.0000
# 3 44.2175 28.7855 92.7708 0.0000 0.0000 0.0000
# 4 0.0000 0.0000 0.0000 16.8054 0.0000 0.0000
# 5 0.0000 0.0000 0.0000 0.0000 35.2603 0.0000
# 6 0.0000 0.0000 0.0000 0.0000 0.0000 23.5082
#
#
#
# Elastic Compliance Matrix: (Units=1/GPa)
#
#
# Indices 1 2 3 4 5 6 
#
# 1 0.016355 -0.004618 -0.006362 0.000000 0.000000 0.000000
# 2 -0.004618 0.011880 -0.001485 0.000000 0.000000 0.000000
# 3 -0.006362 -0.001485 0.014272 0.000000 0.000000 0.000000
# 4 0.000000 0.000000 0.000000 0.059505 0.000000 0.000000
# 5 0.000000 0.000000 0.000000 0.000000 0.028361 0.000000
# 6 0.000000 0.000000 0.000000 0.000000 0.000000 0.042538
#
#
# Mechanical properties :
#
#
# Convention : Reuss Voigt Hill
#
# Bulk Modulus (GPa) = 56.89531 56.98533 56.94032
# Shear Modulus (GPa) = 24.54579 26.62100 25.58340
#
# Velocity S-wave (km/s) = 3.48918 3.63369 3.56217
# Velocity P-wave (km/s) = 6.66722 6.77266 6.72015
#
# Compressibility (1/GPa) = 0.01757614
#
# Stress axis : x y z
#
# Youngs Moduli (GPa) = 61.14322 84.17624 70.06506
#
# Poissons Ratio (x) = 0.38876 0.44577
# Poissons Ratio (y) = 0.28239 0.10404
# Poissons Ratio (z) = 0.38901 0.12499
#
# Static dielectric constant tensor:
#      x y z
#    x 3.577970 0.000000 0.000000 
#    y 0.000000 3.193430 0.000000 
#    z 0.000000 0.000000 3.690670 
# 
# 
# High freq. dielectric constant tensor:
#      x y z
#    x 1.778730 0.000000 0.000000 
#    y 0.000000 1.796050 0.000000 
#    z 0.000000 0.000000 1.789840 
# 
# From -- ./inp_files/21940.got.cif
#   From: 2010.03.12/outbox.cif.g09.slc.cpg/sg54_11_cif.got.tgz:21940.got - 2010.04.16 15:00:50.
