data_PCOD8222761
_publ_section_title
;
Structure prediction by ZEFSAII (Michael W. Deem and Ramdas Pophale) SiO2 
 PCOD8222761
Probable space group: P C C A
;
_chemical_formula_sum "Si O2"
_cell_formula_units_Z 64
_cell_length_a 27.874083
_cell_length_b 14.071418
_cell_length_c 9.210157
_cell_angle_alpha 90.000000
_cell_angle_beta 90.000000
_cell_angle_gamma 90.000000
_cell_volume 3612.480292
_symmetry_space_group_name_H-M "P C C A"
_symmetry_group_IT_number 54
_symmetry_cell_setting 'orthorhombic'
loop_
_space_group_symop_operation_xyz
x,y,z
1/2-x,-y,z
1/2+x,-y,1/2-z
-x,y,1/2-z
-x,-y,-z
1/2+x,y,-z
1/2-x,y,1/2+z
x,-y,1/2+z
loop_
_atom_site_type_symbol
_atom_site_label
_atom_site_fract_x
_atom_site_fract_y
_atom_site_fract_z
Si Si1 0.697291 0.582234 0.906936
Si Si2 0.646704 0.869661 0.237284
Si Si3 0.650050 0.092285 0.206661
Si Si4 0.043783 0.085799 0.837293
Si Si5 0.202703 0.797522 0.516624
Si Si6 0.201063 0.593136 0.434318
Si Si7 0.455591 0.113425 0.677398
Si Si8 0.314188 0.211095 0.038467
O O1 0.670992 0.490325 0.980849
O O2 0.747787 0.593802 0.987185
O O3 0.669031 0.679850 0.938109
O O4 0.704476 0.567333 0.735181
O O5 0.689868 0.811474 0.314084
O O6 0.595795 0.835590 0.305457
O O7 0.648837 0.838180 0.070855
O O8 0.653440 0.982557 0.249863
O O9 0.595347 0.131342 0.200305
O O10 0.675887 0.111400 0.053315
O O11 0.681566 0.155274 0.312916
O O12 0.000000 0.137982 0.750000
O O13 0.046473 0.978259 0.782062
O O14 0.034202 0.088574 0.009747
O O15 0.179421 0.698451 0.457855
O O16 0.259243 0.798960 0.487020
O O17 0.500000 0.173617 0.750000
#
# Coordination Sequence:
#
# PCOD8222761 Si02
#       8
#     8   8   8   8   8   8   8   8
#     4  10  20  34  53  76  96 134 173 226 276 307
#     4  11  24  34  54  74 107 148 181 220 254 306
#     4  11  22  38  50  76 108 143 188 216 258 306
#     4  10  20  33  55  73  99 132 173 227 275 310
#     4  11  22  38  50  76 107 145 184 218 257 303
#     4  10  20  33  55  72 101 129 175 226 271 315
#     4  10  20  34  53  75  98 131 176 224 275 311
#     4  11  24  34  54  74 108 146 185 218 254 311
#
# _framework density 17.716360000000002
#
# number of rings (size 3 to 8) (size 9 to 14) (size 15 to 20)
#    0.000    1.500    2.500    4.500   14.000    3.000 
#    0.000    0.000    0.000    0.000    0.000    0.000 
#    0.000    6.000    0.000    0.000    0.000    0.000 
#
# Total GULP energy -792984.626119 kJ/mol
# GULP energy per Si atom -12390.384783 kJ/mol
# Density = 1.767604 g / cm^3
# Si number density = 17.716360 Si / 1000 Ang^3
#
#
#
# Elastic Constant Matrix: (Units=GPa)
#
#
# Indices 1 2 3 4 5 6 
#
# 1 66.7858 30.9412 34.5555 0.0000 0.0000 0.0000
# 2 30.9412 84.5971 32.5044 0.0000 0.0000 0.0000
# 3 34.5555 32.5044 107.9671 0.0000 0.0000 0.0000
# 4 0.0000 0.0000 0.0000 25.4920 0.0000 0.0000
# 5 0.0000 0.0000 0.0000 0.0000 26.6593 0.0000
# 6 0.0000 0.0000 0.0000 0.0000 0.0000 2.5134
#
#
#
# Elastic Compliance Matrix: (Units=1/GPa)
#
#
# Indices 1 2 3 4 5 6 
#
# 1 0.019965 -0.005481 -0.004740 0.000000 0.000000 0.000000
# 2 -0.005481 0.014872 -0.002723 0.000000 0.000000 0.000000
# 3 -0.004740 -0.002723 0.011599 0.000000 0.000000 0.000000
# 4 0.000000 0.000000 0.000000 0.039228 0.000000 0.000000
# 5 0.000000 0.000000 0.000000 0.000000 0.037510 0.000000
# 6 0.000000 0.000000 0.000000 0.000000 0.000000 0.397865
#
#
# Mechanical properties :
#
#
# Convention : Reuss Voigt Hill
#
# Bulk Modulus (GPa) = 48.66686 50.59469 49.63078
# Shear Modulus (GPa) = 9.02893 21.68954 15.35924
#
# Velocity S-wave (km/s) = 2.25997 3.50275 2.94760
# Velocity P-wave (km/s) = 5.86000 6.70665 6.29757
#
# Compressibility (1/GPa) = 0.02054786
#
# Stress axis : x y z
#
# Youngs Moduli (GPa) = 50.08782 67.24211 86.21533
#
# Poissons Ratio (x) = 0.36855 0.40864
# Poissons Ratio (y) = 0.27453 0.23477
# Poissons Ratio (z) = 0.23741 0.18310
#
# Static dielectric constant tensor:
#      x y z
#    x 3.587400 0.000000 0.000000 
#    y 0.000000 3.771390 0.000000 
#    z 0.000000 0.000000 3.415110 
# 
# 
# High freq. dielectric constant tensor:
#      x y z
#    x 1.655340 0.000000 0.000000 
#    y 0.000000 1.657890 0.000000 
#    z 0.000000 0.000000 1.711780 
# 
# From -- ./inp_files/6010.got.cif
#   From: 2010.03.12/outbox.cif.g09.slc.cpg/sg54_4_cif.got.tgz:6010.got - 2010.04.16 15:00:50.
