data_PCOD8222142
_publ_section_title
;
Structure prediction by ZEFSAII (Michael W. Deem and Ramdas Pophale) SiO2 
 PCOD8222142
Probable space group: P M N A
;
_chemical_formula_sum "Si O2"
_cell_formula_units_Z 48
_cell_length_a 30.627848
_cell_length_b 9.573569
_cell_length_c 9.371156
_cell_angle_alpha 90.000000
_cell_angle_beta 90.000000
_cell_angle_gamma 90.000000
_cell_volume 2747.789897
_symmetry_space_group_name_H-M "P M N A"
_symmetry_group_IT_number 53
_symmetry_cell_setting 'orthorhombic'
loop_
_space_group_symop_operation_xyz
x,y,z
1/2-x,-y,1/2+z
x,-y,-z
1/2-x,y,1/2-z
-x,-y,-z
1/2+x,y,1/2-z
-x,y,z
1/2+x,-y,1/2+z
loop_
_atom_site_type_symbol
_atom_site_label
_atom_site_fract_x
_atom_site_fract_y
_atom_site_fract_z
Si Si1 0.381517 0.163027 0.765324
Si Si2 0.451390 0.834612 0.009105
Si Si3 0.885534 0.836838 0.729730
Si Si4 0.687693 0.841781 0.994573
Si Si5 0.260981 0.360883 0.416620
Si Si6 0.639019 0.337468 0.486836
O O1 0.374152 0.260127 0.630751
O O2 0.386742 0.999791 0.724105
O O3 0.425215 0.211618 0.849044
O O4 0.339979 0.191214 0.864918
O O5 0.500000 0.769157 0.013544
O O6 0.426106 0.787393 0.867202
O O7 0.453213 0.000000 0.000000
O O8 0.840772 0.809428 0.645270
O O9 0.889266 0.736425 0.864963
O O10 0.731837 0.755948 0.990487
O O11 0.703139 0.000000 0.000000
O O12 0.248817 0.500000 0.500000
O O13 0.250000 0.378691 0.250000
O O14 0.310616 0.317389 0.445275
O O15 0.626620 0.500000 0.500000
#
# Coordination Sequence:
#
# PCOD8222142 Si02
#       6
#     8   8   8   8   8   8
#     4   9  19  33  56  81 105 136 170 217 266 315
#     4   8  15  32  60  87 106 129 169 217 265 319
#     4   9  17  35  55  79 107 133 172 217 264 313
#     4   9  19  35  54  75 101 136 175 218 265 311
#     4  11  24  38  52  73 105 142 184 227 259 302
#     4  11  23  35  50  75 106 144 182 214 262 307
#
# _framework density 17.468585999999998
#
# number of rings (size 3 to 8) (size 9 to 14) (size 15 to 20)
#    0.000    2.500    1.667    2.500    4.667    1.333 
#    0.000    3.333    0.000    7.000    0.000    0.000 
#    0.000    0.000    0.000    0.000    0.000    0.000 
#
# Total GULP energy -595026.695149 kJ/mol
# GULP energy per Si atom -12396.389482 kJ/mol
# Density = 1.742883 g / cm^3
# Si number density = 17.468586 Si / 1000 Ang^3
#
#
#
# Elastic Constant Matrix: (Units=GPa)
#
#
# Indices 1 2 3 4 5 6 
#
# 1 100.4023 57.5568 65.6745 0.0000 0.0000 0.0000
# 2 57.5568 87.1009 76.5130 0.0000 0.0000 0.0000
# 3 65.6745 76.5130 147.4533 0.0000 0.0000 0.0000
# 4 0.0000 0.0000 0.0000 27.8725 0.0000 0.0000
# 5 0.0000 0.0000 0.0000 0.0000 24.7843 0.0000
# 6 0.0000 0.0000 0.0000 0.0000 0.0000 -35.5771
#
#
#
# Elastic Compliance Matrix: (Units=1/GPa)
#
#
# Indices 1 2 3 4 5 6 
#
# 1 0.016801 -0.008322 -0.003165 0.000000 0.000000 0.000000
# 2 -0.008322 0.025220 -0.009380 0.000000 0.000000 0.000000
# 3 -0.003165 -0.009380 0.013059 0.000000 0.000000 0.000000
# 4 0.000000 0.000000 0.000000 0.035878 0.000000 0.000000
# 5 0.000000 0.000000 0.000000 0.000000 0.040348 0.000000
# 6 0.000000 0.000000 0.000000 0.000000 0.000000 -0.028108
#
#
# Mechanical properties :
#
#
# Convention : Reuss Voigt Hill
#
# Bulk Modulus (GPa) = 74.92945 81.60503 78.26724
# Shear Modulus (GPa) = 33.47193 12.43008 22.95100
#
# Velocity S-wave (km/s) = 4.38210 2.67042 3.62863
# Velocity P-wave (km/s) = 8.28195 7.50499 7.90302
#
# Compressibility (1/GPa) = 0.01334589
#
# Stress axis : x y z
#
# Youngs Moduli (GPa) = 59.52146 39.65110 76.57841
#
# Poissons Ratio (x) = 0.32998 0.24234
# Poissons Ratio (y) = 0.49534 0.71830
# Poissons Ratio (z) = 0.18836 0.37193
#
# Static dielectric constant tensor:
#      x y z
#    x 3.454910 0.000000 0.000000 
#    y 0.000000 3.177670 0.000000 
#    z 0.000000 0.000000 3.263330 
# 
# 
# High freq. dielectric constant tensor:
#      x y z
#    x 1.666020 0.000000 0.000000 
#    y 0.000000 1.660260 0.000000 
#    z 0.000000 0.000000 1.682250 
# 
# From -- ./inp_files/13036.got.cif
#   From: 2010.03.12/outbox.cif.g09.slc.cpg/sg53_7_cif.got.tgz:13036.got - 2010.04.16 14:36:59.
