data_PCOD8222493
_publ_section_title
;
Structure prediction by ZEFSAII (Michael W. Deem and Ramdas Pophale) SiO2 
 PCOD8222493
Probable space group: P C C A
;
_chemical_formula_sum "Si O2"
_cell_formula_units_Z 48
_cell_length_a 7.787286
_cell_length_b 8.337518
_cell_length_c 31.731342
_cell_angle_alpha 90.000000
_cell_angle_beta 90.000000
_cell_angle_gamma 90.000000
_cell_volume 2060.209330
_symmetry_space_group_name_H-M "P C C A"
_symmetry_group_IT_number 54
_symmetry_cell_setting 'orthorhombic'
loop_
_space_group_symop_operation_xyz
x,y,z
1/2-x,-y,z
1/2+x,-y,1/2-z
-x,y,1/2-z
-x,-y,-z
1/2+x,y,-z
1/2-x,y,1/2+z
x,-y,1/2+z
loop_
_atom_site_type_symbol
_atom_site_label
_atom_site_fract_x
_atom_site_fract_y
_atom_site_fract_z
Si Si1 0.411147 0.096498 0.923109
Si Si2 0.864119 0.185924 0.944151
Si Si3 0.934335 0.808327 0.204822
Si Si4 0.720821 0.683520 0.525182
Si Si5 0.233721 0.808311 0.147516
Si Si6 0.579621 0.842860 0.174558
O O1 0.383170 0.270619 0.944232
O O2 0.392934 0.096938 0.873082
O O3 0.250000 0.000000 0.942351
O O4 0.585905 0.004132 0.937467
O O5 0.770261 0.247189 0.901244
O O6 0.038090 0.287419 0.952279
O O7 0.732470 0.212054 0.982280
O O8 0.742924 0.743014 0.192557
O O9 0.000000 0.746762 0.250000
O O10 0.064693 0.739887 0.169837
O O11 0.936056 0.001628 0.204345
O O12 0.750000 0.500000 0.513407
O O13 0.403061 0.738934 0.172328
O O14 0.250000 0.000000 0.151926
#
# Coordination Sequence:
#
# PCOD8222493 Si02
#       6
#     8   8   8   8   8   8
#     4  10  18  37  60  81 114 165 212 249 303 384
#     4  11  22  40  58  84 115 162 220 257 318 392
#     4  10  19  30  50  84 127 159 189 242 315 381
#     4  11  25  39  58  86 121 157 210 281 334 370
#     4  10  20  34  54  82 115 159 207 250 300 371
#     4  10  19  32  52  79 121 160 200 241 301 367
#
# _framework density 23.298604999999998
#
# number of rings (size 3 to 8) (size 9 to 14) (size 15 to 20)
#    0.000    1.667    5.000    2.000    9.333    2.000 
#    0.000    0.000    0.000    0.000    0.000    0.000 
#    0.000   10.667    0.000    0.500    2.333    0.000 
#
# Total GULP energy -594762.062501 kJ/mol
# GULP energy per Si atom -12390.876302 kJ/mol
# Density = 2.324558 g / cm^3
# Si number density = 23.298605 Si / 1000 Ang^3
#
#
#
# Elastic Constant Matrix: (Units=GPa)
#
#
# Indices 1 2 3 4 5 6 
#
# 1 175.6190 5.4387 41.4542 0.0000 0.0000 0.0000
# 2 5.4387 38.0279 20.5683 0.0000 0.0000 0.0000
# 3 41.4542 20.5683 122.3543 0.0000 0.0000 0.0000
# 4 0.0000 0.0000 0.0000 3.3653 0.0000 0.0000
# 5 0.0000 0.0000 0.0000 0.0000 46.8931 0.0000
# 6 0.0000 0.0000 0.0000 0.0000 0.0000 12.1722
#
#
#
# Elastic Compliance Matrix: (Units=1/GPa)
#
#
# Indices 1 2 3 4 5 6 
#
# 1 0.006192 0.000274 -0.002144 0.000000 0.000000 0.000000
# 2 0.000274 0.028939 -0.004958 0.000000 0.000000 0.000000
# 3 -0.002144 -0.004958 0.009733 0.000000 0.000000 0.000000
# 4 0.000000 0.000000 0.000000 0.297147 0.000000 0.000000
# 5 0.000000 0.000000 0.000000 0.000000 0.021325 0.000000
# 6 0.000000 0.000000 0.000000 0.000000 0.000000 0.082155
#
#
# Mechanical properties :
#
#
# Convention : Reuss Voigt Hill
#
# Bulk Modulus (GPa) = 32.04271 52.32485 42.18378
# Shear Modulus (GPa) = 10.64854 30.38879 20.51867
#
# Velocity S-wave (km/s) = 2.14018 3.61545 2.97085
# Velocity P-wave (km/s) = 4.45983 6.31948 5.46927
#
# Compressibility (1/GPa) = 0.03120835
#
# Stress axis : x y z
#
# Youngs Moduli (GPa) = 161.50648 34.55580 102.74627
#
# Poissons Ratio (x) = -0.00947 0.22027
# Poissons Ratio (y) = -0.04426 0.50937
# Poissons Ratio (z) = 0.34624 0.17131
#
# Static dielectric constant tensor:
#      x y z
#    x 5.226770 0.000000 0.000000 
#    y 0.000000 3.407150 0.000000 
#    z 0.000000 0.000000 4.041660 
# 
# 
# High freq. dielectric constant tensor:
#      x y z
#    x 1.962700 0.000000 0.000000 
#    y 0.000000 1.824960 0.000000 
#    z 0.000000 0.000000 1.922370 
# 
# From -- ./inp_files/27762.got.cif
#   From: 2010.03.12/outbox.cif.g09.slc.cpg/sg54_14_cif.got.tgz:27762.got - 2010.04.16 15:00:50.
