data_PCOD8222005
_publ_section_title
;
Structure prediction by ZEFSAII (Michael W. Deem and Ramdas Pophale) SiO2 
 PCOD8222005
Probable space group: P M N A
;
_chemical_formula_sum "Si O2"
_cell_formula_units_Z 48
_cell_length_a 9.145361
_cell_length_b 16.616452
_cell_length_c 18.509414
_cell_angle_alpha 90.000000
_cell_angle_beta 90.000000
_cell_angle_gamma 90.000000
_cell_volume 2812.754447
_symmetry_space_group_name_H-M "P M N A"
_symmetry_group_IT_number 53
_symmetry_cell_setting 'orthorhombic'
loop_
_space_group_symop_operation_xyz
x,y,z
1/2-x,-y,1/2+z
x,-y,-z
1/2-x,y,1/2-z
-x,-y,-z
1/2+x,y,1/2-z
-x,y,z
1/2+x,-y,1/2+z
loop_
_atom_site_type_symbol
_atom_site_label
_atom_site_fract_x
_atom_site_fract_y
_atom_site_fract_z
Si Si1 0.175370 0.139644 0.678545
Si Si2 0.172565 0.916579 0.038161
Si Si3 0.164976 0.442566 0.605026
Si Si4 0.659274 0.753997 0.523848
Si Si5 0.662731 0.297381 0.640031
Si Si6 0.662606 0.611411 0.940278
O O1 0.250000 0.101507 0.750000
O O2 0.233883 0.087802 0.611214
O O3 0.228732 0.232003 0.674140
O O4 0.000000 0.135774 0.682105
O O5 0.000000 0.906477 0.056557
O O6 0.223240 0.844692 0.983917
O O7 0.208248 0.000000 0.000000
O O8 0.268718 0.386054 0.654069
O O9 0.227939 0.534301 0.603284
O O10 0.161390 0.408040 0.524535
O O11 0.000000 0.441492 0.636187
O O12 0.500000 0.758425 0.559977
O O13 0.648786 0.716635 0.444678
O O14 0.752489 0.694797 0.574953
O O15 0.500000 0.292126 0.675087
O O16 0.500000 0.626471 0.912048
#
# Coordination Sequence:
#
# PCOD8222005 Si02
#       6
#     8   8   8   8   8   8
#     4  11  21  33  49  68  92 121 155 192 231 279
#     4   9  18  33  50  68  93 123 154 192 241 293
#     4   8  13  21  32  49  74 106 141 173 208 247
#     4   8  14  23  36  55  79 109 143 177 217 266
#     4   9  16  26  39  57  81 110 144 179 218 261
#     4   8  13  20  31  48  74 107 140 174 210 249
#
# _framework density 17.065123
#
# number of rings (size 3 to 8) (size 9 to 14) (size 15 to 20)
#    0.000    3.167    0.000    4.000    0.000    5.000 
#    0.000    3.333    0.000    0.000    0.000    0.000 
#    0.000    1.333    0.000   10.333    0.000   16.667 
#
# Total GULP energy -594670.348013 kJ/mol
# GULP energy per Si atom -12388.965584 kJ/mol
# Density = 1.702628 g / cm^3
# Si number density = 17.065123 Si / 1000 Ang^3
#
#
#
# Elastic Constant Matrix: (Units=GPa)
#
#
# Indices 1 2 3 4 5 6 
#
# 1 106.0539 58.1811 32.7635 0.0000 0.0000 0.0000
# 2 58.1811 143.5396 34.4098 0.0000 0.0000 0.0000
# 3 32.7635 34.4098 35.2042 0.0000 0.0000 0.0000
# 4 0.0000 0.0000 0.0000 8.6246 0.0000 0.0000
# 5 0.0000 0.0000 0.0000 0.0000 12.3213 0.0000
# 6 0.0000 0.0000 0.0000 0.0000 0.0000 27.0974
#
#
#
# Elastic Compliance Matrix: (Units=1/GPa)
#
#
# Indices 1 2 3 4 5 6 
#
# 1 0.014422 -0.003432 -0.010068 0.000000 0.000000 0.000000
# 2 -0.003432 0.009916 -0.006497 0.000000 0.000000 0.000000
# 3 -0.010068 -0.006497 0.044126 0.000000 0.000000 0.000000
# 4 0.000000 0.000000 0.000000 0.115947 0.000000 0.000000
# 5 0.000000 0.000000 0.000000 0.000000 0.081160 0.000000
# 6 0.000000 0.000000 0.000000 0.000000 0.000000 0.036904
#
#
# Mechanical properties :
#
#
# Convention : Reuss Voigt Hill
#
# Bulk Modulus (GPa) = 35.12551 59.50073 47.31312
# Shear Modulus (GPa) = 14.20616 20.23820 17.22218
#
# Velocity S-wave (km/s) = 2.88838 3.44748 3.18024
# Velocity P-wave (km/s) = 5.63485 7.12667 6.42421
#
# Compressibility (1/GPa) = 0.02846934
#
# Stress axis : x y z
#
# Youngs Moduli (GPa) = 69.33667 100.85156 22.66236
#
# Poissons Ratio (x) = 0.34616 0.22815
# Poissons Ratio (y) = 0.23799 0.14725
# Poissons Ratio (z) = 0.69805 0.65527
#
# Static dielectric constant tensor:
#      x y z
#    x 3.411790 0.000000 0.000000 
#    y 0.000000 3.382080 0.000000 
#    z 0.000000 0.000000 2.690970 
# 
# 
# High freq. dielectric constant tensor:
#      x y z
#    x 1.660240 0.000000 0.000000 
#    y 0.000000 1.655160 0.000000 
#    z 0.000000 0.000000 1.591370 
# 
# From -- ./inp_files/26409.got.cif
#   From: 2010.03.12/outbox.cif.g09.slc.cpg/sg53_14_cif.got.tgz:26409.got - 2010.04.16 14:36:59.
