data_PCOD8222854
_publ_section_title
;
Structure prediction by ZEFSAII (Michael W. Deem and Ramdas Pophale) SiO2 
 PCOD8222854
Probable space group: P C C A
;
_chemical_formula_sum "Si O2"
_cell_formula_units_Z 44
_cell_length_a 25.372553
_cell_length_b 5.114426
_cell_length_c 16.067394
_cell_angle_alpha 90.000000
_cell_angle_beta 90.000000
_cell_angle_gamma 90.000000
_cell_volume 2085.002169
_symmetry_space_group_name_H-M "P C C A"
_symmetry_group_IT_number 54
_symmetry_cell_setting 'orthorhombic'
loop_
_space_group_symop_operation_xyz
x,y,z
1/2-x,-y,z
1/2+x,-y,1/2-z
-x,y,1/2-z
-x,-y,-z
1/2+x,y,-z
1/2-x,y,1/2+z
x,-y,1/2+z
loop_
_atom_site_type_symbol
_atom_site_label
_atom_site_fract_x
_atom_site_fract_y
_atom_site_fract_z
Si Si1 0.639059 0.534185 0.533866
Si Si2 0.111014 0.018197 0.564413
Si Si3 0.119124 0.578375 0.276803
Si Si4 0.702913 0.152394 0.327553
Si Si5 0.058994 0.926563 0.721308
Si Si6 0.250000 0.500000 0.034994
O O1 0.609172 0.795389 0.504921
O O2 0.627671 0.481362 0.629702
O O3 0.701407 0.579941 0.523768
O O4 0.616584 0.298204 0.478707
O O5 0.058944 0.007738 0.622924
O O6 0.157472 0.967498 0.633203
O O7 0.175863 0.633136 0.232688
O O8 0.089668 0.347456 0.229208
O O9 0.085122 0.844232 0.276439
O O10 0.732944 0.264081 0.407140
O O11 0.750000 0.000000 0.277868
O O12 0.000000 0.880089 0.750000
#
# Coordination Sequence:
#
# PCOD8222854 Si02
#       6
#     8   8   8   8   8   4
#     4  11  22  40  58  93 135 162 207 259 327 367
#     4  10  21  40  63  86 124 171 204 259 314 388
#     4  11  25  40  63  99 130 159 213 282 310 369
#     4  10  20  37  60  88 126 169 218 240 302 384
#     4  11  23  46  69  91 119 170 223 269 324 387
#     4  10  20  36  60  84 126 178 204 234 306 396
#
# _framework density 21.103097000000002
#
# number of rings (size 3 to 8) (size 9 to 14) (size 15 to 20)
#    0.000    1.455    1.818    4.909    2.545    0.727 
#    6.545    5.455    0.000    0.000    0.000    0.000 
#    0.000    0.000    0.000    0.000    0.000    0.000 
#
# Total GULP energy -545454.609819 kJ/mol
# GULP energy per Si atom -12396.695678 kJ/mol
# Density = 2.105506 g / cm^3
# Si number density = 21.103097 Si / 1000 Ang^3
#
#
#
# Elastic Constant Matrix: (Units=GPa)
#
#
# Indices 1 2 3 4 5 6 
#
# 1 70.1638 33.7334 23.4322 0.0000 0.0000 0.0000
# 2 33.7334 114.5972 17.3256 0.0000 0.0000 0.0000
# 3 23.4322 17.3256 98.1995 0.0000 0.0000 0.0000
# 4 0.0000 0.0000 0.0000 25.8691 0.0000 0.0000
# 5 0.0000 0.0000 0.0000 0.0000 19.3232 0.0000
# 6 0.0000 0.0000 0.0000 0.0000 0.0000 25.4455
#
#
#
# Elastic Compliance Matrix: (Units=1/GPa)
#
#
# Indices 1 2 3 4 5 6 
#
# 1 0.017631 -0.004679 -0.003382 0.000000 0.000000 0.000000
# 2 -0.004679 0.010207 -0.000684 0.000000 0.000000 0.000000
# 3 -0.003382 -0.000684 0.011111 0.000000 0.000000 0.000000
# 4 0.000000 0.000000 0.000000 0.038656 0.000000 0.000000
# 5 0.000000 0.000000 0.000000 0.000000 0.051751 0.000000
# 6 0.000000 0.000000 0.000000 0.000000 0.000000 0.039300
#
#
# Mechanical properties :
#
#
# Convention : Reuss Voigt Hill
#
# Bulk Modulus (GPa) = 46.59925 47.99366 47.29646
# Shear Modulus (GPa) = 25.86667 28.02552 26.94610
#
# Velocity S-wave (km/s) = 3.50484 3.64817 3.57722
# Velocity P-wave (km/s) = 6.20550 6.36689 6.28671
#
# Compressibility (1/GPa) = 0.02145957
#
# Stress axis : x y z
#
# Youngs Moduli (GPa) = 56.71773 97.97254 90.00068
#
# Poissons Ratio (x) = 0.45839 0.30435
# Poissons Ratio (y) = 0.26537 0.06160
# Poissons Ratio (z) = 0.19180 0.06705
#
# Static dielectric constant tensor:
#      x y z
#    x 4.195160 0.000000 0.000000 
#    y 0.000000 3.772900 0.000000 
#    z 0.000000 0.000000 3.703390 
# 
# 
# High freq. dielectric constant tensor:
#      x y z
#    x 1.814070 0.000000 0.000000 
#    y 0.000000 1.837290 0.000000 
#    z 0.000000 0.000000 1.817530 
# 
# From -- ./inp_files/15070.got.cif
#   From: 2010.03.12/outbox.cif.g09.slc.cpg/sg54_8_cif.got.tgz:15070.got - 2010.04.16 15:00:50.
