data_PCOD8222373
_publ_section_title
;
Structure prediction by ZEFSAII (Michael W. Deem and Ramdas Pophale) SiO2 
 PCOD8222373
Probable space group: P C C A
;
_chemical_formula_sum "Si O2"
_cell_formula_units_Z 48
_cell_length_a 16.963261
_cell_length_b 4.895533
_cell_length_c 29.984453
_cell_angle_alpha 90.000000
_cell_angle_beta 90.000000
_cell_angle_gamma 90.000000
_cell_volume 2490.035032
_symmetry_space_group_name_H-M "P C C A"
_symmetry_group_IT_number 54
_symmetry_cell_setting 'orthorhombic'
loop_
_space_group_symop_operation_xyz
x,y,z
1/2-x,-y,z
1/2+x,-y,1/2-z
-x,y,1/2-z
-x,-y,-z
1/2+x,y,-z
1/2-x,y,1/2+z
x,-y,1/2+z
loop_
_atom_site_type_symbol
_atom_site_label
_atom_site_fract_x
_atom_site_fract_y
_atom_site_fract_z
Si Si1 0.337767 0.895082 0.777271
Si Si2 0.030863 0.762542 0.643545
Si Si3 0.954760 0.668153 0.951979
Si Si4 0.422602 0.262330 0.362339
Si Si5 0.914153 0.399987 0.264424
Si Si6 0.439814 0.167810 0.457682
O O1 0.352166 0.793482 0.827803
O O2 0.351763 0.642383 0.743568
O O3 0.250000 0.000000 0.770982
O O4 0.397185 0.139922 0.766553
O O5 0.953574 0.569430 0.643755
O O6 0.080898 0.728610 0.597219
O O7 0.089386 0.691532 0.684001
O O8 0.998322 0.069760 0.647231
O O9 0.980662 0.353452 0.954142
O O10 0.898321 0.748396 0.994660
O O11 0.033989 0.853219 0.957831
O O12 0.388359 0.222075 0.412881
O O13 0.000000 0.511535 0.250000
#
# Coordination Sequence:
#
# PCOD8222373 Si02
#       6
#     8   8   8   8   8   8
#     4  12  24  36  50  74 107 137 175 220 267 317
#     4  10  18  28  50  71  95 124 172 208 253 297
#     4   8  14  24  37  66  93 119 148 199 243 290
#     4  10  17  30  46  70  95 133 162 203 253 310
#     4  12  21  36  55  74  98 139 181 221 259 315
#     4   8  14  23  40  60  95 123 149 186 249 295
#
# _framework density 19.276838999999999
#
# number of rings (size 3 to 8) (size 9 to 14) (size 15 to 20)
#    0.000    2.000    3.333    2.000    0.000    0.000 
#    0.000    0.000    0.000    0.000    0.000    1.167 
#    0.000   13.333    0.000    0.167    0.000    0.000 
#
# Total GULP energy -594722.039696 kJ/mol
# GULP energy per Si atom -12390.042494 kJ/mol
# Density = 1.923296 g / cm^3
# Si number density = 19.276839 Si / 1000 Ang^3
#
#
#
# Elastic Constant Matrix: (Units=GPa)
#
#
# Indices 1 2 3 4 5 6 
#
# 1 31.9214 6.3901 35.2379 0.0000 0.0000 0.0000
# 2 6.3901 75.8482 13.9830 0.0000 0.0000 0.0000
# 3 35.2379 13.9830 174.5535 0.0000 0.0000 0.0000
# 4 0.0000 0.0000 0.0000 31.2465 0.0000 0.0000
# 5 0.0000 0.0000 0.0000 0.0000 10.9846 0.0000
# 6 0.0000 0.0000 0.0000 0.0000 0.0000 15.1177
#
#
#
# Elastic Compliance Matrix: (Units=1/GPa)
#
#
# Indices 1 2 3 4 5 6 
#
# 1 0.040589 -0.001938 -0.008039 0.000000 0.000000 0.000000
# 2 -0.001938 0.013474 -0.000688 0.000000 0.000000 0.000000
# 3 -0.008039 -0.000688 0.007407 0.000000 0.000000 0.000000
# 4 0.000000 0.000000 0.000000 0.032004 0.000000 0.000000
# 5 0.000000 0.000000 0.000000 0.000000 0.091037 0.000000
# 6 0.000000 0.000000 0.000000 0.000000 0.000000 0.066148
#
#
# Mechanical properties :
#
#
# Convention : Reuss Voigt Hill
#
# Bulk Modulus (GPa) = 24.91220 43.72722 34.31971
# Shear Modulus (GPa) = 17.52131 26.58390 22.05260
#
# Velocity S-wave (km/s) = 3.01812 3.71760 3.38597
# Velocity P-wave (km/s) = 5.00967 6.41564 5.75575
#
# Compressibility (1/GPa) = 0.04014097
#
# Stress axis : x y z
#
# Youngs Moduli (GPa) = 24.63746 74.21507 135.01076
#
# Poissons Ratio (x) = 0.14380 1.08529
# Poissons Ratio (y) = 0.04774 0.09292
# Poissons Ratio (z) = 0.19805 0.05108
#
# Static dielectric constant tensor:
#      x y z
#    x 2.605860 0.000000 0.000000 
#    y 0.000000 3.720140 0.000000 
#    z 0.000000 0.000000 4.362320 
# 
# 
# High freq. dielectric constant tensor:
#      x y z
#    x 1.630070 0.000000 0.000000 
#    y 0.000000 1.780450 0.000000 
#    z 0.000000 0.000000 1.788880 
# 
# From -- ./inp_files/28181.got.cif
#   From: 2010.03.12/outbox.cif.g09.slc.cpg/sg54_15_cif.got.tgz:28181.got - 2010.04.16 15:00:50.
