data_PCOD8222192
_publ_section_title
;
Structure prediction by ZEFSAII (Michael W. Deem and Ramdas Pophale) SiO2 
 PCOD8222192
Probable space group: P M N A
;
_chemical_formula_sum "Si O2"
_cell_formula_units_Z 40
_cell_length_a 27.425975
_cell_length_b 7.676528
_cell_length_c 8.564535
_cell_angle_alpha 90.000000
_cell_angle_beta 90.000000
_cell_angle_gamma 90.000000
_cell_volume 1803.145210
_symmetry_space_group_name_H-M "P M N A"
_symmetry_group_IT_number 53
_symmetry_cell_setting 'orthorhombic'
loop_
_space_group_symop_operation_xyz
x,y,z
1/2-x,-y,1/2+z
x,-y,-z
1/2-x,y,1/2-z
-x,-y,-z
1/2+x,y,1/2-z
-x,y,z
1/2+x,-y,1/2+z
loop_
_atom_site_type_symbol
_atom_site_label
_atom_site_fract_x
_atom_site_fract_y
_atom_site_fract_z
Si Si1 0.854885 0.047970 0.667132
Si Si2 0.805946 0.631087 0.204863
Si Si3 0.555618 0.385765 0.236698
Si Si4 0.347391 0.285019 0.366019
Si Si5 0.945087 0.759094 0.398208
O O1 0.833631 0.238941 0.684579
O O2 0.913393 0.077391 0.663328
O O3 0.833553 0.000000 0.500000
O O4 0.838388 0.908270 0.797495
O O5 0.750000 0.645570 0.250000
O O6 0.823658 0.434876 0.242799
O O7 0.820202 0.694492 0.030327
O O8 0.500000 0.341715 0.288025
O O9 0.593930 0.321201 0.369542
O O10 0.560969 0.592642 0.214079
O O11 0.569892 0.290298 0.075186
O O12 0.000000 0.827128 0.393837
#
# Coordination Sequence:
#
# PCOD8222192 Si02
#       5
#     8   8   8   8   8
#     4  12  24  39  72 106 137 177 226 285 336 409
#     4  11  28  50  68  92 134 180 230 292 354 414
#     4   9  17  36  69 103 144 189 226 270 338 416
#     4  11  24  46  72 102 137 180 228 286 349 412
#     4   9  18  35  63 105 148 185 225 269 328 410
#
# _framework density 22.183461999999999
#
# number of rings (size 3 to 8) (size 9 to 14) (size 15 to 20)
#    0.000    1.600    4.000    1.800    0.000    7.600 
#    0.000    3.000    0.000    2.400    0.000    0.000 
#    0.000    0.000    0.000    0.000    0.000    0.000 
#
# Total GULP energy -495718.946289 kJ/mol
# GULP energy per Si atom -12392.973657 kJ/mol
# Density = 2.213297 g / cm^3
# Si number density = 22.183462 Si / 1000 Ang^3
#
#
#
# Elastic Constant Matrix: (Units=GPa)
#
#
# Indices 1 2 3 4 5 6 
#
# 1 130.3046 28.5817 55.4996 0.0000 0.0000 0.0000
# 2 28.5817 110.6265 32.6805 0.0000 0.0000 0.0000
# 3 55.4996 32.6805 64.2398 0.0000 0.0000 0.0000
# 4 0.0000 0.0000 0.0000 38.1210 0.0000 0.0000
# 5 0.0000 0.0000 0.0000 0.0000 40.4810 0.0000
# 6 0.0000 0.0000 0.0000 0.0000 0.0000 21.6368
#
#
#
# Elastic Compliance Matrix: (Units=1/GPa)
#
#
# Indices 1 2 3 4 5 6 
#
# 1 0.012143 -0.000045 -0.010468 0.000000 0.000000 0.000000
# 2 -0.000045 0.010638 -0.005373 0.000000 0.000000 0.000000
# 3 -0.010468 -0.005373 0.027344 0.000000 0.000000 0.000000
# 4 0.000000 0.000000 0.000000 0.026232 0.000000 0.000000
# 5 0.000000 0.000000 0.000000 0.000000 0.024703 0.000000
# 6 0.000000 0.000000 0.000000 0.000000 0.000000 0.046218
#
#
# Mechanical properties :
#
#
# Convention : Reuss Voigt Hill
#
# Bulk Modulus (GPa) = 54.48700 59.85494 57.17097
# Shear Modulus (GPa) = 27.00269 32.60835 29.80552
#
# Velocity S-wave (km/s) = 3.49269 3.83814 3.66948
# Velocity P-wave (km/s) = 6.39378 6.83243 6.61674
#
# Compressibility (1/GPa) = 0.01835300
#
# Stress axis : x y z
#
# Youngs Moduli (GPa) = 82.35467 93.99964 36.57153
#
# Poissons Ratio (x) = 0.00422 0.38282
# Poissons Ratio (y) = 0.00370 0.19651
# Poissons Ratio (z) = 0.86206 0.50508
#
# Static dielectric constant tensor:
#      x y z
#    x 4.153450 0.000000 0.000000 
#    y 0.000000 4.902930 0.000000 
#    z 0.000000 0.000000 3.708770 
# 
# 
# High freq. dielectric constant tensor:
#      x y z
#    x 1.872710 0.000000 0.000000 
#    y 0.000000 1.890490 0.000000 
#    z 0.000000 0.000000 1.843200 
# 
# From -- ./inp_files/12249.got.cif
#   From: 2010.03.12/outbox.cif.g09.slc.cpg/sg53_7_cif.got.tgz:12249.got - 2010.04.16 14:36:59.
