data_PCOD8222485
_publ_section_title
;
Structure prediction by ZEFSAII (Michael W. Deem and Ramdas Pophale) SiO2 
 PCOD8222485
Probable space group: P C C A
;
_chemical_formula_sum "Si O2"
_cell_formula_units_Z 40
_cell_length_a 11.184730
_cell_length_b 8.679608
_cell_length_c 20.052926
_cell_angle_alpha 90.000000
_cell_angle_beta 90.000000
_cell_angle_gamma 90.000000
_cell_volume 1946.719447
_symmetry_space_group_name_H-M "P C C A"
_symmetry_group_IT_number 54
_symmetry_cell_setting 'orthorhombic'
loop_
_space_group_symop_operation_xyz
x,y,z
1/2-x,-y,z
1/2+x,-y,1/2-z
-x,y,1/2-z
-x,-y,-z
1/2+x,y,-z
1/2-x,y,1/2+z
x,-y,1/2+z
loop_
_atom_site_type_symbol
_atom_site_label
_atom_site_fract_x
_atom_site_fract_y
_atom_site_fract_z
Si Si1 0.038750 0.207795 0.036482
Si Si2 0.886611 0.455600 0.361943
Si Si3 0.750000 0.000000 0.928331
Si Si4 0.500000 0.748538 0.250000
Si Si5 0.113788 0.042956 0.355067
Si Si6 0.051719 0.785384 0.111675
O O1 0.081565 0.367039 0.069675
O O2 0.934177 0.132297 0.080267
O O3 0.149626 0.088326 0.028332
O O4 0.984649 0.238415 0.964949
O O5 0.750000 0.500000 0.362731
O O6 0.919428 0.353323 0.298559
O O7 0.955070 0.617310 0.356073
O O8 0.818252 0.129236 0.883371
O O9 0.405556 0.852979 0.289889
O O10 0.250000 0.000000 0.365121
O O11 0.042049 0.884279 0.346240
#
# Coordination Sequence:
#
# PCOD8222485 Si02
#       6
#     8   8   4   4   8   8
#     4  10  22  38  64  99 129 161 203 253 317 388
#     4  11  23  44  64  87 130 168 207 260 312 376
#     4  10  18  36  60  92 124 170 196 250 306 366
#     4  10  26  44  60  90 122 166 226 258 306 366
#     4  10  23  41  64  93 126 162 211 266 306 362
#     4  11  23  36  68  96 127 165 206 252 324 378
#
# _framework density 20.547387000000001
#
# number of rings (size 3 to 8) (size 9 to 14) (size 15 to 20)
#    0.000    1.600    2.000    3.000    5.600    4.000 
#    3.600    3.000    0.000    0.000    0.000    0.000 
#    0.000    0.000    0.000    0.000    0.000    0.000 
#
# Total GULP energy -495984.962899 kJ/mol
# GULP energy per Si atom -12399.624072 kJ/mol
# Density = 2.050062 g / cm^3
# Si number density = 20.547387 Si / 1000 Ang^3
#
#
#
# Elastic Constant Matrix: (Units=GPa)
#
#
# Indices 1 2 3 4 5 6 
#
# 1 149.2365 60.0748 44.9303 0.0000 0.0000 0.0000
# 2 60.0748 166.5064 60.0139 0.0000 0.0000 0.0000
# 3 44.9303 60.0139 85.4313 0.0000 0.0000 0.0000
# 4 0.0000 0.0000 0.0000 22.6539 0.0000 0.0000
# 5 0.0000 0.0000 0.0000 0.0000 1.3568 0.0000
# 6 0.0000 0.0000 0.0000 0.0000 0.0000 11.3874
#
#
#
# Elastic Compliance Matrix: (Units=1/GPa)
#
#
# Indices 1 2 3 4 5 6 
#
# 1 0.008398 -0.001926 -0.003064 0.000000 0.000000 0.000000
# 2 -0.001926 0.008484 -0.004947 0.000000 0.000000 0.000000
# 3 -0.003064 -0.004947 0.016792 0.000000 0.000000 0.000000
# 4 0.000000 0.000000 0.000000 0.044143 0.000000 0.000000
# 5 0.000000 0.000000 0.000000 0.000000 0.737027 0.000000
# 6 0.000000 0.000000 0.000000 0.000000 0.000000 0.087817
#
#
# Mechanical properties :
#
#
# Convention : Reuss Voigt Hill
#
# Bulk Modulus (GPa) = 72.46077 81.24580 76.85329
# Shear Modulus (GPa) = 5.39297 22.82329 14.10813
#
# Velocity S-wave (km/s) = 1.62183 3.33643 2.62318
# Velocity P-wave (km/s) = 6.23289 7.38030 6.83073
#
# Compressibility (1/GPa) = 0.01380057
#
# Stress axis : x y z
#
# Youngs Moduli (GPa) = 119.06899 117.87569 59.55277
#
# Poissons Ratio (x) = 0.22700 0.18248
# Poissons Ratio (y) = 0.22929 0.29459
# Poissons Ratio (z) = 0.36485 0.58310
#
# Static dielectric constant tensor:
#      x y z
#    x 3.749410 0.000000 0.000000 
#    y 0.000000 4.631060 0.000000 
#    z 0.000000 0.000000 3.544700 
# 
# 
# High freq. dielectric constant tensor:
#      x y z
#    x 1.806470 0.000000 0.000000 
#    y 0.000000 1.824240 0.000000 
#    z 0.000000 0.000000 1.785980 
# 
# From -- ./inp_files/21027.got.cif
#   From: 2010.03.12/outbox.cif.g09.slc.cpg/sg54_11_cif.got.tgz:21027.got - 2010.04.16 15:00:50.
