data_PCOD8222970
_publ_section_title
;
Structure prediction by ZEFSAII (Michael W. Deem and Ramdas Pophale) SiO2 
 PCOD8222970
Probable space group: P C C A
;
_chemical_formula_sum "Si O2"
_cell_formula_units_Z 56
_cell_length_a 9.510468
_cell_length_b 13.568957
_cell_length_c 20.631318
_cell_angle_alpha 90.000000
_cell_angle_beta 90.000000
_cell_angle_gamma 90.000000
_cell_volume 2662.412404
_symmetry_space_group_name_H-M "P C C A"
_symmetry_group_IT_number 54
_symmetry_cell_setting 'orthorhombic'
loop_
_space_group_symop_operation_xyz
x,y,z
1/2-x,-y,z
1/2+x,-y,1/2-z
-x,y,1/2-z
-x,-y,-z
1/2+x,y,-z
1/2-x,y,1/2+z
x,-y,1/2+z
loop_
_atom_site_type_symbol
_atom_site_label
_atom_site_fract_x
_atom_site_fract_y
_atom_site_fract_z
Si Si1 0.089556 0.328017 0.068795
Si Si2 0.314760 0.391977 0.974801
Si Si3 0.974061 0.740933 0.321047
Si Si4 0.879242 0.114718 0.450424
Si Si5 0.206360 0.613076 0.695420
Si Si6 0.939167 0.905353 0.425918
Si Si7 0.753583 0.383656 0.664124
O O1 0.054310 0.213402 0.080084
O O2 0.085168 0.378309 0.140578
O O3 0.984383 0.384247 0.017937
O O4 0.241581 0.332780 0.032974
O O5 0.250000 0.500000 0.976677
O O6 0.304629 0.339517 0.903388
O O7 0.826629 0.685945 0.330251
O O8 0.982064 0.835919 0.366604
O O9 0.000000 0.785265 0.250000
O O10 0.088194 0.655584 0.331956
O O11 0.710911 0.124615 0.455851
O O12 0.935882 0.104170 0.522992
O O13 0.927126 0.021467 0.406119
O O14 0.250000 0.500000 0.697933
O O15 0.166470 0.644551 0.769707
O O16 0.750000 0.500000 0.656357
#
# Coordination Sequence:
#
# PCOD8222970 Si02
#       7
#     8   8   8   8   8   8   8
#     4  12  23  38  60  89 126 160 203 255 315 365
#     4  11  25  38  58  86 127 167 203 254 308 371
#     4  10  20  38  64  88 123 165 206 249 312 376
#     4  10  21  36  63  89 121 158 199 269 308 369
#     4  10  22  36  60  89 119 160 205 249 299 376
#     4  10  20  39  63  92 119 155 215 253 319 373
#     4   9  21  39  58  86 121 162 206 250 297 368
#
# _framework density 21.033555
#
# number of rings (size 3 to 8) (size 9 to 14) (size 15 to 20)
#    0.000    1.714    1.429    2.571    6.000    0.571 
#    0.000    0.000    3.143    6.857    0.000    0.000 
#    0.000    0.000    0.000    0.000    0.000    0.000 
#
# Total GULP energy -693782.061225 kJ/mol
# GULP energy per Si atom -12388.965379 kJ/mol
# Density = 2.098568 g / cm^3
# Si number density = 21.033555 Si / 1000 Ang^3
#
#
#
# Elastic Constant Matrix: (Units=GPa)
#
#
# Indices 1 2 3 4 5 6 
#
# 1 58.7551 22.2764 20.9361 0.0000 0.0000 0.0000
# 2 22.2764 132.2077 46.0866 0.0000 0.0000 0.0000
# 3 20.9361 46.0866 118.9433 0.0000 0.0000 0.0000
# 4 0.0000 0.0000 0.0000 11.9519 0.0000 0.0000
# 5 0.0000 0.0000 0.0000 0.0000 30.4790 0.0000
# 6 0.0000 0.0000 0.0000 0.0000 0.0000 23.3751
#
#
#
# Elastic Compliance Matrix: (Units=1/GPa)
#
#
# Indices 1 2 3 4 5 6 
#
# 1 0.018756 -0.002323 -0.002401 0.000000 0.000000 0.000000
# 2 -0.002323 0.009033 -0.003091 0.000000 0.000000 0.000000
# 3 -0.002401 -0.003091 0.010028 0.000000 0.000000 0.000000
# 4 0.000000 0.000000 0.000000 0.083669 0.000000 0.000000
# 5 0.000000 0.000000 0.000000 0.000000 0.032809 0.000000
# 6 0.000000 0.000000 0.000000 0.000000 0.000000 0.042781
#
#
# Mechanical properties :
#
#
# Convention : Reuss Voigt Hill
#
# Bulk Modulus (GPa) = 45.07397 54.27827 49.67612
# Shear Modulus (GPa) = 22.71677 27.86833 25.29255
#
# Velocity S-wave (km/s) = 3.28994 3.64393 3.47145
# Velocity P-wave (km/s) = 5.99230 6.60045 6.30371
#
# Compressibility (1/GPa) = 0.02218575
#
# Stress axis : x y z
#
# Youngs Moduli (GPa) = 53.31549 110.70745 99.72397
#
# Poissons Ratio (x) = 0.25721 0.23946
# Poissons Ratio (y) = 0.12387 0.30824
# Poissons Ratio (z) = 0.12802 0.34219
#
# Static dielectric constant tensor:
#      x y z
#    x 3.870230 0.000000 0.000000 
#    y 0.000000 3.863240 0.000000 
#    z 0.000000 0.000000 4.103160 
# 
# 
# High freq. dielectric constant tensor:
#      x y z
#    x 1.822930 0.000000 0.000000 
#    y 0.000000 1.816690 0.000000 
#    z 0.000000 0.000000 1.822480 
# 
# From -- ./inp_files/20545.got.cif
#   From: 2010.03.12/outbox.cif.g09.slc.cpg/sg54_11_cif.got.tgz:20545.got - 2010.04.16 15:00:50.
