data_PCOD8222609
_publ_section_title
;
Structure prediction by ZEFSAII (Michael W. Deem and Ramdas Pophale) SiO2 
 PCOD8222609
Probable space group: P C C A
;
_chemical_formula_sum "Si O2"
_cell_formula_units_Z 44
_cell_length_a 11.168017
_cell_length_b 8.573332
_cell_length_c 24.131770
_cell_angle_alpha 90.000000
_cell_angle_beta 90.000000
_cell_angle_gamma 90.000000
_cell_volume 2310.547418
_symmetry_space_group_name_H-M "P C C A"
_symmetry_group_IT_number 54
_symmetry_cell_setting 'orthorhombic'
loop_
_space_group_symop_operation_xyz
x,y,z
1/2-x,-y,z
1/2+x,-y,1/2-z
-x,y,1/2-z
-x,-y,-z
1/2+x,y,-z
1/2-x,y,1/2+z
x,-y,1/2+z
loop_
_atom_site_type_symbol
_atom_site_label
_atom_site_fract_x
_atom_site_fract_y
_atom_site_fract_z
Si Si1 0.514542 0.329455 0.569709
Si Si2 0.500000 0.643618 0.750000
Si Si3 0.252887 0.181339 0.234005
Si Si4 0.633815 0.594193 0.179479
Si Si5 0.715256 0.173447 0.892394
Si Si6 0.860016 0.607117 0.463789
O O1 0.590086 0.313972 0.625703
O O2 0.405892 0.208453 0.574169
O O3 0.596031 0.289739 0.516252
O O4 0.467803 0.505713 0.561439
O O5 0.611607 0.753829 0.765669
O O6 0.466345 0.529250 0.800640
O O7 0.165613 0.279852 0.273283
O O8 0.197849 0.201263 0.172883
O O9 0.250000 0.000000 0.252245
O O10 0.750000 0.500000 0.161520
O O11 0.821767 0.282254 0.913704
O O12 0.750000 0.000000 0.906771
O O13 0.750000 0.500000 0.484153
#
# Coordination Sequence:
#
# PCOD8222609 Si02
#       6
#     8   4   8   8   8   8
#     4  10  19  34  56  77 104 139 173 225 271 308
#     4  10  20  34  54  78 106 142 178 222 266 314
#     4  10  22  37  54  80 112 145 182 222 273 331
#     4  10  20  34  55  81 106 137 182 223 266 322
#     4  10  21  35  52  76 105 139 177 214 263 327
#     4   9  19  35  55  78 103 135 178 218 267 324
#
# _framework density 19.043106000000002
#
# number of rings (size 3 to 8) (size 9 to 14) (size 15 to 20)
#    0.000    2.182    0.000    2.727    0.000    9.455 
#    0.000    0.909    0.000    0.000    0.000    0.000 
#    0.000    0.000    0.000    0.000    0.000    0.000 
#
# Total GULP energy -545640.252086 kJ/mol
# GULP energy per Si atom -12400.914820 kJ/mol
# Density = 1.899976 g / cm^3
# Si number density = 19.043106 Si / 1000 Ang^3
#
#
#
# Elastic Constant Matrix: (Units=GPa)
#
#
# Indices 1 2 3 4 5 6 
#
# 1 73.7491 37.8795 37.8290 0.0000 0.0000 0.0000
# 2 37.8795 104.3860 45.0810 0.0000 0.0000 0.0000
# 3 37.8290 45.0810 91.2417 0.0000 0.0000 0.0000
# 4 0.0000 0.0000 0.0000 21.8413 0.0000 0.0000
# 5 0.0000 0.0000 0.0000 0.0000 31.4322 0.0000
# 6 0.0000 0.0000 0.0000 0.0000 0.0000 19.0670
#
#
#
# Elastic Compliance Matrix: (Units=1/GPa)
#
#
# Indices 1 2 3 4 5 6 
#
# 1 0.018663 -0.004361 -0.005583 0.000000 0.000000 0.000000
# 2 -0.004361 0.013198 -0.004712 0.000000 0.000000 0.000000
# 3 -0.005583 -0.004712 0.015603 0.000000 0.000000 0.000000
# 4 0.000000 0.000000 0.000000 0.045785 0.000000 0.000000
# 5 0.000000 0.000000 0.000000 0.000000 0.031815 0.000000
# 6 0.000000 0.000000 0.000000 0.000000 0.000000 0.052447
#
#
# Mechanical properties :
#
#
# Convention : Reuss Voigt Hill
#
# Bulk Modulus (GPa) = 55.09569 56.77287 55.93428
# Shear Modulus (GPa) = 23.48808 24.37391 23.93100
#
# Velocity S-wave (km/s) = 3.51581 3.58150 3.54881
# Velocity P-wave (km/s) = 6.74360 6.85422 6.79914
#
# Compressibility (1/GPa) = 0.01815024
#
# Stress axis : x y z
#
# Youngs Moduli (GPa) = 53.58083 75.77084 64.09028
#
# Poissons Ratio (x) = 0.33047 0.35781
# Poissons Ratio (y) = 0.23369 0.30203
# Poissons Ratio (z) = 0.29914 0.35707
#
# Static dielectric constant tensor:
#      x y z
#    x 3.562930 0.000000 0.000000 
#    y 0.000000 3.383720 0.000000 
#    z 0.000000 0.000000 3.481190 
# 
# 
# High freq. dielectric constant tensor:
#      x y z
#    x 1.748080 0.000000 0.000000 
#    y 0.000000 1.726380 0.000000 
#    z 0.000000 0.000000 1.742510 
# 
# From -- ./inp_files/24087.got.cif
#   From: 2010.03.12/outbox.cif.g09.slc.cpg/sg54_13_cif.got.tgz:24087.got - 2010.04.16 15:00:50.
