data_PCOD8222679
_publ_section_title
;
Structure prediction by ZEFSAII (Michael W. Deem and Ramdas Pophale) SiO2 
 PCOD8222679
Probable space group: P C C A
;
_chemical_formula_sum "Si O2"
_cell_formula_units_Z 40
_cell_length_a 21.117807
_cell_length_b 8.847290
_cell_length_c 10.574332
_cell_angle_alpha 90.000000
_cell_angle_beta 90.000000
_cell_angle_gamma 90.000000
_cell_volume 1975.659154
_symmetry_space_group_name_H-M "P C C A"
_symmetry_group_IT_number 54
_symmetry_cell_setting 'orthorhombic'
loop_
_space_group_symop_operation_xyz
x,y,z
1/2-x,-y,z
1/2+x,-y,1/2-z
-x,y,1/2-z
-x,-y,-z
1/2+x,y,-z
1/2-x,y,1/2+z
x,-y,1/2+z
loop_
_atom_site_type_symbol
_atom_site_label
_atom_site_fract_x
_atom_site_fract_y
_atom_site_fract_z
Si Si1 0.250000 0.500000 0.371604
Si Si2 0.538705 0.171871 0.128045
Si Si3 0.533269 0.186883 0.622057
Si Si4 0.750000 0.000000 0.131318
Si Si5 0.164188 0.754619 0.978215
Si Si6 0.333940 0.254087 0.262648
O O1 0.287488 0.617016 0.459711
O O2 0.299570 0.413580 0.282877
O O3 0.500000 0.228709 0.250000
O O4 0.609318 0.238336 0.137022
O O5 0.541896 0.991911 0.125847
O O6 0.508906 0.235301 0.998432
O O7 0.500000 0.246825 0.750000
O O8 0.602928 0.261260 0.612399
O O9 0.715906 0.119194 0.221923
O O10 0.800675 0.086348 0.044234
O O11 0.138703 0.754491 0.121311
#
# Coordination Sequence:
#
# PCOD8222679 Si02
#       6
#     4   8   8   4   8   8
#     4  10  26  42  58  88 126 172 210 248 308 362
#     4  10  19  36  63  92 121 161 199 256 318 366
#     4  10  21  36  61  96 126 153 202 262 317 368
#     4  10  22  34  62  98 116 160 208 256 318 362
#     4  11  21  42  62  90 126 162 207 260 304 372
#     4  11  21  41  63  89 125 165 208 258 306 373
#
# _framework density 20.246407000000001
#
# number of rings (size 3 to 8) (size 9 to 14) (size 15 to 20)
#    0.000    1.600    4.000    1.200    0.000    0.000 
#   18.000    2.000    0.000    0.000    0.000    0.000 
#    0.000    0.000    0.000    0.000    0.000    0.000 
#
# Total GULP energy -496127.901837 kJ/mol
# GULP energy per Si atom -12403.197546 kJ/mol
# Density = 2.020033 g / cm^3
# Si number density = 20.246407 Si / 1000 Ang^3
#
#
#
# Elastic Constant Matrix: (Units=GPa)
#
#
# Indices 1 2 3 4 5 6 
#
# 1 135.9258 25.8304 56.7969 0.0000 0.0000 0.0000
# 2 25.8304 64.5260 21.3237 0.0000 0.0000 0.0000
# 3 56.7969 21.3237 140.3254 0.0000 0.0000 0.0000
# 4 0.0000 0.0000 0.0000 10.9730 0.0000 0.0000
# 5 0.0000 0.0000 0.0000 0.0000 38.4980 0.0000
# 6 0.0000 0.0000 0.0000 0.0000 0.0000 27.5570
#
#
#
# Elastic Compliance Matrix: (Units=1/GPa)
#
#
# Indices 1 2 3 4 5 6 
#
# 1 0.009250 -0.002596 -0.003349 0.000000 0.000000 0.000000
# 2 -0.002596 0.017046 -0.001540 0.000000 0.000000 0.000000
# 3 -0.003349 -0.001540 0.008716 0.000000 0.000000 0.000000
# 4 0.000000 0.000000 0.000000 0.091133 0.000000 0.000000
# 5 0.000000 0.000000 0.000000 0.000000 0.025975 0.000000
# 6 0.000000 0.000000 0.000000 0.000000 0.000000 0.036288
#
#
# Mechanical properties :
#
#
# Convention : Reuss Voigt Hill
#
# Bulk Modulus (GPa) = 49.89625 60.96437 55.43031
# Shear Modulus (GPa) = 23.80295 31.19401 27.49848
#
# Velocity S-wave (km/s) = 3.43251 3.92946 3.68936
# Velocity P-wave (km/s) = 6.35669 7.12489 6.75173
#
# Compressibility (1/GPa) = 0.02004159
#
# Stress axis : x y z
#
# Youngs Moduli (GPa) = 108.11008 58.66630 114.73257
#
# Poissons Ratio (x) = 0.15229 0.38429
# Poissons Ratio (y) = 0.28065 0.17663
# Poissons Ratio (z) = 0.36211 0.09032
#
# Static dielectric constant tensor:
#      x y z
#    x 3.732970 0.000000 0.000000 
#    y 0.000000 3.466260 0.000000 
#    z 0.000000 0.000000 3.604480 
# 
# 
# High freq. dielectric constant tensor:
#      x y z
#    x 1.805500 0.000000 0.000000 
#    y 0.000000 1.766620 0.000000 
#    z 0.000000 0.000000 1.787880 
# 
# From -- ./inp_files/5042.got.cif
#   From: 2010.03.12/outbox.cif.g09.slc.cpg/sg54_3_cif.got.tgz:5042.got - 2010.04.16 15:00:50.
