data_PCOD8222534
_publ_section_title
;
Structure prediction by ZEFSAII (Michael W. Deem and Ramdas Pophale) SiO2 
 PCOD8222534
Probable space group: P C C A
;
_chemical_formula_sum "Si O2"
_cell_formula_units_Z 56
_cell_length_a 5.104464
_cell_length_b 34.576132
_cell_length_c 17.260167
_cell_angle_alpha 90.000000
_cell_angle_beta 90.000000
_cell_angle_gamma 90.000000
_cell_volume 3046.292114
_symmetry_space_group_name_H-M "P C C A"
_symmetry_group_IT_number 54
_symmetry_cell_setting 'orthorhombic'
loop_
_space_group_symop_operation_xyz
x,y,z
1/2-x,-y,z
1/2+x,-y,1/2-z
-x,y,1/2-z
-x,-y,-z
1/2+x,y,-z
1/2-x,y,1/2+z
x,-y,1/2+z
loop_
_atom_site_type_symbol
_atom_site_label
_atom_site_fract_x
_atom_site_fract_y
_atom_site_fract_z
Si Si1 0.794184 0.095511 0.049528
Si Si2 0.293137 0.184161 0.950540
Si Si3 0.226194 0.376758 0.447383
Si Si4 0.246282 0.675750 0.799644
Si Si5 0.317473 0.539710 0.950474
Si Si6 0.249833 0.954921 0.299695
Si Si7 0.253925 0.234029 0.799329
O O1 0.769634 0.139836 0.077032
O O2 0.741873 0.068260 0.121383
O O3 0.580343 0.086371 0.983812
O O4 0.236712 0.211452 0.878913
O O5 0.580081 0.193261 0.983422
O O6 0.442572 0.371243 0.514189
O O7 0.262575 0.345350 0.381363
O O8 0.256069 0.419598 0.407780
O O9 0.500000 0.665833 0.750000
O O10 0.222719 0.720867 0.819031
O O11 0.000000 0.661080 0.750000
O O12 0.250000 0.500000 0.901974
O O13 0.621555 0.538749 0.974932
O O14 0.500000 0.942846 0.250000
O O15 0.000000 0.943041 0.250000
O O16 0.250000 0.000000 0.320955
O O17 0.500000 0.219380 0.750000
O O18 0.000000 0.224249 0.750000
#
# Coordination Sequence:
#
# PCOD8222534 Si02
#       7
#     8   8   8   8   8   8   8
#     4  10  21  36  54  78 106 136 169 205 253 306
#     4  10  21  36  54  78 106 132 164 211 256 292
#     4  10  19  31  51  76  96 124 169 207 239 290
#     4  10  21  36  51  71 103 135 161 200 253 299
#     4   8  14  25  42  66  94 120 152 199 244 280
#     4  10  21  36  54  78 106 136 173 214 251 290
#     4  10  21  36  54  75  99 133 172 202 242 303
#
# _framework density 18.383004
#
# number of rings (size 3 to 8) (size 9 to 14) (size 15 to 20)
#    0.000    2.286    0.000    2.571    0.000    2.857 
#    0.000    0.000    0.000    0.857    0.000    0.000 
#    0.000    0.000    0.000    0.000    0.000    0.000 
#
# Total GULP energy -694330.501689 kJ/mol
# GULP energy per Si atom -12398.758959 kJ/mol
# Density = 1.834116 g / cm^3
# Si number density = 18.383004 Si / 1000 Ang^3
#
#
#
# Elastic Constant Matrix: (Units=GPa)
#
#
# Indices 1 2 3 4 5 6 
#
# 1 104.7306 24.7935 17.0779 0.0000 0.0000 0.0000
# 2 24.7935 73.5343 57.4032 0.0000 0.0000 0.0000
# 3 17.0779 57.4032 81.1163 0.0000 0.0000 0.0000
# 4 0.0000 0.0000 0.0000 1561.0575 0.0000 0.0000
# 5 0.0000 0.0000 0.0000 0.0000 15.6513 0.0000
# 6 0.0000 0.0000 0.0000 0.0000 0.0000 43.0900
#
#
#
# Elastic Compliance Matrix: (Units=1/GPa)
#
#
# Indices 1 2 3 4 5 6 
#
# 1 0.010392 -0.004013 0.000652 0.000000 0.000000 0.000000
# 2 -0.004013 0.031933 -0.021753 0.000000 0.000000 0.000000
# 3 0.000652 -0.021753 0.027585 0.000000 0.000000 0.000000
# 4 0.000000 0.000000 0.000000 0.000641 0.000000 0.000000
# 5 0.000000 0.000000 0.000000 0.000000 0.063892 0.000000
# 6 0.000000 0.000000 0.000000 0.000000 0.000000 0.023207
#
#
# Mechanical properties :
#
#
# Convention : Reuss Voigt Hill
#
# Bulk Modulus (GPa) = 50.80859 50.88116 50.84487
# Shear Modulus (GPa) = 23.31660 334.63354 178.97507
#
# Velocity S-wave (km/s) = 3.56529 13.50664 9.87777
# Velocity P-wave (km/s) = 6.68186 16.46140 12.56234
#
# Compressibility (1/GPa) = 0.01968171
#
# Stress axis : x y z
#
# Youngs Moduli (GPa) = 96.22826 31.31522 36.25175
#
# Poissons Ratio (x) = 0.12565 -0.02362
# Poissons Ratio (y) = 0.38612 0.78860
# Poissons Ratio (z) = -0.06271 0.68121
#
# Static dielectric constant tensor:
#      x y z
#    x 3.667770 0.000000 0.000000 
#    y 0.000000 3.575580 0.000000 
#    z 0.000000 0.000000 2.968400 
# 
# 
# High freq. dielectric constant tensor:
#      x y z
#    x 1.740210 0.000000 0.000000 
#    y 0.000000 1.722220 0.000000 
#    z 0.000000 0.000000 1.679570 
# 
# From -- ./inp_files/10989.got.cif
#   From: 2010.03.12/outbox.cif.g09.slc.cpg/sg54_6_cif.got.tgz:10989.got - 2010.04.16 15:00:50.
