data_PCOD8222088
_publ_section_title
;
Structure prediction by ZEFSAII (Michael W. Deem and Ramdas Pophale) SiO2 
 PCOD8222088
Probable space group: P M N A
;
_chemical_formula_sum "Si O2"
_cell_formula_units_Z 56
_cell_length_a 18.375983
_cell_length_b 8.896861
_cell_length_c 16.744721
_cell_angle_alpha 90.000000
_cell_angle_beta 90.000000
_cell_angle_gamma 90.000000
_cell_volume 2737.570433
_symmetry_space_group_name_H-M "P M N A"
_symmetry_group_IT_number 53
_symmetry_cell_setting 'orthorhombic'
loop_
_space_group_symop_operation_xyz
x,y,z
1/2-x,-y,1/2+z
x,-y,-z
1/2-x,y,1/2-z
-x,-y,-z
1/2+x,y,1/2-z
-x,y,z
1/2+x,-y,1/2+z
loop_
_atom_site_type_symbol
_atom_site_label
_atom_site_fract_x
_atom_site_fract_y
_atom_site_fract_z
Si Si1 0.083216 0.426240 0.085866
Si Si2 0.418461 0.761228 0.006030
Si Si3 0.329647 0.938932 0.278115
Si Si4 0.160031 0.874374 0.937134
Si Si5 0.807549 0.374765 0.816944
Si Si6 0.919552 0.982225 0.631060
Si Si7 0.766062 0.660933 0.476787
O O1 0.097165 0.248841 0.074706
O O2 0.138176 0.494076 0.152835
O O3 0.000000 0.449692 0.114716
O O4 0.096277 0.500000 0.000000
O O5 0.500000 0.694497 0.022551
O O6 0.353445 0.642509 0.014117
O O7 0.397103 0.887358 0.070271
O O8 0.416340 0.825736 0.916428
O O9 0.250000 0.903372 0.250000
O O10 0.359156 0.767678 0.291950
O O11 0.326808 0.044605 0.354189
O O12 0.370891 0.027559 0.209083
O O13 0.234476 0.792536 0.966255
O O14 0.133670 0.000000 0.000000
O O15 0.750000 0.436011 0.750000
O O16 0.756851 0.306226 0.886685
O O17 0.000000 0.012800 0.663111
O O18 0.731530 0.500000 0.500000
#
# Coordination Sequence:
#
# PCOD8222088 Si02
#       7
#     8   8   8   8   8   8   8
#     4  11  23  45  68  90 127 172 215 259 323 393
#     4   9  19  36  61  89 121 165 206 251 315 384
#     4  11  22  35  61  96 121 157 209 265 312 371
#     4  12  23  40  65  93 126 161 218 268 322 376
#     4  11  22  41  63  95 128 162 211 264 316 384
#     4   9  19  37  59  87 124 159 200 252 314 374
#     4  12  22  40  63  87 123 166 209 260 316 382
#
# _framework density 20.456095000000001
#
# number of rings (size 3 to 8) (size 9 to 14) (size 15 to 20)
#    0.000    1.286    4.286    3.429    2.000    2.286 
#    2.571    0.714    0.000    0.000    0.000    0.000 
#    0.000    0.000    0.000    0.000    0.000    0.000 
#
# Total GULP energy -694057.990860 kJ/mol
# GULP energy per Si atom -12393.892694 kJ/mol
# Density = 2.040954 g / cm^3
# Si number density = 20.456095 Si / 1000 Ang^3
#
#
#
# Elastic Constant Matrix: (Units=GPa)
#
#
# Indices 1 2 3 4 5 6 
#
# 1 117.8992 32.6460 45.5336 0.0000 0.0000 0.0000
# 2 32.6460 101.2440 35.4522 0.0000 0.0000 0.0000
# 3 45.5336 35.4522 121.8250 0.0000 0.0000 0.0000
# 4 0.0000 0.0000 0.0000 24.6949 0.0000 0.0000
# 5 0.0000 0.0000 0.0000 0.0000 26.0253 0.0000
# 6 0.0000 0.0000 0.0000 0.0000 0.0000 28.6408
#
#
#
# Elastic Compliance Matrix: (Units=1/GPa)
#
#
# Indices 1 2 3 4 5 6 
#
# 1 0.010337 -0.002205 -0.003222 0.000000 0.000000 0.000000
# 2 -0.002205 0.011468 -0.002513 0.000000 0.000000 0.000000
# 3 -0.003222 -0.002513 0.010144 0.000000 0.000000 0.000000
# 4 0.000000 0.000000 0.000000 0.040494 0.000000 0.000000
# 5 0.000000 0.000000 0.000000 0.000000 0.038424 0.000000
# 6 0.000000 0.000000 0.000000 0.000000 0.000000 0.034915
#
#
# Mechanical properties :
#
#
# Convention : Reuss Voigt Hill
#
# Bulk Modulus (GPa) = 62.23162 63.13688 62.68425
# Shear Modulus (GPa) = 29.93679 31.02795 30.48237
#
# Velocity S-wave (km/s) = 3.82968 3.89885 3.86442
# Velocity P-wave (km/s) = 7.07413 7.15539 7.11488
#
# Compressibility (1/GPa) = 0.01606900
#
# Stress axis : x y z
#
# Youngs Moduli (GPa) = 96.74330 87.19810 98.57980
#
# Poissons Ratio (x) = 0.19226 0.31761
# Poissons Ratio (y) = 0.21331 0.24775
# Poissons Ratio (z) = 0.31169 0.21915
#
# Static dielectric constant tensor:
#      x y z
#    x 3.696990 0.000000 0.000000 
#    y 0.000000 3.649250 0.000000 
#    z 0.000000 0.000000 3.697820 
# 
# 
# High freq. dielectric constant tensor:
#      x y z
#    x 1.797010 0.000000 0.000000 
#    y 0.000000 1.790840 0.000000 
#    z 0.000000 0.000000 1.800210 
# 
# From -- ./inp_files/24374.got.cif
#   From: 2010.03.12/outbox.cif.g09.slc.cpg/sg53_13_cif.got.tgz:24374.got - 2010.04.16 14:36:59.
