data_PCOD8222985
_publ_section_title
;
Structure prediction by ZEFSAII (Michael W. Deem and Ramdas Pophale) SiO2 
 PCOD8222985
Probable space group: P C C A
;
_chemical_formula_sum "Si O2"
_cell_formula_units_Z 44
_cell_length_a 8.298197
_cell_length_b 13.469391
_cell_length_c 18.577242
_cell_angle_alpha 90.000000
_cell_angle_beta 90.000000
_cell_angle_gamma 90.000000
_cell_volume 2076.409176
_symmetry_space_group_name_H-M "P C C A"
_symmetry_group_IT_number 54
_symmetry_cell_setting 'orthorhombic'
loop_
_space_group_symop_operation_xyz
x,y,z
1/2-x,-y,z
1/2+x,-y,1/2-z
-x,y,1/2-z
-x,-y,-z
1/2+x,y,-z
1/2-x,y,1/2+z
x,-y,1/2+z
loop_
_atom_site_type_symbol
_atom_site_label
_atom_site_fract_x
_atom_site_fract_y
_atom_site_fract_z
Si Si1 0.971049 0.671845 0.544244
Si Si2 0.067075 0.278703 0.678504
Si Si3 0.852615 0.401076 0.583810
Si Si4 0.250000 0.000000 0.978701
Si Si5 0.505153 0.857704 0.953399
Si Si6 0.364292 0.404119 0.688154
O O1 0.778577 0.680336 0.557547
O O2 0.025389 0.783451 0.521775
O O3 0.011700 0.595763 0.478640
O O4 0.050654 0.620007 0.612933
O O5 0.074097 0.202966 0.613264
O O6 0.245609 0.312157 0.700860
O O7 0.000000 0.226039 0.750000
O O8 0.946234 0.370675 0.657038
O O9 0.750000 0.500000 0.597739
O O10 0.160014 0.084855 0.931878
O O11 0.371662 0.055301 0.031151
O O12 0.250000 0.500000 0.682585
O O13 0.500000 0.413123 0.750000
#
# Coordination Sequence:
#
# PCOD8222985 Si02
#       6
#     8   8   8   4   8   8
#     4  11  21  37  61  89 123 161 206 260 308 365
#     4  11  23  40  59  85 125 165 205 257 309 370
#     4  11  21  36  59  89 123 165 211 255 303 354
#     4  10  20  38  66  90 116 150 196 260 314 384
#     4  10  21  39  63  92 119 153 201 252 319 376
#     4  12  25  40  59  88 127 174 217 253 300 360
#
# _framework density 21.190429000000002
#
# number of rings (size 3 to 8) (size 9 to 14) (size 15 to 20)
#    0.000    1.091    0.000    9.273    0.000    1.455 
#    0.000    0.909    0.000    4.364    0.000    0.000 
#    0.000    0.000    0.000    0.000    0.000    0.000 
#
# Total GULP energy -545139.013339 kJ/mol
# GULP energy per Si atom -12389.523030 kJ/mol
# Density = 2.114220 g / cm^3
# Si number density = 21.190429 Si / 1000 Ang^3
#
#
#
# Elastic Constant Matrix: (Units=GPa)
#
#
# Indices 1 2 3 4 5 6 
#
# 1 118.8722 34.5835 36.3001 0.0000 0.0000 0.0000
# 2 34.5835 106.9037 30.7386 0.0000 0.0000 0.0000
# 3 36.3001 30.7386 118.8351 0.0000 0.0000 0.0000
# 4 0.0000 0.0000 0.0000 -46.8715 0.0000 0.0000
# 5 0.0000 0.0000 0.0000 0.0000 33.2476 0.0000
# 6 0.0000 0.0000 0.0000 0.0000 0.0000 37.6978
#
#
#
# Elastic Compliance Matrix: (Units=1/GPa)
#
#
# Indices 1 2 3 4 5 6 
#
# 1 0.009865 -0.002512 -0.002364 0.000000 0.000000 0.000000
# 2 -0.002512 0.010745 -0.002012 0.000000 0.000000 0.000000
# 3 -0.002364 -0.002012 0.009658 0.000000 0.000000 0.000000
# 4 0.000000 0.000000 0.000000 -0.021335 0.000000 0.000000
# 5 0.000000 0.000000 0.000000 0.000000 0.030077 0.000000
# 6 0.000000 0.000000 0.000000 0.000000 0.000000 0.026527
#
#
# Mechanical properties :
#
#
# Convention : Reuss Voigt Hill
#
# Bulk Modulus (GPa) = 60.63329 60.87283 60.75306
# Shear Modulus (GPa) = 58.95553 21.01404 39.98478
#
# Velocity S-wave (km/s) = 5.28036 3.15251 4.34859
# Velocity P-wave (km/s) = 8.11492 6.48382 7.34479
#
# Compressibility (1/GPa) = 0.01649259
#
# Stress axis : x y z
#
# Youngs Moduli (GPa) = 101.36922 93.06366 103.54591
#
# Poissons Ratio (x) = 0.23375 0.24475
# Poissons Ratio (y) = 0.25461 0.20836
# Poissons Ratio (z) = 0.23961 0.18727
#
# Static dielectric constant tensor:
#      x y z
#    x 4.580540 0.000000 0.000000 
#    y 0.000000 3.958630 0.000000 
#    z 0.000000 0.000000 3.772410 
# 
# 
# High freq. dielectric constant tensor:
#      x y z
#    x 1.861480 0.000000 0.000000 
#    y 0.000000 1.819610 0.000000 
#    z 0.000000 0.000000 1.812480 
# 
# From -- ./inp_files/16531.got.cif
#   From: 2010.03.12/outbox.cif.g09.slc.cpg/sg54_9_cif.got.tgz:16531.got - 2010.04.16 15:00:50.
