data_PCOD8222860
_publ_section_title
;
Structure prediction by ZEFSAII (Michael W. Deem and Ramdas Pophale) SiO2 
 PCOD8222860
Probable space group: P C C A
;
_chemical_formula_sum "Si O2"
_cell_formula_units_Z 32
_cell_length_a 5.154903
_cell_length_b 10.358815
_cell_length_c 28.472587
_cell_angle_alpha 90.000000
_cell_angle_beta 90.000000
_cell_angle_gamma 90.000000
_cell_volume 1520.398748
_symmetry_space_group_name_H-M "P C C A"
_symmetry_group_IT_number 54
_symmetry_cell_setting 'orthorhombic'
loop_
_space_group_symop_operation_xyz
x,y,z
1/2-x,-y,z
1/2+x,-y,1/2-z
-x,y,1/2-z
-x,-y,-z
1/2+x,y,-z
1/2-x,y,1/2+z
x,-y,1/2+z
loop_
_atom_site_type_symbol
_atom_site_label
_atom_site_fract_x
_atom_site_fract_y
_atom_site_fract_z
Si Si1 0.804587 0.764809 0.366973
Si Si2 0.750000 0.500000 0.826477
Si Si3 0.500000 0.335823 0.750000
Si Si4 0.748453 0.848265 0.971007
Si Si5 0.288846 0.145320 0.814043
O O1 0.864406 0.613130 0.358735
O O2 0.743278 0.777908 0.421431
O O3 0.571419 0.825821 0.336517
O O4 0.070307 0.835634 0.353464
O O5 0.543304 0.430329 0.793409
O O6 0.266635 0.240574 0.768313
O O7 0.750000 0.000000 0.961399
O O8 0.496384 0.804053 0.999434
O O9 0.250000 0.000000 0.795548
#
# Coordination Sequence:
#
# PCOD8222860 Si02
#       5
#     8   4   4   8   8
#     4  11  23  40  62  88 122 160 198 241 296 355
#     4  10  22  40  60  84 118 164 204 240 284 352
#     4  10  22  38  62  86 118 160 206 246 290 346
#     4  10  20  36  60  88 117 148 189 242 299 356
#     4  11  23  38  61  90 122 156 198 253 301 346
#
# _framework density 21.047108000000001
#
# number of rings (size 3 to 8) (size 9 to 14) (size 15 to 20)
#    0.000    1.500    0.000    5.250    0.000   12.000 
#    0.000    1.250    0.000    0.000    0.000    0.000 
#    0.000    0.000    0.000    0.000    0.000    0.000 
#
# Total GULP energy -396610.533222 kJ/mol
# GULP energy per Si atom -12394.079163 kJ/mol
# Density = 2.099920 g / cm^3
# Si number density = 21.047108 Si / 1000 Ang^3
#
#
#
# Elastic Constant Matrix: (Units=GPa)
#
#
# Indices 1 2 3 4 5 6 
#
# 1 112.8632 31.2401 26.2402 0.0000 0.0000 0.0000
# 2 31.2401 143.4847 44.7804 0.0000 0.0000 0.0000
# 3 26.2402 44.7804 115.9890 0.0000 0.0000 0.0000
# 4 0.0000 0.0000 0.0000 31.9530 0.0000 0.0000
# 5 0.0000 0.0000 0.0000 0.0000 28.1990 0.0000
# 6 0.0000 0.0000 0.0000 0.0000 0.0000 18.4789
#
#
#
# Elastic Compliance Matrix: (Units=1/GPa)
#
#
# Indices 1 2 3 4 5 6 
#
# 1 0.009672 -0.001618 -0.001563 0.000000 0.000000 0.000000
# 2 -0.001618 0.008195 -0.002798 0.000000 0.000000 0.000000
# 3 -0.001563 -0.002798 0.010055 0.000000 0.000000 0.000000
# 4 0.000000 0.000000 0.000000 0.031296 0.000000 0.000000
# 5 0.000000 0.000000 0.000000 0.000000 0.035462 0.000000
# 6 0.000000 0.000000 0.000000 0.000000 0.000000 0.054116
#
#
# Mechanical properties :
#
#
# Convention : Reuss Voigt Hill
#
# Bulk Modulus (GPa) = 62.64220 64.09538 63.36879
# Shear Modulus (GPa) = 30.10686 33.73124 31.91905
#
# Velocity S-wave (km/s) = 3.78623 4.00766 3.89852
# Velocity P-wave (km/s) = 6.99582 7.20656 7.10197
#
# Compressibility (1/GPa) = 0.01596368
#
# Stress axis : x y z
#
# Youngs Moduli (GPa) = 103.39579 122.02869 99.44940
#
# Poissons Ratio (x) = 0.19742 0.15548
# Poissons Ratio (y) = 0.16727 0.27824
# Poissons Ratio (z) = 0.16165 0.34141
#
# Static dielectric constant tensor:
#      x y z
#    x 3.721800 0.000000 0.000000 
#    y 0.000000 4.145040 0.000000 
#    z 0.000000 0.000000 3.831380 
# 
# 
# High freq. dielectric constant tensor:
#      x y z
#    x 1.822010 0.000000 0.000000 
#    y 0.000000 1.828250 0.000000 
#    z 0.000000 0.000000 1.824010 
# 
# From -- ./inp_files/26881.got.cif
#   From: 2010.03.12/outbox.cif.g09.slc.cpg/sg54_14_cif.got.tgz:26881.got - 2010.04.16 15:00:50.
