data_PCOD8222440
_publ_section_title
;
Structure prediction by ZEFSAII (Michael W. Deem and Ramdas Pophale) SiO2 
 PCOD8222440
Probable space group: P C C A
;
_chemical_formula_sum "Si O2"
_cell_formula_units_Z 48
_cell_length_a 15.629781
_cell_length_b 8.926249
_cell_length_c 17.328908
_cell_angle_alpha 90.000000
_cell_angle_beta 90.000000
_cell_angle_gamma 90.000000
_cell_volume 2417.648093
_symmetry_space_group_name_H-M "P C C A"
_symmetry_group_IT_number 54
_symmetry_cell_setting 'orthorhombic'
loop_
_space_group_symop_operation_xyz
x,y,z
1/2-x,-y,z
1/2+x,-y,1/2-z
-x,y,1/2-z
-x,-y,-z
1/2+x,y,-z
1/2-x,y,1/2+z
x,-y,1/2+z
loop_
_atom_site_type_symbol
_atom_site_label
_atom_site_fract_x
_atom_site_fract_y
_atom_site_fract_z
Si Si1 0.630910 0.612787 0.275238
Si Si2 0.025950 0.388077 0.374658
Si Si3 0.413778 0.717783 0.898244
Si Si4 0.188227 0.279753 0.750721
Si Si5 0.958101 0.135743 0.456982
Si Si6 0.553782 0.071875 0.322225
O O1 0.575565 0.623683 0.353273
O O2 0.577935 0.657538 0.200311
O O3 0.711937 0.724782 0.271850
O O4 0.653283 0.439338 0.273560
O O5 0.058022 0.545144 0.408593
O O6 0.033287 0.257832 0.438997
O O7 0.330825 0.736542 0.842995
O O8 0.495274 0.802470 0.862405
O O9 0.391039 0.786056 0.983006
O O10 0.141806 0.147771 0.704641
O O11 0.919211 0.066921 0.377625
O O12 0.000000 0.000000 0.500000
O O13 0.500000 0.005800 0.250000
#
# Coordination Sequence:
#
# PCOD8222440 Si02
#       6
#     8   8   8   8   8   8
#     4   9  18  30  59  87 103 135 187 243 269 322
#     4  10  18  33  56  83 107 137 194 231 271 320
#     4   9  17  33  56  82 108 145 179 230 276 336
#     4   9  16  33  57  83 112 136 182 233 289 315
#     4  10  21  33  54  78 111 149 186 217 276 342
#     4   9  17  31  54  80 111 145 180 228 277 336
#
# _framework density 19.854005000000001
#
# number of rings (size 3 to 8) (size 9 to 14) (size 15 to 20)
#    0.000    2.667    1.667    0.500    2.333    0.000 
#    0.000    0.833   11.000    2.000    0.000    0.000 
#    0.000    0.000    0.000    0.000    0.000    0.000 
#
# Total GULP energy -594640.586845 kJ/mol
# GULP energy per Si atom -12388.345559 kJ/mol
# Density = 1.980882 g / cm^3
# Si number density = 19.854005 Si / 1000 Ang^3
#
#
#
# Elastic Constant Matrix: (Units=GPa)
#
#
# Indices 1 2 3 4 5 6 
#
# 1 89.7490 20.1704 32.9360 0.0000 0.0000 0.0000
# 2 20.1704 95.4220 56.3493 0.0000 0.0000 0.0000
# 3 32.9360 56.3493 109.1508 0.0000 0.0000 0.0000
# 4 0.0000 0.0000 0.0000 41.6165 0.0000 0.0000
# 5 0.0000 0.0000 0.0000 0.0000 15.6027 0.0000
# 6 0.0000 0.0000 0.0000 0.0000 0.0000 10.9835
#
#
#
# Elastic Compliance Matrix: (Units=1/GPa)
#
#
# Indices 1 2 3 4 5 6 
#
# 1 0.012553 -0.000599 -0.003479 0.000000 0.000000 0.000000
# 2 -0.000599 0.015104 -0.007617 0.000000 0.000000 0.000000
# 3 -0.003479 -0.007617 0.014143 0.000000 0.000000 0.000000
# 4 0.000000 0.000000 0.000000 0.024029 0.000000 0.000000
# 5 0.000000 0.000000 0.000000 0.000000 0.064092 0.000000
# 6 0.000000 0.000000 0.000000 0.000000 0.000000 0.091045
#
#
# Mechanical properties :
#
#
# Convention : Reuss Voigt Hill
#
# Bulk Modulus (GPa) = 54.31287 57.02592 55.66939
# Shear Modulus (GPa) = 19.96057 25.96495 22.96276
#
# Velocity S-wave (km/s) = 3.17419 3.62027 3.40454
# Velocity P-wave (km/s) = 6.39136 6.80148 6.59961
#
# Compressibility (1/GPa) = 0.01841184
#
# Stress axis : x y z
#
# Youngs Moduli (GPa) = 79.65943 66.20583 70.70397
#
# Poissons Ratio (x) = 0.03968 0.24595
# Poissons Ratio (y) = 0.04775 0.53854
# Poissons Ratio (z) = 0.27710 0.50428
#
# Static dielectric constant tensor:
#      x y z
#    x 3.465450 0.000000 0.000000 
#    y 0.000000 3.810570 0.000000 
#    z 0.000000 0.000000 4.132080 
# 
# 
# High freq. dielectric constant tensor:
#      x y z
#    x 1.727220 0.000000 0.000000 
#    y 0.000000 1.790930 0.000000 
#    z 0.000000 0.000000 1.776720 
# 
# From -- ./inp_files/18008.got.cif
#   From: 2010.03.12/outbox.cif.g09.slc.cpg/sg54_10_cif.got.tgz:18008.got - 2010.04.16 15:00:50.
