data_PCOD8222500
_publ_section_title
;
Structure prediction by ZEFSAII (Michael W. Deem and Ramdas Pophale) SiO2 
 PCOD8222500
Probable space group: P C C A
;
_chemical_formula_sum "Si O2"
_cell_formula_units_Z 48
_cell_length_a 8.138521
_cell_length_b 11.538127
_cell_length_c 27.020582
_cell_angle_alpha 90.000000
_cell_angle_beta 90.000000
_cell_angle_gamma 90.000000
_cell_volume 2537.321518
_symmetry_space_group_name_H-M "P C C A"
_symmetry_group_IT_number 54
_symmetry_cell_setting 'orthorhombic'
loop_
_space_group_symop_operation_xyz
x,y,z
1/2-x,-y,z
1/2+x,-y,1/2-z
-x,y,1/2-z
-x,-y,-z
1/2+x,y,-z
1/2-x,y,1/2+z
x,-y,1/2+z
loop_
_atom_site_type_symbol
_atom_site_label
_atom_site_fract_x
_atom_site_fract_y
_atom_site_fract_z
Si Si1 0.176972 0.124879 0.224838
Si Si2 0.243595 0.133853 0.115541
Si Si3 0.500000 0.266583 0.250000
Si Si4 0.566539 0.690931 0.455265
Si Si5 0.288129 0.367377 0.444824
Si Si6 0.982372 0.319701 0.857611
Si Si7 0.250000 0.500000 0.098795
O O1 0.140472 0.143536 0.166488
O O2 0.325508 0.202650 0.244773
O O3 0.000000 0.147948 0.250000
O O4 0.250000 0.000000 0.236166
O O5 0.162818 0.204517 0.070708
O O6 0.424020 0.188416 0.128242
O O7 0.250000 0.000000 0.098544
O O8 0.528564 0.338441 0.199736
O O9 0.375711 0.709404 0.445050
O O10 0.592457 0.689773 0.514378
O O11 0.617451 0.563886 0.435543
O O12 0.250000 0.500000 0.458009
O O13 0.363497 0.355710 0.390517
O O14 0.831059 0.404946 0.866544
#
# Coordination Sequence:
#
# PCOD8222500 Si02
#       7
#     8   8   4   8   8   8   4
#     4  10  19  35  62  87 118 165 211 256 297 356
#     4   9  21  40  59  88 125 160 197 251 308 363
#     4  10  22  40  56  88 128 156 202 260 310 364
#     4  11  21  36  62  89 117 155 200 250 303 355
#     4  12  22  38  62  92 115 156 210 252 298 363
#     4  10  22  39  60  87 120 156 203 250 306 364
#     4  10  18  38  58  82 116 152 194 256 296 354
#
# _framework density 18.917586
#
# number of rings (size 3 to 8) (size 9 to 14) (size 15 to 20)
#    0.000    1.667    3.333    2.500    2.333    0.000 
#    1.500    4.167    3.667    0.000    0.000    0.000 
#    0.000    0.000    0.000    0.000    0.000    0.000 
#
# Total GULP energy -594931.849588 kJ/mol
# GULP energy per Si atom -12394.413533 kJ/mol
# Density = 1.887453 g / cm^3
# Si number density = 18.917586 Si / 1000 Ang^3
#
#
#
# Elastic Constant Matrix: (Units=GPa)
#
#
# Indices 1 2 3 4 5 6 
#
# 1 112.5177 16.8791 49.0126 0.0000 0.0000 0.0000
# 2 16.8791 75.6938 33.5503 0.0000 0.0000 0.0000
# 3 49.0126 33.5503 148.3887 0.0000 0.0000 0.0000
# 4 0.0000 0.0000 0.0000 22.2571 0.0000 0.0000
# 5 0.0000 0.0000 0.0000 0.0000 24.8802 0.0000
# 6 0.0000 0.0000 0.0000 0.0000 0.0000 9.0608
#
#
#
# Elastic Compliance Matrix: (Units=1/GPa)
#
#
# Indices 1 2 3 4 5 6 
#
# 1 0.010435 -0.000888 -0.003246 0.000000 0.000000 0.000000
# 2 -0.000888 0.014758 -0.003043 0.000000 0.000000 0.000000
# 3 -0.003246 -0.003043 0.008499 0.000000 0.000000 0.000000
# 4 0.000000 0.000000 0.000000 0.044929 0.000000 0.000000
# 5 0.000000 0.000000 0.000000 0.000000 0.040193 0.000000
# 6 0.000000 0.000000 0.000000 0.000000 0.000000 0.110366
#
#
# Mechanical properties :
#
#
# Convention : Reuss Voigt Hill
#
# Bulk Modulus (GPa) = 51.71357 59.49825 55.60591
# Shear Modulus (GPa) = 20.00158 27.05015 23.52587
#
# Velocity S-wave (km/s) = 3.25514 3.78550 3.53029
# Velocity P-wave (km/s) = 6.44388 7.11521 6.78785
#
# Compressibility (1/GPa) = 0.01933728
#
# Stress axis : x y z
#
# Youngs Moduli (GPa) = 95.83535 67.75925 117.65785
#
# Poissons Ratio (x) = 0.06018 0.38188
# Poissons Ratio (y) = 0.08512 0.35808
# Poissons Ratio (z) = 0.31105 0.20622
#
# Static dielectric constant tensor:
#      x y z
#    x 3.617610 0.000000 0.000000 
#    y 0.000000 3.399290 0.000000 
#    z 0.000000 0.000000 3.532540 
# 
# 
# High freq. dielectric constant tensor:
#      x y z
#    x 1.735620 0.000000 0.000000 
#    y 0.000000 1.717340 0.000000 
#    z 0.000000 0.000000 1.743110 
# 
# From -- ./inp_files/23551.got.cif
#   From: 2010.03.12/outbox.cif.g09.slc.cpg/sg54_12_cif.got.tgz:23551.got - 2010.04.16 15:00:50.
