data_PCOD8222272
_publ_section_title
;
Structure prediction by ZEFSAII (Michael W. Deem and Ramdas Pophale) SiO2 
 PCOD8222272
Probable space group: P C C A
;
_chemical_formula_sum "Si O2"
_cell_formula_units_Z 56
_cell_length_a 22.445225
_cell_length_b 26.500873
_cell_length_c 5.024503
_cell_angle_alpha 90.000000
_cell_angle_beta 90.000000
_cell_angle_gamma 90.000000
_cell_volume 2988.665113
_symmetry_space_group_name_H-M "P C C A"
_symmetry_group_IT_number 54
_symmetry_cell_setting 'orthorhombic'
loop_
_space_group_symop_operation_xyz
x,y,z
1/2-x,-y,z
1/2+x,-y,1/2-z
-x,y,1/2-z
-x,-y,-z
1/2+x,y,-z
1/2-x,y,1/2+z
x,-y,1/2+z
loop_
_atom_site_type_symbol
_atom_site_label
_atom_site_fract_x
_atom_site_fract_y
_atom_site_fract_z
Si Si1 0.912604 0.470006 0.563003
Si Si2 0.365333 0.664663 0.690069
Si Si3 0.787507 0.131853 0.845091
Si Si4 0.317125 0.022707 0.036356
Si Si5 0.288985 0.572072 0.814722
Si Si6 0.709772 0.240975 0.441417
Si Si7 0.064891 0.637407 0.668833
O O1 0.934045 0.486495 0.857194
O O2 0.841079 0.465588 0.592931
O O3 0.940305 0.417735 0.465271
O O4 0.313347 0.629605 0.814554
O O5 0.341793 0.718725 0.601380
O O6 0.393726 0.636904 0.432243
O O7 0.411440 0.673816 0.933101
O O8 0.771030 0.129943 0.533948
O O9 0.824966 0.082264 0.914570
O O10 0.820012 0.185172 0.907538
O O11 0.250000 0.000000 0.988883
O O12 0.350687 0.991296 0.265040
O O13 0.265240 0.562760 0.517255
O O14 0.735813 0.247982 0.736132
O O15 0.000000 0.657025 0.750000
#
# Coordination Sequence:
#
# PCOD8222272 Si02
#       7
#     8   8   8   8   8   8   8
#     4  11  23  38  55  80 106 127 156 193 235 286
#     4  11  21  38  56  77 102 127 168 208 253 291
#     4  10  16  24  35  58  85 121 168 208 234 271
#     4  10  14  20  33  48  77 120 166 212 227 258
#     4  11  21  34  54  75 102 137 164 189 224 280
#     4  10  20  31  49  72 102 133 167 210 243 290
#     4  11  24  41  61  79  98 126 163 206 254 314
#
# _framework density 18.737461
#
# number of rings (size 3 to 8) (size 9 to 14) (size 15 to 20)
#    0.000    1.429    2.857    6.429    0.000    2.286 
#    0.000    0.000    0.000    0.000    0.000    0.000 
#    0.000    0.000    0.000    0.000    0.000   14.286 
#
# Total GULP energy -693924.271467 kJ/mol
# GULP energy per Si atom -12391.504848 kJ/mol
# Density = 1.869481 g / cm^3
# Si number density = 18.737461 Si / 1000 Ang^3
#
#
#
# Elastic Constant Matrix: (Units=GPa)
#
#
# Indices 1 2 3 4 5 6 
#
# 1 19.0013 2.3104 5.9633 0.0000 0.0000 0.0000
# 2 2.3104 83.2028 7.7975 0.0000 0.0000 0.0000
# 3 5.9633 7.7975 103.2610 0.0000 0.0000 0.0000
# 4 0.0000 0.0000 0.0000 27.2481 0.0000 0.0000
# 5 0.0000 0.0000 0.0000 0.0000 17.9986 0.0000
# 6 0.0000 0.0000 0.0000 0.0000 0.0000 8.6390
#
#
#
# Elastic Compliance Matrix: (Units=1/GPa)
#
#
# Indices 1 2 3 4 5 6 
#
# 1 0.053720 -0.001210 -0.003011 0.000000 0.000000 0.000000
# 2 -0.001210 0.012132 -0.000846 0.000000 0.000000 0.000000
# 3 -0.003011 -0.000846 0.009922 0.000000 0.000000 0.000000
# 4 0.000000 0.000000 0.000000 0.036700 0.000000 0.000000
# 5 0.000000 0.000000 0.000000 0.000000 0.055560 0.000000
# 6 0.000000 0.000000 0.000000 0.000000 0.000000 0.115755
#
#
# Mechanical properties :
#
#
# Convention : Reuss Voigt Hill
#
# Bulk Modulus (GPa) = 15.23455 26.40081 20.81768
# Shear Modulus (GPa) = 15.83274 23.40340 19.61807
#
# Velocity S-wave (km/s) = 2.91000 3.53798 3.23924
# Velocity P-wave (km/s) = 4.40897 5.55069 5.01244
#
# Compressibility (1/GPa) = 0.06564027
#
# Stress axis : x y z
#
# Youngs Moduli (GPa) = 18.61504 82.42852 100.78629
#
# Poissons Ratio (x) = 0.09970 0.30346
# Poissons Ratio (y) = 0.02252 0.08529
# Poissons Ratio (z) = 0.05605 0.06975
#
# Static dielectric constant tensor:
#      x y z
#    x 2.955880 0.000000 0.000000 
#    y 0.000000 3.538130 0.000000 
#    z 0.000000 0.000000 4.136960 
# 
# 
# High freq. dielectric constant tensor:
#      x y z
#    x 1.651550 0.000000 0.000000 
#    y 0.000000 1.720430 0.000000 
#    z 0.000000 0.000000 1.768000 
# 
# From -- ./inp_files/1419.got.cif
#   From: 2010.03.12/outbox.cif.g09.slc.cpg/sg54_1_cif.got.tgz:1419.got - 2010.04.16 15:00:50.
