data_PCOD8222015
_publ_section_title
;
Structure prediction by ZEFSAII (Michael W. Deem and Ramdas Pophale) SiO2 
 PCOD8222015
Probable space group: P M N A
;
_chemical_formula_sum "Si O2"
_cell_formula_units_Z 48
_cell_length_a 8.690687
_cell_length_b 16.382184
_cell_length_c 18.751745
_cell_angle_alpha 90.000000
_cell_angle_beta 90.000000
_cell_angle_gamma 90.000000
_cell_volume 2669.731568
_symmetry_space_group_name_H-M "P M N A"
_symmetry_group_IT_number 53
_symmetry_cell_setting 'orthorhombic'
loop_
_space_group_symop_operation_xyz
x,y,z
1/2-x,-y,1/2+z
x,-y,-z
1/2-x,y,1/2-z
-x,-y,-z
1/2+x,y,1/2-z
-x,y,z
1/2+x,-y,1/2+z
loop_
_atom_site_type_symbol
_atom_site_label
_atom_site_fract_x
_atom_site_fract_y
_atom_site_fract_z
Si Si1 0.680811 0.318621 0.604386
Si Si2 0.316899 0.337021 0.325234
Si Si3 0.316993 0.083859 0.535624
Si Si4 0.680869 0.243361 0.459325
Si Si5 0.682197 0.837509 0.173271
Si Si6 0.319449 0.519440 0.323806
O O1 0.500000 0.303486 0.617312
O O2 0.726841 0.304980 0.522481
O O3 0.768850 0.255076 0.655102
O O4 0.729845 0.412056 0.619130
O O5 0.250000 0.307786 0.250000
O O6 0.500000 0.333285 0.321873
O O7 0.247348 0.276620 0.385512
O O8 0.259533 0.428998 0.344359
O O9 0.500000 0.086166 0.545864
O O10 0.260048 0.153366 0.480118
O O11 0.243130 0.099131 0.613206
O O12 0.260309 0.000000 0.500000
O O13 0.500000 0.241361 0.449260
O O14 0.750000 0.863192 0.250000
O O15 0.500000 0.843477 0.176586
O O16 0.250000 0.549324 0.250000
O O17 0.500000 0.516205 0.315010
#
# Coordination Sequence:
#
# PCOD8222015 Si02
#       6
#     8   8   8   8   8   8
#     4   9  17  30  47  69  95 124 160 199 241 286
#     4   9  17  30  46  65  91 124 160 197 236 278
#     4   9  18  35  57  77  99 127 158 197 248 300
#     4   8  15  29  49  70  92 120 155 193 237 289
#     4  11  21  33  51  75 103 132 163 198 239 288
#     4   9  17  27  42  64  91 124 160 197 234 276
#
# _framework density 17.979337000000001
#
# number of rings (size 3 to 8) (size 9 to 14) (size 15 to 20)
#    0.000    2.833    0.000    3.000    0.000    3.000 
#    0.000    7.500    0.000    2.000    0.000    9.333 
#    0.000    0.000    0.000    0.000    0.000    0.000 
#
# Total GULP energy -594924.738900 kJ/mol
# GULP energy per Si atom -12394.265394 kJ/mol
# Density = 1.793841 g / cm^3
# Si number density = 17.979337 Si / 1000 Ang^3
#
#
#
# Elastic Constant Matrix: (Units=GPa)
#
#
# Indices 1 2 3 4 5 6 
#
# 1 43.0739 24.8273 34.1437 0.0000 0.0000 0.0000
# 2 24.8273 119.8739 97.2496 0.0000 0.0000 0.0000
# 3 34.1437 97.2496 163.1786 0.0000 0.0000 0.0000
# 4 0.0000 0.0000 0.0000 28.8745 0.0000 0.0000
# 5 0.0000 0.0000 0.0000 0.0000 26.4211 0.0000
# 6 0.0000 0.0000 0.0000 0.0000 0.0000 31.5914
#
#
#
# Elastic Compliance Matrix: (Units=1/GPa)
#
#
# Indices 1 2 3 4 5 6 
#
# 1 0.028085 -0.002032 -0.004666 0.000000 0.000000 0.000000
# 2 -0.002032 0.016298 -0.009288 0.000000 0.000000 0.000000
# 3 -0.004666 -0.009288 0.012640 0.000000 0.000000 0.000000
# 4 0.000000 0.000000 0.000000 0.034633 0.000000 0.000000
# 5 0.000000 0.000000 0.000000 0.000000 0.037849 0.000000
# 6 0.000000 0.000000 0.000000 0.000000 0.000000 0.031654
#
#
# Mechanical properties :
#
#
# Convention : Reuss Voigt Hill
#
# Bulk Modulus (GPa) = 39.91631 70.95195 55.43413
# Shear Modulus (GPa) = 24.81634 28.70445 26.76039
#
# Velocity S-wave (km/s) = 3.71923 3.99999 3.86216
# Velocity P-wave (km/s) = 6.37910 7.80269 7.12653
#
# Compressibility (1/GPa) = 0.02505241
#
# Stress axis : x y z
#
# Youngs Moduli (GPa) = 35.60562 61.35774 79.11460
#
# Poissons Ratio (x) = 0.12465 0.36914
# Poissons Ratio (y) = 0.07233 0.73481
# Poissons Ratio (z) = 0.16613 0.56989
#
# Static dielectric constant tensor:
#      x y z
#    x 3.070240 0.000000 0.000000 
#    y 0.000000 3.545730 0.000000 
#    z 0.000000 0.000000 3.487290 
# 
# 
# High freq. dielectric constant tensor:
#      x y z
#    x 1.671190 0.000000 0.000000 
#    y 0.000000 1.689030 0.000000 
#    z 0.000000 0.000000 1.696880 
# 
# From -- ./inp_files/20171.got.cif
#   From: 2010.03.12/outbox.cif.g09.slc.cpg/sg53_11_cif.got.tgz:20171.got - 2010.04.16 14:36:59.
