data_PCOD8222876
_publ_section_title
;
Structure prediction by ZEFSAII (Michael W. Deem and Ramdas Pophale) SiO2 
 PCOD8222876
Probable space group: P C C A
;
_chemical_formula_sum "Si O2"
_cell_formula_units_Z 32
_cell_length_a 20.397554
_cell_length_b 8.125963
_cell_length_c 8.187485
_cell_angle_alpha 90.000000
_cell_angle_beta 90.000000
_cell_angle_gamma 90.000000
_cell_volume 1357.073748
_symmetry_space_group_name_H-M "P C C A"
_symmetry_group_IT_number 54
_symmetry_cell_setting 'orthorhombic'
loop_
_space_group_symop_operation_xyz
x,y,z
1/2-x,-y,z
1/2+x,-y,1/2-z
-x,y,1/2-z
-x,-y,-z
1/2+x,y,-z
1/2-x,y,1/2+z
x,-y,1/2+z
loop_
_atom_site_type_symbol
_atom_site_label
_atom_site_fract_x
_atom_site_fract_y
_atom_site_fract_z
Si Si1 0.300823 0.172145 0.873914
Si Si2 0.428627 0.763326 0.785424
Si Si3 0.700736 0.648054 0.809339
Si Si4 0.377430 0.062615 0.582667
O O1 0.230212 0.187403 0.781410
O O2 0.353992 0.183557 0.727298
O O3 0.305909 0.326866 0.996378
O O4 0.314383 0.003554 0.976224
O O5 0.500000 0.685863 0.750000
O O6 0.372388 0.622927 0.763900
O O7 0.416389 0.906748 0.652845
O O8 0.426391 0.833993 0.968930
O O9 0.750000 0.500000 0.771103
#
# Coordination Sequence:
#
# PCOD8222876 Si02
#       4
#     8   8   8   8
#     4  10  21  36  59  87 117 153 198 258 306 351
#     4  10  20  36  61  92 129 165 200 253 316 374
#     4  11  23  38  58  84 119 164 212 248 289 357
#     4   9  20  36  59  94 125 153 197 253 319 375
#
# _framework density 23.580148999999999
#
# number of rings (size 3 to 8) (size 9 to 14) (size 15 to 20)
#    0.000    2.000    0.000    3.000    0.000   17.000 
#    0.000    1.250    0.000   30.000    0.000    0.000 
#    0.000    0.000    0.000    0.000    0.000    0.000 
#
# Total GULP energy -396477.595103 kJ/mol
# GULP energy per Si atom -12389.924847 kJ/mol
# Density = 2.352648 g / cm^3
# Si number density = 23.580149 Si / 1000 Ang^3
#
#
#
# Elastic Constant Matrix: (Units=GPa)
#
#
# Indices 1 2 3 4 5 6 
#
# 1 169.6285 34.9684 40.4919 0.0000 0.0000 0.0000
# 2 34.9684 45.3008 28.1505 0.0000 0.0000 0.0000
# 3 40.4919 28.1505 142.0790 0.0000 0.0000 0.0000
# 4 0.0000 0.0000 0.0000 23.5000 0.0000 0.0000
# 5 0.0000 0.0000 0.0000 0.0000 27.7106 0.0000
# 6 0.0000 0.0000 0.0000 0.0000 0.0000 30.4718
#
#
#
# Elastic Compliance Matrix: (Units=1/GPa)
#
#
# Indices 1 2 3 4 5 6 
#
# 1 0.007153 -0.004852 -0.001077 0.000000 0.000000 0.000000
# 2 -0.004852 0.028465 -0.004257 0.000000 0.000000 0.000000
# 3 -0.001077 -0.004257 0.008189 0.000000 0.000000 0.000000
# 4 0.000000 0.000000 0.000000 0.042553 0.000000 0.000000
# 5 0.000000 0.000000 0.000000 0.000000 0.036087 0.000000
# 6 0.000000 0.000000 0.000000 0.000000 0.000000 0.032817
#
#
# Mechanical properties :
#
#
# Convention : Reuss Voigt Hill
#
# Bulk Modulus (GPa) = 42.67227 62.69222 52.68224
# Shear Modulus (GPa) = 27.25565 33.22964 30.24265
#
# Velocity S-wave (km/s) = 3.40350 3.75803 3.58515
# Velocity P-wave (km/s) = 5.79492 6.74351 6.28713
#
# Compressibility (1/GPa) = 0.02343442
#
# Stress axis : x y z
#
# Youngs Moduli (GPa) = 139.81039 35.13046 122.11797
#
# Poissons Ratio (x) = 0.17045 0.13154
# Poissons Ratio (y) = 0.67833 0.51988
# Poissons Ratio (z) = 0.15060 0.14956
#
# Static dielectric constant tensor:
#      x y z
#    x 4.144470 0.000000 0.000000 
#    y 0.000000 3.693800 0.000000 
#    z 0.000000 0.000000 4.649680 
# 
# 
# High freq. dielectric constant tensor:
#      x y z
#    x 1.913260 0.000000 0.000000 
#    y 0.000000 1.884170 0.000000 
#    z 0.000000 0.000000 1.968120 
# 
# From -- ./inp_files/4465.got.cif
#   From: 2010.03.12/outbox.cif.g09.slc.cpg/sg54_3_cif.got.tgz:4465.got - 2010.04.16 15:00:50.
