data_PCOD8222498
_publ_section_title
;
Structure prediction by ZEFSAII (Michael W. Deem and Ramdas Pophale) SiO2 
 PCOD8222498
Probable space group: P C C A
;
_chemical_formula_sum "Si O2"
_cell_formula_units_Z 48
_cell_length_a 13.831681
_cell_length_b 8.803362
_cell_length_c 20.666678
_cell_angle_alpha 90.000000
_cell_angle_beta 90.000000
_cell_angle_gamma 90.000000
_cell_volume 2516.484142
_symmetry_space_group_name_H-M "P C C A"
_symmetry_group_IT_number 54
_symmetry_cell_setting 'orthorhombic'
loop_
_space_group_symop_operation_xyz
x,y,z
1/2-x,-y,z
1/2+x,-y,1/2-z
-x,y,1/2-z
-x,-y,-z
1/2+x,y,-z
1/2-x,y,1/2+z
x,-y,1/2+z
loop_
_atom_site_type_symbol
_atom_site_label
_atom_site_fract_x
_atom_site_fract_y
_atom_site_fract_z
Si Si1 0.016793 0.849053 0.680785
Si Si2 0.145316 0.953299 0.358674
Si Si3 0.158753 0.103720 0.712960
Si Si4 0.981975 0.162621 0.531589
Si Si5 0.343127 0.686394 0.597250
Si Si6 0.624782 0.659445 0.422371
O O1 0.085399 0.741012 0.640973
O O2 0.000000 0.768329 0.750000
O O3 0.063665 0.014749 0.690804
O O4 0.914192 0.887754 0.647505
O O5 0.155578 0.864668 0.289980
O O6 0.094073 0.842798 0.409681
O O7 0.250000 0.000000 0.385540
O O8 0.162068 0.261006 0.672604
O O9 0.250000 0.000000 0.694848
O O10 0.939656 0.287764 0.482710
O O11 0.087863 0.206770 0.555797
O O12 0.000000 0.000000 0.500000
O O13 0.386052 0.518177 0.591979
O O14 0.236743 0.700531 0.565990
#
# Coordination Sequence:
#
# PCOD8222498 Si02
#       6
#     8   8   8   8   8   8
#     4  10  19  37  60  90 118 157 202 257 305 355
#     4  10  22  36  61  95 118 152 207 264 303 354
#     4  10  18  37  66  88 121 151 209 261 306 359
#     4  12  24  39  63  89 123 166 209 253 307 369
#     4  11  24  41  63  91 123 164 207 253 311 374
#     4  11  24  41  62  89 130 165 203 251 311 384
#
# _framework density 19.074231000000001
#
# number of rings (size 3 to 8) (size 9 to 14) (size 15 to 20)
#    0.000    1.333    5.000    0.500    2.333    0.000 
#    3.000    0.000    0.000    2.000    0.000    0.000 
#    0.000    0.000    0.000    0.000    0.000    0.000 
#
# Total GULP energy -595172.747976 kJ/mol
# GULP energy per Si atom -12399.432249 kJ/mol
# Density = 1.903082 g / cm^3
# Si number density = 19.074231 Si / 1000 Ang^3
#
#
#
# Elastic Constant Matrix: (Units=GPa)
#
#
# Indices 1 2 3 4 5 6 
#
# 1 109.1943 36.6224 32.6871 0.0000 0.0000 0.0000
# 2 36.6224 97.1473 53.6133 0.0000 0.0000 0.0000
# 3 32.6871 53.6133 109.8526 0.0000 0.0000 0.0000
# 4 0.0000 0.0000 0.0000 20.5725 0.0000 0.0000
# 5 0.0000 0.0000 0.0000 0.0000 33.6837 0.0000
# 6 0.0000 0.0000 0.0000 0.0000 0.0000 31.7713
#
#
#
# Elastic Compliance Matrix: (Units=1/GPa)
#
#
# Indices 1 2 3 4 5 6 
#
# 1 0.010701 -0.003116 -0.001663 0.000000 0.000000 0.000000
# 2 -0.003116 0.014996 -0.006391 0.000000 0.000000 0.000000
# 3 -0.001663 -0.006391 0.012717 0.000000 0.000000 0.000000
# 4 0.000000 0.000000 0.000000 0.048609 0.000000 0.000000
# 5 0.000000 0.000000 0.000000 0.000000 0.029688 0.000000
# 6 0.000000 0.000000 0.000000 0.000000 0.000000 0.031475
#
#
# Mechanical properties :
#
#
# Convention : Reuss Voigt Hill
#
# Bulk Modulus (GPa) = 62.21860 62.44886 62.33373
# Shear Modulus (GPa) = 28.42778 30.09027 29.25902
#
# Velocity S-wave (km/s) = 3.86473 3.97613 3.92082
# Velocity P-wave (km/s) = 7.25292 7.34101 7.29710
#
# Compressibility (1/GPa) = 0.01607236
#
# Stress axis : x y z
#
# Youngs Moduli (GPa) = 93.44919 66.68631 78.63286
#
# Poissons Ratio (x) = 0.20780 0.13079
# Poissons Ratio (y) = 0.29120 0.50257
# Poissons Ratio (z) = 0.15544 0.42622
#
# Static dielectric constant tensor:
#      x y z
#    x 3.760900 0.000000 0.000000 
#    y 0.000000 3.221050 0.000000 
#    z 0.000000 0.000000 3.659450 
# 
# 
# High freq. dielectric constant tensor:
#      x y z
#    x 1.764980 0.000000 0.000000 
#    y 0.000000 1.708360 0.000000 
#    z 0.000000 0.000000 1.748610 
# 
# From -- ./inp_files/21430.got.cif
#   From: 2010.03.12/outbox.cif.g09.slc.cpg/sg54_11_cif.got.tgz:21430.got - 2010.04.16 15:00:50.
