data_PCOD8222883
_publ_section_title
;
Structure prediction by ZEFSAII (Michael W. Deem and Ramdas Pophale) SiO2 
 PCOD8222883
Probable space group: P C C A
;
_chemical_formula_sum "Si O2"
_cell_formula_units_Z 36
_cell_length_a 5.125120
_cell_length_b 13.730967
_cell_length_c 23.082245
_cell_angle_alpha 90.000000
_cell_angle_beta 90.000000
_cell_angle_gamma 90.000000
_cell_volume 1624.363448
_symmetry_space_group_name_H-M "P C C A"
_symmetry_group_IT_number 54
_symmetry_cell_setting 'orthorhombic'
loop_
_space_group_symop_operation_xyz
x,y,z
1/2-x,-y,z
1/2+x,-y,1/2-z
-x,y,1/2-z
-x,-y,-z
1/2+x,y,-z
1/2-x,y,1/2+z
x,-y,1/2+z
loop_
_atom_site_type_symbol
_atom_site_label
_atom_site_fract_x
_atom_site_fract_y
_atom_site_fract_z
Si Si1 0.421689 0.225115 0.124968
Si Si2 0.750000 0.500000 0.129662
Si Si3 0.589942 0.699067 0.184564
Si Si4 0.486576 0.108633 0.025822
Si Si5 0.052522 0.391470 0.538207
O O1 0.639817 0.241915 0.174376
O O2 0.440855 0.116191 0.096404
O O3 0.485547 0.286151 0.066599
O O4 0.134466 0.251428 0.146329
O O5 0.636572 0.586175 0.169825
O O6 0.506560 0.466034 0.090708
O O7 0.500000 0.709004 0.250000
O O8 0.251488 0.163070 0.992521
O O9 0.500000 0.000000 0.000000
O O10 0.344279 0.408930 0.513731
#
# Coordination Sequence:
#
# PCOD8222883 Si02
#       5
#     8   4   8   8   8
#     4  11  22  39  60  88 121 159 202 251 311 375
#     4  10  24  38  56  80 114 162 216 262 304 354
#     4  11  25  42  60  83 115 165 222 272 307 343
#     4  10  20  36  62  99 131 156 186 235 307 391
#     4  11  21  34  52  79 117 155 189 237 303 371
#
# _framework density 22.162528999999999
#
# number of rings (size 3 to 8) (size 9 to 14) (size 15 to 20)
#    0.000    1.333    0.000    6.667    0.000   10.667 
#    0.000    0.000    0.000    0.000    0.000   62.222 
#    0.000    0.000    0.000    0.000    0.000    0.000 
#
# Total GULP energy -446030.516037 kJ/mol
# GULP energy per Si atom -12389.736557 kJ/mol
# Density = 2.211209 g / cm^3
# Si number density = 22.162529 Si / 1000 Ang^3
#
#
#
# Elastic Constant Matrix: (Units=GPa)
#
#
# Indices 1 2 3 4 5 6 
#
# 1 161.3572 13.9779 30.5976 0.0000 0.0000 0.0000
# 2 13.9779 70.1590 40.3007 0.0000 0.0000 0.0000
# 3 30.5976 40.3007 109.2114 0.0000 0.0000 0.0000
# 4 0.0000 0.0000 0.0000 27.2310 0.0000 0.0000
# 5 0.0000 0.0000 0.0000 0.0000 35.7444 0.0000
# 6 0.0000 0.0000 0.0000 0.0000 0.0000 13.0440
#
#
#
# Elastic Compliance Matrix: (Units=1/GPa)
#
#
# Indices 1 2 3 4 5 6 
#
# 1 0.006551 -0.000318 -0.001718 0.000000 0.000000 0.000000
# 2 -0.000318 0.018103 -0.006591 0.000000 0.000000 0.000000
# 3 -0.001718 -0.006591 0.012070 0.000000 0.000000 0.000000
# 4 0.000000 0.000000 0.000000 0.036723 0.000000 0.000000
# 5 0.000000 0.000000 0.000000 0.000000 0.027976 0.000000
# 6 0.000000 0.000000 0.000000 0.000000 0.000000 0.076663
#
#
# Mechanical properties :
#
#
# Convention : Reuss Voigt Hill
#
# Bulk Modulus (GPa) = 51.36332 56.71999 54.04165
# Shear Modulus (GPa) = 24.77330 32.26067 28.51698
#
# Velocity S-wave (km/s) = 3.34698 3.81942 3.59098
# Velocity P-wave (km/s) = 6.17757 6.71558 6.45219
#
# Compressibility (1/GPa) = 0.01946915
#
# Stress axis : x y z
#
# Youngs Moduli (GPa) = 152.65417 55.24010 82.84986
#
# Poissons Ratio (x) = 0.01759 0.14232
# Poissons Ratio (y) = 0.04860 0.54607
# Poissons Ratio (z) = 0.26223 0.36409
#
# Static dielectric constant tensor:
#      x y z
#    x 2.600030 0.000000 0.000000 
#    y 0.000000 4.091480 0.000000 
#    z 0.000000 0.000000 3.902860 
# 
# 
# High freq. dielectric constant tensor:
#      x y z
#    x 1.904470 0.000000 0.000000 
#    y 0.000000 1.857380 0.000000 
#    z 0.000000 0.000000 1.854400 
# 
# From -- ./inp_files/19615.got.cif
#   From: 2010.03.12/outbox.cif.g09.slc.cpg/sg54_10_cif.got.tgz:19615.got - 2010.04.16 15:00:50.
