data_PCOD8222144
_publ_section_title
;
Structure prediction by ZEFSAII (Michael W. Deem and Ramdas Pophale) SiO2 
 PCOD8222144
Probable space group: P M N A
;
_chemical_formula_sum "Si O2"
_cell_formula_units_Z 48
_cell_length_a 8.887370
_cell_length_b 30.558681
_cell_length_c 9.050569
_cell_angle_alpha 90.000000
_cell_angle_beta 90.000000
_cell_angle_gamma 90.000000
_cell_volume 2458.010591
_symmetry_space_group_name_H-M "P M N A"
_symmetry_group_IT_number 53
_symmetry_cell_setting 'orthorhombic'
loop_
_space_group_symop_operation_xyz
x,y,z
1/2-x,-y,1/2+z
x,-y,-z
1/2-x,y,1/2-z
-x,-y,-z
1/2+x,y,1/2-z
-x,y,z
1/2+x,-y,1/2+z
loop_
_atom_site_type_symbol
_atom_site_label
_atom_site_fract_x
_atom_site_fract_y
_atom_site_fract_z
Si Si1 0.825860 0.456587 0.593681
Si Si2 0.674234 0.619158 0.591243
Si Si3 0.824869 0.705727 0.094487
Si Si4 0.322009 0.218831 0.090985
Si Si5 0.324455 0.863505 0.093763
Si Si6 0.676895 0.039564 0.904940
O O1 0.801928 0.500000 0.500000
O O2 0.750000 0.464731 0.750000
O O3 0.749093 0.416423 0.512668
O O4 0.000000 0.445350 0.617187
O O5 0.750000 0.619279 0.750000
O O6 0.500000 0.607393 0.610813
O O7 0.698036 0.666081 0.517944
O O8 0.750000 0.693273 0.250000
O O9 0.000000 0.716367 0.119052
O O10 0.742108 0.747412 0.027269
O O11 0.250000 0.226814 0.250000
O O12 0.500000 0.225064 0.104532
O O13 0.276200 0.170717 0.032402
O O14 0.250000 0.852096 0.250000
O O15 0.500000 0.860375 0.124938
O O16 0.279578 0.912018 0.034472
O O17 0.750000 0.032676 0.750000
O O18 0.500000 0.034685 0.889914
O O19 0.745135 0.000000 0.000000
#
# Coordination Sequence:
#
# PCOD8222144 Si02
#       6
#     8   8   8   8   8   8
#     4  11  24  41  63  91 123 159 199 243 290 342
#     4  11  24  41  63  90 121 156 194 239 288 339
#     4  11  24  41  62  88 117 151 191 234 282 337
#     4  11  23  38  57  82 113 147 185 231 282 335
#     4   9  19  35  54  77 105 140 181 224 272 328
#     4   9  18  33  52  75 105 139 177 222 271 325
#
# _framework density 19.527988000000001
#
# number of rings (size 3 to 8) (size 9 to 14) (size 15 to 20)
#    0.000    1.667    0.000    4.000    0.000   11.667 
#    0.000    0.000    0.000    0.000    0.000    0.000 
#    0.000    0.000    0.000    0.000    0.000    0.000 
#
# Total GULP energy -595288.857088 kJ/mol
# GULP energy per Si atom -12401.851189 kJ/mol
# Density = 1.948354 g / cm^3
# Si number density = 19.527988 Si / 1000 Ang^3
#
#
#
# Elastic Constant Matrix: (Units=GPa)
#
#
# Indices 1 2 3 4 5 6 
#
# 1 104.5269 60.5966 60.8860 0.0000 0.0000 0.0000
# 2 60.5966 107.1522 42.3072 0.0000 0.0000 0.0000
# 3 60.8860 42.3072 110.4284 0.0000 0.0000 0.0000
# 4 0.0000 0.0000 0.0000 43.8406 0.0000 0.0000
# 5 0.0000 0.0000 0.0000 0.0000 38.4677 0.0000
# 6 0.0000 0.0000 0.0000 0.0000 0.0000 31.2940
#
#
#
# Elastic Compliance Matrix: (Units=1/GPa)
#
#
# Indices 1 2 3 4 5 6 
#
# 1 0.017959 -0.007360 -0.007082 0.000000 0.000000 0.000000
# 2 -0.007360 0.014012 -0.001310 0.000000 0.000000 0.000000
# 3 -0.007082 -0.001310 0.013462 0.000000 0.000000 0.000000
# 4 0.000000 0.000000 0.000000 0.022810 0.000000 0.000000
# 5 0.000000 0.000000 0.000000 0.000000 0.025996 0.000000
# 6 0.000000 0.000000 0.000000 0.000000 0.000000 0.031955
#
#
# Mechanical properties :
#
#
# Convention : Reuss Voigt Hill
#
# Bulk Modulus (GPa) = 71.79401 72.18747 71.99074
# Shear Modulus (GPa) = 30.79926 33.27498 32.03712
#
# Velocity S-wave (km/s) = 3.97569 4.13239 4.05479
# Velocity P-wave (km/s) = 7.61047 7.73403 7.67250
#
# Compressibility (1/GPa) = 0.01392874
#
# Stress axis : x y z
#
# Youngs Moduli (GPa) = 55.68289 71.36738 74.28056
#
# Poissons Ratio (x) = 0.52525 0.52606
# Poissons Ratio (y) = 0.40982 0.09733
# Poissons Ratio (z) = 0.39435 0.09352
#
# Static dielectric constant tensor:
#      x y z
#    x 3.723890 0.000000 0.000000 
#    y 0.000000 4.152970 0.000000 
#    z 0.000000 0.000000 3.526060 
# 
# 
# High freq. dielectric constant tensor:
#      x y z
#    x 1.770180 0.000000 0.000000 
#    y 0.000000 1.780160 0.000000 
#    z 0.000000 0.000000 1.765960 
# 
# From -- ./inp_files/6640.got.cif
#   From: 2010.03.12/outbox.cif.g09.slc.cpg/sg53_4_cif.got.tgz:6640.got - 2010.04.16 14:36:59.
