data_PCOD8222701
_publ_section_title
;
Structure prediction by ZEFSAII (Michael W. Deem and Ramdas Pophale) SiO2 
 PCOD8222701
Probable space group: P C C A
;
_chemical_formula_sum "Si O2"
_cell_formula_units_Z 56
_cell_length_a 8.813758
_cell_length_b 15.003317
_cell_length_c 20.676614
_cell_angle_alpha 90.000000
_cell_angle_beta 90.000000
_cell_angle_gamma 90.000000
_cell_volume 2734.184567
_symmetry_space_group_name_H-M "P C C A"
_symmetry_group_IT_number 54
_symmetry_cell_setting 'orthorhombic'
loop_
_space_group_symop_operation_xyz
x,y,z
1/2-x,-y,z
1/2+x,-y,1/2-z
-x,y,1/2-z
-x,-y,-z
1/2+x,y,-z
1/2-x,y,1/2+z
x,-y,1/2+z
loop_
_atom_site_type_symbol
_atom_site_label
_atom_site_fract_x
_atom_site_fract_y
_atom_site_fract_z
Si Si1 0.256585 0.904197 0.160231
Si Si2 0.447558 0.345381 0.013748
Si Si3 0.500000 0.840576 0.750000
Si Si4 0.723695 0.407055 0.085323
Si Si5 0.245287 0.274069 0.305150
Si Si6 0.172442 0.278272 0.089795
Si Si7 0.153916 0.411369 0.208077
Si Si8 0.500000 0.847831 0.250000
O O1 0.312847 0.821191 0.117962
O O2 0.386325 0.913673 0.214278
O O3 0.098101 0.894433 0.197837
O O4 0.250000 0.000000 0.122558
O O5 0.553181 0.405469 0.059178
O O6 0.340292 0.289684 0.061081
O O7 0.342553 0.412264 0.973309
O O8 0.548459 0.280632 0.967757
O O9 0.606099 0.784332 0.702480
O O10 0.750000 0.500000 0.125006
O O11 0.758510 0.318305 0.124889
O O12 0.261783 0.349664 0.250871
O O13 0.090842 0.217676 0.298768
O O14 0.124398 0.354904 0.142001
O O15 0.250000 0.500000 0.191334
O O16 0.000000 0.430965 0.250000
#
# Coordination Sequence:
#
# PCOD8222701 Si02
#       8
#     8   8   4   8   8   8   8   4
#     4  11  21  37  64  94 123 157 197 253 317 379
#     4  10  24  41  60  79 112 169 211 253 304 352
#     4  10  21  36  59  92 128 158 197 238 311 386
#     4  11  22  36  56  84 116 157 210 255 292 348
#     4  11  21  38  59  87 124 163 196 246 311 363
#     4  11  23  45  63  86 123 162 211 257 307 366
#     4  12  25  39  62  94 129 167 205 254 317 373
#     4  10  19  38  59  84 128 160 191 236 311 388
#
# _framework density 20.481427
#
# number of rings (size 3 to 8) (size 9 to 14) (size 15 to 20)
#    0.000    1.143    3.571    3.857    1.000    4.571 
#    0.000    0.714    0.000    0.000    0.000    0.000 
#    0.000    0.000    0.000    0.000    0.000    0.000 
#
# Total GULP energy -693956.765860 kJ/mol
# GULP energy per Si atom -12392.085105 kJ/mol
# Density = 2.043481 g / cm^3
# Si number density = 20.481427 Si / 1000 Ang^3
#
#
#
# Elastic Constant Matrix: (Units=GPa)
#
#
# Indices 1 2 3 4 5 6 
#
# 1 133.6699 39.5393 31.6774 0.0000 0.0000 0.0000
# 2 39.5393 127.1972 23.8608 0.0000 0.0000 0.0000
# 3 31.6774 23.8608 67.0048 0.0000 0.0000 0.0000
# 4 0.0000 0.0000 0.0000 6.5665 0.0000 0.0000
# 5 0.0000 0.0000 0.0000 0.0000 25.3124 0.0000
# 6 0.0000 0.0000 0.0000 0.0000 0.0000 -6.1421
#
#
#
# Elastic Compliance Matrix: (Units=1/GPa)
#
#
# Indices 1 2 3 4 5 6 
#
# 1 0.008931 -0.002126 -0.003465 0.000000 0.000000 0.000000
# 2 -0.002126 0.008931 -0.002175 0.000000 0.000000 0.000000
# 3 -0.003465 -0.002175 0.017337 0.000000 0.000000 0.000000
# 4 0.000000 0.000000 0.000000 0.152287 0.000000 0.000000
# 5 0.000000 0.000000 0.000000 0.000000 0.039506 0.000000
# 6 0.000000 0.000000 0.000000 0.000000 0.000000 -0.162812
#
#
# Mechanical properties :
#
#
# Convention : Reuss Voigt Hill
#
# Bulk Modulus (GPa) = 50.84908 57.55853 54.20381
# Shear Modulus (GPa) = 57.95829 20.66701 39.31265
#
# Velocity S-wave (km/s) = 5.32535 3.18002 4.38588
# Velocity P-wave (km/s) = 7.91791 6.45346 7.22290
#
# Compressibility (1/GPa) = 0.01966604
#
# Stress axis : x y z
#
# Youngs Moduli (GPa) = 111.96651 111.97232 57.67986
#
# Poissons Ratio (x) = 0.23808 0.19987
# Poissons Ratio (y) = 0.23807 0.12546
# Poissons Ratio (z) = 0.38799 0.24355
#
# Static dielectric constant tensor:
#      x y z
#    x 4.240240 0.000000 0.000000 
#    y 0.000000 3.555290 0.000000 
#    z 0.000000 0.000000 3.698460 
# 
# 
# High freq. dielectric constant tensor:
#      x y z
#    x 1.826480 0.000000 0.000000 
#    y 0.000000 1.785170 0.000000 
#    z 0.000000 0.000000 1.785880 
# 
# From -- ./inp_files/20604.got.cif
#   From: 2010.03.12/outbox.cif.g09.slc.cpg/sg54_11_cif.got.tgz:20604.got - 2010.04.16 15:00:50.
