data_PCOD8222067
_publ_section_title
;
Structure prediction by ZEFSAII (Michael W. Deem and Ramdas Pophale) SiO2 
 PCOD8222067
Probable space group: P M N A
;
_chemical_formula_sum "Si O2"
_cell_formula_units_Z 48
_cell_length_a 17.905326
_cell_length_b 11.496844
_cell_length_c 11.676064
_cell_angle_alpha 90.000000
_cell_angle_beta 90.000000
_cell_angle_gamma 90.000000
_cell_volume 2403.573117
_symmetry_space_group_name_H-M "P M N A"
_symmetry_group_IT_number 53
_symmetry_cell_setting 'orthorhombic'
loop_
_space_group_symop_operation_xyz
x,y,z
1/2-x,-y,1/2+z
x,-y,-z
1/2-x,y,1/2-z
-x,-y,-z
1/2+x,y,1/2-z
-x,y,z
1/2+x,-y,1/2+z
loop_
_atom_site_type_symbol
_atom_site_label
_atom_site_fract_x
_atom_site_fract_y
_atom_site_fract_z
Si Si1 0.912989 0.004916 0.126319
Si Si2 0.585037 0.766216 0.748425
Si Si3 0.178267 0.605543 0.332086
Si Si4 0.808875 0.354272 0.410483
Si Si5 0.357714 0.629271 0.551609
Si Si6 0.413558 0.251724 0.665016
O O1 0.881463 0.113887 0.196942
O O2 0.000000 0.030158 0.110475
O O3 0.898197 0.883912 0.193296
O O4 0.875834 0.000000 0.000000
O O5 0.500000 0.778060 0.794182
O O6 0.641414 0.745414 0.853657
O O7 0.584434 0.664007 0.651629
O O8 0.250000 0.615654 0.250000
O O9 0.191216 0.666840 0.453401
O O10 0.155961 0.473751 0.362059
O O11 0.108934 0.668821 0.272073
O O12 0.720902 0.356881 0.380898
O O13 0.369414 0.500000 0.500000
O O14 0.365458 0.717444 0.446708
O O15 0.500000 0.274310 0.636850
#
# Coordination Sequence:
#
# PCOD8222067 Si02
#       6
#     8   8   8   8   8   8
#     4   9  18  38  62  88 124 164 201 256 322 354
#     4  11  23  38  62  95 128 161 210 260 307 373
#     4  11  21  41  61  87 125 171 206 246 313 386
#     4  11  23  39  63  87 128 174 201 246 321 380
#     4  12  21  37  63  89 123 164 203 253 314 370
#     4  11  22  37  65  95 120 157 212 266 307 360
#
# _framework density 19.970269999999999
#
# number of rings (size 3 to 8) (size 9 to 14) (size 15 to 20)
#    0.000    1.167    5.000    3.000    0.000    4.000 
#    0.000    4.167    3.667    3.000    0.000    0.000 
#    0.000    0.000    0.000    0.000    0.000    0.000 
#
# Total GULP energy -594976.717956 kJ/mol
# GULP energy per Si atom -12395.348291 kJ/mol
# Density = 1.992482 g / cm^3
# Si number density = 19.970270 Si / 1000 Ang^3
#
#
#
# Elastic Constant Matrix: (Units=GPa)
#
#
# Indices 1 2 3 4 5 6 
#
# 1 61.3237 53.2540 34.3985 0.0000 0.0000 0.0000
# 2 53.2540 106.1025 58.8967 0.0000 0.0000 0.0000
# 3 34.3985 58.8967 118.0654 0.0000 0.0000 0.0000
# 4 0.0000 0.0000 0.0000 33.9461 0.0000 0.0000
# 5 0.0000 0.0000 0.0000 0.0000 40.2111 0.0000
# 6 0.0000 0.0000 0.0000 0.0000 0.0000 5.6969
#
#
#
# Elastic Compliance Matrix: (Units=1/GPa)
#
#
# Indices 1 2 3 4 5 6 
#
# 1 0.029137 -0.013708 -0.001651 0.000000 0.000000 0.000000
# 2 -0.013708 0.019483 -0.005725 0.000000 0.000000 0.000000
# 3 -0.001651 -0.005725 0.011807 0.000000 0.000000 0.000000
# 4 0.000000 0.000000 0.000000 0.029458 0.000000 0.000000
# 5 0.000000 0.000000 0.000000 0.000000 0.024869 0.000000
# 6 0.000000 0.000000 0.000000 0.000000 0.000000 0.175535
#
#
# Mechanical properties :
#
#
# Convention : Reuss Voigt Hill
#
# Bulk Modulus (GPa) = 54.76799 64.28777 59.52788
# Shear Modulus (GPa) = 14.76915 25.23363 20.00139
#
# Velocity S-wave (km/s) = 2.72243 3.55851 3.16817
# Velocity P-wave (km/s) = 6.11281 7.01040 6.57693
#
# Compressibility (1/GPa) = 0.01825884
#
# Stress axis : x y z
#
# Youngs Moduli (GPa) = 34.32077 51.32699 84.69580
#
# Poissons Ratio (x) = 0.70357 0.13984
# Poissons Ratio (y) = 0.47046 0.48491
# Poissons Ratio (z) = 0.05666 0.29386
#
# Static dielectric constant tensor:
#      x y z
#    x 3.464740 0.000000 0.000000 
#    y 0.000000 3.726980 0.000000 
#    z 0.000000 0.000000 3.738250 
# 
# 
# High freq. dielectric constant tensor:
#      x y z
#    x 1.757580 0.000000 0.000000 
#    y 0.000000 1.775560 0.000000 
#    z 0.000000 0.000000 1.780070 
# 
# From -- ./inp_files/16903.got.cif
#   From: 2010.03.12/outbox.cif.g09.slc.cpg/sg53_9_cif.got.tgz:16903.got - 2010.04.16 14:36:59.
