data_PCOD8222905
_publ_section_title
;
Structure prediction by ZEFSAII (Michael W. Deem and Ramdas Pophale) SiO2 
 PCOD8222905
Probable space group: P C C A
;
_chemical_formula_sum "Si O2"
_cell_formula_units_Z 48
_cell_length_a 15.059788
_cell_length_b 8.248716
_cell_length_c 18.803211
_cell_angle_alpha 90.000000
_cell_angle_beta 90.000000
_cell_angle_gamma 90.000000
_cell_volume 2335.808471
_symmetry_space_group_name_H-M "P C C A"
_symmetry_group_IT_number 54
_symmetry_cell_setting 'orthorhombic'
loop_
_space_group_symop_operation_xyz
x,y,z
1/2-x,-y,z
1/2+x,-y,1/2-z
-x,y,1/2-z
-x,-y,-z
1/2+x,y,-z
1/2-x,y,1/2+z
x,-y,1/2+z
loop_
_atom_site_type_symbol
_atom_site_label
_atom_site_fract_x
_atom_site_fract_y
_atom_site_fract_z
Si Si1 0.599993 0.346567 0.768745
Si Si2 0.219871 0.684345 0.449695
Si Si3 0.777946 0.313911 0.390330
Si Si4 0.425670 0.820171 0.848836
Si Si5 0.387510 0.720320 0.697428
Si Si6 0.671945 0.120313 0.651539
O O1 0.500000 0.298419 0.750000
O O2 0.631686 0.281148 0.845855
O O3 0.614444 0.538690 0.770720
O O4 0.660323 0.262595 0.709100
O O5 0.250000 0.500000 0.447595
O O6 0.202899 0.746284 0.530103
O O7 0.131504 0.708070 0.402156
O O8 0.300264 0.793163 0.421384
O O9 0.750000 0.500000 0.391478
O O10 0.695360 0.226112 0.351172
O O11 0.388376 0.826298 0.768191
O O12 0.525559 0.752987 0.851150
O O13 0.415429 0.011988 0.867747
O O14 0.750000 0.000000 0.677418
#
# Coordination Sequence:
#
# PCOD8222905 Si02
#       6
#     8   8   8   8   8   8
#     4  11  21  38  63  94 117 153 210 257 296 366
#     4  10  20  38  60  84 118 165 201 248 303 364
#     4   9  20  38  59  89 121 153 203 255 305 358
#     4  10  20  37  59  87 121 158 200 250 305 365
#     4  10  20  39  64  90 119 158 204 257 305 358
#     4  10  22  38  60  87 122 162 202 244 303 368
#
# _framework density 20.549631000000002
#
# number of rings (size 3 to 8) (size 9 to 14) (size 15 to 20)
#    0.000    2.000    1.667    3.000    2.333    1.333 
#    3.000   10.833    0.000    0.000    0.000    0.000 
#    0.000    0.000    0.000    0.000    0.000    0.000 
#
# Total GULP energy -594823.008268 kJ/mol
# GULP energy per Si atom -12392.146006 kJ/mol
# Density = 2.050286 g / cm^3
# Si number density = 20.549631 Si / 1000 Ang^3
#
#
#
# Elastic Constant Matrix: (Units=GPa)
#
#
# Indices 1 2 3 4 5 6 
#
# 1 110.5743 38.1170 74.3159 0.0000 0.0000 0.0000
# 2 38.1170 80.5297 23.1649 0.0000 0.0000 0.0000
# 3 74.3159 23.1649 152.7308 0.0000 0.0000 0.0000
# 4 0.0000 0.0000 0.0000 9.0465 0.0000 0.0000
# 5 0.0000 0.0000 0.0000 0.0000 23.2359 0.0000
# 6 0.0000 0.0000 0.0000 0.0000 0.0000 31.0360
#
#
#
# Elastic Compliance Matrix: (Units=1/GPa)
#
#
# Indices 1 2 3 4 5 6 
#
# 1 0.015371 -0.005358 -0.006667 0.000000 0.000000 0.000000
# 2 -0.005358 0.014852 0.000354 0.000000 0.000000 0.000000
# 3 -0.006667 0.000354 0.009738 0.000000 0.000000 0.000000
# 4 0.000000 0.000000 0.000000 0.110540 0.000000 0.000000
# 5 0.000000 0.000000 0.000000 0.000000 0.043037 0.000000
# 6 0.000000 0.000000 0.000000 0.000000 0.000000 0.032221
#
#
# Mechanical properties :
#
#
# Convention : Reuss Voigt Hill
#
# Bulk Modulus (GPa) = 60.16716 68.33674 64.25195
# Shear Modulus (GPa) = 19.63564 26.54613 23.09089
#
# Velocity S-wave (km/s) = 3.09451 3.59807 3.35575
# Velocity P-wave (km/s) = 6.48926 7.11253 6.80803
#
# Compressibility (1/GPa) = 0.01662036
#
# Stress axis : x y z
#
# Youngs Moduli (GPa) = 65.05610 67.33153 102.69443
#
# Poissons Ratio (x) = 0.36076 0.68464
# Poissons Ratio (y) = 0.34857 -0.03640
# Poissons Ratio (z) = 0.43371 -0.02387
#
# Static dielectric constant tensor:
#      x y z
#    x 3.812660 0.000000 0.000000 
#    y 0.000000 3.782420 0.000000 
#    z 0.000000 0.000000 3.868780 
# 
# 
# High freq. dielectric constant tensor:
#      x y z
#    x 1.798280 0.000000 0.000000 
#    y 0.000000 1.799800 0.000000 
#    z 0.000000 0.000000 1.796940 
# 
# From -- ./inp_files/18488.got.cif
#   From: 2010.03.12/outbox.cif.g09.slc.cpg/sg54_10_cif.got.tgz:18488.got - 2010.04.16 15:00:50.
