data_PCOD8222638
_publ_section_title
;
Structure prediction by ZEFSAII (Michael W. Deem and Ramdas Pophale) SiO2 
 PCOD8222638
Probable space group: P C C A
;
_chemical_formula_sum "Si O2"
_cell_formula_units_Z 44
_cell_length_a 15.652337
_cell_length_b 16.062036
_cell_length_c 8.829409
_cell_angle_alpha 90.000000
_cell_angle_beta 90.000000
_cell_angle_gamma 90.000000
_cell_volume 2219.787593
_symmetry_space_group_name_H-M "P C C A"
_symmetry_group_IT_number 54
_symmetry_cell_setting 'orthorhombic'
loop_
_space_group_symop_operation_xyz
x,y,z
1/2-x,-y,z
1/2+x,-y,1/2-z
-x,y,1/2-z
-x,-y,-z
1/2+x,y,-z
1/2-x,y,1/2+z
x,-y,1/2+z
loop_
_atom_site_type_symbol
_atom_site_label
_atom_site_fract_x
_atom_site_fract_y
_atom_site_fract_z
Si Si1 0.664587 0.903342 0.062846
Si Si2 0.525427 0.379310 0.924930
Si Si3 0.867768 0.532740 0.461558
Si Si4 0.503274 0.191408 0.928166
Si Si5 0.750000 0.500000 0.713254
Si Si6 0.660594 0.084162 0.925172
O O1 0.589904 0.838584 0.011987
O O2 0.668527 0.914332 0.243593
O O3 0.756103 0.871888 0.999985
O O4 0.647452 0.990697 0.981567
O O5 0.500000 0.388986 0.750000
O O6 0.611765 0.432531 0.953762
O O7 0.531114 0.284052 0.977503
O O8 0.454346 0.416383 0.037821
O O9 0.812008 0.555622 0.609104
O O10 0.810311 0.558329 0.317338
O O11 0.500000 0.186252 0.750000
O O12 0.577791 0.131857 0.988193
#
# Coordination Sequence:
#
# PCOD8222638 Si02
#       6
#     8   8   8   8   4   8
#     4  10  19  35  58  80 109 143 184 225 271 325
#     4  10  19  37  57  78 111 150 179 224 276 332
#     4  10  20  36  60  78 112 142 186 222 272 328
#     4   9  20  36  54  83 112 149 177 224 278 324
#     4  10  20  36  56  90 100 140 190 226 272 324
#     4  10  19  35  58  80 109 143 184 225 271 325
#
# _framework density 19.821715999999999
#
# number of rings (size 3 to 8) (size 9 to 14) (size 15 to 20)
#    0.000    2.182    1.818    2.727    0.000    0.000 
#    6.545    2.727   12.000    0.000    0.000    0.000 
#    0.000    0.000    0.000    0.000    0.000    0.000 
#
# Total GULP energy -545237.035212 kJ/mol
# GULP energy per Si atom -12391.750800 kJ/mol
# Density = 1.977660 g / cm^3
# Si number density = 19.821716 Si / 1000 Ang^3
#
#
#
# Elastic Constant Matrix: (Units=GPa)
#
#
# Indices 1 2 3 4 5 6 
#
# 1 130.7805 48.7166 30.3985 0.0000 0.0000 0.0000
# 2 48.7166 86.3222 14.9915 0.0000 0.0000 0.0000
# 3 30.3985 14.9915 89.5579 0.0000 0.0000 0.0000
# 4 0.0000 0.0000 0.0000 16.8839 0.0000 0.0000
# 5 0.0000 0.0000 0.0000 0.0000 25.8273 0.0000
# 6 0.0000 0.0000 0.0000 0.0000 0.0000 16.8352
#
#
#
# Elastic Compliance Matrix: (Units=1/GPa)
#
#
# Indices 1 2 3 4 5 6 
#
# 1 0.010230 -0.005325 -0.002581 0.000000 0.000000 0.000000
# 2 -0.005325 0.014703 -0.000654 0.000000 0.000000 0.000000
# 3 -0.002581 -0.000654 0.012151 0.000000 0.000000 0.000000
# 4 0.000000 0.000000 0.000000 0.059228 0.000000 0.000000
# 5 0.000000 0.000000 0.000000 0.000000 0.038719 0.000000
# 6 0.000000 0.000000 0.000000 0.000000 0.000000 0.059399
#
#
# Mechanical properties :
#
#
# Convention : Reuss Voigt Hill
#
# Bulk Modulus (GPa) = 50.08748 54.98598 52.53673
# Shear Modulus (GPa) = 22.91419 26.07955 24.49687
#
# Velocity S-wave (km/s) = 3.40371 3.63120 3.51929
# Velocity P-wave (km/s) = 6.38520 6.73657 6.56324
#
# Compressibility (1/GPa) = 0.01996507
#
# Stress axis : x y z
#
# Youngs Moduli (GPa) = 97.75212 68.01187 82.29475
#
# Poissons Ratio (x) = 0.36217 0.21240
# Poissons Ratio (y) = 0.52054 0.05380
# Poissons Ratio (z) = 0.25229 0.04446
#
# Static dielectric constant tensor:
#      x y z
#    x 4.084660 0.000000 0.000000 
#    y 0.000000 3.509710 0.000000 
#    z 0.000000 0.000000 3.612460 
# 
# 
# High freq. dielectric constant tensor:
#      x y z
#    x 1.794210 0.000000 0.000000 
#    y 0.000000 1.737750 0.000000 
#    z 0.000000 0.000000 1.768590 
# 
# From -- ./inp_files/3527.got.cif
#   From: 2010.03.12/outbox.cif.g09.slc.cpg/sg54_2_cif.got.tgz:3527.got - 2010.04.16 15:00:50.
