data_PCOD8222193
_publ_section_title
;
Structure prediction by ZEFSAII (Michael W. Deem and Ramdas Pophale) SiO2 
 PCOD8222193
Probable space group: P M N A
;
_chemical_formula_sum "Si O2"
_cell_formula_units_Z 24
_cell_length_a 21.770124
_cell_length_b 5.491674
_cell_length_c 7.709732
_cell_angle_alpha 90.000000
_cell_angle_beta 90.000000
_cell_angle_gamma 90.000000
_cell_volume 921.732568
_symmetry_space_group_name_H-M "P M N A"
_symmetry_group_IT_number 53
_symmetry_cell_setting 'orthorhombic'
loop_
_space_group_symop_operation_xyz
x,y,z
1/2-x,-y,1/2+z
x,-y,-z
1/2-x,y,1/2-z
-x,-y,-z
1/2+x,y,1/2-z
-x,y,z
1/2+x,-y,1/2+z
loop_
_atom_site_type_symbol
_atom_site_label
_atom_site_fract_x
_atom_site_fract_y
_atom_site_fract_z
Si Si1 0.396322 0.000000 0.500000
Si Si2 0.608868 0.500000 0.000000
Si Si3 0.500000 0.742519 0.678104
Si Si4 0.683520 0.358556 0.680708
Si Si5 0.000000 0.240269 0.618689
O O1 0.438692 0.775716 0.563552
O O2 0.353963 0.108126 0.653282
O O3 0.650133 0.478838 0.172546
O O4 0.561888 0.731011 0.001237
O O5 0.500000 0.969113 0.812458
O O6 0.500000 0.462798 0.742094
O O7 0.689004 0.500000 0.500000
O O8 0.750000 0.282729 0.750000
#
# Coordination Sequence:
#
# PCOD8222193 Si02
#       5
#     4   4   4   8   4
#     4  11  26  44  74 112 154 195 264 320 402 457
#     4  11  24  48  76 114 152 201 264 318 400 463
#     4  11  24  46  79 113 160 199 258 329 396 469
#     4  12  26  50  75 109 152 209 259 331 386 480
#     4  11  24  46  76 117 153 205 255 326 394 478
#
# _framework density 26.037921999999998
#
# number of rings (size 3 to 8) (size 9 to 14) (size 15 to 20)
#    0.000    0.667    5.000    2.000    0.000    5.333 
#   12.000    2.500    0.000    0.000    0.000    0.000 
#    0.000    0.000    0.000    0.000    0.000    0.000 
#
# Total GULP energy -297422.316284 kJ/mol
# GULP energy per Si atom -12392.596512 kJ/mol
# Density = 2.597866 g / cm^3
# Si number density = 26.037922 Si / 1000 Ang^3
#
#
#
# Elastic Constant Matrix: (Units=GPa)
#
#
# Indices 1 2 3 4 5 6 
#
# 1 221.6064 56.8250 94.9049 0.0000 0.0000 0.0000
# 2 56.8250 140.8316 58.5359 0.0000 0.0000 0.0000
# 3 94.9049 58.5359 165.8703 0.0000 0.0000 0.0000
# 4 0.0000 0.0000 0.0000 59.2212 0.0000 0.0000
# 5 0.0000 0.0000 0.0000 0.0000 428.8228 0.0000
# 6 0.0000 0.0000 0.0000 0.0000 0.0000 18.1537
#
#
#
# Elastic Compliance Matrix: (Units=1/GPa)
#
#
# Indices 1 2 3 4 5 6 
#
# 1 0.006143 -0.001193 -0.003094 0.000000 0.000000 0.000000
# 2 -0.001193 0.008553 -0.002336 0.000000 0.000000 0.000000
# 3 -0.003094 -0.002336 0.008623 0.000000 0.000000 0.000000
# 4 0.000000 0.000000 0.000000 0.016886 0.000000 0.000000
# 5 0.000000 0.000000 0.000000 0.000000 0.002332 0.000000
# 6 0.000000 0.000000 0.000000 0.000000 0.000000 0.055085
#
#
# Mechanical properties :
#
#
# Convention : Reuss Voigt Hill
#
# Bulk Modulus (GPa) = 99.26290 105.42664 102.34477
# Shear Modulus (GPa) = 43.77275 122.44238 83.10756
#
# Velocity S-wave (km/s) = 4.10459 6.86489 5.65572
# Velocity P-wave (km/s) = 7.78901 10.16923 9.05765
#
# Compressibility (1/GPa) = 0.01007426
#
# Stress axis : x y z
#
# Youngs Moduli (GPa) = 162.77495 116.92008 115.96262
#
# Poissons Ratio (x) = 0.13946 0.35880
# Poissons Ratio (y) = 0.19416 0.27087
# Poissons Ratio (z) = 0.50364 0.27311
#
# Static dielectric constant tensor:
#      x y z
#    x 5.166680 0.000000 0.000000 
#    y 0.000000 4.428270 0.000000 
#    z 0.000000 0.000000 5.294310 
# 
# 
# High freq. dielectric constant tensor:
#      x y z
#    x 2.058010 0.000000 0.000000 
#    y 0.000000 2.031060 0.000000 
#    z 0.000000 0.000000 2.068290 
# 
# From -- ./inp_files/11351.got.cif
#   From: 2010.03.12/outbox.cif.g09.slc.cpg/sg53_6_cif.got.tgz:11351.got - 2010.04.16 14:36:59.
