data_PCOD8222677
_publ_section_title
;
Structure prediction by ZEFSAII (Michael W. Deem and Ramdas Pophale) SiO2 
 PCOD8222677
Probable space group: P C C A
;
_chemical_formula_sum "Si O2"
_cell_formula_units_Z 32
_cell_length_a 16.281534
_cell_length_b 8.358071
_cell_length_c 10.374815
_cell_angle_alpha 90.000000
_cell_angle_beta 90.000000
_cell_angle_gamma 90.000000
_cell_volume 1411.827828
_symmetry_space_group_name_H-M "P C C A"
_symmetry_group_IT_number 54
_symmetry_cell_setting 'orthorhombic'
loop_
_space_group_symop_operation_xyz
x,y,z
1/2-x,-y,z
1/2+x,-y,1/2-z
-x,y,1/2-z
-x,-y,-z
1/2+x,y,-z
1/2-x,y,1/2+z
x,-y,1/2+z
loop_
_atom_site_type_symbol
_atom_site_label
_atom_site_fract_x
_atom_site_fract_y
_atom_site_fract_z
Si Si1 0.947742 0.983259 0.627463
Si Si2 0.204502 0.155977 0.965829
Si Si3 0.158770 0.557957 0.617340
Si Si4 0.137001 0.342789 0.388245
O O1 0.927359 0.796742 0.631610
O O2 0.000000 0.037186 0.750000
O O3 0.865387 0.091899 0.631415
O O4 0.000000 0.000000 0.500000
O O5 0.157784 0.253835 0.078104
O O6 0.269429 0.273193 0.894345
O O7 0.250000 0.000000 0.026635
O O8 0.250000 0.500000 0.611909
O O9 0.110650 0.446325 0.514136
O O10 0.126271 0.542131 0.763262
#
# Coordination Sequence:
#
# PCOD8222677 Si02
#       4
#     8   8   8   8
#     4  11  24  42  61  88 124 162 203 251 306 363
#     4   9  20  37  62  91 120 156 202 254 303 356
#     4  10  19  36  62  94 121 153 202 254 301 359
#     4  10  22  39  63  91 121 157 203 251 302 362
#
# _framework density 22.665654
#
# number of rings (size 3 to 8) (size 9 to 14) (size 15 to 20)
#    0.000    2.000    0.000    3.750    0.000   11.000 
#    0.000    6.250    0.000    0.000    0.000    0.000 
#    0.000    0.000    0.000    0.000    0.000    0.000 
#
# Total GULP energy -396651.029964 kJ/mol
# GULP energy per Si atom -12395.344686 kJ/mol
# Density = 2.261407 g / cm^3
# Si number density = 22.665654 Si / 1000 Ang^3
#
#
#
# Elastic Constant Matrix: (Units=GPa)
#
#
# Indices 1 2 3 4 5 6 
#
# 1 63.8862 13.8874 21.6664 0.0000 0.0000 0.0000
# 2 13.8874 96.0123 34.2785 0.0000 0.0000 0.0000
# 3 21.6664 34.2785 148.3494 0.0000 0.0000 0.0000
# 4 0.0000 0.0000 0.0000 31.4018 0.0000 0.0000
# 5 0.0000 0.0000 0.0000 0.0000 15.0498 0.0000
# 6 0.0000 0.0000 0.0000 0.0000 0.0000 9.3771
#
#
#
# Elastic Compliance Matrix: (Units=1/GPa)
#
#
# Indices 1 2 3 4 5 6 
#
# 1 0.016715 -0.001685 -0.002052 0.000000 0.000000 0.000000
# 2 -0.001685 0.011522 -0.002416 0.000000 0.000000 0.000000
# 3 -0.002052 -0.002416 0.007599 0.000000 0.000000 0.000000
# 4 0.000000 0.000000 0.000000 0.031845 0.000000 0.000000
# 5 0.000000 0.000000 0.000000 0.000000 0.066446 0.000000
# 6 0.000000 0.000000 0.000000 0.000000 0.000000 0.106643
#
#
# Mechanical properties :
#
#
# Convention : Reuss Voigt Hill
#
# Bulk Modulus (GPa) = 42.50032 49.76806 46.13419
# Shear Modulus (GPa) = 19.16301 27.06011 23.11156
#
# Velocity S-wave (km/s) = 2.91084 3.45901 3.19670
# Velocity P-wave (km/s) = 5.48535 6.16102 5.83297
#
# Compressibility (1/GPa) = 0.02352923
#
# Stress axis : x y z
#
# Youngs Moduli (GPa) = 59.82644 86.79278 131.59963
#
# Poissons Ratio (x) = 0.14626 0.27002
# Poissons Ratio (y) = 0.10082 0.31797
# Poissons Ratio (z) = 0.12275 0.20971
#
# Static dielectric constant tensor:
#      x y z
#    x 3.907940 0.000000 0.000000 
#    y 0.000000 5.064230 0.000000 
#    z 0.000000 0.000000 5.640670 
# 
# 
# High freq. dielectric constant tensor:
#      x y z
#    x 1.875020 0.000000 0.000000 
#    y 0.000000 1.903240 0.000000 
#    z 0.000000 0.000000 1.886250 
# 
# From -- ./inp_files/4478.got.cif
#   From: 2010.03.12/outbox.cif.g09.slc.cpg/sg54_3_cif.got.tgz:4478.got - 2010.04.16 15:00:50.
