data_PCOD8222259
_publ_section_title
;
Structure prediction by ZEFSAII (Michael W. Deem and Ramdas Pophale) SiO2 
 PCOD8222259
Probable space group: P M N A
;
_chemical_formula_sum "Si O2"
_cell_formula_units_Z 56
_cell_length_a 9.000000
_cell_length_b 21.000000
_cell_length_c 18.000000
_cell_angle_alpha 90.000000
_cell_angle_beta 90.000000
_cell_angle_gamma 90.000000
_cell_volume 3402.000000
_symmetry_space_group_name_H-M "P M N A"
_symmetry_group_IT_number 53
_symmetry_cell_setting 'orthorhombic'
loop_
_space_group_symop_operation_xyz
x,y,z
1/2-x,-y,1/2+z
x,-y,-z
1/2-x,y,1/2-z
-x,-y,-z
1/2+x,y,1/2-z
-x,y,z
1/2+x,-y,1/2+z
loop_
_atom_site_type_symbol
_atom_site_label
_atom_site_fract_x
_atom_site_fract_y
_atom_site_fract_z
Si Si1 0.332779 0.932800 0.040529
Si Si2 0.663339 0.430980 0.963845
Si Si3 0.672933 0.249591 0.327721
Si Si4 0.174360 0.008068 0.828310
Si Si5 0.674152 0.122898 0.407898
Si Si6 0.675313 0.495263 0.173766
Si Si7 0.327709 0.620179 0.593892
O O1 0.500000 0.910999 0.059342
O O2 0.238743 0.938756 0.115959
O O3 0.257412 0.880957 0.986778
O O4 0.331597 0.000000 0.000000
O O5 0.500000 0.398781 0.966322
O O6 0.715157 0.444884 0.879648
O O7 0.653597 0.500000 0.000000
O O8 0.778709 0.386362 0.007671
O O9 0.750000 0.261941 0.250000
O O10 0.500000 0.242425 0.311600
O O11 0.733852 0.185504 0.366068
O O12 0.708039 0.308263 0.381754
O O13 0.250000 0.019063 0.750000
O O14 0.213196 0.937270 0.856424
O O15 0.000000 0.018557 0.821016
O O16 0.500000 0.126611 0.424936
O O17 0.750000 0.514386 0.250000
O O18 0.500000 0.486566 0.182458
O O19 0.737367 0.428004 0.145389
O O20 0.500000 0.603375 0.601368
#
# Coordination Sequence:
#
# PCOD8222259 Si02
#       7
#     8   8   8   8   8   8   8
#     4   9  17  29  45  65  88 114 147 185 224 268
#     4   8  16  30  45  62  86 115 146 182 224 267
#     4  10  21  33  45  65  92 122 155 187 217 254
#     4  10  18  28  45  67  91 119 148 182 224 266
#     4   9  18  32  46  62  89 122 153 184 220 261
#     4  10  19  30  45  66  91 117 146 183 226 268
#     4  10  19  30  45  65  90 121 154 185 219 261
#
# _framework density 16.460905
#
# number of rings (size 3 to 8) (size 9 to 14) (size 15 to 20)
#    0.000    2.571    0.000    3.429    0.000    8.286 
#    0.000    0.000    0.000    0.000    0.000    1.000 
#    0.000    2.286    0.000    0.000    0.000    0.000 
#
# Total GULP energy -694312.460701 kJ/mol
# GULP energy per Si atom -12398.436798 kJ/mol
# Density = 1.642344 g / cm^3
# Si number density = 16.460905 Si / 1000 Ang^3
#
#
#
# Elastic Constant Matrix: (Units=GPa)
#
#
# Indices 1 2 3 4 5 6 
#
# 1 77.4849 28.5808 58.6124 0.0000 0.0000 0.0000
# 2 28.5808 45.3761 34.2837 0.0000 0.0000 0.0000
# 3 58.6124 34.2837 121.6831 0.0000 0.0000 0.0000
# 4 0.0000 0.0000 0.0000 21.7019 0.0000 0.0000
# 5 0.0000 0.0000 0.0000 0.0000 32.8405 0.0000
# 6 0.0000 0.0000 0.0000 0.0000 0.0000 19.9625
#
#
#
# Elastic Compliance Matrix: (Units=1/GPa)
#
#
# Indices 1 2 3 4 5 6 
#
# 1 0.022136 -0.007479 -0.008555 0.000000 0.000000 0.000000
# 2 -0.007479 0.030525 -0.004998 0.000000 0.000000 0.000000
# 3 -0.008555 -0.004998 0.013747 0.000000 0.000000 0.000000
# 4 0.000000 0.000000 0.000000 0.046079 0.000000 0.000000
# 5 0.000000 0.000000 0.000000 0.000000 0.030450 0.000000
# 6 0.000000 0.000000 0.000000 0.000000 0.000000 0.050094
#
#
# Mechanical properties :
#
#
# Convention : Reuss Voigt Hill
#
# Bulk Modulus (GPa) = 41.07795 54.16643 47.62219
# Shear Modulus (GPa) = 20.55842 23.10544 21.83193
#
# Velocity S-wave (km/s) = 3.53785 3.75060 3.64578
# Velocity P-wave (km/s) = 6.45736 7.19261 6.83488
#
# Compressibility (1/GPa) = 0.02434396
#
# Stress axis : x y z
#
# Youngs Moduli (GPa) = 45.17549 32.76032 72.74236
#
# Poissons Ratio (x) = 0.24500 0.62234
# Poissons Ratio (y) = 0.33785 0.36356
# Poissons Ratio (z) = 0.38649 0.16373
#
# Static dielectric constant tensor:
#      x y z
#    x 3.189020 0.000000 0.000000 
#    y 0.000000 2.887880 0.000000 
#    z 0.000000 0.000000 3.466070 
# 
# 
# High freq. dielectric constant tensor:
#      x y z
#    x 1.642770 0.000000 0.000000 
#    y 0.000000 1.591630 0.000000 
#    z 0.000000 0.000000 1.634160 
# 
# From -- ./inp_files/26670.got.cif
#   From: 2010.03.12/outbox.ucp.g09.slc.cvg/sg53_14_cif.got.tgz:26670.got - 2010.05.04 19:20:06.
