data_PCOD8222133
_publ_section_title
;
Structure prediction by ZEFSAII (Michael W. Deem and Ramdas Pophale) SiO2 
 PCOD8222133
Probable space group: P M N A
;
_chemical_formula_sum "Si O2"
_cell_formula_units_Z 48
_cell_length_a 8.261538
_cell_length_b 14.861918
_cell_length_c 18.995439
_cell_angle_alpha 90.000000
_cell_angle_beta 90.000000
_cell_angle_gamma 90.000000
_cell_volume 2332.303696
_symmetry_space_group_name_H-M "P M N A"
_symmetry_group_IT_number 53
_symmetry_cell_setting 'orthorhombic'
loop_
_space_group_symop_operation_xyz
x,y,z
1/2-x,-y,1/2+z
x,-y,-z
1/2-x,y,1/2-z
-x,-y,-z
1/2+x,y,1/2-z
-x,y,z
1/2+x,-y,1/2+z
loop_
_atom_site_type_symbol
_atom_site_label
_atom_site_fract_x
_atom_site_fract_y
_atom_site_fract_z
Si Si1 0.812284 0.046960 0.928753
Si Si2 0.687735 0.900251 0.828088
Si Si3 0.190389 0.435990 0.325511
Si Si4 0.813207 0.729740 0.907205
Si Si5 0.811649 0.367708 0.827395
Si Si6 0.815942 0.238561 0.555962
O O1 0.715522 0.138410 0.915513
O O2 0.000000 0.070677 0.936469
O O3 0.785846 0.981789 0.862797
O O4 0.747430 0.000000 0.000000
O O5 0.750000 0.884811 0.750000
O O6 0.500000 0.925024 0.828380
O O7 0.714505 0.809336 0.871091
O O8 0.250000 0.398989 0.250000
O O9 0.235245 0.364500 0.384905
O O10 0.281185 0.527969 0.344590
O O11 0.000000 0.454331 0.323249
O O12 0.000000 0.734831 0.884293
O O13 0.801133 0.738561 0.991076
O O14 0.750000 0.343171 0.750000
O O15 0.712953 0.307920 0.881636
O O16 0.000000 0.345482 0.833860
O O17 0.000000 0.246902 0.530191
#
# Coordination Sequence:
#
# PCOD8222133 Si02
#       6
#     8   8   8   8   8   8
#     4  11  23  42  67  93 126 166 209 257 314 376
#     4  12  25  42  65  95 129 167 212 263 315 374
#     4  11  22  40  64  93 127 168 212 260 316 376
#     4  12  24  41  63  93 129 168 211 260 316 377
#     4  11  23  43  67  94 127 166 211 262 316 374
#     4  12  25  42  66  96 127 166 212 260 316 378
#
# _framework density 20.58051
#
# number of rings (size 3 to 8) (size 9 to 14) (size 15 to 20)
#    0.000    0.500    1.667    9.500    0.000    2.000 
#    0.000    6.667    0.000    0.000    0.000    0.000 
#    0.000    0.000    0.000    0.000    0.000    0.000 
#
# Total GULP energy -595663.797458 kJ/mol
# GULP energy per Si atom -12409.662447 kJ/mol
# Density = 2.053367 g / cm^3
# Si number density = 20.580510 Si / 1000 Ang^3
#
#
#
# Elastic Constant Matrix: (Units=GPa)
#
#
# Indices 1 2 3 4 5 6 
#
# 1 98.7894 4.0651 3.6172 0.0000 0.0000 0.0000
# 2 4.0651 103.2976 60.4468 0.0000 0.0000 0.0000
# 3 3.6172 60.4468 111.5461 0.0000 0.0000 0.0000
# 4 0.0000 0.0000 0.0000 19.6717 0.0000 0.0000
# 5 0.0000 0.0000 0.0000 0.0000 35.0619 0.0000
# 6 0.0000 0.0000 0.0000 0.0000 0.0000 31.9491
#
#
#
# Elastic Compliance Matrix: (Units=1/GPa)
#
#
# Indices 1 2 3 4 5 6 
#
# 1 0.010141 -0.000303 -0.000165 0.000000 0.000000 0.000000
# 2 -0.000303 0.014185 -0.007677 0.000000 0.000000 0.000000
# 3 -0.000165 -0.007677 0.013130 0.000000 0.000000 0.000000
# 4 0.000000 0.000000 0.000000 0.050834 0.000000 0.000000
# 5 0.000000 0.000000 0.000000 0.000000 0.028521 0.000000
# 6 0.000000 0.000000 0.000000 0.000000 0.000000 0.031300
#
#
# Mechanical properties :
#
#
# Convention : Reuss Voigt Hill
#
# Bulk Modulus (GPa) = 47.24232 49.98792 48.61512
# Shear Modulus (GPa) = 29.16188 33.70347 31.43268
#
# Velocity S-wave (km/s) = 3.76834 4.05117 3.91231
# Velocity P-wave (km/s) = 6.47600 6.79885 6.63939
#
# Compressibility (1/GPa) = 0.02116746
#
# Stress axis : x y z
#
# Youngs Moduli (GPa) = 98.60932 70.49663 76.15883
#
# Poissons Ratio (x) = 0.02133 0.01256
# Poissons Ratio (y) = 0.02984 0.58468
# Poissons Ratio (z) = 0.01626 0.54121
#
# Static dielectric constant tensor:
#      x y z
#    x 3.837550 0.000000 0.000000 
#    y 0.000000 3.762530 0.000000 
#    z 0.000000 0.000000 3.723420 
# 
# 
# High freq. dielectric constant tensor:
#      x y z
#    x 1.823570 0.000000 0.000000 
#    y 0.000000 1.812710 0.000000 
#    z 0.000000 0.000000 1.805540 
# 
# From -- ./inp_files/26278.got.cif
#   From: 2010.03.12/outbox.cif.g09.slc.cpg/sg53_14_cif.got.tgz:26278.got - 2010.04.16 14:36:59.
