data_PCOD8222325
_publ_section_title
;
Structure prediction by ZEFSAII (Michael W. Deem and Ramdas Pophale) SiO2 
 PCOD8222325
Probable space group: P C C A
;
_chemical_formula_sum "Si O2"
_cell_formula_units_Z 48
_cell_length_a 16.293280
_cell_length_b 29.471201
_cell_length_c 5.114822
_cell_angle_alpha 90.000000
_cell_angle_beta 90.000000
_cell_angle_gamma 90.000000
_cell_volume 2456.048168
_symmetry_space_group_name_H-M "P C C A"
_symmetry_group_IT_number 54
_symmetry_cell_setting 'orthorhombic'
loop_
_space_group_symop_operation_xyz
x,y,z
1/2-x,-y,z
1/2+x,-y,1/2-z
-x,y,1/2-z
-x,-y,-z
1/2+x,y,-z
1/2-x,y,1/2+z
x,-y,1/2+z
loop_
_atom_site_type_symbol
_atom_site_label
_atom_site_fract_x
_atom_site_fract_y
_atom_site_fract_z
Si Si1 0.698974 0.711044 0.673799
Si Si2 0.695900 0.612550 0.605963
Si Si3 0.402861 0.473875 0.265006
Si Si4 0.193968 0.806711 0.454997
Si Si5 0.053495 0.121409 0.005590
Si Si6 0.908479 0.979935 0.973145
O O1 0.778555 0.712307 0.480735
O O2 0.653839 0.662801 0.624268
O O3 0.650416 0.756999 0.591042
O O4 0.730502 0.606414 0.313963
O O5 0.625792 0.576520 0.667855
O O6 0.500000 0.473026 0.250000
O O7 0.368974 0.508207 0.487872
O O8 0.235534 0.812348 0.737221
O O9 0.123773 0.843607 0.428604
O O10 0.093392 0.073516 0.084932
O O11 0.000000 0.139832 0.250000
O O12 0.000000 0.113271 0.750000
O O13 0.861748 0.006262 0.738943
O O14 0.000000 0.000000 0.000000
#
# Coordination Sequence:
#
# PCOD8222325 Si02
#       6
#     8   8   8   8   8   8
#     4   8  16  32  53  73  98 135 172 204 254 320
#     4  10  19  32  54  79  97 126 178 223 248 288
#     4  10  21  35  49  70 106 142 167 198 259 323
#     4  10  21  38  56  77 111 147 172 211 277 335
#     4  12  21  33  57  86 105 134 184 229 255 307
#     4  10  16  30  49  76  98 135 174 213 252 310
#
# _framework density 19.543589000000001
#
# number of rings (size 3 to 8) (size 9 to 14) (size 15 to 20)
#    0.000    2.000    3.333    2.000    0.000    2.000 
#    0.000    0.833    0.000    6.000    0.000    0.000 
#    0.000    0.000    0.000    0.000    0.000    0.000 
#
# Total GULP energy -594738.122271 kJ/mol
# GULP energy per Si atom -12390.377547 kJ/mol
# Density = 1.949911 g / cm^3
# Si number density = 19.543589 Si / 1000 Ang^3
#
#
#
# Elastic Constant Matrix: (Units=GPa)
#
#
# Indices 1 2 3 4 5 6 
#
# 1 19.1246 33.3681 11.7465 0.0000 0.0000 0.0000
# 2 33.3681 162.8407 19.3825 0.0000 0.0000 0.0000
# 3 11.7465 19.3825 123.5533 0.0000 0.0000 0.0000
# 4 0.0000 0.0000 0.0000 29.5221 0.0000 0.0000
# 5 0.0000 0.0000 0.0000 0.0000 15.8354 0.0000
# 6 0.0000 0.0000 0.0000 0.0000 0.0000 19.5335
#
#
#
# Elastic Compliance Matrix: (Units=1/GPa)
#
#
# Indices 1 2 3 4 5 6 
#
# 1 0.084828 -0.016735 -0.005439 0.000000 0.000000 0.000000
# 2 -0.016735 0.009559 0.000091 0.000000 0.000000 0.000000
# 3 -0.005439 0.000091 0.008596 0.000000 0.000000 0.000000
# 4 0.000000 0.000000 0.000000 0.033873 0.000000 0.000000
# 5 0.000000 0.000000 0.000000 0.000000 0.063150 0.000000
# 6 0.000000 0.000000 0.000000 0.000000 0.000000 0.051194
#
#
# Mechanical properties :
#
#
# Convention : Reuss Voigt Hill
#
# Bulk Modulus (GPa) = 17.00163 48.27919 32.64041
# Shear Modulus (GPa) = 15.87441 29.04631 22.46036
#
# Velocity S-wave (km/s) = 2.85310 3.85935 3.39373
# Velocity P-wave (km/s) = 4.42401 6.67955 5.66517
#
# Compressibility (1/GPa) = 0.05881790
#
# Stress axis : x y z
#
# Youngs Moduli (GPa) = 11.78856 104.61055 116.32673
#
# Poissons Ratio (x) = 1.75064 0.63276
# Poissons Ratio (y) = 0.19728 -0.01063
# Poissons Ratio (z) = 0.06412 -0.00956
#
# Static dielectric constant tensor:
#      x y z
#    x 2.850370 0.000000 0.000000 
#    y 0.000000 3.941590 0.000000 
#    z 0.000000 0.000000 2.548680 
# 
# 
# High freq. dielectric constant tensor:
#      x y z
#    x 1.680990 0.000000 0.000000 
#    y 0.000000 1.783540 0.000000 
#    z 0.000000 0.000000 1.796570 
# 
# From -- ./inp_files/613.got.cif
#   From: 2010.03.12/outbox.cif.g09.slc.cpg/sg54_1_cif.got.tgz:613.got - 2010.04.16 15:00:50.
