data_PCOD8222776
_publ_section_title
;
Structure prediction by ZEFSAII (Michael W. Deem and Ramdas Pophale) SiO2 
 PCOD8222776
Probable space group: P C C A
;
_chemical_formula_sum "Si O2"
_cell_formula_units_Z 48
_cell_length_a 11.150631
_cell_length_b 9.138664
_cell_length_c 20.973390
_cell_angle_alpha 90.000000
_cell_angle_beta 90.000000
_cell_angle_gamma 90.000000
_cell_volume 2137.227663
_symmetry_space_group_name_H-M "P C C A"
_symmetry_group_IT_number 54
_symmetry_cell_setting 'orthorhombic'
loop_
_space_group_symop_operation_xyz
x,y,z
1/2-x,-y,z
1/2+x,-y,1/2-z
-x,y,1/2-z
-x,-y,-z
1/2+x,y,-z
1/2-x,y,1/2+z
x,-y,1/2+z
loop_
_atom_site_type_symbol
_atom_site_label
_atom_site_fract_x
_atom_site_fract_y
_atom_site_fract_z
Si Si1 0.976212 0.633211 0.574659
Si Si2 0.394148 0.860773 0.599993
Si Si3 0.373747 0.934702 0.216368
Si Si4 0.308337 0.856868 0.460325
Si Si5 0.411820 0.670419 0.942916
Si Si6 0.201904 0.346884 0.160467
O O1 0.904793 0.785686 0.589505
O O2 0.897619 0.487936 0.591597
O O3 0.991543 0.644054 0.498591
O O4 0.101365 0.617858 0.609113
O O5 0.362234 0.910039 0.528021
O O6 0.529082 0.794322 0.602885
O O7 0.309729 0.732935 0.625383
O O8 0.383288 0.004251 0.643973
O O9 0.500000 0.975609 0.250000
O O10 0.355726 0.758571 0.214569
O O11 0.250000 0.000000 0.248169
O O12 0.212545 0.727458 0.471138
O O13 0.250000 0.000000 0.427492
O O14 0.250000 0.500000 0.190458
#
# Coordination Sequence:
#
# PCOD8222776 Si02
#       6
#     8   8   8   8   8   8
#     4  10  21  33  56  87 130 173 210 252 301 380
#     4  10  21  38  62  90 128 176 212 261 324 389
#     4  10  24  47  73  97 127 167 221 288 353 396
#     4  11  22  33  52  88 134 176 216 254 297 376
#     4  10  20  34  55  88 132 176 209 248 304 373
#     4  11  20  39  66  92 123 168 214 258 320 395
#
# _framework density 22.459002000000002
#
# number of rings (size 3 to 8) (size 9 to 14) (size 15 to 20)
#    0.000    1.667    3.333    2.000    2.333    1.333 
#    3.000    3.333    0.000    0.000    0.000    0.000 
#    0.000    0.000    0.000    0.000    0.000    0.000 
#
# Total GULP energy -594759.245526 kJ/mol
# GULP energy per Si atom -12390.817615 kJ/mol
# Density = 2.240788 g / cm^3
# Si number density = 22.459002 Si / 1000 Ang^3
#
#
#
# Elastic Constant Matrix: (Units=GPa)
#
#
# Indices 1 2 3 4 5 6 
#
# 1 114.2955 43.8561 32.4994 0.0000 0.0000 0.0000
# 2 43.8561 147.5828 21.1907 0.0000 0.0000 0.0000
# 3 32.4994 21.1907 27.0579 0.0000 0.0000 0.0000
# 4 0.0000 0.0000 0.0000 12.4484 0.0000 0.0000
# 5 0.0000 0.0000 0.0000 0.0000 27.0352 0.0000
# 6 0.0000 0.0000 0.0000 0.0000 0.0000 47.6560
#
#
#
# Elastic Compliance Matrix: (Units=1/GPa)
#
#
# Indices 1 2 3 4 5 6 
#
# 1 0.013760 -0.001933 -0.015013 0.000000 0.000000 0.000000
# 2 -0.001933 0.007906 -0.003870 0.000000 0.000000 0.000000
# 3 -0.015013 -0.003870 0.058021 0.000000 0.000000 0.000000
# 4 0.000000 0.000000 0.000000 0.080332 0.000000 0.000000
# 5 0.000000 0.000000 0.000000 0.000000 0.036989 0.000000
# 6 0.000000 0.000000 0.000000 0.000000 0.000000 0.020984
#
#
# Mechanical properties :
#
#
# Convention : Reuss Voigt Hill
#
# Bulk Modulus (GPa) = 26.27797 53.78096 40.02947
# Shear Modulus (GPa) = 18.36155 30.18723 24.27439
#
# Velocity S-wave (km/s) = 2.86240 3.67018 3.29117
# Velocity P-wave (km/s) = 4.75923 6.47754 5.68370
#
# Compressibility (1/GPa) = 0.03805469
#
# Stress axis : x y z
#
# Youngs Moduli (GPa) = 72.67435 126.48662 17.23520
#
# Poissons Ratio (x) = 0.24454 0.25876
# Poissons Ratio (y) = 0.14050 0.06669
# Poissons Ratio (z) = 1.09107 0.48945
#
# Static dielectric constant tensor:
#      x y z
#    x 4.228440 0.000000 0.000000 
#    y 0.000000 4.447810 0.000000 
#    z 0.000000 0.000000 3.293480 
# 
# 
# High freq. dielectric constant tensor:
#      x y z
#    x 1.900480 0.000000 0.000000 
#    y 0.000000 1.908610 0.000000 
#    z 0.000000 0.000000 1.802400 
# 
# From -- ./inp_files/24080.got.cif
#   From: 2010.03.12/outbox.cif.g09.slc.cpg/sg54_13_cif.got.tgz:24080.got - 2010.04.16 15:00:50.
