data_PCOD8222738
_publ_section_title
;
Structure prediction by ZEFSAII (Michael W. Deem and Ramdas Pophale) SiO2 
 PCOD8222738
Probable space group: P C C A
;
_chemical_formula_sum "Si O2"
_cell_formula_units_Z 40
_cell_length_a 19.949750
_cell_length_b 10.740348
_cell_length_c 8.205876
_cell_angle_alpha 90.000000
_cell_angle_beta 90.000000
_cell_angle_gamma 90.000000
_cell_volume 1758.250546
_symmetry_space_group_name_H-M "P C C A"
_symmetry_group_IT_number 54
_symmetry_cell_setting 'orthorhombic'
loop_
_space_group_symop_operation_xyz
x,y,z
1/2-x,-y,z
1/2+x,-y,1/2-z
-x,y,1/2-z
-x,-y,-z
1/2+x,y,-z
1/2-x,y,1/2+z
x,-y,1/2+z
loop_
_atom_site_type_symbol
_atom_site_label
_atom_site_fract_x
_atom_site_fract_y
_atom_site_fract_z
Si Si1 0.683751 0.864487 0.632628
Si Si2 0.000000 0.547304 0.250000
Si Si3 0.500000 0.971225 0.750000
Si Si4 0.171618 0.146854 0.481676
Si Si5 0.062036 0.163931 0.050552
Si Si6 0.552025 0.664495 0.055275
O O1 0.670133 0.847187 0.823018
O O2 0.756486 0.811315 0.588159
O O3 0.633784 0.788067 0.513804
O O4 0.665398 0.006142 0.581908
O O5 0.055780 0.466024 0.348630
O O6 0.045829 0.635001 0.136378
O O7 0.436858 0.057030 0.690711
O O8 0.479615 0.886069 0.897567
O O9 0.114133 0.239946 0.411194
O O10 0.019400 0.279173 0.117452
#
# Coordination Sequence:
#
# PCOD8222738 Si02
#       6
#     8   4   4   8   8   8
#     4  11  22  36  58  93 130 161 195 231 301 402
#     4  10  24  42  64  88 112 154 226 272 296 340
#     4  10  20  30  54  94 126 154 196 232 298 396
#     4  11  23  38  60  90 131 168 195 241 306 372
#     4  11  20  34  57  86 121 156 191 246 306 366
#     4  11  23  41  64  87 115 157 206 265 310 343
#
# _framework density 22.749887000000001
#
# number of rings (size 3 to 8) (size 9 to 14) (size 15 to 20)
#    0.000    1.200    0.000    9.600    0.000    4.800 
#    0.000    0.000    0.000   20.400    0.000    0.000 
#    0.000    0.000    0.000    0.000    0.000    0.000 
#
# Total GULP energy -495594.046778 kJ/mol
# GULP energy per Si atom -12389.851169 kJ/mol
# Density = 2.269811 g / cm^3
# Si number density = 22.749887 Si / 1000 Ang^3
#
#
#
# Elastic Constant Matrix: (Units=GPa)
#
#
# Indices 1 2 3 4 5 6 
#
# 1 124.8452 27.8778 -23.1641 0.0000 0.0000 0.0000
# 2 27.8778 60.4903 -7.4855 0.0000 0.0000 0.0000
# 3 -23.1641 -7.4855 17.9246 0.0000 0.0000 0.0000
# 4 0.0000 0.0000 0.0000 44.2966 0.0000 0.0000
# 5 0.0000 0.0000 0.0000 0.0000 32.8702 0.0000
# 6 0.0000 0.0000 0.0000 0.0000 0.0000 24.1209
#
#
#
# Elastic Compliance Matrix: (Units=1/GPa)
#
#
# Indices 1 2 3 4 5 6 
#
# 1 0.011219 -0.003560 0.013012 0.000000 0.000000 0.000000
# 2 -0.003560 0.018562 0.003151 0.000000 0.000000 0.000000
# 3 0.013012 0.003151 0.073920 0.000000 0.000000 0.000000
# 4 0.000000 0.000000 0.000000 0.022575 0.000000 0.000000
# 5 0.000000 0.000000 0.000000 0.000000 0.030423 0.000000
# 6 0.000000 0.000000 0.000000 0.000000 0.000000 0.041458
#
#
# Mechanical properties :
#
#
# Convention : Reuss Voigt Hill
#
# Bulk Modulus (GPa) = 7.75758 21.96849 14.86303
# Shear Modulus (GPa) = 23.15653 33.99301 28.57477
#
# Velocity S-wave (km/s) = 3.19388 3.86969 3.54791
# Velocity P-wave (km/s) = 4.12534 5.44458 4.83021
#
# Compressibility (1/GPa) = 0.12890625
#
# Stress axis : x y z
#
# Youngs Moduli (GPa) = 89.13292 53.87264 13.52807
#
# Poissons Ratio (x) = 0.19181 -0.17603
# Poissons Ratio (y) = 0.31734 -0.04262
# Poissons Ratio (z) = -1.15978 -0.16974
#
# Static dielectric constant tensor:
#      x y z
#    x 4.689200 0.000000 0.000000 
#    y 0.000000 3.926170 0.000000 
#    z 0.000000 0.000000 4.497820 
# 
# 
# High freq. dielectric constant tensor:
#      x y z
#    x 1.881090 0.000000 0.000000 
#    y 0.000000 1.863720 0.000000 
#    z 0.000000 0.000000 1.940500 
# 
# From -- ./inp_files/4681.got.cif
#   From: 2010.03.12/outbox.cif.g09.slc.cpg/sg54_3_cif.got.tgz:4681.got - 2010.04.16 15:00:50.
