data_PCOD8222080
_publ_section_title
;
Structure prediction by ZEFSAII (Michael W. Deem and Ramdas Pophale) SiO2 
 PCOD8222080
Probable space group: P M N A
;
_chemical_formula_sum "Si O2"
_cell_formula_units_Z 48
_cell_length_a 26.035790
_cell_length_b 22.297352
_cell_length_c 5.105809
_cell_angle_alpha 90.000000
_cell_angle_beta 90.000000
_cell_angle_gamma 90.000000
_cell_volume 2964.071083
_symmetry_space_group_name_H-M "P M N A"
_symmetry_group_IT_number 53
_symmetry_cell_setting 'orthorhombic'
loop_
_space_group_symop_operation_xyz
x,y,z
1/2-x,-y,1/2+z
x,-y,-z
1/2-x,y,1/2-z
-x,-y,-z
1/2+x,y,1/2-z
-x,y,z
1/2+x,-y,1/2+z
loop_
_atom_site_type_symbol
_atom_site_label
_atom_site_fract_x
_atom_site_fract_y
_atom_site_fract_z
Si Si1 0.941431 0.962507 0.260532
Si Si2 0.719970 0.428529 0.499685
Si Si3 0.440629 0.761051 0.871966
Si Si4 0.059426 0.628267 0.559754
Si Si5 0.440535 0.165125 0.612548
Si Si6 0.104183 0.429603 0.952151
O O1 0.914404 0.898501 0.194515
O O2 0.000000 0.949534 0.348108
O O3 0.914947 0.000000 0.500000
O O4 0.937906 0.000000 0.000000
O O5 0.720310 0.500000 0.500000
O O6 0.750000 0.403089 0.750000
O O7 0.661611 0.405129 0.496671
O O8 0.750000 0.402777 0.250000
O O9 0.500000 0.753067 0.795174
O O10 0.416471 0.694856 0.904267
O O11 0.415211 0.802524 0.642886
O O12 0.432386 0.790812 0.149273
O O13 0.089031 0.589206 0.342121
O O14 0.000000 0.631183 0.476733
O O15 0.064642 0.598089 0.842247
O O16 0.500000 0.151864 0.548453
O O17 0.101778 0.500000 0.000000
#
# Coordination Sequence:
#
# PCOD8222080 Si02
#       6
#     8   8   8   8   8   8
#     4   9  15  21  30  47  69  89 112 152 209 259
#     4   9  17  31  50  69  87 105 128 163 209 263
#     4   9  17  28  40  52  68  98 138 173 203 234
#     4  11  22  34  46  62  87 116 147 182 215 253
#     4   9  15  24  37  50  66  92 128 166 205 248
#     4  11  22  34  49  68  87 110 139 172 221 275
#
# _framework density 16.193942
#
# number of rings (size 3 to 8) (size 9 to 14) (size 15 to 20)
#    0.000    2.333    0.000    4.000    0.000   11.333 
#    0.000    0.000    0.000    0.000    0.000    0.000 
#    0.000    0.000    0.000    0.000    0.000    0.000 
#
# Total GULP energy -594899.868048 kJ/mol
# GULP energy per Si atom -12393.747251 kJ/mol
# Density = 1.615708 g / cm^3
# Si number density = 16.193942 Si / 1000 Ang^3
#
#
#
# Elastic Constant Matrix: (Units=GPa)
#
#
# Indices 1 2 3 4 5 6 
#
# 1 39.3321 12.3101 13.7883 0.0000 0.0000 0.0000
# 2 12.3101 89.4308 19.2692 0.0000 0.0000 0.0000
# 3 13.7883 19.2692 89.3170 0.0000 0.0000 0.0000
# 4 0.0000 0.0000 0.0000 26.9131 0.0000 0.0000
# 5 0.0000 0.0000 0.0000 0.0000 13.2521 0.0000
# 6 0.0000 0.0000 0.0000 0.0000 0.0000 0.2866
#
#
#
# Elastic Compliance Matrix: (Units=1/GPa)
#
#
# Indices 1 2 3 4 5 6 
#
# 1 0.027638 -0.003026 -0.003614 0.000000 0.000000 0.000000
# 2 -0.003026 0.012058 -0.002134 0.000000 0.000000 0.000000
# 3 -0.003614 -0.002134 0.012214 0.000000 0.000000 0.000000
# 4 0.000000 0.000000 0.000000 0.037157 0.000000 0.000000
# 5 0.000000 0.000000 0.000000 0.000000 0.075460 0.000000
# 6 0.000000 0.000000 0.000000 0.000000 0.000000 3.488615
#
#
# Mechanical properties :
#
#
# Convention : Reuss Voigt Hill
#
# Bulk Modulus (GPa) = 29.10101 34.31280 31.70691
# Shear Modulus (GPa) = 1.35790 19.60452 10.48121
#
# Velocity S-wave (km/s) = 0.91670 3.48315 2.54683
# Velocity P-wave (km/s) = 4.37376 6.11647 5.31700
#
# Compressibility (1/GPa) = 0.03436306
#
# Stress axis : x y z
#
# Youngs Moduli (GPa) = 36.18154 82.93112 81.87040
#
# Poissons Ratio (x) = 0.25093 0.29587
# Poissons Ratio (y) = 0.10948 0.17474
# Poissons Ratio (z) = 0.13076 0.17700
#
# Static dielectric constant tensor:
#      x y z
#    x 2.580770 0.000000 0.000000 
#    y 0.000000 3.145730 0.000000 
#    z 0.000000 0.000000 3.211000 
# 
# 
# High freq. dielectric constant tensor:
#      x y z
#    x 1.540880 0.000000 0.000000 
#    y 0.000000 1.621630 0.000000 
#    z 0.000000 0.000000 1.648610 
# 
# From -- ./inp_files/3754.got.cif
#   From: 2010.03.12/outbox.cif.g09.slc.cpg/sg53_2_cif.got.tgz:3754.got - 2010.04.16 14:36:59.
