data_PCOD8222674
_publ_section_title
;
Structure prediction by ZEFSAII (Michael W. Deem and Ramdas Pophale) SiO2 
 PCOD8222674
Probable space group: P C C A
;
_chemical_formula_sum "Si O2"
_cell_formula_units_Z 32
_cell_length_a 16.218133
_cell_length_b 8.312483
_cell_length_c 10.238683
_cell_angle_alpha 90.000000
_cell_angle_beta 90.000000
_cell_angle_gamma 90.000000
_cell_volume 1380.307109
_symmetry_space_group_name_H-M "P C C A"
_symmetry_group_IT_number 54
_symmetry_cell_setting 'orthorhombic'
loop_
_space_group_symop_operation_xyz
x,y,z
1/2-x,-y,z
1/2+x,-y,1/2-z
-x,y,1/2-z
-x,-y,-z
1/2+x,y,-z
1/2-x,y,1/2+z
x,-y,1/2+z
loop_
_atom_site_type_symbol
_atom_site_label
_atom_site_fract_x
_atom_site_fract_y
_atom_site_fract_z
Si Si1 0.706227 0.340028 0.783350
Si Si2 0.947852 0.498905 0.869543
Si Si3 0.868460 0.164841 0.841825
Si Si4 0.840397 0.063685 0.113394
O O1 0.750000 0.500000 0.726013
O O2 0.864357 0.394805 0.387077
O O3 0.771958 0.219833 0.850291
O O4 0.662795 0.247913 0.663762
O O5 0.926815 0.317232 0.828973
O O6 0.000000 0.573178 0.750000
O O7 0.000000 0.500000 0.000000
O O8 0.888179 0.066389 0.974922
O O9 0.886684 0.050516 0.717831
O O10 0.750000 0.000000 0.087427
#
# Coordination Sequence:
#
# PCOD8222674 Si02
#       4
#     8   8   8   8
#     4   9  20  37  62  90 118 155 201 251 301 356
#     4  11  24  42  61  88 123 161 203 250 303 361
#     4  10  22  39  63  90 121 158 201 249 302 361
#     4  10  19  36  61  92 119 150 198 252 299 354
#
# _framework density 23.183246
#
# number of rings (size 3 to 8) (size 9 to 14) (size 15 to 20)
#    0.000    2.000    0.000    3.750    0.000   11.000 
#    0.000    6.250    0.000    0.000    0.000    0.000 
#    0.000    0.000    0.000    0.000    0.000    0.000 
#
# Total GULP energy -396778.733542 kJ/mol
# GULP energy per Si atom -12399.335423 kJ/mol
# Density = 2.313048 g / cm^3
# Si number density = 23.183246 Si / 1000 Ang^3
#
#
#
# Elastic Constant Matrix: (Units=GPa)
#
#
# Indices 1 2 3 4 5 6 
#
# 1 68.1838 16.5469 25.1092 0.0000 0.0000 0.0000
# 2 16.5469 101.4010 29.3177 0.0000 0.0000 0.0000
# 3 25.1092 29.3177 135.2966 0.0000 0.0000 0.0000
# 4 0.0000 0.0000 0.0000 34.2622 0.0000 0.0000
# 5 0.0000 0.0000 0.0000 0.0000 17.5456 0.0000
# 6 0.0000 0.0000 0.0000 0.0000 0.0000 20.1966
#
#
#
# Elastic Compliance Matrix: (Units=1/GPa)
#
#
# Indices 1 2 3 4 5 6 
#
# 1 0.016070 -0.001878 -0.002576 0.000000 0.000000 0.000000
# 2 -0.001878 0.010740 -0.001979 0.000000 0.000000 0.000000
# 3 -0.002576 -0.001979 0.008298 0.000000 0.000000 0.000000
# 4 0.000000 0.000000 0.000000 0.029187 0.000000 0.000000
# 5 0.000000 0.000000 0.000000 0.000000 0.056994 0.000000
# 6 0.000000 0.000000 0.000000 0.000000 0.000000 0.049513
#
#
# Mechanical properties :
#
#
# Convention : Reuss Voigt Hill
#
# Bulk Modulus (GPa) = 44.95512 49.64766 47.30139
# Shear Modulus (GPa) = 26.16674 29.99472 28.08073
#
# Velocity S-wave (km/s) = 3.36325 3.60086 3.48408
# Velocity P-wave (km/s) = 5.87496 6.22495 6.05249
#
# Compressibility (1/GPa) = 0.02224441
#
# Stress axis : x y z
#
# Youngs Moduli (GPa) = 62.22617 93.10640 120.51153
#
# Poissons Ratio (x) = 0.17483 0.31038
# Poissons Ratio (y) = 0.11685 0.23848
# Poissons Ratio (z) = 0.16027 0.18425
#
# Static dielectric constant tensor:
#      x y z
#    x 3.434860 0.000000 0.000000 
#    y 0.000000 4.387610 0.000000 
#    z 0.000000 0.000000 4.108520 
# 
# 
# High freq. dielectric constant tensor:
#      x y z
#    x 1.896690 0.000000 0.000000 
#    y 0.000000 1.924670 0.000000 
#    z 0.000000 0.000000 1.904420 
# 
# From -- ./inp_files/4451.got.cif
#   From: 2010.03.12/outbox.cif.g09.slc.cpg/sg54_3_cif.got.tgz:4451.got - 2010.04.16 15:00:50.
