data_PCOD8222232
_publ_section_title
;
Structure prediction by ZEFSAII (Michael W. Deem and Ramdas Pophale) SiO2 
 PCOD8222232
Probable space group: P M N A
;
_chemical_formula_sum "Si O2"
_cell_formula_units_Z 20
_cell_length_a 15.417228
_cell_length_b 4.814101
_cell_length_c 10.815201
_cell_angle_alpha 90.000000
_cell_angle_beta 90.000000
_cell_angle_gamma 90.000000
_cell_volume 802.705221
_symmetry_space_group_name_H-M "P M N A"
_symmetry_group_IT_number 53
_symmetry_cell_setting 'orthorhombic'
loop_
_space_group_symop_operation_xyz
x,y,z
1/2-x,-y,1/2+z
x,-y,-z
1/2-x,y,1/2-z
-x,-y,-z
1/2+x,y,1/2-z
-x,y,z
1/2+x,-y,1/2+z
loop_
_atom_site_type_symbol
_atom_site_label
_atom_site_fract_x
_atom_site_fract_y
_atom_site_fract_z
Si Si1 0.900863 0.689871 0.258681
Si Si2 0.155839 0.830455 0.889387
Si Si3 0.808310 0.500000 0.500000
O O1 0.893073 0.444032 0.157403
O O2 0.871230 0.608635 0.394303
O O3 0.000000 0.789809 0.263889
O O4 0.839140 0.948075 0.221955
O O5 0.250188 0.743040 0.939833
O O6 0.106271 0.000000 0.000000
#
# Coordination Sequence:
#
# PCOD8222232 Si02
#       3
#     8   8   4
#     4  12  29  50  77 112 153 195 251 316 379 437
#     4  12  27  48  77 109 150 200 254 305 374 453
#     4  12  29  48  83 108 154 202 260 302 373 456
#
# _framework density 24.915748000000001
#
# number of rings (size 3 to 8) (size 9 to 14) (size 15 to 20)
#    0.000    0.000    4.000    3.000   11.200    4.800 
#    0.000    4.000    0.000    0.000    0.000    0.000 
#    0.000    0.000    0.000    0.000    0.000    0.000 
#
# Total GULP energy -247929.578754 kJ/mol
# GULP energy per Si atom -12396.478938 kJ/mol
# Density = 2.485904 g / cm^3
# Si number density = 24.915748 Si / 1000 Ang^3
#
#
#
# Elastic Constant Matrix: (Units=GPa)
#
#
# Indices 1 2 3 4 5 6 
#
# 1 112.3947 45.3028 70.7703 0.0000 0.0000 0.0000
# 2 45.3028 162.5327 40.0033 0.0000 0.0000 0.0000
# 3 70.7703 40.0033 109.6635 0.0000 0.0000 0.0000
# 4 0.0000 0.0000 0.0000 50.4796 0.0000 0.0000
# 5 0.0000 0.0000 0.0000 0.0000 20.5587 0.0000
# 6 0.0000 0.0000 0.0000 0.0000 0.0000 22.4963
#
#
#
# Elastic Compliance Matrix: (Units=1/GPa)
#
#
# Indices 1 2 3 4 5 6 
#
# 1 0.015587 -0.002053 -0.009310 0.000000 0.000000 0.000000
# 2 -0.002053 0.007030 -0.001239 0.000000 0.000000 0.000000
# 3 -0.009310 -0.001239 0.015579 0.000000 0.000000 0.000000
# 4 0.000000 0.000000 0.000000 0.019810 0.000000 0.000000
# 5 0.000000 0.000000 0.000000 0.000000 0.048641 0.000000
# 6 0.000000 0.000000 0.000000 0.000000 0.000000 0.044452
#
#
# Mechanical properties :
#
#
# Convention : Reuss Voigt Hill
#
# Bulk Modulus (GPa) = 76.97716 77.41598 77.19657
# Shear Modulus (GPa) = 27.68032 33.94120 30.81076
#
# Velocity S-wave (km/s) = 3.33672 3.69486 3.52034
# Velocity P-wave (km/s) = 6.76808 7.02433 6.89740
#
# Compressibility (1/GPa) = 0.01299087
#
# Stress axis : x y z
#
# Youngs Moduli (GPa) = 64.15685 142.24883 64.18919
#
# Poissons Ratio (x) = 0.29206 0.59759
# Poissons Ratio (y) = 0.13172 0.07956
# Poissons Ratio (z) = 0.59729 0.17631
#
# Static dielectric constant tensor:
#      x y z
#    x 4.074620 0.000000 0.000000 
#    y 0.000000 4.840310 0.000000 
#    z 0.000000 0.000000 4.876090 
# 
# 
# High freq. dielectric constant tensor:
#      x y z
#    x 1.963460 0.000000 0.000000 
#    y 0.000000 2.012830 0.000000 
#    z 0.000000 0.000000 2.017650 
# 
# From -- ./inp_files/15134.got.cif
#   From: 2010.03.12/outbox.cif.g09.slc.cpg/sg53_8_cif.got.tgz:15134.got - 2010.04.16 14:36:59.
