data_PCOD8222414
_publ_section_title
;
Structure prediction by ZEFSAII (Michael W. Deem and Ramdas Pophale) SiO2 
 PCOD8222414
Probable space group: P C C A
;
_chemical_formula_sum "Si O2"
_cell_formula_units_Z 40
_cell_length_a 20.242487
_cell_length_b 7.495982
_cell_length_c 10.987256
_cell_angle_alpha 90.000000
_cell_angle_beta 90.000000
_cell_angle_gamma 90.000000
_cell_volume 1667.176760
_symmetry_space_group_name_H-M "P C C A"
_symmetry_group_IT_number 54
_symmetry_cell_setting 'orthorhombic'
loop_
_space_group_symop_operation_xyz
x,y,z
1/2-x,-y,z
1/2+x,-y,1/2-z
-x,y,1/2-z
-x,-y,-z
1/2+x,y,-z
1/2-x,y,1/2+z
x,-y,1/2+z
loop_
_atom_site_type_symbol
_atom_site_label
_atom_site_fract_x
_atom_site_fract_y
_atom_site_fract_z
Si Si1 0.131934 0.405025 0.561710
Si Si2 0.862926 0.399607 0.676023
Si Si3 0.507981 0.723638 0.575385
Si Si4 0.550730 0.900713 0.345213
Si Si5 0.321281 0.081603 0.193299
O O1 0.147414 0.503428 0.693044
O O2 0.164685 0.496947 0.442655
O O3 0.160437 0.203008 0.573923
O O4 0.052606 0.406453 0.538415
O O5 0.942036 0.362254 0.673331
O O6 0.824917 0.208832 0.686450
O O7 0.554255 0.768093 0.459360
O O8 0.477483 0.904797 0.625338
O O9 0.500000 0.810876 0.250000
O O10 0.624988 0.922816 0.293216
O O11 0.250000 0.000000 0.176788
#
# Coordination Sequence:
#
# PCOD8222414 Si02
#       5
#     8   8   8   8   8
#     4   9  20  34  64 100 145 179 232 286 367 427
#     4  10  19  36  62 103 140 183 223 293 358 440
#     4  10  18  31  57  98 140 177 220 296 353 420
#     4  10  18  34  58  93 138 181 238 299 353 410
#     4   9  20  39  65  97 143 191 243 294 354 421
#
# _framework density 23.992657999999999
#
# number of rings (size 3 to 8) (size 9 to 14) (size 15 to 20)
#    1.200    1.200    2.000    1.200    0.000    1.600 
#    0.000    1.000    0.000    2.400   15.600    0.000 
#    0.000    0.000    0.000    0.000    0.000    0.000 
#
# Total GULP energy -495558.797108 kJ/mol
# GULP energy per Si atom -12388.969928 kJ/mol
# Density = 2.393805 g / cm^3
# Si number density = 23.992658 Si / 1000 Ang^3
#
#
#
# Elastic Constant Matrix: (Units=GPa)
#
#
# Indices 1 2 3 4 5 6 
#
# 1 144.7213 31.5184 40.0658 0.0000 0.0000 0.0000
# 2 31.5184 53.6965 39.3077 0.0000 0.0000 0.0000
# 3 40.0658 39.3077 162.1007 0.0000 0.0000 0.0000
# 4 0.0000 0.0000 0.0000 31.2629 0.0000 0.0000
# 5 0.0000 0.0000 0.0000 0.0000 12.2449 0.0000
# 6 0.0000 0.0000 0.0000 0.0000 0.0000 22.8359
#
#
#
# Elastic Compliance Matrix: (Units=1/GPa)
#
#
# Indices 1 2 3 4 5 6 
#
# 1 0.008061 -0.003979 -0.001027 0.000000 0.000000 0.000000
# 2 -0.003979 0.024607 -0.004983 0.000000 0.000000 0.000000
# 3 -0.001027 -0.004983 0.007631 0.000000 0.000000 0.000000
# 4 0.000000 0.000000 0.000000 0.031987 0.000000 0.000000
# 5 0.000000 0.000000 0.000000 0.000000 0.081667 0.000000
# 6 0.000000 0.000000 0.000000 0.000000 0.000000 0.043791
#
#
# Mechanical properties :
#
#
# Convention : Reuss Voigt Hill
#
# Bulk Modulus (GPa) = 49.21534 64.70026 56.95780
# Shear Modulus (GPa) = 22.27202 29.91050 26.09126
#
# Velocity S-wave (km/s) = 3.05008 3.53463 3.30126
# Velocity P-wave (km/s) = 5.74118 6.60934 6.19050
#
# Compressibility (1/GPa) = 0.02031887
#
# Stress axis : x y z
#
# Youngs Moduli (GPa) = 124.05502 40.63881 131.03821
#
# Poissons Ratio (x) = 0.16172 0.13463
# Poissons Ratio (y) = 0.49367 0.65301
# Poissons Ratio (z) = 0.12746 0.20252
#
# Static dielectric constant tensor:
#      x y z
#    x 3.880950 0.000000 0.000000 
#    y 0.000000 4.042870 0.000000 
#    z 0.000000 0.000000 4.394400 
# 
# 
# High freq. dielectric constant tensor:
#      x y z
#    x 1.921890 0.000000 0.000000 
#    y 0.000000 1.937080 0.000000 
#    z 0.000000 0.000000 1.947520 
# 
# From -- ./inp_files/9416.got.cif
#   From: 2010.03.12/outbox.cif.g09.slc.cpg/sg54_5_cif.got.tgz:9416.got - 2010.04.16 15:00:50.
