data_PCOD8222689
_publ_section_title
;
Structure prediction by ZEFSAII (Michael W. Deem and Ramdas Pophale) SiO2 
 PCOD8222689
Probable space group: P C C A
;
_chemical_formula_sum "Si O2"
_cell_formula_units_Z 60
_cell_length_a 14.763605
_cell_length_b 12.502113
_cell_length_c 16.859528
_cell_angle_alpha 90.000000
_cell_angle_beta 90.000000
_cell_angle_gamma 90.000000
_cell_volume 3111.868590
_symmetry_space_group_name_H-M "P C C A"
_symmetry_group_IT_number 54
_symmetry_cell_setting 'orthorhombic'
loop_
_space_group_symop_operation_xyz
x,y,z
1/2-x,-y,z
1/2+x,-y,1/2-z
-x,y,1/2-z
-x,-y,-z
1/2+x,y,-z
1/2-x,y,1/2+z
x,-y,1/2+z
loop_
_atom_site_type_symbol
_atom_site_label
_atom_site_fract_x
_atom_site_fract_y
_atom_site_fract_z
Si Si1 0.750000 0.000000 0.999274
Si Si2 0.559662 0.023434 0.923609
Si Si3 0.002779 0.824606 0.341412
Si Si4 0.501235 0.553679 0.158478
Si Si5 0.186255 0.600853 0.922433
Si Si6 0.935160 0.353111 0.941837
Si Si7 0.309702 0.212170 0.432024
Si Si8 0.571543 0.265539 0.929464
O O1 0.756458 0.898791 0.057937
O O2 0.663217 0.994852 0.942458
O O3 0.525398 0.948069 0.852703
O O4 0.545339 0.146880 0.898726
O O5 0.500000 0.000000 0.000000
O O6 0.101713 0.802598 0.377851
O O7 0.000000 0.795723 0.250000
O O8 0.927881 0.748533 0.383302
O O9 0.500000 0.519973 0.250000
O O10 0.602572 0.589062 0.136893
O O11 0.475678 0.452957 0.104835
O O12 0.428465 0.651249 0.144385
O O13 0.250000 0.500000 0.915257
O O14 0.242225 0.703853 0.891920
O O15 0.158945 0.615905 0.015519
O O16 0.998095 0.318975 0.013986
O O17 0.336146 0.256155 0.520048
#
# Coordination Sequence:
#
# PCOD8222689 Si02
#       8
#     4   8   8   8   8   8   8   8
#     4  10  20  34  62  90 110 150 208 246 294 342
#     4  11  19  38  62  89 117 156 201 251 290 351
#     4  11  22  38  60  88 122 160 192 238 312 364
#     4  11  23  38  57  84 121 160 188 237 312 364
#     4  11  21  36  60  86 110 147 208 252 285 347
#     4  10  19  37  60  80 109 152 198 240 281 351
#     4  10  20  35  58  87 111 149 201 251 285 347
#     4   9  19  36  59  81 110 147 201 234 281 350
#
# _framework density 19.281020999999999
#
# number of rings (size 3 to 8) (size 9 to 14) (size 15 to 20)
#    0.000    1.600    4.000    5.200    1.867    0.533 
#    0.000    8.000    0.000    0.000    0.000    0.000 
#    0.000    0.000    0.000    0.000    0.000    0.000 
#
# Total GULP energy -743720.948824 kJ/mol
# GULP energy per Si atom -12395.349147 kJ/mol
# Density = 1.923714 g / cm^3
# Si number density = 19.281021 Si / 1000 Ang^3
#
#
#
# Elastic Constant Matrix: (Units=GPa)
#
#
# Indices 1 2 3 4 5 6 
#
# 1 90.4307 49.3564 33.8816 0.0000 0.0000 0.0000
# 2 49.3564 142.8495 31.6394 0.0000 0.0000 0.0000
# 3 33.8816 31.6394 82.0370 0.0000 0.0000 0.0000
# 4 0.0000 0.0000 0.0000 11.9234 0.0000 0.0000
# 5 0.0000 0.0000 0.0000 0.0000 18.3752 0.0000
# 6 0.0000 0.0000 0.0000 0.0000 0.0000 36.9287
#
#
#
# Elastic Compliance Matrix: (Units=1/GPa)
#
#
# Indices 1 2 3 4 5 6 
#
# 1 0.015070 -0.004186 -0.004610 0.000000 0.000000 0.000000
# 2 -0.004186 0.008817 -0.001672 0.000000 0.000000 0.000000
# 3 -0.004610 -0.001672 0.014738 0.000000 0.000000 0.000000
# 4 0.000000 0.000000 0.000000 0.083869 0.000000 0.000000
# 5 0.000000 0.000000 0.000000 0.000000 0.054421 0.000000
# 6 0.000000 0.000000 0.000000 0.000000 0.000000 0.027079
#
#
# Mechanical properties :
#
#
# Convention : Reuss Voigt Hill
#
# Bulk Modulus (GPa) = 56.52679 60.56354 58.54516
# Shear Modulus (GPa) = 21.66143 26.80812 24.23477
#
# Velocity S-wave (km/s) = 3.35544 3.73284 3.54916
# Velocity P-wave (km/s) = 6.66280 7.07516 6.87208
#
# Compressibility (1/GPa) = 0.01769073
#
# Stress axis : x y z
#
# Youngs Moduli (GPa) = 66.35762 113.41857 67.85141
#
# Poissons Ratio (x) = 0.47476 0.31276
# Poissons Ratio (y) = 0.27776 0.11342
# Poissons Ratio (z) = 0.30588 0.18960
#
# Static dielectric constant tensor:
#      x y z
#    x 3.606440 0.000000 0.000000 
#    y 0.000000 3.743080 0.000000 
#    z 0.000000 0.000000 3.403400 
# 
# 
# High freq. dielectric constant tensor:
#      x y z
#    x 1.743100 0.000000 0.000000 
#    y 0.000000 1.777170 0.000000 
#    z 0.000000 0.000000 1.715500 
# 
# From -- ./inp_files/18213.got.cif
#   From: 2010.03.12/outbox.cif.g09.slc.cpg/sg54_10_cif.got.tgz:18213.got - 2010.04.16 15:00:50.
