data_PCOD8222838
_publ_section_title
;
Structure prediction by ZEFSAII (Michael W. Deem and Ramdas Pophale) SiO2 
 PCOD8222838
Probable space group: P C C A
;
_chemical_formula_sum "Si O2"
_cell_formula_units_Z 40
_cell_length_a 10.803161
_cell_length_b 20.861595
_cell_length_c 8.729401
_cell_angle_alpha 90.000000
_cell_angle_beta 90.000000
_cell_angle_gamma 90.000000
_cell_volume 1967.355312
_symmetry_space_group_name_H-M "P C C A"
_symmetry_group_IT_number 54
_symmetry_cell_setting 'orthorhombic'
loop_
_space_group_symop_operation_xyz
x,y,z
1/2-x,-y,z
1/2+x,-y,1/2-z
-x,y,1/2-z
-x,-y,-z
1/2+x,y,-z
1/2-x,y,1/2+z
x,-y,1/2+z
loop_
_atom_site_type_symbol
_atom_site_label
_atom_site_fract_x
_atom_site_fract_y
_atom_site_fract_z
Si Si1 0.860466 0.584979 0.722938
Si Si2 0.877551 0.071019 0.831362
Si Si3 0.250000 0.000000 0.913273
Si Si4 0.637418 0.726827 0.175829
Si Si5 0.625421 0.780869 0.841279
Si Si6 0.250000 0.500000 0.022319
O O1 0.804920 0.654908 0.688597
O O2 0.850738 0.533875 0.585706
O O3 0.805458 0.556760 0.878176
O O4 0.000000 0.600144 0.750000
O O5 0.880894 0.144412 0.883282
O O6 0.000000 0.046760 0.750000
O O7 0.777404 0.060606 0.696474
O O8 0.859661 0.025316 0.977807
O O9 0.500000 0.737082 0.250000
O O10 0.745348 0.770106 0.250865
O O11 0.625535 0.741025 0.996918
O O12 0.500000 0.760874 0.750000
#
# Coordination Sequence:
#
# PCOD8222838 Si02
#       6
#     8   8   4   8   8   4
#     4  10  21  37  57  83 113 147 188 233 284 339
#     4  10  21  37  57  83 113 147 188 233 284 339
#     4  10  20  36  58  82 112 146 186 232 284 340
#     4  11  23  40  61  88 120 156 197 242 292 348
#     4  11  23  40  61  88 120 156 197 242 292 348
#     4  10  20  36  58  82 112 146 186 232 284 340
#
# _framework density 20.331862000000001
#
# number of rings (size 3 to 8) (size 9 to 14) (size 15 to 20)
#    0.000    1.600    0.000    4.800    0.000    3.200 
#    0.000   10.000    0.000    0.000    0.000    0.000 
#    0.000    0.000    0.000    0.000    0.000    0.000 
#
# Total GULP energy -495681.411734 kJ/mol
# GULP energy per Si atom -12392.035293 kJ/mol
# Density = 2.028559 g / cm^3
# Si number density = 20.331862 Si / 1000 Ang^3
#
#
#
# Elastic Constant Matrix: (Units=GPa)
#
#
# Indices 1 2 3 4 5 6 
#
# 1 83.6854 1.6961 19.3472 0.0000 0.0000 0.0000
# 2 1.6961 69.8187 21.5473 0.0000 0.0000 0.0000
# 3 19.3472 21.5473 114.8665 0.0000 0.0000 0.0000
# 4 0.0000 0.0000 0.0000 48.9171 0.0000 0.0000
# 5 0.0000 0.0000 0.0000 0.0000 25.5781 0.0000
# 6 0.0000 0.0000 0.0000 0.0000 0.0000 26.0399
#
#
#
# Elastic Compliance Matrix: (Units=1/GPa)
#
#
# Indices 1 2 3 4 5 6 
#
# 1 0.012442 0.000366 -0.002164 0.000000 0.000000 0.000000
# 2 0.000366 0.015214 -0.002915 0.000000 0.000000 0.000000
# 3 -0.002164 -0.002915 0.009617 0.000000 0.000000 0.000000
# 4 0.000000 0.000000 0.000000 0.020443 0.000000 0.000000
# 5 0.000000 0.000000 0.000000 0.000000 0.039096 0.000000
# 6 0.000000 0.000000 0.000000 0.000000 0.000000 0.038403
#
#
# Mechanical properties :
#
#
# Convention : Reuss Voigt Hill
#
# Bulk Modulus (GPa) = 35.91285 39.28353 37.59819
# Shear Modulus (GPa) = 32.48345 35.15903 33.82124
#
# Velocity S-wave (km/s) = 4.00141 4.16295 4.08298
# Velocity P-wave (km/s) = 6.24901 6.51690 6.38436
#
# Compressibility (1/GPa) = 0.02784518
#
# Stress axis : x y z
#
# Youngs Moduli (GPa) = 80.36984 65.73028 103.98033
#
# Poissons Ratio (x) = -0.02404 0.22505
# Poissons Ratio (y) = -0.02939 0.30315
# Poissons Ratio (z) = 0.17395 0.19163
#
# Static dielectric constant tensor:
#      x y z
#    x 3.710770 0.000000 0.000000 
#    y 0.000000 3.691650 0.000000 
#    z 0.000000 0.000000 3.893990 
# 
# 
# High freq. dielectric constant tensor:
#      x y z
#    x 1.790840 0.000000 0.000000 
#    y 0.000000 1.802090 0.000000 
#    z 0.000000 0.000000 1.810010 
# 
# From -- ./inp_files/2943.got.cif
#   From: 2010.03.12/outbox.cif.g09.slc.cpg/sg54_2_cif.got.tgz:2943.got - 2010.04.16 15:00:50.
