data_PCOD8222226
_publ_section_title
;
Structure prediction by ZEFSAII (Michael W. Deem and Ramdas Pophale) SiO2 
 PCOD8222226
Probable space group: P M N A
;
_chemical_formula_sum "Si O2"
_cell_formula_units_Z 32
_cell_length_a 18.630268
_cell_length_b 4.968831
_cell_length_c 15.285182
_cell_angle_alpha 90.000000
_cell_angle_beta 90.000000
_cell_angle_gamma 90.000000
_cell_volume 1414.959282
_symmetry_space_group_name_H-M "P M N A"
_symmetry_group_IT_number 53
_symmetry_cell_setting 'orthorhombic'
loop_
_space_group_symop_operation_xyz
x,y,z
1/2-x,-y,1/2+z
x,-y,-z
1/2-x,y,1/2-z
-x,-y,-z
1/2+x,y,1/2-z
-x,y,z
1/2+x,-y,1/2+z
loop_
_atom_site_type_symbol
_atom_site_label
_atom_site_fract_x
_atom_site_fract_y
_atom_site_fract_z
Si Si1 0.375263 0.756105 0.060519
Si Si2 0.145154 0.397509 0.098016
Si Si3 0.500000 0.183249 0.805213
Si Si4 0.000000 0.324258 0.189411
Si Si5 0.729134 0.111616 0.652146
O O1 0.429158 0.745731 0.141141
O O2 0.295495 0.776540 0.097328
O O3 0.382437 0.500000 0.000000
O O4 0.398288 0.000000 0.000000
O O5 0.170481 0.649677 0.157167
O O6 0.070134 0.276341 0.130885
O O7 0.201694 0.154064 0.102684
O O8 0.137221 0.500000 0.000000
O O9 0.500000 0.368481 0.719952
O O10 0.500000 0.874828 0.772803
O O11 0.750000 0.026013 0.750000
#
# Coordination Sequence:
#
# PCOD8222226 Si02
#       5
#     8   8   4   4   8
#     4  12  24  43  68  98 133 173 217 271 330 394
#     4  12  25  44  68  98 133 174 223 275 331 394
#     4  12  26  45  67  98 133 174 221 270 329 396
#     4  12  25  45  68  96 133 176 221 274 329 390
#     4  12  25  43  68  99 133 174 221 274 332 395
#
# _framework density 22.615492
#
# number of rings (size 3 to 8) (size 9 to 14) (size 15 to 20)
#    0.000    0.000    0.000   12.375    0.000    0.000 
#    0.000    3.750    0.000    0.000    0.000    0.000 
#    0.000    0.000    0.000    0.000    0.000    0.000 
#
# Total GULP energy -397106.676087 kJ/mol
# GULP energy per Si atom -12409.583628 kJ/mol
# Density = 2.256402 g / cm^3
# Si number density = 22.615492 Si / 1000 Ang^3
#
#
#
# Elastic Constant Matrix: (Units=GPa)
#
#
# Indices 1 2 3 4 5 6 
#
# 1 128.9186 43.3671 62.6188 0.0000 0.0000 0.0000
# 2 43.3671 148.2583 48.2897 0.0000 0.0000 0.0000
# 3 62.6188 48.2897 119.5437 0.0000 0.0000 0.0000
# 4 0.0000 0.0000 0.0000 47.4878 0.0000 0.0000
# 5 0.0000 0.0000 0.0000 0.0000 41.5888 0.0000
# 6 0.0000 0.0000 0.0000 0.0000 0.0000 29.3856
#
#
#
# Elastic Compliance Matrix: (Units=1/GPa)
#
#
# Indices 1 2 3 4 5 6 
#
# 1 0.010686 -0.001500 -0.004992 0.000000 0.000000 0.000000
# 2 -0.001500 0.007977 -0.002437 0.000000 0.000000 0.000000
# 3 -0.004992 -0.002437 0.011964 0.000000 0.000000 0.000000
# 4 0.000000 0.000000 0.000000 0.021058 0.000000 0.000000
# 5 0.000000 0.000000 0.000000 0.000000 0.024045 0.000000
# 6 0.000000 0.000000 0.000000 0.000000 0.000000 0.034030
#
#
# Mechanical properties :
#
#
# Convention : Reuss Voigt Hill
#
# Bulk Modulus (GPa) = 78.30286 78.36354 78.33320
# Shear Modulus (GPa) = 37.91491 39.85544 38.88518
#
# Velocity S-wave (km/s) = 4.09895 4.20254 4.15107
# Velocity P-wave (km/s) = 7.55649 7.63374 7.59522
#
# Compressibility (1/GPa) = 0.01277093
#
# Stress axis : x y z
#
# Youngs Moduli (GPa) = 93.58115 125.35371 83.58318
#
# Poissons Ratio (x) = 0.18802 0.41721
# Poissons Ratio (y) = 0.14037 0.20367
# Poissons Ratio (z) = 0.46711 0.30546
#
# Static dielectric constant tensor:
#      x y z
#    x 4.227510 0.000000 0.000000 
#    y 0.000000 4.134070 0.000000 
#    z 0.000000 0.000000 4.041810 
# 
# 
# High freq. dielectric constant tensor:
#      x y z
#    x 1.906880 0.000000 0.000000 
#    y 0.000000 1.907720 0.000000 
#    z 0.000000 0.000000 1.902980 
# 
# From -- ./inp_files/23269.got.cif
#   From: 2010.03.12/outbox.cif.g09.slc.cpg/sg53_12_cif.got.tgz:23269.got - 2010.04.16 14:36:59.
