data_PCOD8222211
_publ_section_title
;
Structure prediction by ZEFSAII (Michael W. Deem and Ramdas Pophale) SiO2 
 PCOD8222211
Probable space group: P M N A
;
_chemical_formula_sum "Si O2"
_cell_formula_units_Z 48
_cell_length_a 29.556434
_cell_length_b 8.640021
_cell_length_c 8.757778
_cell_angle_alpha 90.000000
_cell_angle_beta 90.000000
_cell_angle_gamma 90.000000
_cell_volume 2236.458095
_symmetry_space_group_name_H-M "P M N A"
_symmetry_group_IT_number 53
_symmetry_cell_setting 'orthorhombic'
loop_
_space_group_symop_operation_xyz
x,y,z
1/2-x,-y,1/2+z
x,-y,-z
1/2-x,y,1/2-z
-x,-y,-z
1/2+x,y,1/2-z
-x,y,z
1/2+x,-y,1/2+z
loop_
_atom_site_type_symbol
_atom_site_label
_atom_site_fract_x
_atom_site_fract_y
_atom_site_fract_z
Si Si1 0.790657 0.500000 0.000000
Si Si2 0.500000 0.332066 0.417750
Si Si3 0.098627 0.339151 0.726530
Si Si4 0.906800 0.820644 0.967463
Si Si5 0.170769 0.175219 0.549525
Si Si6 0.500000 0.554090 0.168551
Si Si7 0.849637 0.650867 0.742887
Si Si8 0.750000 0.288905 0.750000
O O1 0.818020 0.604673 0.882301
O O2 0.760366 0.388066 0.898858
O O3 0.500000 0.500000 0.500000
O O4 0.541231 0.222968 0.456817
O O5 0.500000 0.384028 0.243477
O O6 0.120442 0.217216 0.608875
O O7 0.119972 0.506059 0.690568
O O8 0.044220 0.343726 0.710187
O O9 0.113194 0.285337 0.896081
O O10 0.882183 0.785025 0.807790
O O11 0.900376 0.000000 0.000000
O O12 0.179387 0.284300 0.400412
O O13 0.206921 0.191856 0.688761
O O14 0.172219 0.000000 0.500000
O O15 0.500000 0.500000 0.000000
#
# Coordination Sequence:
#
# PCOD8222211 Si02
#       8
#     4   4   8   8   8   4   8   4
#     4  12  24  42  74 105 130 173 250 290 344 422
#     4  12  21  40  63  95 135 188 255 299 342 420
#     4  12  23  46  69 104 139 192 248 293 351 430
#     4  12  23  39  65 101 143 188 237 305 369 421
#     4  12  28  47  71 106 149 185 231 302 372 437
#     4  12  24  40  71  99 136 187 249 302 347 415
#     4  12  22  43  72 100 136 186 238 291 349 432
#     4  12  26  46  72 104 138 182 234 294 364 436
#
# _framework density 21.462506999999999
#
# number of rings (size 3 to 8) (size 9 to 14) (size 15 to 20)
#    0.000    0.000    6.667    3.750    0.000    1.333 
#    0.000    1.250    0.000    0.000    0.000    0.000 
#    0.000    0.000    0.000    0.000    0.000    0.000 
#
# Total GULP energy -595052.750164 kJ/mol
# GULP energy per Si atom -12396.932295 kJ/mol
# Density = 2.141366 g / cm^3
# Si number density = 21.462507 Si / 1000 Ang^3
#
#
#
# Elastic Constant Matrix: (Units=GPa)
#
#
# Indices 1 2 3 4 5 6 
#
# 1 98.8210 44.0194 33.0534 0.0000 0.0000 0.0000
# 2 44.0194 128.1616 37.8478 0.0000 0.0000 0.0000
# 3 33.0534 37.8478 126.1832 0.0000 0.0000 0.0000
# 4 0.0000 0.0000 0.0000 39.8178 0.0000 0.0000
# 5 0.0000 0.0000 0.0000 0.0000 37.1617 0.0000
# 6 0.0000 0.0000 0.0000 0.0000 0.0000 28.2692
#
#
#
# Elastic Compliance Matrix: (Units=1/GPa)
#
#
# Indices 1 2 3 4 5 6 
#
# 1 0.012468 -0.003640 -0.002174 0.000000 0.000000 0.000000
# 2 -0.003640 0.009624 -0.001933 0.000000 0.000000 0.000000
# 3 -0.002174 -0.001933 0.009074 0.000000 0.000000 0.000000
# 4 0.000000 0.000000 0.000000 0.025114 0.000000 0.000000
# 5 0.000000 0.000000 0.000000 0.000000 0.026909 0.000000
# 6 0.000000 0.000000 0.000000 0.000000 0.000000 0.035374
#
#
# Mechanical properties :
#
#
# Convention : Reuss Voigt Hill
#
# Bulk Modulus (GPa) = 63.81102 64.77856 64.29479
# Shear Modulus (GPa) = 35.89817 36.93275 36.41546
#
# Velocity S-wave (km/s) = 4.09418 4.15276 4.12357
# Velocity P-wave (km/s) = 7.22120 7.29668 7.25904
#
# Compressibility (1/GPa) = 0.01567127
#
# Stress axis : x y z
#
# Youngs Moduli (GPa) = 80.20492 103.90861 110.20153
#
# Poissons Ratio (x) = 0.37826 0.23959
# Poissons Ratio (y) = 0.29197 0.21302
# Poissons Ratio (z) = 0.17437 0.20086
#
# Static dielectric constant tensor:
#      x y z
#    x 3.721610 0.000000 0.000000 
#    y 0.000000 3.564070 0.000000 
#    z 0.000000 0.000000 4.240640 
# 
# 
# High freq. dielectric constant tensor:
#      x y z
#    x 1.845820 0.000000 0.000000 
#    y 0.000000 1.828970 0.000000 
#    z 0.000000 0.000000 1.865590 
# 
# From -- ./inp_files/13122.got.cif
#   From: 2010.03.12/outbox.cif.g09.slc.cpg/sg53_7_cif.got.tgz:13122.got - 2010.04.16 14:36:59.
