data_PCOD8222187
_publ_section_title
;
Structure prediction by ZEFSAII (Michael W. Deem and Ramdas Pophale) SiO2 
 PCOD8222187
Probable space group: P M N A
;
_chemical_formula_sum "Si O2"
_cell_formula_units_Z 64
_cell_length_a 24.778146
_cell_length_b 11.742463
_cell_length_c 9.251024
_cell_angle_alpha 90.000000
_cell_angle_beta 90.000000
_cell_angle_gamma 90.000000
_cell_volume 2691.645219
_symmetry_space_group_name_H-M "P M N A"
_symmetry_group_IT_number 53
_symmetry_cell_setting 'orthorhombic'
loop_
_space_group_symop_operation_xyz
x,y,z
1/2-x,-y,1/2+z
x,-y,-z
1/2-x,y,1/2-z
-x,-y,-z
1/2+x,y,1/2-z
-x,y,z
1/2+x,-y,1/2+z
loop_
_atom_site_type_symbol
_atom_site_label
_atom_site_fract_x
_atom_site_fract_y
_atom_site_fract_z
Si Si1 0.602424 0.499277 0.665991
Si Si2 0.885451 0.128866 0.952240
Si Si3 0.784942 0.899601 0.605432
Si Si4 0.783280 0.421286 0.112662
Si Si5 0.440534 0.261871 0.308301
Si Si6 0.278228 0.762749 0.401911
Si Si7 0.593782 0.122408 0.054527
Si Si8 0.937250 0.260044 0.709446
O O1 0.582316 0.500000 0.500000
O O2 0.667063 0.507803 0.679531
O O3 0.575900 0.610454 0.741515
O O4 0.584326 0.384124 0.745605
O O5 0.824748 0.141289 0.884172
O O6 0.929159 0.165832 0.833738
O O7 0.894593 0.213119 0.086582
O O8 0.895698 0.000000 0.000000
O O9 0.750000 0.910859 0.750000
O O10 0.769997 0.788757 0.513755
O O11 0.848593 0.897821 0.634393
O O12 0.767074 0.000000 0.500000
O O13 0.750000 0.372621 0.250000
O O14 0.748081 0.500000 0.000000
O O15 0.808723 0.333121 0.996356
O O16 0.500000 0.264105 0.381003
O O17 0.445419 0.178023 0.171357
O O18 0.250000 0.728919 0.250000
O O19 0.597679 0.213000 0.924495
O O20 0.571329 0.000000 0.000000
O O21 0.000000 0.267253 0.668614
#
# Coordination Sequence:
#
# PCOD8222187 Si02
#       8
#     8   8   8   8   8   8   8   8
#     4  11  24  48  74 104 147 186 252 321 371 438
#     4  12  25  44  70 108 148 187 248 310 365 440
#     4  11  24  43  71 104 144 195 245 296 366 448
#     4  11  24  44  68 101 142 190 241 302 380 450
#     4  12  25  44  74 104 141 195 248 310 374 431
#     4  12  24  42  69 101 146 196 244 299 371 454
#     4  11  27  48  70 108 157 194 241 308 377 448
#     4  12  26  47  76 105 143 199 252 308 378 442
#
# _framework density 23.777277999999999
#
# number of rings (size 3 to 8) (size 9 to 14) (size 15 to 20)
#    0.000    0.500    2.500    5.625    1.750    8.000 
#    0.000    1.875    0.000    0.000    0.000    0.000 
#    0.000    0.000    0.000    0.000    0.000    0.000 
#
# Total GULP energy -793024.651440 kJ/mol
# GULP energy per Si atom -12391.010179 kJ/mol
# Density = 2.372316 g / cm^3
# Si number density = 23.777278 Si / 1000 Ang^3
#
#
#
# Elastic Constant Matrix: (Units=GPa)
#
#
# Indices 1 2 3 4 5 6 
#
# 1 105.5941 50.2577 46.8951 0.0000 0.0000 0.0000
# 2 50.2577 114.8188 47.0771 0.0000 0.0000 0.0000
# 3 46.8951 47.0771 139.4206 0.0000 0.0000 0.0000
# 4 0.0000 0.0000 0.0000 44.8764 0.0000 0.0000
# 5 0.0000 0.0000 0.0000 0.0000 39.8896 0.0000
# 6 0.0000 0.0000 0.0000 0.0000 0.0000 23.6070
#
#
#
# Elastic Compliance Matrix: (Units=1/GPa)
#
#
# Indices 1 2 3 4 5 6 
#
# 1 0.012847 -0.004470 -0.002812 0.000000 0.000000 0.000000
# 2 -0.004470 0.011664 -0.002435 0.000000 0.000000 0.000000
# 3 -0.002812 -0.002435 0.008940 0.000000 0.000000 0.000000
# 4 0.000000 0.000000 0.000000 0.022283 0.000000 0.000000
# 5 0.000000 0.000000 0.000000 0.000000 0.025069 0.000000
# 6 0.000000 0.000000 0.000000 0.000000 0.000000 0.042360
#
#
# Mechanical properties :
#
#
# Convention : Reuss Voigt Hill
#
# Bulk Modulus (GPa) = 71.33875 72.03260 71.68567
# Shear Modulus (GPa) = 33.95107 36.04817 34.99962
#
# Velocity S-wave (km/s) = 3.78283 3.89791 3.84080
# Velocity P-wave (km/s) = 7.01055 7.11468 7.06281
#
# Compressibility (1/GPa) = 0.01401763
#
# Stress axis : x y z
#
# Youngs Moduli (GPa) = 77.84212 85.73031 111.85128
#
# Poissons Ratio (x) = 0.38324 0.31448
# Poissons Ratio (y) = 0.34798 0.27236
# Poissons Ratio (z) = 0.21886 0.20876
#
# Static dielectric constant tensor:
#      x y z
#    x 3.966180 0.000000 0.000000 
#    y 0.000000 1.420480 0.000000 
#    z 0.000000 0.000000 4.290720 
# 
# 
# High freq. dielectric constant tensor:
#      x y z
#    x 1.934390 0.000000 0.000000 
#    y 0.000000 1.956220 0.000000 
#    z 0.000000 0.000000 1.941830 
# 
# From -- ./inp_files/13224.got.cif
#   From: 2010.03.12/outbox.cif.g09.slc.cpg/sg53_7_cif.got.tgz:13224.got - 2010.04.16 14:36:59.
