data_PCOD8222810
_publ_section_title
;
Structure prediction by ZEFSAII (Michael W. Deem and Ramdas Pophale) SiO2 
 PCOD8222810
Probable space group: P C C A
;
_chemical_formula_sum "Si O2"
_cell_formula_units_Z 40
_cell_length_a 15.103077
_cell_length_b 4.945798
_cell_length_c 26.290643
_cell_angle_alpha 90.000000
_cell_angle_beta 90.000000
_cell_angle_gamma 90.000000
_cell_volume 1963.826061
_symmetry_space_group_name_H-M "P C C A"
_symmetry_group_IT_number 54
_symmetry_cell_setting 'orthorhombic'
loop_
_space_group_symop_operation_xyz
x,y,z
1/2-x,-y,z
1/2+x,-y,1/2-z
-x,y,1/2-z
-x,-y,-z
1/2+x,y,-z
1/2-x,y,1/2+z
x,-y,1/2+z
loop_
_atom_site_type_symbol
_atom_site_label
_atom_site_fract_x
_atom_site_fract_y
_atom_site_fract_z
Si Si1 0.691215 0.754740 0.033906
Si Si2 0.524184 0.575287 0.090405
Si Si3 0.084107 0.083823 0.564558
Si Si4 0.344637 0.888011 0.672914
Si Si5 0.949785 0.606877 0.801680
O O1 0.750000 0.500000 0.016655
O O2 0.624357 0.656000 0.077680
O O3 0.750000 0.000000 0.056445
O O4 0.639448 0.873415 0.985963
O O5 0.499961 0.285642 0.066209
O O6 0.516353 0.554819 0.151364
O O7 0.453876 0.781928 0.065815
O O8 0.149834 0.129349 0.611881
O O9 0.364076 0.589763 0.694816
O O10 0.250000 0.000000 0.690080
O O11 0.418809 0.084326 0.696242
O O12 0.000000 0.546233 0.750000
#
# Coordination Sequence:
#
# PCOD8222810 Si02
#       5
#     8   8   8   8   8
#     4  12  23  35  54  83 115 146 180 222 269 326
#     4  10  21  38  57  78 109 149 187 222 269 331
#     4  10  20  36  58  80 109 145 181 223 274 329
#     4  10  20  35  58  87 110 134 180 238 278 310
#     4  10  21  38  59  80 110 148 185 223 273 330
#
# _framework density 20.368400999999999
#
# number of rings (size 3 to 8) (size 9 to 14) (size 15 to 20)
#    0.000    1.600    0.000    5.400    0.000    3.200 
#    0.000    3.000    0.000    0.000    0.000    0.000 
#    0.000    0.000    0.000    0.000    0.000    0.000 
#
# Total GULP energy -496179.153061 kJ/mol
# GULP energy per Si atom -12404.478827 kJ/mol
# Density = 2.032204 g / cm^3
# Si number density = 20.368401 Si / 1000 Ang^3
#
#
#
# Elastic Constant Matrix: (Units=GPa)
#
#
# Indices 1 2 3 4 5 6 
#
# 1 89.4206 12.2868 52.8977 0.0000 0.0000 0.0000
# 2 12.2868 83.0862 24.5610 0.0000 0.0000 0.0000
# 3 52.8977 24.5610 100.4849 0.0000 0.0000 0.0000
# 4 0.0000 0.0000 0.0000 18.7262 0.0000 0.0000
# 5 0.0000 0.0000 0.0000 0.0000 14.7943 0.0000
# 6 0.0000 0.0000 0.0000 0.0000 0.0000 28.4723
#
#
#
# Elastic Compliance Matrix: (Units=1/GPa)
#
#
# Indices 1 2 3 4 5 6 
#
# 1 0.016242 0.000135 -0.008583 0.000000 0.000000 0.000000
# 2 0.000135 0.012974 -0.003242 0.000000 0.000000 0.000000
# 3 -0.008583 -0.003242 0.015263 0.000000 0.000000 0.000000
# 4 0.000000 0.000000 0.000000 0.053401 0.000000 0.000000
# 5 0.000000 0.000000 0.000000 0.000000 0.067594 0.000000
# 6 0.000000 0.000000 0.000000 0.000000 0.000000 0.035122
#
#
# Mechanical properties :
#
#
# Convention : Reuss Voigt Hill
#
# Bulk Modulus (GPa) = 47.39740 50.27586 48.83663
# Shear Modulus (GPa) = 21.64416 24.61497 23.12956
#
# Velocity S-wave (km/s) = 3.26334 3.48010 3.37346
# Velocity P-wave (km/s) = 6.12534 6.39414 6.26118
#
# Compressibility (1/GPa) = 0.02109820
#
# Stress axis : x y z
#
# Youngs Moduli (GPa) = 61.56859 77.07617 65.51901
#
# Poissons Ratio (x) = -0.01044 0.56237
# Poissons Ratio (y) = -0.00834 0.21244
# Poissons Ratio (z) = 0.52846 0.24992
#
# Static dielectric constant tensor:
#      x y z
#    x 3.578080 0.000000 0.000000 
#    y 0.000000 3.965750 0.000000 
#    z 0.000000 0.000000 3.488130 
# 
# 
# High freq. dielectric constant tensor:
#      x y z
#    x 1.784590 0.000000 0.000000 
#    y 0.000000 1.821260 0.000000 
#    z 0.000000 0.000000 1.774470 
# 
# From -- ./inp_files/26027.got.cif
#   From: 2010.03.12/outbox.cif.g09.slc.cpg/sg54_14_cif.got.tgz:26027.got - 2010.04.16 15:00:50.
