data_PCOD8222173
_publ_section_title
;
Structure prediction by ZEFSAII (Michael W. Deem and Ramdas Pophale) SiO2 
 PCOD8222173
Probable space group: P M N A
;
_chemical_formula_sum "Si O2"
_cell_formula_units_Z 56
_cell_length_a 15.120246
_cell_length_b 12.158900
_cell_length_c 15.599843
_cell_angle_alpha 90.000000
_cell_angle_beta 90.000000
_cell_angle_gamma 90.000000
_cell_volume 2867.961858
_symmetry_space_group_name_H-M "P M N A"
_symmetry_group_IT_number 53
_symmetry_cell_setting 'orthorhombic'
loop_
_space_group_symop_operation_xyz
x,y,z
1/2-x,-y,1/2+z
x,-y,-z
1/2-x,y,1/2-z
-x,-y,-z
1/2+x,y,1/2-z
-x,y,z
1/2+x,-y,1/2+z
loop_
_atom_site_type_symbol
_atom_site_label
_atom_site_fract_x
_atom_site_fract_y
_atom_site_fract_z
Si Si1 0.654112 0.329755 0.715628
Si Si2 0.897767 0.117921 0.097647
Si Si3 0.098156 0.587281 0.389083
Si Si4 0.730261 0.711714 0.655909
Si Si5 0.604493 0.652177 0.929071
Si Si6 0.898899 0.137213 0.901414
Si Si7 0.098192 0.471144 0.098190
O O1 0.750000 0.358776 0.750000
O O2 0.597532 0.338732 0.803304
O O3 0.653845 0.211710 0.667680
O O4 0.622690 0.419270 0.648756
O O5 0.829439 0.178586 0.159985
O O6 0.000000 0.150350 0.114678
O O7 0.884282 0.990257 0.118888
O O8 0.871440 0.153488 0.000521
O O9 0.136868 0.650928 0.471470
O O10 0.134490 0.462422 0.381426
O O11 0.000000 0.564181 0.420549
O O12 0.750000 0.668781 0.750000
O O13 0.825940 0.737999 0.612065
O O14 0.671482 0.621228 0.608292
O O15 0.500000 0.684140 0.914849
O O16 0.000000 0.172313 0.889462
O O17 0.000000 0.431184 0.128514
O O18 0.094318 0.500000 0.000000
#
# Coordination Sequence:
#
# PCOD8222173 Si02
#       7
#     8   8   8   8   8   8   8
#     4  12  23  32  54  91 120 150 190 247 298 349
#     4   9  20  40  64  85 111 152 195 240 300 354
#     4   9  18  34  53  74 110 158 197 232 278 345
#     4  12  24  35  57  86 118 152 193 241 283 350
#     4   9  20  36  54  77 115 164 200 228 279 356
#     4   9  19  39  63  85 111 147 193 246 301 354
#     4  11  24  39  57  84 122 159 192 238 296 350
#
# _framework density 19.526062
#
# number of rings (size 3 to 8) (size 9 to 14) (size 15 to 20)
#    0.000    1.857    0.000    6.429    6.000    5.143 
#    0.000    0.000    0.000    0.000    0.000    2.000 
#    0.000    0.000    0.000    0.000    0.000    0.000 
#
# Total GULP energy -693776.672393 kJ/mol
# GULP energy per Si atom -12388.869150 kJ/mol
# Density = 1.948162 g / cm^3
# Si number density = 19.526062 Si / 1000 Ang^3
#
#
#
# Elastic Constant Matrix: (Units=GPa)
#
#
# Indices 1 2 3 4 5 6 
#
# 1 117.3928 32.3006 34.3635 0.0000 0.0000 0.0000
# 2 32.3006 62.0655 34.1666 0.0000 0.0000 0.0000
# 3 34.3635 34.1666 102.4063 0.0000 0.0000 0.0000
# 4 0.0000 0.0000 0.0000 -142.5584 0.0000 0.0000
# 5 0.0000 0.0000 0.0000 0.0000 29.0034 0.0000
# 6 0.0000 0.0000 0.0000 0.0000 0.0000 -181.9853
#
#
#
# Elastic Compliance Matrix: (Units=1/GPa)
#
#
# Indices 1 2 3 4 5 6 
#
# 1 0.010278 -0.004227 -0.002039 0.000000 0.000000 0.000000
# 2 -0.004227 0.021475 -0.005747 0.000000 0.000000 0.000000
# 3 -0.002039 -0.005747 0.012366 0.000000 0.000000 0.000000
# 4 0.000000 0.000000 0.000000 -0.007015 0.000000 0.000000
# 5 0.000000 0.000000 0.000000 0.000000 0.034479 0.000000
# 6 0.000000 0.000000 0.000000 0.000000 0.000000 -0.005495
#
#
# Mechanical properties :
#
#
# Convention : Reuss Voigt Hill
#
# Bulk Modulus (GPa) = 49.76212 53.72512 51.74362
# Shear Modulus (GPa) = 51.64666 -47.03914 2.30376
#
# Velocity S-wave (km/s) = 5.14855 -4.91353 1.08738
# Velocity P-wave (km/s) = 7.80280 2.14849 5.30413
#
# Compressibility (1/GPa) = 0.02009561
#
# Stress axis : x y z
#
# Youngs Moduli (GPa) = 97.29348 46.56538 80.86400
#
# Poissons Ratio (x) = 0.19682 0.16486
# Poissons Ratio (y) = 0.41123 0.46469
# Poissons Ratio (z) = 0.19836 0.26759
#
# Static dielectric constant tensor:
#      x y z
#    x 3.492740 0.000000 0.000000 
#    y 0.000000 3.342560 0.000000 
#    z 0.000000 0.000000 3.187580 
# 
# 
# High freq. dielectric constant tensor:
#      x y z
#    x 1.768870 0.000000 0.000000 
#    y 0.000000 1.728160 0.000000 
#    z 0.000000 0.000000 1.765170 
# 
# From -- ./inp_files/22823.got.cif
#   From: 2010.03.12/outbox.cif.g09.slc.cpg/sg53_12_cif.got.tgz:22823.got - 2010.04.16 14:36:59.
