data_PCOD8222509
_publ_section_title
;
Structure prediction by ZEFSAII (Michael W. Deem and Ramdas Pophale) SiO2 
 PCOD8222509
Probable space group: P C C A
;
_chemical_formula_sum "Si O2"
_cell_formula_units_Z 60
_cell_length_a 18.060665
_cell_length_b 9.865182
_cell_length_c 15.651221
_cell_angle_alpha 90.000000
_cell_angle_beta 90.000000
_cell_angle_gamma 90.000000
_cell_volume 2788.605392
_symmetry_space_group_name_H-M "P C C A"
_symmetry_group_IT_number 54
_symmetry_cell_setting 'orthorhombic'
loop_
_space_group_symop_operation_xyz
x,y,z
1/2-x,-y,z
1/2+x,-y,1/2-z
-x,y,1/2-z
-x,-y,-z
1/2+x,y,-z
1/2-x,y,1/2+z
x,-y,1/2+z
loop_
_atom_site_type_symbol
_atom_site_label
_atom_site_fract_x
_atom_site_fract_y
_atom_site_fract_z
Si Si1 0.003428 0.396007 0.422796
Si Si2 0.869354 0.785259 0.537062
Si Si3 0.453468 0.071640 0.110344
Si Si4 0.872221 0.058389 0.605695
Si Si5 0.123110 0.811720 0.568975
Si Si6 0.378005 0.250204 0.243411
Si Si7 0.734599 0.341600 0.396954
Si Si8 0.000000 0.454670 0.750000
O O1 0.085931 0.332572 0.413306
O O2 0.977995 0.457368 0.332386
O O3 0.000000 0.500000 0.500000
O O4 0.944716 0.285084 0.450286
O O5 0.929402 0.861576 0.478324
O O6 0.804686 0.716974 0.481702
O O7 0.838906 0.903315 0.602106
O O8 0.539589 0.041294 0.108694
O O9 0.437419 0.172226 0.186626
O O10 0.405844 0.935633 0.127079
O O11 0.845434 0.135732 0.521251
O O12 0.844078 0.148427 0.685586
O O13 0.188579 0.735722 0.618214
O O14 0.312147 0.313713 0.188049
O O15 0.427713 0.371167 0.282046
O O16 0.750000 0.500000 0.409910
#
# Coordination Sequence:
#
# PCOD8222509 Si02
#       8
#     8   8   8   8   8   8   8   4
#     4  12  22  38  64  95 130 172 229 273 321 400
#     4  10  21  38  65  96 128 172 223 276 328 389
#     4  10  18  38  67  97 131 162 218 282 333 392
#     4  11  19  39  68 100 129 163 226 291 331 396
#     4  11  22  40  67  94 130 174 216 273 342 394
#     4  11  23  40  65  95 134 172 214 280 346 396
#     4  11  25  46  64  93 139 187 223 267 338 422
#     4  12  24  36  62  98 124 172 230 272 334 412
#
# _framework density 21.516131000000001
#
# number of rings (size 3 to 8) (size 9 to 14) (size 15 to 20)
#    0.000    1.067    4.000    4.800    0.000    5.867 
#    0.000    6.000    0.000    0.000    0.000    0.000 
#    0.000    0.000    0.000    0.000    0.000    0.000 
#
# Total GULP energy -743938.378034 kJ/mol
# GULP energy per Si atom -12398.972967 kJ/mol
# Density = 2.146716 g / cm^3
# Si number density = 21.516131 Si / 1000 Ang^3
#
#
#
# Elastic Constant Matrix: (Units=GPa)
#
#
# Indices 1 2 3 4 5 6 
#
# 1 77.3721 36.1116 4.5179 0.0000 0.0000 0.0000
# 2 36.1116 133.7022 35.7647 0.0000 0.0000 0.0000
# 3 4.5179 35.7647 71.1878 0.0000 0.0000 0.0000
# 4 0.0000 0.0000 0.0000 27.2401 0.0000 0.0000
# 5 0.0000 0.0000 0.0000 0.0000 15.9997 0.0000
# 6 0.0000 0.0000 0.0000 0.0000 0.0000 33.5650
#
#
#
# Elastic Compliance Matrix: (Units=1/GPa)
#
#
# Indices 1 2 3 4 5 6 
#
# 1 0.014883 -0.004352 0.001242 0.000000 0.000000 0.000000
# 2 -0.004352 0.009913 -0.004704 0.000000 0.000000 0.000000
# 3 0.001242 -0.004704 0.016332 0.000000 0.000000 0.000000
# 4 0.000000 0.000000 0.000000 0.036711 0.000000 0.000000
# 5 0.000000 0.000000 0.000000 0.000000 0.062501 0.000000
# 6 0.000000 0.000000 0.000000 0.000000 0.000000 0.029793
#
#
# Mechanical properties :
#
#
# Convention : Reuss Voigt Hill
#
# Bulk Modulus (GPa) = 39.21616 48.33896 43.77756
# Shear Modulus (GPa) = 25.73854 29.08550 27.41202
#
# Velocity S-wave (km/s) = 3.46243 3.68067 3.57322
# Velocity P-wave (km/s) = 5.85239 6.37011 6.11673
#
# Compressibility (1/GPa) = 0.02549969
#
# Stress axis : x y z
#
# Youngs Moduli (GPa) = 67.18971 100.87695 61.22999
#
# Poissons Ratio (x) = 0.43902 -0.07604
# Poissons Ratio (y) = 0.29241 0.28803
# Poissons Ratio (z) = -0.08344 0.47454
#
# Static dielectric constant tensor:
#      x y z
#    x 3.696220 0.000000 0.000000 
#    y 0.000000 3.447480 0.000000 
#    z 0.000000 0.000000 3.676020 
# 
# 
# High freq. dielectric constant tensor:
#      x y z
#    x 1.834980 0.000000 0.000000 
#    y 0.000000 1.864230 0.000000 
#    z 0.000000 0.000000 1.826520 
# 
# From -- ./inp_files/18673.got.cif
#   From: 2010.03.12/outbox.cif.g09.slc.cpg/sg54_10_cif.got.tgz:18673.got - 2010.04.16 15:00:50.
