data_PCOD8222739
_publ_section_title
;
Structure prediction by ZEFSAII (Michael W. Deem and Ramdas Pophale) SiO2 
 PCOD8222739
Probable space group: P C C A
;
_chemical_formula_sum "Si O2"
_cell_formula_units_Z 40
_cell_length_a 10.190447
_cell_length_b 9.298642
_cell_length_c 21.113741
_cell_angle_alpha 90.000000
_cell_angle_beta 90.000000
_cell_angle_gamma 90.000000
_cell_volume 2000.681480
_symmetry_space_group_name_H-M "P C C A"
_symmetry_group_IT_number 54
_symmetry_cell_setting 'orthorhombic'
loop_
_space_group_symop_operation_xyz
x,y,z
1/2-x,-y,z
1/2+x,-y,1/2-z
-x,y,1/2-z
-x,-y,-z
1/2+x,y,-z
1/2-x,y,1/2+z
x,-y,1/2+z
loop_
_atom_site_type_symbol
_atom_site_label
_atom_site_fract_x
_atom_site_fract_y
_atom_site_fract_z
Si Si1 0.387147 0.938597 0.455059
Si Si2 0.779005 0.340282 0.094038
Si Si3 0.857001 0.616496 0.733520
Si Si4 0.566507 0.851607 0.651105
Si Si5 0.695370 0.852582 0.786970
O O1 0.367760 0.763567 0.451552
O O2 0.250000 0.000000 0.480863
O O3 0.500000 0.000000 0.500000
O O4 0.420446 0.995579 0.384563
O O5 0.750000 0.500000 0.064816
O O6 0.858127 0.350702 0.159314
O O7 0.636978 0.269362 0.108370
O O8 0.750000 0.500000 0.750789
O O9 0.820146 0.748169 0.779790
O O10 0.000000 0.556594 0.750000
O O11 0.635074 0.874749 0.717857
O O12 0.416092 0.801260 0.663080
O O13 0.750000 0.000000 0.814844
#
# Coordination Sequence:
#
# PCOD8222739 Si02
#       5
#     8   8   8   8   8
#     4  10  21  40  60  81 112 151 199 251 305 347
#     4   9  19  36  61  80 114 157 194 232 300 357
#     4  10  22  34  54  84 124 158 189 228 287 356
#     4   9  19  35  54  81 113 152 188 240 295 348
#     4  10  20  31  55  82 116 148 195 235 281 352
#
# _framework density 19.993186999999999
#
# number of rings (size 3 to 8) (size 9 to 14) (size 15 to 20)
#    0.000    2.400    0.000    3.000   14.000    0.800 
#    0.000    4.000    0.000    1.200    0.000    0.000 
#    0.000    0.000    0.000    0.000    0.000    0.000 
#
# Total GULP energy -495632.670605 kJ/mol
# GULP energy per Si atom -12390.816765 kJ/mol
# Density = 1.994768 g / cm^3
# Si number density = 19.993187 Si / 1000 Ang^3
#
#
#
# Elastic Constant Matrix: (Units=GPa)
#
#
# Indices 1 2 3 4 5 6 
#
# 1 146.4140 51.4539 38.5593 0.0000 0.0000 0.0000
# 2 51.4539 149.4181 33.9165 0.0000 0.0000 0.0000
# 3 38.5593 33.9165 44.0208 0.0000 0.0000 0.0000
# 4 0.0000 0.0000 0.0000 32.2274 0.0000 0.0000
# 5 0.0000 0.0000 0.0000 0.0000 16.4104 0.0000
# 6 0.0000 0.0000 0.0000 0.0000 0.0000 28.6779
#
#
#
# Elastic Compliance Matrix: (Units=1/GPa)
#
#
# Indices 1 2 3 4 5 6 
#
# 1 0.009191 -0.001621 -0.006802 0.000000 0.000000 0.000000
# 2 -0.001621 0.008397 -0.005050 0.000000 0.000000 0.000000
# 3 -0.006802 -0.005050 0.032565 0.000000 0.000000 0.000000
# 4 0.000000 0.000000 0.000000 0.031030 0.000000 0.000000
# 5 0.000000 0.000000 0.000000 0.000000 0.060937 0.000000
# 6 0.000000 0.000000 0.000000 0.000000 0.000000 0.034870
#
#
# Mechanical properties :
#
#
# Convention : Reuss Voigt Hill
#
# Bulk Modulus (GPa) = 43.08845 65.30137 54.19491
# Shear Modulus (GPa) = 23.62165 29.85802 26.73983
#
# Velocity S-wave (km/s) = 3.44100 3.86866 3.66108
# Velocity P-wave (km/s) = 6.11438 7.25865 6.71095
#
# Compressibility (1/GPa) = 0.02320807
#
# Stress axis : x y z
#
# Youngs Moduli (GPa) = 108.80314 119.08861 30.70792
#
# Poissons Ratio (x) = 0.19305 0.20886
# Poissons Ratio (y) = 0.17638 0.15507
# Poissons Ratio (z) = 0.74004 0.60136
#
# Static dielectric constant tensor:
#      x y z
#    x 3.624360 0.000000 0.000000 
#    y 0.000000 3.923160 0.000000 
#    z 0.000000 0.000000 3.278270 
# 
# 
# High freq. dielectric constant tensor:
#      x y z
#    x 1.784140 0.000000 0.000000 
#    y 0.000000 1.781640 0.000000 
#    z 0.000000 0.000000 1.733910 
# 
# From -- ./inp_files/25725.got.cif
#   From: 2010.03.12/outbox.cif.g09.slc.cpg/sg54_13_cif.got.tgz:25725.got - 2010.04.16 15:00:50.
