data_PCOD8222157
_publ_section_title
;
Structure prediction by ZEFSAII (Michael W. Deem and Ramdas Pophale) SiO2 
 PCOD8222157
Probable space group: P M N A
;
_chemical_formula_sum "Si O2"
_cell_formula_units_Z 40
_cell_length_a 16.720828
_cell_length_b 14.644394
_cell_length_c 8.720923
_cell_angle_alpha 90.000000
_cell_angle_beta 90.000000
_cell_angle_gamma 90.000000
_cell_volume 2135.460961
_symmetry_space_group_name_H-M "P M N A"
_symmetry_group_IT_number 53
_symmetry_cell_setting 'orthorhombic'
loop_
_space_group_symop_operation_xyz
x,y,z
1/2-x,-y,1/2+z
x,-y,-z
1/2-x,y,1/2-z
-x,-y,-z
1/2+x,y,1/2-z
-x,y,z
1/2+x,-y,1/2+z
loop_
_atom_site_type_symbol
_atom_site_label
_atom_site_fract_x
_atom_site_fract_y
_atom_site_fract_z
Si Si1 0.822780 0.265240 0.860198
Si Si2 0.231697 0.599531 0.570583
Si Si3 0.589898 0.091637 0.574388
Si Si4 0.593642 0.709381 0.062935
Si Si5 0.589404 0.911100 0.066624
O O1 0.750000 0.234600 0.750000
O O2 0.854713 0.179410 0.959804
O O3 0.890781 0.306022 0.745632
O O4 0.797934 0.341072 0.982651
O O5 0.235426 0.500000 0.500000
O O6 0.250000 0.597008 0.750000
O O7 0.143000 0.639756 0.542429
O O8 0.500000 0.108655 0.510002
O O9 0.587749 0.076962 0.753691
O O10 0.626929 0.000000 0.500000
O O11 0.500000 0.695425 0.030396
O O12 0.625258 0.812230 0.021040
O O13 0.500000 0.911595 0.998007
O O14 0.636660 0.000000 0.000000
#
# Coordination Sequence:
#
# PCOD8222157 Si02
#       5
#     8   8   8   8   8
#     4   9  18  35  55  76 106 142 180 220 268 322
#     4  11  23  40  59  79 106 141 177 220 278 334
#     4   9  17  30  50  76 107 141 175 215 261 307
#     4   9  18  35  59  83 108 142 183 226 268 313
#     4   8  14  26  46  73 104 137 171 208 255 307
#
# _framework density 18.731318000000002
#
# number of rings (size 3 to 8) (size 9 to 14) (size 15 to 20)
#    0.000    2.800    0.000    3.600    0.000    2.000 
#    0.000   14.000    0.000    4.200    0.000    0.000 
#    0.000    0.000    0.000    0.000    0.000    0.000 
#
# Total GULP energy -495636.189839 kJ/mol
# GULP energy per Si atom -12390.904746 kJ/mol
# Density = 1.868868 g / cm^3
# Si number density = 18.731318 Si / 1000 Ang^3
#
#
#
# Elastic Constant Matrix: (Units=GPa)
#
#
# Indices 1 2 3 4 5 6 
#
# 1 76.7013 68.2958 41.7187 0.0000 0.0000 0.0000
# 2 68.2958 178.7482 74.7930 0.0000 0.0000 0.0000
# 3 41.7187 74.7930 82.7776 0.0000 0.0000 0.0000
# 4 0.0000 0.0000 0.0000 39.3439 0.0000 0.0000
# 5 0.0000 0.0000 0.0000 0.0000 21.2369 0.0000
# 6 0.0000 0.0000 0.0000 0.0000 0.0000 24.6605
#
#
#
# Elastic Compliance Matrix: (Units=1/GPa)
#
#
# Indices 1 2 3 4 5 6 
#
# 1 0.021163 -0.005825 -0.005402 0.000000 0.000000 0.000000
# 2 -0.005825 0.010599 -0.006641 0.000000 0.000000 0.000000
# 3 -0.005402 -0.006641 0.020803 0.000000 0.000000 0.000000
# 4 0.000000 0.000000 0.000000 0.025417 0.000000 0.000000
# 5 0.000000 0.000000 0.000000 0.000000 0.047088 0.000000
# 6 0.000000 0.000000 0.000000 0.000000 0.000000 0.040551
#
#
# Mechanical properties :
#
#
# Convention : Reuss Voigt Hill
#
# Bulk Modulus (GPa) = 59.42304 78.64913 69.03609
# Shear Modulus (GPa) = 24.15849 27.27624 25.71737
#
# Velocity S-wave (km/s) = 3.59519 3.82014 3.70937
# Velocity P-wave (km/s) = 7.00190 7.84456 7.43518
#
# Compressibility (1/GPa) = 0.01682849
#
# Stress axis : x y z
#
# Youngs Moduli (GPa) = 47.25223 94.35024 48.06951
#
# Poissons Ratio (x) = 0.54963 0.25969
# Poissons Ratio (y) = 0.27527 0.31921
# Poissons Ratio (z) = 0.25527 0.62653
#
# Static dielectric constant tensor:
#      x y z
#    x 3.516820 0.000000 0.000000 
#    y 0.000000 3.684570 0.000000 
#    z 0.000000 0.000000 3.343560 
# 
# 
# High freq. dielectric constant tensor:
#      x y z
#    x 1.712220 0.000000 0.000000 
#    y 0.000000 1.734340 0.000000 
#    z 0.000000 0.000000 1.707230 
# 
# From -- ./inp_files/9772.got.cif
#   From: 2010.03.12/outbox.cif.g09.slc.cpg/sg53_5_cif.got.tgz:9772.got - 2010.04.16 14:36:59.
