data_PCOD8222475
_publ_section_title
;
Structure prediction by ZEFSAII (Michael W. Deem and Ramdas Pophale) SiO2 
 PCOD8222475
Probable space group: P C C A
;
_chemical_formula_sum "Si O2"
_cell_formula_units_Z 60
_cell_length_a 18.497776
_cell_length_b 9.366038
_cell_length_c 17.617383
_cell_angle_alpha 90.000000
_cell_angle_beta 90.000000
_cell_angle_gamma 90.000000
_cell_volume 3052.226984
_symmetry_space_group_name_H-M "P C C A"
_symmetry_group_IT_number 54
_symmetry_cell_setting 'orthorhombic'
loop_
_space_group_symop_operation_xyz
x,y,z
1/2-x,-y,z
1/2+x,-y,1/2-z
-x,y,1/2-z
-x,-y,-z
1/2+x,y,-z
1/2-x,y,1/2+z
x,-y,1/2+z
loop_
_atom_site_type_symbol
_atom_site_label
_atom_site_fract_x
_atom_site_fract_y
_atom_site_fract_z
Si Si1 0.269149 0.657011 0.356811
Si Si2 0.634027 0.867368 0.663368
Si Si3 0.042811 0.423024 0.607187
Si Si4 0.610112 0.828866 0.208017
Si Si5 0.000000 0.752404 0.250000
Si Si6 0.822823 0.457749 0.988212
Si Si7 0.461547 0.243573 0.637903
Si Si8 0.916683 0.277272 0.522485
O O1 0.250000 0.500000 0.328364
O O2 0.203154 0.763527 0.335611
O O3 0.337484 0.697551 0.306361
O O4 0.297157 0.650613 0.444612
O O5 0.569001 0.841502 0.722901
O O6 0.599299 0.850671 0.580109
O O7 0.655169 0.029693 0.683112
O O8 0.033650 0.339785 0.683868
O O9 0.120777 0.388439 0.569910
O O10 0.034873 0.585983 0.632193
O O11 0.985488 0.373850 0.544457
O O12 0.590255 0.818215 0.296665
O O13 0.540641 0.818333 0.153503
O O14 0.750000 0.500000 0.942091
O O15 0.852140 0.607145 0.023261
O O16 0.429956 0.194363 0.556793
#
# Coordination Sequence:
#
# PCOD8222475 Si02
#       8
#     8   8   8   8   4   8   8   8
#     4  11  22  39  65  88 120 161 211 257 312 378
#     4  11  23  41  62  85 127 166 204 263 309 376
#     4  10  20  34  63  93 131 158 210 272 316 363
#     4  11  23  39  59  92 127 164 204 248 321 382
#     4  10  22  38  58  92 126 164 216 252 324 372
#     4  10  18  35  59  93 120 155 208 267 310 365
#     4  10  21  36  62  89 127 160 206 261 311 375
#     4  10  19  38  61  91 119 162 209 263 306 369
#
# _framework density 19.657779000000001
#
# number of rings (size 3 to 8) (size 9 to 14) (size 15 to 20)
#    0.000    1.600    2.667    5.200    3.733    0.533 
#    4.800    1.333    0.000    1.600    0.000    0.000 
#    0.000    0.000    0.000    0.000    0.000    0.000 
#
# Total GULP energy -743418.812889 kJ/mol
# GULP energy per Si atom -12390.313548 kJ/mol
# Density = 1.961304 g / cm^3
# Si number density = 19.657779 Si / 1000 Ang^3
#
#
#
# Elastic Constant Matrix: (Units=GPa)
#
#
# Indices 1 2 3 4 5 6 
#
# 1 128.0447 33.9323 49.0731 0.0000 0.0000 0.0000
# 2 33.9323 89.1220 45.7929 0.0000 0.0000 0.0000
# 3 49.0731 45.7929 100.8336 0.0000 0.0000 0.0000
# 4 0.0000 0.0000 0.0000 27.1026 0.0000 0.0000
# 5 0.0000 0.0000 0.0000 0.0000 26.6826 0.0000
# 6 0.0000 0.0000 0.0000 0.0000 0.0000 106.3549
#
#
#
# Elastic Compliance Matrix: (Units=1/GPa)
#
#
# Indices 1 2 3 4 5 6 
#
# 1 0.009787 -0.001668 -0.004005 0.000000 0.000000 0.000000
# 2 -0.001668 0.014920 -0.005964 0.000000 0.000000 0.000000
# 3 -0.004005 -0.005964 0.014575 0.000000 0.000000 0.000000
# 4 0.000000 0.000000 0.000000 0.036897 0.000000 0.000000
# 5 0.000000 0.000000 0.000000 0.000000 0.037478 0.000000
# 6 0.000000 0.000000 0.000000 0.000000 0.000000 0.009402
#
#
# Mechanical properties :
#
#
# Convention : Reuss Voigt Hill
#
# Bulk Modulus (GPa) = 62.47277 63.95521 63.21399
# Shear Modulus (GPa) = 32.96626 44.64149 38.80388
#
# Velocity S-wave (km/s) = 4.09957 4.77060 4.44776
# Velocity P-wave (km/s) = 7.36599 7.93409 7.65531
#
# Compressibility (1/GPa) = 0.01600697
#
# Stress axis : x y z
#
# Youngs Moduli (GPa) = 102.17698 67.02332 68.60964
#
# Poissons Ratio (x) = 0.11181 0.27481
# Poissons Ratio (y) = 0.17045 0.40919
# Poissons Ratio (z) = 0.40927 0.39973
#
# Static dielectric constant tensor:
#      x y z
#    x 3.725120 0.000000 0.000000 
#    y 0.000000 3.391180 0.000000 
#    z 0.000000 0.000000 3.702120 
# 
# 
# High freq. dielectric constant tensor:
#      x y z
#    x 1.781870 0.000000 0.000000 
#    y 0.000000 1.748170 0.000000 
#    z 0.000000 0.000000 1.765220 
# 
# From -- ./inp_files/18696.got.cif
#   From: 2010.03.12/outbox.cif.g09.slc.cpg/sg54_10_cif.got.tgz:18696.got - 2010.04.16 15:00:50.
