data_PCOD8222526
_publ_section_title
;
Structure prediction by ZEFSAII (Michael W. Deem and Ramdas Pophale) SiO2 
 PCOD8222526
Probable space group: P C C A
;
_chemical_formula_sum "Si O2"
_cell_formula_units_Z 52
_cell_length_a 13.904418
_cell_length_b 33.198164
_cell_length_c 5.136311
_cell_angle_alpha 90.000000
_cell_angle_beta 90.000000
_cell_angle_gamma 90.000000
_cell_volume 2370.927060
_symmetry_space_group_name_H-M "P C C A"
_symmetry_group_IT_number 54
_symmetry_cell_setting 'orthorhombic'
loop_
_space_group_symop_operation_xyz
x,y,z
1/2-x,-y,z
1/2+x,-y,1/2-z
-x,y,1/2-z
-x,-y,-z
1/2+x,y,-z
1/2-x,y,1/2+z
x,-y,1/2+z
loop_
_atom_site_type_symbol
_atom_site_label
_atom_site_fract_x
_atom_site_fract_y
_atom_site_fract_z
Si Si1 0.615190 0.385353 0.750408
Si Si2 0.610373 0.658813 0.750601
Si Si3 0.190234 0.171484 0.810777
Si Si4 0.315902 0.083840 0.229586
Si Si5 0.500000 0.972410 0.750000
Si Si6 0.812257 0.255754 0.808830
Si Si7 0.385395 0.476368 0.748988
O O1 0.500000 0.384755 0.750000
O O2 0.658493 0.362471 0.499744
O O3 0.654352 0.430910 0.757252
O O4 0.657962 0.360407 0.993878
O O5 0.500000 0.646799 0.750000
O O6 0.618021 0.707022 0.755569
O O7 0.282816 0.172484 0.615972
O O8 0.138024 0.129076 0.748406
O O9 0.131962 0.212822 0.741649
O O10 0.237769 0.076749 0.456391
O O11 0.404078 0.053894 0.254778
O O12 0.500000 0.000000 0.500000
O O13 0.723381 0.257754 0.606243
O O14 0.500000 0.475775 0.750000
O O15 0.345542 0.500735 0.501867
#
# Coordination Sequence:
#
# PCOD8222526 Si02
#       7
#     8   8   8   8   4   8   8
#     4   9  17  28  42  61  95 131 155 197 253 304
#     4  10  19  31  46  69 100 132 162 193 250 316
#     4   8  16  32  55  78 103 139 179 221 273 323
#     4  10  21  40  63  86 120 162 201 248 309 360
#     4  12  26  40  60  94 126 158 210 256 298 364
#     4  10  19  33  53  76 103 133 172 219 258 302
#     4   9  15  23  37  58  84 117 157 195 241 299
#
# _framework density 21.93235
#
# number of rings (size 3 to 8) (size 9 to 14) (size 15 to 20)
#    0.000    2.462    0.000    2.769    0.000    5.538 
#    1.385    0.000    0.000    0.000    0.000    0.000 
#    0.000   43.077    0.000    0.000    0.000    0.000 
#
# Total GULP energy -644431.307992 kJ/mol
# GULP energy per Si atom -12392.909769 kJ/mol
# Density = 2.188243 g / cm^3
# Si number density = 21.932350 Si / 1000 Ang^3
#
#
#
# Elastic Constant Matrix: (Units=GPa)
#
#
# Indices 1 2 3 4 5 6 
#
# 1 37.7540 36.5600 10.5615 0.0000 0.0000 0.0000
# 2 36.5600 220.1507 72.4026 0.0000 0.0000 0.0000
# 3 10.5615 72.4026 172.9643 0.0000 0.0000 0.0000
# 4 0.0000 0.0000 0.0000 40.2226 0.0000 0.0000
# 5 0.0000 0.0000 0.0000 0.0000 -1.9918 0.0000
# 6 0.0000 0.0000 0.0000 0.0000 0.0000 32.3350
#
#
#
# Elastic Compliance Matrix: (Units=1/GPa)
#
#
# Indices 1 2 3 4 5 6 
#
# 1 0.031577 -0.005346 0.000310 0.000000 0.000000 0.000000
# 2 -0.005346 0.006173 -0.002257 0.000000 0.000000 0.000000
# 3 0.000310 -0.002257 0.006708 0.000000 0.000000 0.000000
# 4 0.000000 0.000000 0.000000 0.024862 0.000000 0.000000
# 5 0.000000 0.000000 0.000000 0.000000 -0.502063 0.000000
# 6 0.000000 0.000000 0.000000 0.000000 0.000000 0.030926
#
#
# Mechanical properties :
#
#
# Convention : Reuss Voigt Hill
#
# Bulk Modulus (GPa) = 33.47810 74.43522 53.95666
# Shear Modulus (GPa) = -13.25298 34.86950 10.80826
#
# Velocity S-wave (km/s) = -2.46085 3.99164 2.22232
# Velocity P-wave (km/s) = 2.68757 7.43347 5.58925
#
# Compressibility (1/GPa) = 0.02987027
#
# Stress axis : x y z
#
# Youngs Moduli (GPa) = 31.66822 162.00859 149.08527
#
# Poissons Ratio (x) = 0.86607 -0.04615
# Poissons Ratio (y) = 0.16929 0.33654
# Poissons Ratio (z) = -0.00980 0.36572
#
# Static dielectric constant tensor:
#      x y z
#    x 3.216030 0.000000 0.000000 
#    y 0.000000 4.402670 0.000000 
#    z 0.000000 0.000000 4.295720 
# 
# 
# High freq. dielectric constant tensor:
#      x y z
#    x 1.807180 0.000000 0.000000 
#    y 0.000000 1.886580 0.000000 
#    z 0.000000 0.000000 1.885010 
# 
# From -- ./inp_files/1059.got.cif
#   From: 2010.03.12/outbox.cif.g09.slc.cpg/sg54_1_cif.got.tgz:1059.got - 2010.04.16 15:00:50.
