data_PCOD8222244
_publ_section_title
;
Structure prediction by ZEFSAII (Michael W. Deem and Ramdas Pophale) SiO2 
 PCOD8222244
Probable space group: P M N A
;
_chemical_formula_sum "Si O2"
_cell_formula_units_Z 40
_cell_length_a 9.579896
_cell_length_b 25.561149
_cell_length_c 9.923789
_cell_angle_alpha 90.000000
_cell_angle_beta 90.000000
_cell_angle_gamma 90.000000
_cell_volume 2430.069463
_symmetry_space_group_name_H-M "P M N A"
_symmetry_group_IT_number 53
_symmetry_cell_setting 'orthorhombic'
loop_
_space_group_symop_operation_xyz
x,y,z
1/2-x,-y,1/2+z
x,-y,-z
1/2-x,y,1/2-z
-x,-y,-z
1/2+x,y,1/2-z
-x,y,z
1/2+x,-y,1/2+z
loop_
_atom_site_type_symbol
_atom_site_label
_atom_site_fract_x
_atom_site_fract_y
_atom_site_fract_z
Si Si1 0.162098 0.732589 0.613816
Si Si2 0.663037 0.959896 0.887491
Si Si3 0.161205 0.536125 0.377938
Si Si4 0.843169 0.153911 0.378104
Si Si5 0.662044 0.656456 0.120378
O O1 0.250000 0.725685 0.750000
O O2 0.183230 0.790796 0.545180
O O3 0.214958 0.690605 0.505440
O O4 0.000000 0.722947 0.649628
O O5 0.750000 0.967264 0.750000
O O6 0.500000 0.970126 0.854852
O O7 0.685944 0.901432 0.953289
O O8 0.718531 0.000000 0.000000
O O9 0.211177 0.500000 0.500000
O O10 0.250000 0.518690 0.250000
O O11 0.189917 0.596191 0.417012
O O12 0.000000 0.526530 0.342943
O O13 0.750000 0.155293 0.250000
O O14 0.000000 0.153081 0.323878
O O15 0.750000 0.673557 0.250000
O O16 0.500000 0.667103 0.151951
#
# Coordination Sequence:
#
# PCOD8222244 Si02
#       5
#     8   8   8   8   8
#     4   9  17  29  46  67  88 111 143 181 216 252
#     4   9  17  29  45  64  86 113 144 177 214 256
#     4   9  18  32  48  66  89 116 146 179 214 254
#     4   8  14  26  43  61  83 111 141 174 212 252
#     4   9  18  32  47  64  89 119 146 174 213 258
#
# _framework density 16.460433999999999
#
# number of rings (size 3 to 8) (size 9 to 14) (size 15 to 20)
#    0.000    3.200    0.000    0.000    0.000    2.400 
#    0.000    1.000    0.000    0.000    0.000    0.000 
#    0.000    0.000    0.000    0.000    0.000    0.000 
#
# Total GULP energy -495522.572801 kJ/mol
# GULP energy per Si atom -12388.064320 kJ/mol
# Density = 1.642297 g / cm^3
# Si number density = 16.460434 Si / 1000 Ang^3
#
#
#
# Elastic Constant Matrix: (Units=GPa)
#
#
# Indices 1 2 3 4 5 6 
#
# 1 47.4802 44.3449 47.5031 0.0000 0.0000 0.0000
# 2 44.3449 124.4204 87.3404 0.0000 0.0000 0.0000
# 3 47.5031 87.3404 112.8594 0.0000 0.0000 0.0000
# 4 0.0000 0.0000 0.0000 31.7252 0.0000 0.0000
# 5 0.0000 0.0000 0.0000 0.0000 27.9073 0.0000
# 6 0.0000 0.0000 0.0000 0.0000 0.0000 17.8410
#
#
#
# Elastic Compliance Matrix: (Units=1/GPa)
#
#
# Indices 1 2 3 4 5 6 
#
# 1 0.037773 -0.005040 -0.011998 0.000000 0.000000 0.000000
# 2 -0.005040 0.018269 -0.012017 0.000000 0.000000 0.000000
# 3 -0.011998 -0.012017 0.023210 0.000000 0.000000 0.000000
# 4 0.000000 0.000000 0.000000 0.031521 0.000000 0.000000
# 5 0.000000 0.000000 0.000000 0.000000 0.035833 0.000000
# 6 0.000000 0.000000 0.000000 0.000000 0.000000 0.056051
#
#
# Mechanical properties :
#
#
# Convention : Reuss Voigt Hill
#
# Bulk Modulus (GPa) = 47.29959 71.45967 59.37963
# Shear Modulus (GPa) = 18.66965 22.53283 20.60124
#
# Velocity S-wave (km/s) = 3.37146 3.70389 3.54158
# Velocity P-wave (km/s) = 6.62973 7.86123 7.27160
#
# Compressibility (1/GPa) = 0.02114183
#
# Stress axis : x y z
#
# Youngs Moduli (GPa) = 26.47411 54.73685 43.08408
#
# Poissons Ratio (x) = 0.27588 0.51693
# Poissons Ratio (y) = 0.13343 0.51774
# Poissons Ratio (z) = 0.31764 0.65777
#
# Static dielectric constant tensor:
#      x y z
#    x 3.079040 0.000000 0.000000 
#    y 0.000000 3.899380 0.000000 
#    z 0.000000 0.000000 2.571480 
# 
# 
# High freq. dielectric constant tensor:
#      x y z
#    x 1.635970 0.000000 0.000000 
#    y 0.000000 1.654150 0.000000 
#    z 0.000000 0.000000 1.595940 
# 
# From -- ./inp_files/756.got.cif
#   From: 2010.03.12/outbox.cif.g09.slc.cpg/sg53_1_cif.got.tgz:756.got - 2010.04.16 14:36:59.
