data_PCOD8222518
_publ_section_title
;
Structure prediction by ZEFSAII (Michael W. Deem and Ramdas Pophale) SiO2 
 PCOD8222518
Probable space group: P C C A
;
_chemical_formula_sum "Si O2"
_cell_formula_units_Z 56
_cell_length_a 22.070885
_cell_length_b 8.693896
_cell_length_c 14.867502
_cell_angle_alpha 90.000000
_cell_angle_beta 90.000000
_cell_angle_gamma 90.000000
_cell_volume 2852.805704
_symmetry_space_group_name_H-M "P C C A"
_symmetry_group_IT_number 54
_symmetry_cell_setting 'orthorhombic'
loop_
_space_group_symop_operation_xyz
x,y,z
1/2-x,-y,z
1/2+x,-y,1/2-z
-x,y,1/2-z
-x,-y,-z
1/2+x,y,-z
1/2-x,y,1/2+z
x,-y,1/2+z
loop_
_atom_site_type_symbol
_atom_site_label
_atom_site_fract_x
_atom_site_fract_y
_atom_site_fract_z
Si Si1 0.560727 0.419122 0.036875
Si Si2 0.591009 0.919485 0.585345
Si Si3 0.109645 0.850112 0.217915
Si Si4 0.071555 0.481767 0.766959
Si Si5 0.483560 0.913490 0.155935
Si Si6 0.818336 0.971187 0.924183
Si Si7 0.118252 0.690726 0.623506
O O1 0.555596 0.240118 0.065569
O O2 0.583179 0.505594 0.126833
O O3 0.500000 0.500000 0.000000
O O4 0.612367 0.432649 0.958318
O O5 0.625348 0.908374 0.681438
O O6 0.639741 0.974166 0.512411
O O7 0.540570 0.053671 0.591820
O O8 0.100422 0.668053 0.220873
O O9 0.047241 0.925285 0.184023
O O10 0.162890 0.899856 0.149105
O O11 0.109621 0.618641 0.721070
O O12 0.000000 0.487634 0.750000
O O13 0.500000 0.827272 0.250000
O O14 0.438005 0.806704 0.100785
O O15 0.822326 0.798384 0.880197
O O16 0.750000 0.000000 0.954521
#
# Coordination Sequence:
#
# PCOD8222518 Si02
#       7
#     8   8   8   8   8   8   8
#     4  10  19  30  48  80 117 153 174 212 288 361
#     4   9  19  35  56  82 116 151 186 236 294 351
#     4   9  19  34  55  85 113 154 189 230 297 359
#     4  11  19  32  53  82 120 151 176 220 290 359
#     4   9  17  31  52  81 119 146 183 228 287 365
#     4  10  22  40  59  79 108 153 212 252 281 331
#     4  10  21  34  53  84 118 149 186 234 285 347
#
# _framework density 19.629798000000001
#
# number of rings (size 3 to 8) (size 9 to 14) (size 15 to 20)
#    0.000    2.286    1.429    2.571    0.000    6.857 
#    0.000    0.714    0.000    0.000    0.000    8.000 
#    0.000    0.000    0.000    0.000    0.000    0.000 
#
# Total GULP energy -693819.025254 kJ/mol
# GULP energy per Si atom -12389.625451 kJ/mol
# Density = 1.958512 g / cm^3
# Si number density = 19.629798 Si / 1000 Ang^3
#
#
#
# Elastic Constant Matrix: (Units=GPa)
#
#
# Indices 1 2 3 4 5 6 
#
# 1 88.6803 36.1525 52.0651 0.0000 0.0000 0.0000
# 2 36.1525 65.8805 46.2843 0.0000 0.0000 0.0000
# 3 52.0651 46.2843 140.3626 0.0000 0.0000 0.0000
# 4 0.0000 0.0000 0.0000 30.0558 0.0000 0.0000
# 5 0.0000 0.0000 0.0000 0.0000 20.9167 0.0000
# 6 0.0000 0.0000 0.0000 0.0000 0.0000 17.8333
#
#
#
# Elastic Compliance Matrix: (Units=1/GPa)
#
#
# Indices 1 2 3 4 5 6 
#
# 1 0.016065 -0.006025 -0.003972 0.000000 0.000000 0.000000
# 2 -0.006025 0.022015 -0.005025 0.000000 0.000000 0.000000
# 3 -0.003972 -0.005025 0.010255 0.000000 0.000000 0.000000
# 4 0.000000 0.000000 0.000000 0.033271 0.000000 0.000000
# 5 0.000000 0.000000 0.000000 0.000000 0.047809 0.000000
# 6 0.000000 0.000000 0.000000 0.000000 0.000000 0.056075
#
#
# Mechanical properties :
#
#
# Convention : Reuss Voigt Hill
#
# Bulk Modulus (GPa) = 54.67144 62.65856 58.66500
# Shear Modulus (GPa) = 22.56007 24.45595 23.50801
#
# Velocity S-wave (km/s) = 3.39378 3.53350 3.46434
# Velocity P-wave (km/s) = 6.57789 6.97402 6.77885
#
# Compressibility (1/GPa) = 0.01829109
#
# Stress axis : x y z
#
# Youngs Moduli (GPa) = 62.24783 45.42288 97.51628
#
# Poissons Ratio (x) = 0.27367 0.38736
# Poissons Ratio (y) = 0.37504 0.48998
# Poissons Ratio (z) = 0.24726 0.22823
#
# Static dielectric constant tensor:
#      x y z
#    x 3.099190 0.000000 0.000000 
#    y 0.000000 3.610360 0.000000 
#    z 0.000000 0.000000 4.059630 
# 
# 
# High freq. dielectric constant tensor:
#      x y z
#    x 1.700520 0.000000 0.000000 
#    y 0.000000 1.759280 0.000000 
#    z 0.000000 0.000000 1.795660 
# 
# From -- ./inp_files/14689.got.cif
#   From: 2010.03.12/outbox.cif.g09.slc.cpg/sg54_8_cif.got.tgz:14689.got - 2010.04.16 15:00:50.
