data_PCOD8222025
_publ_section_title
;
Structure prediction by ZEFSAII (Michael W. Deem and Ramdas Pophale) SiO2 
 PCOD8222025
Probable space group: P M N A
;
_chemical_formula_sum "Si O2"
_cell_formula_units_Z 48
_cell_length_a 8.709255
_cell_length_b 14.918532
_cell_length_c 18.794440
_cell_angle_alpha 90.000000
_cell_angle_beta 90.000000
_cell_angle_gamma 90.000000
_cell_volume 2441.948422
_symmetry_space_group_name_H-M "P M N A"
_symmetry_group_IT_number 53
_symmetry_cell_setting 'orthorhombic'
loop_
_space_group_symop_operation_xyz
x,y,z
1/2-x,-y,1/2+z
x,-y,-z
1/2-x,y,1/2-z
-x,-y,-z
1/2+x,y,1/2-z
-x,y,z
1/2+x,-y,1/2+z
loop_
_atom_site_type_symbol
_atom_site_label
_atom_site_fract_x
_atom_site_fract_y
_atom_site_fract_z
Si Si1 0.182206 0.128116 0.052714
Si Si2 0.318994 0.057499 0.596694
Si Si3 0.317307 0.673010 0.573570
Si Si4 0.318831 0.368035 0.925850
Si Si5 0.180565 0.774440 0.175985
Si Si6 0.818888 0.466341 0.326596
O O1 0.246590 0.224570 0.076942
O O2 0.000000 0.135743 0.051448
O O3 0.237055 0.046186 0.105204
O O4 0.247731 0.103164 0.974861
O O5 0.500000 0.055580 0.586896
O O6 0.274536 0.120649 0.663415
O O7 0.500000 0.668530 0.572031
O O8 0.252259 0.622564 0.504143
O O9 0.254204 0.625245 0.644078
O O10 0.500000 0.358156 0.932539
O O11 0.249741 0.280732 0.888815
O O12 0.272341 0.454447 0.880155
O O13 0.250000 0.741169 0.250000
O O14 0.000000 0.758808 0.177680
O O15 0.750000 0.489553 0.250000
O O16 0.000000 0.455193 0.319889
#
# Coordination Sequence:
#
# PCOD8222025 Si02
#       6
#     8   8   8   8   8   8
#     4   8  14  28  53  83 109 141 183 227 273 326
#     4   8  14  28  51  78 110 144 184 227 271 328
#     4  11  21  36  62  92 117 148 190 235 284 340
#     4  11  23  39  59  84 115 150 191 239 287 339
#     4  11  21  34  54  82 115 152 190 235 290 346
#     4  11  25  43  60  81 112 152 192 236 290 343
#
# _framework density 19.656434999999998
#
# number of rings (size 3 to 8) (size 9 to 14) (size 15 to 20)
#    0.000    2.000    1.667    4.000    0.000    6.000 
#    0.000    0.833    0.000    7.000    0.000    0.000 
#    0.000    0.000    0.000    0.000    0.000    0.000 
#
# Total GULP energy -594997.170883 kJ/mol
# GULP energy per Si atom -12395.774393 kJ/mol
# Density = 1.961170 g / cm^3
# Si number density = 19.656435 Si / 1000 Ang^3
#
#
#
# Elastic Constant Matrix: (Units=GPa)
#
#
# Indices 1 2 3 4 5 6 
#
# 1 58.7329 38.1220 24.3969 0.0000 0.0000 0.0000
# 2 38.1220 127.5280 26.7329 0.0000 0.0000 0.0000
# 3 24.3969 26.7329 61.6305 0.0000 0.0000 0.0000
# 4 0.0000 0.0000 0.0000 20.8089 0.0000 0.0000
# 5 0.0000 0.0000 0.0000 0.0000 27.8622 0.0000
# 6 0.0000 0.0000 0.0000 0.0000 0.0000 19.7833
#
#
#
# Elastic Compliance Matrix: (Units=1/GPa)
#
#
# Indices 1 2 3 4 5 6 
#
# 1 0.023511 -0.005585 -0.006884 0.000000 0.000000 0.000000
# 2 -0.005585 0.009952 -0.002106 0.000000 0.000000 0.000000
# 3 -0.006884 -0.002106 0.019865 0.000000 0.000000 0.000000
# 4 0.000000 0.000000 0.000000 0.048056 0.000000 0.000000
# 5 0.000000 0.000000 0.000000 0.000000 0.035891 0.000000
# 6 0.000000 0.000000 0.000000 0.000000 0.000000 0.050548
#
#
# Mechanical properties :
#
#
# Convention : Reuss Voigt Hill
#
# Bulk Modulus (GPa) = 41.36191 47.37723 44.36957
# Shear Modulus (GPa) = 22.21897 24.26687 23.24292
#
# Velocity S-wave (km/s) = 3.36574 3.51743 3.44242
# Velocity P-wave (km/s) = 6.01601 6.37584 6.19854
#
# Compressibility (1/GPa) = 0.02417683
#
# Stress axis : x y z
#
# Youngs Moduli (GPa) = 42.53324 100.47797 50.34097
#
# Poissons Ratio (x) = 0.56117 0.34657
# Poissons Ratio (y) = 0.23755 0.10602
# Poissons Ratio (z) = 0.29282 0.21162
#
# Static dielectric constant tensor:
#      x y z
#    x 3.293180 0.000000 0.000000 
#    y 0.000000 4.088030 0.000000 
#    z 0.000000 0.000000 3.430740 
# 
# 
# High freq. dielectric constant tensor:
#      x y z
#    x 1.741480 0.000000 0.000000 
#    y 0.000000 1.784280 0.000000 
#    z 0.000000 0.000000 1.748100 
# 
# From -- ./inp_files/26159.got.cif
#   From: 2010.03.12/outbox.cif.g09.slc.cpg/sg53_14_cif.got.tgz:26159.got - 2010.04.16 14:36:59.
