data_PCOD8222392
_publ_section_title
;
Structure prediction by ZEFSAII (Michael W. Deem and Ramdas Pophale) SiO2 
 PCOD8222392
Probable space group: P C C A
;
_chemical_formula_sum "Si O2"
_cell_formula_units_Z 64
_cell_length_a 17.495418
_cell_length_b 9.324664
_cell_length_c 21.145947
_cell_angle_alpha 90.000000
_cell_angle_beta 90.000000
_cell_angle_gamma 90.000000
_cell_volume 3449.726414
_symmetry_space_group_name_H-M "P C C A"
_symmetry_group_IT_number 54
_symmetry_cell_setting 'orthorhombic'
loop_
_space_group_symop_operation_xyz
x,y,z
1/2-x,-y,z
1/2+x,-y,1/2-z
-x,y,1/2-z
-x,-y,-z
1/2+x,y,-z
1/2-x,y,1/2+z
x,-y,1/2+z
loop_
_atom_site_type_symbol
_atom_site_label
_atom_site_fract_x
_atom_site_fract_y
_atom_site_fract_z
Si Si1 0.539275 0.637446 0.530250
Si Si2 0.662129 0.962627 0.862584
Si Si3 0.666869 0.440709 0.532954
Si Si4 0.394140 0.338910 0.100813
Si Si5 0.537826 0.570278 0.314343
Si Si6 0.913055 0.858628 0.759335
Si Si7 0.965607 0.099176 0.447049
Si Si8 0.413610 0.747936 0.372323
O O1 0.500000 0.500000 0.500000
O O2 0.617949 0.577044 0.558065
O O3 0.480678 0.708285 0.580780
O O4 0.559868 0.749409 0.475819
O O5 0.638012 0.020055 0.792996
O O6 0.609628 0.033088 0.916044
O O7 0.750000 0.000000 0.876124
O O8 0.650758 0.791579 0.866576
O O9 0.750000 0.500000 0.542342
O O10 0.651828 0.397400 0.460010
O O11 0.650567 0.301262 0.577170
O O12 0.402830 0.460775 0.154223
O O13 0.500000 0.508069 0.250000
O O14 0.584940 0.716541 0.302627
O O15 0.467050 0.608253 0.360369
O O16 0.876115 0.811503 0.691945
O O17 0.000000 0.914728 0.750000
O O18 0.034195 0.122302 0.397764
O O19 0.000000 0.000000 0.500000
#
# Coordination Sequence:
#
# PCOD8222392 Si02
#       8
#     8   8   8   8   8   8   8   8
#     4  10  19  34  59  86 116 153 199 243 300 372
#     4  12  26  39  58  92 129 163 207 266 311 361
#     4  11  22  34  61  96 126 154 196 266 329 368
#     4  11  21  38  57  90 124 158 199 253 309 376
#     4   9  18  35  63  90 106 150 213 256 280 354
#     4   9  20  38  67  81 107 171 213 247 302 377
#     4  12  20  37  62  87 118 163 204 244 301 388
#     4  10  17  39  64  82 112 157 217 243 302 382
#
# _framework density 18.552197
#
# number of rings (size 3 to 8) (size 9 to 14) (size 15 to 20)
#    0.000    1.750    7.500    0.750    1.750    0.500 
#    0.000    2.500    5.500    0.000    0.000    0.000 
#    0.000    0.000    0.000    0.000    0.000    0.000 
#
# Total GULP energy -793175.077704 kJ/mol
# GULP energy per Si atom -12393.360589 kJ/mol
# Density = 1.850997 g / cm^3
# Si number density = 18.552197 Si / 1000 Ang^3
#
#
#
# Elastic Constant Matrix: (Units=GPa)
#
#
# Indices 1 2 3 4 5 6 
#
# 1 120.5987 45.1470 45.1000 0.0000 0.0000 0.0000
# 2 45.1470 87.8939 44.4935 0.0000 0.0000 0.0000
# 3 45.1000 44.4935 107.5611 0.0000 0.0000 0.0000
# 4 0.0000 0.0000 0.0000 35.6181 0.0000 0.0000
# 5 0.0000 0.0000 0.0000 0.0000 22.3015 0.0000
# 6 0.0000 0.0000 0.0000 0.0000 0.0000 25.0205
#
#
#
# Elastic Compliance Matrix: (Units=1/GPa)
#
#
# Indices 1 2 3 4 5 6 
#
# 1 0.010918 -0.004162 -0.002856 0.000000 0.000000 0.000000
# 2 -0.004162 0.015978 -0.004864 0.000000 0.000000 0.000000
# 3 -0.002856 -0.004864 0.012507 0.000000 0.000000 0.000000
# 4 0.000000 0.000000 0.000000 0.028076 0.000000 0.000000
# 5 0.000000 0.000000 0.000000 0.000000 0.044840 0.000000
# 6 0.000000 0.000000 0.000000 0.000000 0.000000 0.039967
#
#
# Mechanical properties :
#
#
# Convention : Reuss Voigt Hill
#
# Bulk Modulus (GPa) = 63.94907 65.05940 64.50423
# Shear Modulus (GPa) = 27.58422 28.67558 28.12990
#
# Velocity S-wave (km/s) = 3.86014 3.93577 3.89814
# Velocity P-wave (km/s) = 7.37647 7.46981 7.42329
#
# Compressibility (1/GPa) = 0.01563744
#
# Stress axis : x y z
#
# Youngs Moduli (GPa) = 91.58936 62.58758 79.95736
#
# Poissons Ratio (x) = 0.26051 0.22838
# Poissons Ratio (y) = 0.38123 0.38891
# Poissons Ratio (z) = 0.26160 0.30443
#
# Static dielectric constant tensor:
#      x y z
#    x 3.331180 0.000000 0.000000 
#    y 0.000000 3.095620 0.000000 
#    z 0.000000 0.000000 3.574510 
# 
# 
# High freq. dielectric constant tensor:
#      x y z
#    x 1.687770 0.000000 0.000000 
#    y 0.000000 1.714000 0.000000 
#    z 0.000000 0.000000 1.726510 
# 
# From -- ./inp_files/24650.got.cif
#   From: 2010.03.12/outbox.cif.g09.slc.cpg/sg54_13_cif.got.tgz:24650.got - 2010.04.16 15:00:50.
