data_PCOD8222301
_publ_section_title
;
Structure prediction by ZEFSAII (Michael W. Deem and Ramdas Pophale) SiO2 
 PCOD8222301
Probable space group: P C C A
;
_chemical_formula_sum "Si O2"
_cell_formula_units_Z 64
_cell_length_a 5.215715
_cell_length_b 37.587483
_cell_length_c 15.608315
_cell_angle_alpha 90.000000
_cell_angle_beta 90.000000
_cell_angle_gamma 90.000000
_cell_volume 3059.941462
_symmetry_space_group_name_H-M "P C C A"
_symmetry_group_IT_number 54
_symmetry_cell_setting 'orthorhombic'
loop_
_space_group_symop_operation_xyz
x,y,z
1/2-x,-y,z
1/2+x,-y,1/2-z
-x,y,1/2-z
-x,-y,-z
1/2+x,y,-z
1/2-x,y,1/2+z
x,-y,1/2+z
loop_
_atom_site_type_symbol
_atom_site_label
_atom_site_fract_x
_atom_site_fract_y
_atom_site_fract_z
Si Si1 0.580652 0.168620 0.445615
Si Si2 0.759079 0.461064 0.446397
Si Si3 0.437390 0.089203 0.054505
Si Si4 0.499018 0.980789 0.649207
Si Si5 0.894934 0.356224 0.094179
Si Si6 0.513203 0.721168 0.147599
Si Si7 0.491244 0.761320 0.649924
Si Si8 0.388883 0.386730 0.099632
O O1 0.364365 0.174104 0.517296
O O2 0.546276 0.129020 0.406126
O O3 0.548863 0.197494 0.371630
O O4 0.750000 0.500000 0.401054
O O5 0.554577 0.457717 0.524346
O O6 0.670433 0.428682 0.386071
O O7 0.491194 0.061035 0.129129
O O8 0.653039 0.083506 0.982323
O O9 0.500000 0.985662 0.750000
O O10 0.750000 0.000000 0.609424
O O11 0.250000 0.000000 0.608898
O O12 0.897222 0.313743 0.095651
O O13 0.652290 0.373797 0.143799
O O14 0.152410 0.367075 0.145151
O O15 0.914305 0.373438 0.999302
O O16 0.500000 0.714399 0.250000
O O17 0.240735 0.736487 0.114140
O O18 0.731008 0.748896 0.117028
O O19 0.500000 0.757395 0.750000
#
# Coordination Sequence:
#
# PCOD8222301 Si02
#       8
#     8   8   8   8   8   8   8   8
#     4  10  21  39  56  82 111 136 173 227 273 313
#     4  10  16  25  41  61  92 131 154 186 235 293
#     4  10  21  36  57  80 110 145 179 218 266 323
#     4  10  21  36  54  81 115 145 181 227 265 308
#     4  10  18  30  45  64  95 126 154 196 243 291
#     4  10  21  37  53  72  98 131 172 213 253 302
#     4  10  21  39  58  76 101 137 177 219 262 319
#     4  10  17  30  43  68 100 125 154 200 243 297
#
# _framework density 20.915434000000001
#
# number of rings (size 3 to 8) (size 9 to 14) (size 15 to 20)
#    0.000    2.000    2.500    2.250    0.000    2.000 
#   13.500    0.000    0.000    9.000    0.000    0.000 
#    0.000    3.000    0.000    0.000    0.000    0.000 
#
# Total GULP energy -792889.131761 kJ/mol
# GULP energy per Si atom -12388.892684 kJ/mol
# Density = 2.086783 g / cm^3
# Si number density = 20.915434 Si / 1000 Ang^3
#
#
#
# Elastic Constant Matrix: (Units=GPa)
#
#
# Indices 1 2 3 4 5 6 
#
# 1 157.4860 41.0713 9.5270 0.0000 0.0000 0.0000
# 2 41.0713 158.9376 15.5119 0.0000 0.0000 0.0000
# 3 9.5270 15.5119 3.7173 0.0000 0.0000 0.0000
# 4 0.0000 0.0000 0.0000 11.1358 0.0000 0.0000
# 5 0.0000 0.0000 0.0000 0.0000 8.8344 0.0000
# 6 0.0000 0.0000 0.0000 0.0000 0.0000 39.9496
#
#
#
# Elastic Compliance Matrix: (Units=1/GPa)
#
#
# Indices 1 2 3 4 5 6 
#
# 1 0.007516 -0.000105 -0.018825 0.000000 0.000000 0.000000
# 2 -0.000105 0.010616 -0.044032 0.000000 0.000000 0.000000
# 3 -0.018825 -0.044032 0.501004 0.000000 0.000000 0.000000
# 4 0.000000 0.000000 0.000000 0.089800 0.000000 0.000000
# 5 0.000000 0.000000 0.000000 0.000000 0.113193 0.000000
# 6 0.000000 0.000000 0.000000 0.000000 0.000000 0.025032
#
#
# Mechanical properties :
#
#
# Convention : Reuss Voigt Hill
#
# Bulk Modulus (GPa) = 2.54315 50.26236 26.40276
# Shear Modulus (GPa) = 4.97931 28.91935 16.94933
#
# Velocity S-wave (km/s) = 1.54462 3.72247 2.84980
# Velocity P-wave (km/s) = 2.09755 6.52374 4.84556
#
# Compressibility (1/GPa) = 0.39321290
#
# Stress axis : x y z
#
# Youngs Moduli (GPa) = 133.05090 94.19442 1.99599
#
# Poissons Ratio (x) = 0.00989 0.03757
# Poissons Ratio (y) = 0.01397 0.08789
# Poissons Ratio (z) = 2.50462 4.14759
#
# Static dielectric constant tensor:
#      x y z
#    x 5.259670 0.000000 0.000000 
#    y 0.000000 4.080240 0.000000 
#    z 0.000000 0.000000 3.012970 
# 
# 
# High freq. dielectric constant tensor:
#      x y z
#    x 1.857330 0.000000 0.000000 
#    y 0.000000 1.836940 0.000000 
#    z 0.000000 0.000000 1.743280 
# 
# From -- ./inp_files/16008.got.cif
#   From: 2010.03.12/outbox.cif.g09.slc.cpg/sg54_9_cif.got.tgz:16008.got - 2010.04.16 15:00:50.
