data_PCOD8222801
_publ_section_title
;
Structure prediction by ZEFSAII (Michael W. Deem and Ramdas Pophale) SiO2 
 PCOD8222801
Probable space group: P C C A
;
_chemical_formula_sum "Si O2"
_cell_formula_units_Z 64
_cell_length_a 19.233196
_cell_length_b 19.479316
_cell_length_c 9.132604
_cell_angle_alpha 90.000000
_cell_angle_beta 90.000000
_cell_angle_gamma 90.000000
_cell_volume 3421.525546
_symmetry_space_group_name_H-M "P C C A"
_symmetry_group_IT_number 54
_symmetry_cell_setting 'orthorhombic'
loop_
_space_group_symop_operation_xyz
x,y,z
1/2-x,-y,z
1/2+x,-y,1/2-z
-x,y,1/2-z
-x,-y,-z
1/2+x,y,-z
1/2-x,y,1/2+z
x,-y,1/2+z
loop_
_atom_site_type_symbol
_atom_site_label
_atom_site_fract_x
_atom_site_fract_y
_atom_site_fract_z
Si Si1 0.949119 0.073566 0.116945
Si Si2 0.319656 0.677846 0.714135
Si Si3 0.049722 0.077758 0.879840
Si Si4 0.425606 0.438533 0.179626
Si Si5 0.817807 0.160620 0.093630
Si Si6 0.175067 0.834525 0.253152
Si Si7 0.817012 0.316684 0.124306
Si Si8 0.572293 0.426697 0.668991
O O1 0.879745 0.114957 0.158305
O O2 0.000000 0.068272 0.250000
O O3 0.924041 0.997279 0.062764
O O4 0.997321 0.112704 0.996988
O O5 0.381617 0.624971 0.741722
O O6 0.340346 0.753572 0.771384
O O7 0.301396 0.674552 0.544980
O O8 0.250717 0.654139 0.796215
O O9 0.112043 0.126822 0.831811
O O10 0.000000 0.059412 0.750000
O O11 0.500000 0.428187 0.250000
O O12 0.392906 0.508847 0.245573
O O13 0.434019 0.443236 0.004190
O O14 0.743860 0.139459 0.162487
O O15 0.833374 0.237050 0.151550
O O16 0.816622 0.149447 0.918654
O O17 0.881341 0.359311 0.187079
O O18 0.500000 0.410256 0.750000
#
# Coordination Sequence:
#
# PCOD8222801 Si02
#       8
#     8   8   8   8   8   8   8   8
#     4  10  22  37  58  84 116 143 188 230 277 333
#     4   9  20  37  55  80 106 141 182 225 268 326
#     4  10  20  39  59  82 111 150 181 230 279 332
#     4  10  20  35  54  80 110 141 182 223 271 324
#     4  10  21  39  57  82 113 147 187 234 277 340
#     4  10  21  38  59  81 112 148 187 230 285 330
#     4   9  20  37  56  77 109 141 182 225 271 321
#     4  10  20  35  55  80 110 144 178 226 272 323
#
# _framework density 18.705107000000002
#
# number of rings (size 3 to 8) (size 9 to 14) (size 15 to 20)
#    0.000    2.250    1.250    1.500    1.750    4.000 
#    2.250    3.750    0.000    0.000    0.000    0.000 
#    0.000    0.000    0.000    0.000    0.000    0.000 
#
# Total GULP energy -793074.750532 kJ/mol
# GULP energy per Si atom -12391.792977 kJ/mol
# Density = 1.866253 g / cm^3
# Si number density = 18.705107 Si / 1000 Ang^3
#
#
#
# Elastic Constant Matrix: (Units=GPa)
#
#
# Indices 1 2 3 4 5 6 
#
# 1 121.9043 76.2017 48.1182 0.0000 0.0000 0.0000
# 2 76.2017 93.7449 36.8932 0.0000 0.0000 0.0000
# 3 48.1182 36.8932 74.6386 0.0000 0.0000 0.0000
# 4 0.0000 0.0000 0.0000 23.8134 0.0000 0.0000
# 5 0.0000 0.0000 0.0000 0.0000 38.2875 0.0000
# 6 0.0000 0.0000 0.0000 0.0000 0.0000 26.3025
#
#
#
# Elastic Compliance Matrix: (Units=1/GPa)
#
#
# Indices 1 2 3 4 5 6 
#
# 1 0.018350 -0.012738 -0.005533 0.000000 0.000000 0.000000
# 2 -0.012738 0.022086 -0.002705 0.000000 0.000000 0.000000
# 3 -0.005533 -0.002705 0.018302 0.000000 0.000000 0.000000
# 4 0.000000 0.000000 0.000000 0.041993 0.000000 0.000000
# 5 0.000000 0.000000 0.000000 0.000000 0.026118 0.000000
# 6 0.000000 0.000000 0.000000 0.000000 0.000000 0.038019
#
#
# Mechanical properties :
#
#
# Convention : Reuss Voigt Hill
#
# Bulk Modulus (GPa) = 59.57655 68.07932 63.82793
# Shear Modulus (GPa) = 23.53857 26.28566 24.91211
#
# Velocity S-wave (km/s) = 3.55125 3.75276 3.65339
# Velocity P-wave (km/s) = 6.98102 7.43322 7.21067
#
# Compressibility (1/GPa) = 0.01678513
#
# Stress axis : x y z
#
# Youngs Moduli (GPa) = 54.49594 45.27703 54.63822
#
# Poissons Ratio (x) = 0.57675 0.30234
# Poissons Ratio (y) = 0.69419 0.14779
# Poissons Ratio (z) = 0.30155 0.12247
#
# Static dielectric constant tensor:
#      x y z
#    x 3.409120 0.000000 0.000000 
#    y 0.000000 3.713520 0.000000 
#    z 0.000000 0.000000 3.550360 
# 
# 
# High freq. dielectric constant tensor:
#      x y z
#    x 1.723880 0.000000 0.000000 
#    y 0.000000 1.724150 0.000000 
#    z 0.000000 0.000000 1.736790 
# 
# From -- ./inp_files/4394.got.cif
#   From: 2010.03.12/outbox.cif.g09.slc.cpg/sg54_3_cif.got.tgz:4394.got - 2010.04.16 15:00:50.
