data_PCOD8222103
_publ_section_title
;
Structure prediction by ZEFSAII (Michael W. Deem and Ramdas Pophale) SiO2 
 PCOD8222103
Probable space group: P M N A
;
_chemical_formula_sum "Si O2"
_cell_formula_units_Z 48
_cell_length_a 8.532027
_cell_length_b 12.654168
_cell_length_c 23.351506
_cell_angle_alpha 90.000000
_cell_angle_beta 90.000000
_cell_angle_gamma 90.000000
_cell_volume 2521.161762
_symmetry_space_group_name_H-M "P M N A"
_symmetry_group_IT_number 53
_symmetry_cell_setting 'orthorhombic'
loop_
_space_group_symop_operation_xyz
x,y,z
1/2-x,-y,1/2+z
x,-y,-z
1/2-x,y,1/2-z
-x,-y,-z
1/2+x,y,1/2-z
-x,y,z
1/2+x,-y,1/2+z
loop_
_atom_site_type_symbol
_atom_site_label
_atom_site_fract_x
_atom_site_fract_y
_atom_site_fract_z
Si Si1 0.317358 0.378627 0.500235
Si Si2 0.183862 0.692129 0.381859
Si Si3 0.315832 0.504465 0.311738
Si Si4 0.315444 0.124590 0.189560
Si Si5 0.684369 0.110448 0.810368
Si Si6 0.816885 0.681257 0.615028
O O1 0.262325 0.500000 0.500000
O O2 0.500000 0.368984 0.486233
O O3 0.282293 0.327703 0.561255
O O4 0.219419 0.315995 0.452353
O O5 0.227827 0.609075 0.332734
O O6 0.233565 0.808361 0.360035
O O7 0.000000 0.683721 0.395350
O O8 0.250000 0.471531 0.250000
O O9 0.500000 0.526425 0.308705
O O10 0.284152 0.410469 0.355979
O O11 0.250000 0.165319 0.250000
O O12 0.500000 0.121102 0.194764
O O13 0.262916 0.205967 0.140447
O O14 0.250317 0.007074 0.174770
O O15 0.750000 0.150832 0.750000
O O16 0.500000 0.108228 0.804230
O O17 0.000000 0.659893 0.626119
#
# Coordination Sequence:
#
# PCOD8222103 Si02
#       6
#     8   8   8   8   8   8
#     4  11  23  39  58  81 111 151 190 233 281 334
#     4  11  22  37  59  84 111 147 189 232 279 335
#     4  12  24  37  54  81 116 148 182 230 282 334
#     4   9  19  36  58  85 115 147 184 227 278 332
#     4   9  19  36  58  85 115 147 184 227 278 332
#     4  11  22  37  59  84 111 147 189 232 279 335
#
# _framework density 19.038844000000001
#
# number of rings (size 3 to 8) (size 9 to 14) (size 15 to 20)
#    0.000    1.500    1.667    4.000    0.000    6.000 
#    0.000    0.833    0.000    5.000    0.000    0.000 
#    0.000    0.000    0.000    0.000    0.000    0.000 
#
# Total GULP energy -595397.277724 kJ/mol
# GULP energy per Si atom -12404.109953 kJ/mol
# Density = 1.899551 g / cm^3
# Si number density = 19.038844 Si / 1000 Ang^3
#
#
#
# Elastic Constant Matrix: (Units=GPa)
#
#
# Indices 1 2 3 4 5 6 
#
# 1 34.9881 30.4614 20.4003 0.0000 0.0000 0.0000
# 2 30.4614 115.9349 54.5995 0.0000 0.0000 0.0000
# 3 20.4003 54.5995 110.7086 0.0000 0.0000 0.0000
# 4 0.0000 0.0000 0.0000 46.9307 0.0000 0.0000
# 5 0.0000 0.0000 0.0000 0.0000 34.5299 0.0000
# 6 0.0000 0.0000 0.0000 0.0000 0.0000 27.8986
#
#
#
# Elastic Compliance Matrix: (Units=1/GPa)
#
#
# Indices 1 2 3 4 5 6 
#
# 1 0.037660 -0.008632 -0.002683 0.000000 0.000000 0.000000
# 2 -0.008632 0.013213 -0.004926 0.000000 0.000000 0.000000
# 3 -0.002683 -0.004926 0.011957 0.000000 0.000000 0.000000
# 4 0.000000 0.000000 0.000000 0.021308 0.000000 0.000000
# 5 0.000000 0.000000 0.000000 0.000000 0.028960 0.000000
# 6 0.000000 0.000000 0.000000 0.000000 0.000000 0.035844
#
#
# Mechanical properties :
#
#
# Convention : Reuss Voigt Hill
#
# Bulk Modulus (GPa) = 32.94967 52.50599 42.72783
# Shear Modulus (GPa) = 26.10425 32.28320 29.19373
#
# Velocity S-wave (km/s) = 3.70686 4.12229 3.92008
# Velocity P-wave (km/s) = 5.97204 7.09196 6.55596
#
# Compressibility (1/GPa) = 0.03034932
#
# Stress axis : x y z
#
# Youngs Moduli (GPa) = 26.55327 75.68092 83.63650
#
# Poissons Ratio (x) = 0.65325 0.22437
# Poissons Ratio (y) = 0.22920 0.41200
# Poissons Ratio (z) = 0.07123 0.37281
#
# Static dielectric constant tensor:
#      x y z
#    x 3.440690 0.000000 0.000000 
#    y 0.000000 3.940890 0.000000 
#    z 0.000000 0.000000 3.434600 
# 
# 
# High freq. dielectric constant tensor:
#      x y z
#    x 1.744030 0.000000 0.000000 
#    y 0.000000 1.741220 0.000000 
#    z 0.000000 0.000000 1.738790 
# 
# From -- ./inp_files/33882.got.cif
#   From: 2010.03.12/outbox.cif.g09.slc.cpg/sg53_17_cif.got.tgz:33882.got - 2010.04.16 14:36:59.
