data_PCOD8222984
_publ_section_title
;
Structure prediction by ZEFSAII (Michael W. Deem and Ramdas Pophale) SiO2 
 PCOD8222984
Probable space group: P C C A
;
_chemical_formula_sum "Si O2"
_cell_formula_units_Z 40
_cell_length_a 13.466544
_cell_length_b 8.765436
_cell_length_c 16.071138
_cell_angle_alpha 90.000000
_cell_angle_beta 90.000000
_cell_angle_gamma 90.000000
_cell_volume 1897.039212
_symmetry_space_group_name_H-M "P C C A"
_symmetry_group_IT_number 54
_symmetry_cell_setting 'orthorhombic'
loop_
_space_group_symop_operation_xyz
x,y,z
1/2-x,-y,z
1/2+x,-y,1/2-z
-x,y,1/2-z
-x,-y,-z
1/2+x,y,-z
1/2-x,y,1/2+z
x,-y,1/2+z
loop_
_atom_site_type_symbol
_atom_site_label
_atom_site_fract_x
_atom_site_fract_y
_atom_site_fract_z
Si Si1 0.888629 0.754227 0.999523
Si Si2 0.992383 0.724784 0.653288
Si Si3 0.250000 0.500000 0.536053
Si Si4 0.546050 0.398850 0.387660
Si Si5 0.138388 0.992740 0.870941
Si Si6 0.500000 0.173814 0.250000
O O1 0.987853 0.672162 0.034215
O O2 0.871194 0.917180 0.041726
O O3 0.792418 0.644869 0.016416
O O4 0.910243 0.778231 0.900651
O O5 0.898256 0.818694 0.616425
O O6 0.000000 0.768169 0.750000
O O7 0.979930 0.543217 0.642898
O O8 0.342234 0.554602 0.591372
O O9 0.559331 0.278545 0.314282
O O10 0.250000 0.000000 0.839777
O O11 0.076928 0.070151 0.798131
#
# Coordination Sequence:
#
# PCOD8222984 Si02
#       6
#     8   8   4   8   8   4
#     4  10  24  41  65  94 134 173 216 283 320 402
#     4  11  21  41  66  93 128 170 216 274 335 381
#     4  10  20  38  66 100 112 170 230 258 334 390
#     4  10  22  41  69  90 134 166 216 281 324 393
#     4  11  25  41  66  95 134 179 222 262 336 404
#     4  10  22  48  58  96 138 164 214 278 334 378
#
# _framework density 21.08549
#
# number of rings (size 3 to 8) (size 9 to 14) (size 15 to 20)
#    0.000    1.600    2.000    3.000    5.600    3.200 
#    0.000    1.000    0.000    0.000    0.000    0.000 
#    0.000    0.000    0.000    0.000    0.000    0.000 
#
# Total GULP energy -495792.824803 kJ/mol
# GULP energy per Si atom -12394.820620 kJ/mol
# Density = 2.103750 g / cm^3
# Si number density = 21.085490 Si / 1000 Ang^3
#
#
#
# Elastic Constant Matrix: (Units=GPa)
#
#
# Indices 1 2 3 4 5 6 
#
# 1 127.4874 42.2538 32.3126 0.0000 0.0000 0.0000
# 2 42.2538 80.8958 30.6182 0.0000 0.0000 0.0000
# 3 32.3126 30.6182 115.1475 0.0000 0.0000 0.0000
# 4 0.0000 0.0000 0.0000 1.6427 0.0000 0.0000
# 5 0.0000 0.0000 0.0000 0.0000 12.9252 0.0000
# 6 0.0000 0.0000 0.0000 0.0000 0.0000 34.7655
#
#
#
# Elastic Compliance Matrix: (Units=1/GPa)
#
#
# Indices 1 2 3 4 5 6 
#
# 1 0.009723 -0.004499 -0.001532 0.000000 0.000000 0.000000
# 2 -0.004499 0.015826 -0.002946 0.000000 0.000000 0.000000
# 3 -0.001532 -0.002946 0.009898 0.000000 0.000000 0.000000
# 4 0.000000 0.000000 0.000000 0.608765 0.000000 0.000000
# 5 0.000000 0.000000 0.000000 0.000000 0.077368 0.000000
# 6 0.000000 0.000000 0.000000 0.000000 0.000000 0.028764
#
#
# Mechanical properties :
#
#
# Convention : Reuss Voigt Hill
#
# Bulk Modulus (GPa) = 57.16358 59.32222 58.24290
# Shear Modulus (GPa) = 6.45887 24.42308 15.44097
#
# Velocity S-wave (km/s) = 1.75209 3.40706 2.70905
# Velocity P-wave (km/s) = 5.59127 6.60852 6.12107
#
# Compressibility (1/GPa) = 0.01749366
#
# Stress axis : x y z
#
# Youngs Moduli (GPa) = 102.84541 63.18572 101.03225
#
# Poissons Ratio (x) = 0.28426 0.15481
# Poissons Ratio (y) = 0.46268 0.29763
# Poissons Ratio (z) = 0.15759 0.18614
#
# Static dielectric constant tensor:
#      x y z
#    x 3.735440 0.000000 0.000000 
#    y 0.000000 4.186150 0.000000 
#    z 0.000000 0.000000 3.823470 
# 
# 
# High freq. dielectric constant tensor:
#      x y z
#    x 1.808560 0.000000 0.000000 
#    y 0.000000 1.845500 0.000000 
#    z 0.000000 0.000000 1.824840 
# 
# From -- ./inp_files/17874.got.cif
#   From: 2010.03.12/outbox.cif.g09.slc.cpg/sg54_9_cif.got.tgz:17874.got - 2010.04.16 15:00:50.
