data_PCOD8222763
_publ_section_title
;
Structure prediction by ZEFSAII (Michael W. Deem and Ramdas Pophale) SiO2 
 PCOD8222763
Probable space group: P C C A
;
_chemical_formula_sum "Si O2"
_cell_formula_units_Z 48
_cell_length_a 15.084928
_cell_length_b 15.089880
_cell_length_c 8.818408
_cell_angle_alpha 90.000000
_cell_angle_beta 90.000000
_cell_angle_gamma 90.000000
_cell_volume 2007.332038
_symmetry_space_group_name_H-M "P C C A"
_symmetry_group_IT_number 54
_symmetry_cell_setting 'orthorhombic'
loop_
_space_group_symop_operation_xyz
x,y,z
1/2-x,-y,z
1/2+x,-y,1/2-z
-x,y,1/2-z
-x,-y,-z
1/2+x,y,-z
1/2-x,y,1/2+z
x,-y,1/2+z
loop_
_atom_site_type_symbol
_atom_site_label
_atom_site_fract_x
_atom_site_fract_y
_atom_site_fract_z
Si Si1 0.896737 0.590818 0.909523
Si Si2 0.908478 0.770457 0.056026
Si Si3 0.383440 0.761453 0.597404
Si Si4 0.669842 0.062615 0.531816
Si Si5 0.107832 0.414869 0.431602
Si Si6 0.910444 0.069853 0.341034
O O1 0.857482 0.593016 0.739886
O O2 0.002227 0.585103 0.920686
O O3 0.866470 0.681249 0.988303
O O4 0.856274 0.506189 0.996472
O O5 0.869196 0.775827 0.224346
O O6 0.014373 0.772807 0.053445
O O7 0.877740 0.852005 0.952295
O O8 0.322538 0.834468 0.514334
O O9 0.354810 0.664393 0.537592
O O10 0.663390 0.056695 0.712166
O O11 0.750000 0.000000 0.476880
O O12 0.584258 0.020444 0.441938
O O13 0.000000 0.092312 0.250000
#
# Coordination Sequence:
#
# PCOD8222763 Si02
#       6
#     8   8   8   8   8   8
#     4   9  16  26  45  78 121 162 203 254 311 369
#     4  10  20  33  57  88 118 159 211 260 316 371
#     4  10  20  35  56  84 121 163 209 259 314 384
#     4  12  26  42  61  88 123 161 210 269 331 390
#     4   9  16  27  46  75 120 167 202 248 315 371
#     4  12  24  41  64  88 117 162 213 268 323 394
#
# _framework density 23.912337000000001
#
# number of rings (size 3 to 8) (size 9 to 14) (size 15 to 20)
#    0.000    1.667    1.667    4.000    4.667    4.000 
#    0.000    0.833    0.000    0.000    0.000    1.167 
#    0.000    8.000    0.000    0.167    0.000    0.000 
#
# Total GULP energy -595147.374713 kJ/mol
# GULP energy per Si atom -12398.903640 kJ/mol
# Density = 2.385791 g / cm^3
# Si number density = 23.912337 Si / 1000 Ang^3
#
#
#
# Elastic Constant Matrix: (Units=GPa)
#
#
# Indices 1 2 3 4 5 6 
#
# 1 21.7766 8.2406 10.4334 0.0000 0.0000 0.0000
# 2 8.2406 202.0962 85.2336 0.0000 0.0000 0.0000
# 3 10.4334 85.2336 197.8496 0.0000 0.0000 0.0000
# 4 0.0000 0.0000 0.0000 58.4949 0.0000 0.0000
# 5 0.0000 0.0000 0.0000 0.0000 16.4969 0.0000
# 6 0.0000 0.0000 0.0000 0.0000 0.0000 17.4680
#
#
#
# Elastic Compliance Matrix: (Units=1/GPa)
#
#
# Indices 1 2 3 4 5 6 
#
# 1 0.047300 -0.001071 -0.002033 0.000000 0.000000 0.000000
# 2 -0.001071 0.006071 -0.002559 0.000000 0.000000 0.000000
# 3 -0.002033 -0.002559 0.006264 0.000000 0.000000 0.000000
# 4 0.000000 0.000000 0.000000 0.017096 0.000000 0.000000
# 5 0.000000 0.000000 0.000000 0.000000 0.060617 0.000000
# 6 0.000000 0.000000 0.000000 0.000000 0.000000 0.057248
#
#
# Mechanical properties :
#
#
# Convention : Reuss Voigt Hill
#
# Bulk Modulus (GPa) = 20.70002 69.94862 45.32432
# Shear Modulus (GPa) = 22.51998 39.67960 31.09979
#
# Velocity S-wave (km/s) = 3.07216 4.07797 3.61026
# Velocity P-wave (km/s) = 4.61082 7.17556 6.03110
#
# Compressibility (1/GPa) = 0.04830913
#
# Stress axis : x y z
#
# Youngs Moduli (GPa) = 21.14151 164.71648 159.64447
#
# Poissons Ratio (x) = 0.17647 0.32453
# Poissons Ratio (y) = 0.02265 0.40852
# Poissons Ratio (z) = 0.04298 0.42149
#
# Static dielectric constant tensor:
#      x y z
#    x 3.612510 0.000000 0.000000 
#    y 0.000000 4.453350 0.000000 
#    z 0.000000 0.000000 4.486560 
# 
# 
# High freq. dielectric constant tensor:
#      x y z
#    x 1.902700 0.000000 0.000000 
#    y 0.000000 1.959960 0.000000 
#    z 0.000000 0.000000 1.966690 
# 
# From -- ./inp_files/4197.got.cif
#   From: 2010.03.12/outbox.cif.g09.slc.cpg/sg54_3_cif.got.tgz:4197.got - 2010.04.16 15:00:50.
