data_PCOD8222436
_publ_section_title
;
Structure prediction by ZEFSAII (Michael W. Deem and Ramdas Pophale) SiO2 
 PCOD8222436
Probable space group: P C C A
;
_chemical_formula_sum "Si O2"
_cell_formula_units_Z 60
_cell_length_a 18.838634
_cell_length_b 8.554583
_cell_length_c 17.273602
_cell_angle_alpha 90.000000
_cell_angle_beta 90.000000
_cell_angle_gamma 90.000000
_cell_volume 2783.755973
_symmetry_space_group_name_H-M "P C C A"
_symmetry_group_IT_number 54
_symmetry_cell_setting 'orthorhombic'
loop_
_space_group_symop_operation_xyz
x,y,z
1/2-x,-y,z
1/2+x,-y,1/2-z
-x,y,1/2-z
-x,-y,-z
1/2+x,y,-z
1/2-x,y,1/2+z
x,-y,1/2+z
loop_
_atom_site_type_symbol
_atom_site_label
_atom_site_fract_x
_atom_site_fract_y
_atom_site_fract_z
Si Si1 0.373611 0.721550 0.269923
Si Si2 0.032656 0.075495 0.367837
Si Si3 0.128204 0.113737 0.513481
Si Si4 0.000000 0.510257 0.250000
Si Si5 0.925129 0.425837 0.520694
Si Si6 0.383123 0.200005 0.601898
Si Si7 0.482139 0.248438 0.122145
Si Si8 0.307454 0.366587 0.918967
O O1 0.413209 0.875352 0.301203
O O2 0.431921 0.586386 0.275850
O O3 0.344143 0.759966 0.183750
O O4 0.307439 0.681091 0.327666
O O5 0.073264 0.054758 0.448886
O O6 0.967424 0.194257 0.380421
O O7 0.996875 0.916705 0.337783
O O8 0.088087 0.237610 0.568722
O O9 0.195264 0.209188 0.474152
O O10 0.150011 0.958006 0.562869
O O11 0.032485 0.615424 0.182294
O O12 0.876009 0.352779 0.452673
O O13 0.884217 0.561311 0.565472
O O14 0.000000 0.500000 0.500000
O O15 0.944511 0.282108 0.576483
O O16 0.250000 0.500000 0.938013
#
# Coordination Sequence:
#
# PCOD8222436 Si02
#       8
#     8   8   8   4   8   8   8   8
#     4  11  22  36  57  88 133 173 207 252 330 400
#     4  10  18  33  54  91 132 165 199 259 332 385
#     4  10  20  36  60  90 123 164 220 264 323 382
#     4  12  22  30  52  98 130 166 204 256 328 390
#     4  12  19  36  62  94 127 160 216 271 323 376
#     4  11  19  33  58  93 124 165 209 275 320 376
#     4  11  20  31  54  94 129 162 204 271 321 379
#     4  11  25  44  63  90 126 175 214 265 331 400
#
# _framework density 21.553614
#
# number of rings (size 3 to 8) (size 9 to 14) (size 15 to 20)
#    0.000    1.067    6.667    2.400    3.733    0.000 
#    0.000    1.333    0.000    0.000    3.467    0.000 
#    0.000    0.000    0.000    0.000    0.000    0.000 
#
# Total GULP energy -743483.634460 kJ/mol
# GULP energy per Si atom -12391.393908 kJ/mol
# Density = 2.150456 g / cm^3
# Si number density = 21.553614 Si / 1000 Ang^3
#
#
#
# Elastic Constant Matrix: (Units=GPa)
#
#
# Indices 1 2 3 4 5 6 
#
# 1 39.8571 18.3738 12.6878 0.0000 0.0000 0.0000
# 2 18.3738 88.3057 48.8612 0.0000 0.0000 0.0000
# 3 12.6878 48.8612 135.0546 0.0000 0.0000 0.0000
# 4 0.0000 0.0000 0.0000 37.2344 0.0000 0.0000
# 5 0.0000 0.0000 0.0000 0.0000 13.1832 0.0000
# 6 0.0000 0.0000 0.0000 0.0000 0.0000 29.9595
#
#
#
# Elastic Compliance Matrix: (Units=1/GPa)
#
#
# Indices 1 2 3 4 5 6 
#
# 1 0.027797 -0.005425 -0.000649 0.000000 0.000000 0.000000
# 2 -0.005425 0.015217 -0.004996 0.000000 0.000000 0.000000
# 3 -0.000649 -0.004996 0.009273 0.000000 0.000000 0.000000
# 4 0.000000 0.000000 0.000000 0.026857 0.000000 0.000000
# 5 0.000000 0.000000 0.000000 0.000000 0.075854 0.000000
# 6 0.000000 0.000000 0.000000 0.000000 0.000000 0.033378
#
#
# Mechanical properties :
#
#
# Convention : Reuss Voigt Hill
#
# Bulk Modulus (GPa) = 33.16934 47.00698 40.08816
# Shear Modulus (GPa) = 22.66912 28.29507 25.48209
#
# Velocity S-wave (km/s) = 3.24660 3.62716 3.44214
# Velocity P-wave (km/s) = 5.42922 6.27681 5.86834
#
# Compressibility (1/GPa) = 0.03014833
#
# Stress axis : x y z
#
# Youngs Moduli (GPa) = 35.97527 65.71474 107.84239
#
# Poissons Ratio (x) = 0.35648 0.06997
# Poissons Ratio (y) = 0.19516 0.53876
# Poissons Ratio (z) = 0.02334 0.32830
#
# Static dielectric constant tensor:
#      x y z
#    x 3.638490 0.000000 0.000000 
#    y 0.000000 4.128420 0.000000 
#    z 0.000000 0.000000 4.356280 
# 
# 
# High freq. dielectric constant tensor:
#      x y z
#    x 1.773420 0.000000 0.000000 
#    y 0.000000 1.865560 0.000000 
#    z 0.000000 0.000000 1.858280 
# 
# From -- ./inp_files/18680.got.cif
#   From: 2010.03.12/outbox.cif.g09.slc.cpg/sg54_10_cif.got.tgz:18680.got - 2010.04.16 15:00:50.
