data_PCOD8222965
_publ_section_title
;
Structure prediction by ZEFSAII (Michael W. Deem and Ramdas Pophale) SiO2 
 PCOD8222965
Probable space group: P C C A
;
_chemical_formula_sum "Si O2"
_cell_formula_units_Z 40
_cell_length_a 7.471731
_cell_length_b 8.601298
_cell_length_c 23.935785
_cell_angle_alpha 90.000000
_cell_angle_beta 90.000000
_cell_angle_gamma 90.000000
_cell_volume 1538.271159
_symmetry_space_group_name_H-M "P C C A"
_symmetry_group_IT_number 54
_symmetry_cell_setting 'orthorhombic'
loop_
_space_group_symop_operation_xyz
x,y,z
1/2-x,-y,z
1/2+x,-y,1/2-z
-x,y,1/2-z
-x,-y,-z
1/2+x,y,-z
1/2-x,y,1/2+z
x,-y,1/2+z
loop_
_atom_site_type_symbol
_atom_site_label
_atom_site_fract_x
_atom_site_fract_y
_atom_site_fract_z
Si Si1 0.471915 0.160442 0.687573
Si Si2 0.616526 0.303770 0.581146
Si Si3 0.295954 0.179474 0.513124
Si Si4 0.921486 0.604059 0.409495
Si Si5 0.445523 0.190805 0.188997
O O1 0.500000 0.223356 0.750000
O O2 0.599661 0.258922 0.646398
O O3 0.264407 0.181913 0.674203
O O4 0.531626 0.980188 0.682898
O O5 0.476506 0.195277 0.547434
O O6 0.804026 0.251604 0.550987
O O7 0.576846 0.485425 0.570330
O O8 0.135089 0.275650 0.542588
O O9 0.250000 0.000000 0.511985
O O10 0.750000 0.500000 0.390468
O O11 0.017263 0.689119 0.356930
O O12 0.500000 0.255442 0.250000
#
# Coordination Sequence:
#
# PCOD8222965 Si02
#       5
#     8   8   8   8   8
#     4  10  21  41  64  91 126 159 204 260 320 370
#     4  11  23  41  63  90 128 166 203 265 315 381
#     4  11  22  40  64  90 122 166 211 256 314 376
#     4  10  20  38  63  88 126 168 203 259 325 377
#     4  10  20  39  67  88 120 165 207 254 312 381
#
# _framework density 26.003215999999998
#
# number of rings (size 3 to 8) (size 9 to 14) (size 15 to 20)
#    0.000    1.600    4.000    2.400    0.000    0.800 
#   10.800    0.000    0.000    0.000    0.000    0.000 
#    0.000    0.000    0.000    0.000    0.000    0.000 
#
# Total GULP energy -496038.326105 kJ/mol
# GULP energy per Si atom -12400.958153 kJ/mol
# Density = 2.594403 g / cm^3
# Si number density = 26.003216 Si / 1000 Ang^3
#
#
#
# Elastic Constant Matrix: (Units=GPa)
#
#
# Indices 1 2 3 4 5 6 
#
# 1 47.8153 -11.9945 -4.5433 0.0000 0.0000 0.0000
# 2 -11.9945 154.4007 58.7653 0.0000 0.0000 0.0000
# 3 -4.5433 58.7653 166.6487 0.0000 0.0000 0.0000
# 4 0.0000 0.0000 0.0000 47.9965 0.0000 0.0000
# 5 0.0000 0.0000 0.0000 0.0000 32.5424 0.0000
# 6 0.0000 0.0000 0.0000 0.0000 0.0000 11.4701
#
#
#
# Elastic Compliance Matrix: (Units=1/GPa)
#
#
# Indices 1 2 3 4 5 6 
#
# 1 0.021329 0.001658 -0.000003 0.000000 0.000000 0.000000
# 2 0.001658 0.007610 -0.002638 0.000000 0.000000 0.000000
# 3 -0.000003 -0.002638 0.006931 0.000000 0.000000 0.000000
# 4 0.000000 0.000000 0.000000 0.020835 0.000000 0.000000
# 5 0.000000 0.000000 0.000000 0.000000 0.030729 0.000000
# 6 0.000000 0.000000 0.000000 0.000000 0.000000 0.087183
#
#
# Mechanical properties :
#
#
# Convention : Reuss Voigt Hill
#
# Bulk Modulus (GPa) = 29.49546 50.36884 39.93215
# Shear Modulus (GPa) = 26.61208 40.17762 33.39485
#
# Velocity S-wave (km/s) = 3.20256 3.93504 3.58754
# Velocity P-wave (km/s) = 5.00428 6.32917 5.70531
#
# Compressibility (1/GPa) = 0.03390353
#
# Stress axis : x y z
#
# Youngs Moduli (GPa) = 46.88347 131.41366 144.28242
#
# Poissons Ratio (x) = -0.21791 0.00047
# Poissons Ratio (y) = -0.07774 0.38064
# Poissons Ratio (z) = 0.00015 0.34669
#
# Static dielectric constant tensor:
#      x y z
#    x 5.108420 0.000000 0.000000 
#    y 0.000000 4.738580 0.000000 
#    z 0.000000 0.000000 4.899960 
# 
# 
# High freq. dielectric constant tensor:
#      x y z
#    x 2.053710 0.000000 0.000000 
#    y 0.000000 2.043080 0.000000 
#    z 0.000000 0.000000 2.048060 
# 
# From -- ./inp_files/23227.got.cif
#   From: 2010.03.12/outbox.cif.g09.slc.cpg/sg54_12_cif.got.tgz:23227.got - 2010.04.16 15:00:50.
