data_PCOD8222090
_publ_section_title
;
Structure prediction by ZEFSAII (Michael W. Deem and Ramdas Pophale) SiO2 
 PCOD8222090
Probable space group: P M N A
;
_chemical_formula_sum "Si O2"
_cell_formula_units_Z 56
_cell_length_a 8.474062
_cell_length_b 15.664479
_cell_length_c 23.117466
_cell_angle_alpha 90.000000
_cell_angle_beta 90.000000
_cell_angle_gamma 90.000000
_cell_volume 3068.653268
_symmetry_space_group_name_H-M "P M N A"
_symmetry_group_IT_number 53
_symmetry_cell_setting 'orthorhombic'
loop_
_space_group_symop_operation_xyz
x,y,z
1/2-x,-y,1/2+z
x,-y,-z
1/2-x,y,1/2-z
-x,-y,-z
1/2+x,y,1/2-z
-x,y,z
1/2+x,-y,1/2+z
loop_
_atom_site_type_symbol
_atom_site_label
_atom_site_fract_x
_atom_site_fract_y
_atom_site_fract_z
Si Si1 0.814690 0.657893 0.379844
Si Si2 0.185918 0.992862 0.686368
Si Si3 0.816078 0.597837 0.000875
Si Si4 0.315068 0.504118 0.311877
Si Si5 0.684631 0.647178 0.884636
Si Si6 0.686728 0.190942 0.185826
Si Si7 0.813481 0.176558 0.685777
O O1 0.717396 0.638688 0.437279
O O2 0.776651 0.589031 0.330569
O O3 0.754080 0.749635 0.357080
O O4 0.000000 0.656844 0.393658
O O5 0.250000 0.993908 0.750000
O O6 0.241287 0.083733 0.658639
O O7 0.000000 0.992131 0.688037
O O8 0.243609 0.901892 0.659392
O O9 0.718574 0.650276 0.952935
O O10 0.000000 0.604109 0.986504
O O11 0.758242 0.500000 0.000000
O O12 0.250000 0.474006 0.250000
O O13 0.500000 0.523261 0.309076
O O14 0.283759 0.429937 0.357831
O O15 0.500000 0.632919 0.872589
O O16 0.747306 0.735517 0.857027
O O17 0.750000 0.207808 0.250000
O O18 0.500000 0.193413 0.189845
O O19 0.750000 0.191690 0.750000
O O20 0.000000 0.181334 0.690688
#
# Coordination Sequence:
#
# PCOD8222090 Si02
#       7
#     8   8   8   8   8   8   8
#     4  11  22  36  55  78 103 135 174 217 260 306
#     4   8  14  28  48  73 106 137 167 204 246 302
#     4  11  23  39  57  76  98 133 179 220 262 308
#     4  12  24  37  52  75 106 140 172 208 258 310
#     4  11  22  36  55  78 103 135 174 217 260 306
#     4   9  18  31  51  79 108 138 170 206 254 306
#     4   9  18  31  51  79 108 138 170 206 254 306
#
# _framework density 18.249047999999998
#
# number of rings (size 3 to 8) (size 9 to 14) (size 15 to 20)
#    0.000    1.857    1.429    3.429    0.000    5.143 
#    0.000    0.000    0.000    0.857    0.000    6.000 
#    0.000    0.000    0.000    0.000    0.000    0.000 
#
# Total GULP energy -694060.265437 kJ/mol
# GULP energy per Si atom -12393.933311 kJ/mol
# Density = 1.820751 g / cm^3
# Si number density = 18.249048 Si / 1000 Ang^3
#
#
#
# Elastic Constant Matrix: (Units=GPa)
#
#
# Indices 1 2 3 4 5 6 
#
# 1 28.0552 27.1412 13.2131 0.0000 0.0000 0.0000
# 2 27.1412 167.3082 47.7204 0.0000 0.0000 0.0000
# 3 13.2131 47.7204 82.9635 0.0000 0.0000 0.0000
# 4 0.0000 0.0000 0.0000 17.9015 0.0000 0.0000
# 5 0.0000 0.0000 0.0000 0.0000 27.4369 0.0000
# 6 0.0000 0.0000 0.0000 0.0000 0.0000 11.2872
#
#
#
# Elastic Compliance Matrix: (Units=1/GPa)
#
#
# Indices 1 2 3 4 5 6 
#
# 1 0.043065 -0.006017 -0.003398 0.000000 0.000000 0.000000
# 2 -0.006017 0.007991 -0.003638 0.000000 0.000000 0.000000
# 3 -0.003398 -0.003638 0.014687 0.000000 0.000000 0.000000
# 4 0.000000 0.000000 0.000000 0.055861 0.000000 0.000000
# 5 0.000000 0.000000 0.000000 0.000000 0.036447 0.000000
# 6 0.000000 0.000000 0.000000 0.000000 0.000000 0.088596
#
#
# Mechanical properties :
#
#
# Convention : Reuss Voigt Hill
#
# Bulk Modulus (GPa) = 25.22851 50.49737 37.86294
# Shear Modulus (GPa) = 17.48462 24.00861 20.74662
#
# Velocity S-wave (km/s) = 3.09870 3.63107 3.37539
# Velocity P-wave (km/s) = 5.16305 6.73133 5.99866
#
# Compressibility (1/GPa) = 0.03963770
#
# Stress axis : x y z
#
# Youngs Moduli (GPa) = 23.22052 125.14509 68.08663
#
# Poissons Ratio (x) = 0.75300 0.23134
# Poissons Ratio (y) = 0.13972 0.24770
# Poissons Ratio (z) = 0.07890 0.45527
#
# Static dielectric constant tensor:
#      x y z
#    x 3.369610 0.000000 0.000000 
#    y 0.000000 4.225660 0.000000 
#    z 0.000000 0.000000 3.071520 
# 
# 
# High freq. dielectric constant tensor:
#      x y z
#    x 1.708760 0.000000 0.000000 
#    y 0.000000 1.723980 0.000000 
#    z 0.000000 0.000000 1.677680 
# 
# From -- ./inp_files/30868.got.cif
#   From: 2010.03.12/outbox.cif.g09.slc.cpg/sg53_16_cif.got.tgz:30868.got - 2010.04.16 14:36:59.
