data_PCOD8222354
_publ_section_title
;
Structure prediction by ZEFSAII (Michael W. Deem and Ramdas Pophale) SiO2 
 PCOD8222354
Probable space group: P C C A
;
_chemical_formula_sum "Si O2"
_cell_formula_units_Z 40
_cell_length_a 29.651034
_cell_length_b 11.982407
_cell_length_c 5.369942
_cell_angle_alpha 90.000000
_cell_angle_beta 90.000000
_cell_angle_gamma 90.000000
_cell_volume 1907.890760
_symmetry_space_group_name_H-M "P C C A"
_symmetry_group_IT_number 54
_symmetry_cell_setting 'orthorhombic'
loop_
_space_group_symop_operation_xyz
x,y,z
1/2-x,-y,z
1/2+x,-y,1/2-z
-x,y,1/2-z
-x,-y,-z
1/2+x,y,-z
1/2-x,y,1/2+z
x,-y,1/2+z
loop_
_atom_site_type_symbol
_atom_site_label
_atom_site_fract_x
_atom_site_fract_y
_atom_site_fract_z
Si Si1 0.411858 0.461952 0.306745
Si Si2 0.128421 0.928327 0.654200
Si Si3 0.562799 0.238837 0.061853
Si Si4 0.268779 0.124809 0.656680
Si Si5 0.500000 0.601710 0.250000
Si Si6 0.000000 0.929738 0.250000
O O1 0.386374 0.484672 0.570616
O O2 0.410601 0.328470 0.269023
O O3 0.461080 0.521975 0.373841
O O4 0.093528 0.824767 0.641673
O O5 0.177604 0.874735 0.643655
O O6 0.120774 0.992294 0.913867
O O7 0.544121 0.146850 0.252478
O O8 0.523135 0.312592 0.941281
O O9 0.251533 0.185695 0.910296
O O10 0.250000 0.000000 0.670851
O O11 0.000000 0.000000 0.500000
#
# Coordination Sequence:
#
# PCOD8222354 Si02
#       6
#     8   8   8   8   4   4
#     4  10  20  36  58  77  95 131 183 237 282 307
#     4  12  23  36  53  83 116 147 182 224 265 319
#     4  11  23  37  56  79 108 145 192 233 268 319
#     4  10  16  33  57  76 101 145 177 215 268 316
#     4  10  20  40  60  76 100 144 190 240 280 314
#     4  12  24  38  48  66 106 156 184 202 256 320
#
# _framework density 20.965561000000001
#
# number of rings (size 3 to 8) (size 9 to 14) (size 15 to 20)
#    0.000    1.200    4.000    6.000    0.000    6.400 
#    0.000    0.000    0.000    0.000    0.000    0.000 
#    0.000   19.200    0.000    0.000    0.000    0.000 
#
# Total GULP energy -495536.960183 kJ/mol
# GULP energy per Si atom -12388.424005 kJ/mol
# Density = 2.091784 g / cm^3
# Si number density = 20.965561 Si / 1000 Ang^3
#
#
#
# Elastic Constant Matrix: (Units=GPa)
#
#
# Indices 1 2 3 4 5 6 
#
# 1 43.3229 17.0229 8.3337 0.0000 0.0000 0.0000
# 2 17.0229 106.1718 50.0705 0.0000 0.0000 0.0000
# 3 8.3337 50.0705 161.7575 0.0000 0.0000 0.0000
# 4 0.0000 0.0000 0.0000 20.7505 0.0000 0.0000
# 5 0.0000 0.0000 0.0000 0.0000 19.5212 0.0000
# 6 0.0000 0.0000 0.0000 0.0000 0.0000 10.0561
#
#
#
# Elastic Compliance Matrix: (Units=1/GPa)
#
#
# Indices 1 2 3 4 5 6 
#
# 1 0.024635 -0.003924 -0.000055 0.000000 0.000000 0.000000
# 2 -0.003924 0.011654 -0.003405 0.000000 0.000000 0.000000
# 3 -0.000055 -0.003405 0.007239 0.000000 0.000000 0.000000
# 4 0.000000 0.000000 0.000000 0.048192 0.000000 0.000000
# 5 0.000000 0.000000 0.000000 0.000000 0.051226 0.000000
# 6 0.000000 0.000000 0.000000 0.000000 0.000000 0.099443
#
#
# Mechanical properties :
#
#
# Convention : Reuss Voigt Hill
#
# Bulk Modulus (GPa) = 34.77048 51.34516 43.05782
# Shear Modulus (GPa) = 18.74468 25.78721 22.26595
#
# Velocity S-wave (km/s) = 2.99334 3.51091 3.26241
# Velocity P-wave (km/s) = 5.34485 6.40146 5.89687
#
# Compressibility (1/GPa) = 0.02876003
#
# Stress axis : x y z
#
# Youngs Moduli (GPa) = 40.59288 85.80955 138.14200
#
# Poissons Ratio (x) = 0.33672 0.00753
# Poissons Ratio (y) = 0.15929 0.47039
# Poissons Ratio (z) = 0.00221 0.29219
#
# Static dielectric constant tensor:
#      x y z
#    x 3.564180 0.000000 0.000000 
#    y 0.000000 3.813160 0.000000 
#    z 0.000000 0.000000 5.422020 
# 
# 
# High freq. dielectric constant tensor:
#      x y z
#    x 1.768970 0.000000 0.000000 
#    y 0.000000 1.798810 0.000000 
#    z 0.000000 0.000000 1.851090 
# 
# From -- ./inp_files/2111.got.cif
#   From: 2010.03.12/outbox.cif.g09.slc.cpg/sg54_2_cif.got.tgz:2111.got - 2010.04.16 15:00:50.
