data_PCOD8222581
_publ_section_title
;
Structure prediction by ZEFSAII (Michael W. Deem and Ramdas Pophale) SiO2 
 PCOD8222581
Probable space group: P C C A
;
_chemical_formula_sum "Si O2"
_cell_formula_units_Z 56
_cell_length_a 17.326365
_cell_length_b 30.549482
_cell_length_c 5.208299
_cell_angle_alpha 90.000000
_cell_angle_beta 90.000000
_cell_angle_gamma 90.000000
_cell_volume 2756.812430
_symmetry_space_group_name_H-M "P C C A"
_symmetry_group_IT_number 54
_symmetry_cell_setting 'orthorhombic'
loop_
_space_group_symop_operation_xyz
x,y,z
1/2-x,-y,z
1/2+x,-y,1/2-z
-x,y,1/2-z
-x,-y,-z
1/2+x,y,-z
1/2-x,y,1/2+z
x,-y,1/2+z
loop_
_atom_site_type_symbol
_atom_site_label
_atom_site_fract_x
_atom_site_fract_y
_atom_site_fract_z
Si Si1 0.047418 0.174489 0.500037
Si Si2 0.717185 0.951650 0.038744
Si Si3 0.466187 0.451281 0.000018
Si Si4 0.198325 0.230800 0.526250
Si Si5 0.453645 0.928526 0.500150
Si Si6 0.296259 0.325067 0.938535
Si Si7 0.801309 0.579791 0.480362
O O1 0.131020 0.195961 0.497591
O O2 0.062547 0.122931 0.500271
O O3 0.000000 0.189403 0.750000
O O4 0.000000 0.189264 0.250000
O O5 0.759913 0.926676 0.803134
O O6 0.626438 0.954170 0.996083
O O7 0.750000 0.000000 0.090265
O O8 0.500000 0.426454 0.750000
O O9 0.373192 0.453173 0.000642
O O10 0.500000 0.426406 0.250000
O O11 0.500000 0.500000 0.000000
O O12 0.238954 0.224245 0.801133
O O13 0.159596 0.279668 0.504021
O O14 0.500000 0.943582 0.750000
O O15 0.500000 0.943439 0.250000
O O16 0.276833 0.324922 0.635340
O O17 0.338591 0.371000 0.002975
O O18 0.758215 0.571486 0.211804
#
# Coordination Sequence:
#
# PCOD8222581 Si02
#       7
#     8   8   8   8   8   8   8
#     4  10  21  36  53  78 112 143 176 219 260 309
#     4  10  21  38  56  81 110 134 171 227 271 306
#     4  10  21  38  53  74 109 137 162 216 276 313
#     4  10  19  33  54  80 107 141 178 215 261 310
#     4  10  21  38  58  78 106 146 181 212 263 322
#     4   8  16  30  50  76 105 132 171 220 257 299
#     4  10  19  35  58  79  99 137 184 217 252 313
#
# _framework density 20.313313999999998
#
# number of rings (size 3 to 8) (size 9 to 14) (size 15 to 20)
#    0.000    2.286    0.000    2.571    0.000    1.143 
#    0.000   18.571    0.000    0.000    0.000    0.000 
#    0.000    0.000    0.000    0.000    0.000    0.000 
#
# Total GULP energy -693955.525022 kJ/mol
# GULP energy per Si atom -12392.062947 kJ/mol
# Density = 2.026708 g / cm^3
# Si number density = 20.313314 Si / 1000 Ang^3
#
#
#
# Elastic Constant Matrix: (Units=GPa)
#
#
# Indices 1 2 3 4 5 6 
#
# 1 119.6392 34.6855 39.3516 0.0000 0.0000 0.0000
# 2 34.6855 42.2378 6.9872 0.0000 0.0000 0.0000
# 3 39.3516 6.9872 169.0786 0.0000 0.0000 0.0000
# 4 0.0000 0.0000 0.0000 16.0255 0.0000 0.0000
# 5 0.0000 0.0000 0.0000 0.0000 35.8097 0.0000
# 6 0.0000 0.0000 0.0000 0.0000 0.0000 20.7610
#
#
#
# Elastic Compliance Matrix: (Units=1/GPa)
#
#
# Indices 1 2 3 4 5 6 
#
# 1 0.011845 -0.009334 -0.002371 0.000000 0.000000 0.000000
# 2 -0.009334 0.031195 0.000883 0.000000 0.000000 0.000000
# 3 -0.002371 0.000883 0.006430 0.000000 0.000000 0.000000
# 4 0.000000 0.000000 0.000000 0.062401 0.000000 0.000000
# 5 0.000000 0.000000 0.000000 0.000000 0.027925 0.000000
# 6 0.000000 0.000000 0.000000 0.000000 0.000000 0.048167
#
#
# Mechanical properties :
#
#
# Convention : Reuss Voigt Hill
#
# Bulk Modulus (GPa) = 35.93896 54.77823 45.35860
# Shear Modulus (GPa) = 22.84342 31.18133 27.01238
#
# Velocity S-wave (km/s) = 3.35708 3.92218 3.65058
# Velocity P-wave (km/s) = 5.72340 6.89468 6.33616
#
# Compressibility (1/GPa) = 0.02782495
#
# Stress axis : x y z
#
# Youngs Moduli (GPa) = 84.42696 32.05663 155.52758
#
# Poissons Ratio (x) = 0.29923 0.36875
# Poissons Ratio (y) = 0.78808 -0.13739
# Poissons Ratio (z) = 0.20017 -0.02832
#
# Static dielectric constant tensor:
#      x y z
#    x 3.375330 0.000000 0.000000 
#    y 0.000000 3.632430 0.000000 
#    z 0.000000 0.000000 -59.186990 
# 
# 
# High freq. dielectric constant tensor:
#      x y z
#    x 1.765410 0.000000 0.000000 
#    y 0.000000 1.773130 0.000000 
#    z 0.000000 0.000000 1.832250 
# 
# From -- ./inp_files/744.got.cif
#   From: 2010.03.12/outbox.cif.g09.slc.cpg/sg54_1_cif.got.tgz:744.got - 2010.04.16 15:00:50.
