data_PCOD8222980
_publ_section_title
;
Structure prediction by ZEFSAII (Michael W. Deem and Ramdas Pophale) SiO2 
 PCOD8222980
Probable space group: P C C A
;
_chemical_formula_sum "Si O2"
_cell_formula_units_Z 52
_cell_length_a 8.177292
_cell_length_b 20.227524
_cell_length_c 15.492631
_cell_angle_alpha 90.000000
_cell_angle_beta 90.000000
_cell_angle_gamma 90.000000
_cell_volume 2562.579858
_symmetry_space_group_name_H-M "P C C A"
_symmetry_group_IT_number 54
_symmetry_cell_setting 'orthorhombic'
loop_
_space_group_symop_operation_xyz
x,y,z
1/2-x,-y,z
1/2+x,-y,1/2-z
-x,y,1/2-z
-x,-y,-z
1/2+x,y,-z
1/2-x,y,1/2+z
x,-y,1/2+z
loop_
_atom_site_type_symbol
_atom_site_label
_atom_site_fract_x
_atom_site_fract_y
_atom_site_fract_z
Si Si1 0.345231 0.871508 0.604649
Si Si2 0.976579 0.351300 0.459560
Si Si3 0.781709 0.423016 0.602038
Si Si4 0.313768 0.925773 0.945888
Si Si5 0.000000 0.638825 0.250000
Si Si6 0.172595 0.717746 0.107512
Si Si7 0.687277 0.073883 0.728486
O O1 0.495669 0.919008 0.578125
O O2 0.206357 0.884500 0.533424
O O3 0.375021 0.794144 0.609398
O O4 0.291788 0.889829 0.700161
O O5 0.870741 0.406044 0.511344
O O6 0.862950 0.301046 0.405079
O O7 0.105938 0.385914 0.394908
O O8 0.070636 0.307870 0.527847
O O9 0.750000 0.500000 0.604189
O O10 0.891961 0.405474 0.685097
O O11 0.214808 0.892969 0.865603
O O12 0.250000 0.000000 0.962376
O O13 0.121821 0.685227 0.197326
O O14 0.500000 0.077644 0.750000
O O15 0.750000 0.000000 0.719809
#
# Coordination Sequence:
#
# PCOD8222980 Si02
#       7
#     8   8   8   8   4   8   8
#     4  12  23  40  65  88 122 166 210 249 320 384
#     4   9  20  40  61  88 123 161 207 258 304 361
#     4  10  20  38  65  92 122 163 209 258 312 373
#     4  11  23  39  62  92 121 157 206 270 321 370
#     4  10  24  38  54  90 130 158 200 254 312 356
#     4  10  22  40  59  86 122 166 203 249 305 374
#     4  11  23  41  60  89 122 153 202 260 319 368
#
# _framework density 20.292051000000001
#
# number of rings (size 3 to 8) (size 9 to 14) (size 15 to 20)
#    0.000    1.538    0.000    5.538    2.154    1.846 
#    2.769    1.538    0.000    0.000    0.000    0.000 
#    0.000    0.000    0.000    0.000    0.000    0.000 
#
# Total GULP energy -644693.970949 kJ/mol
# GULP energy per Si atom -12397.960980 kJ/mol
# Density = 2.024587 g / cm^3
# Si number density = 20.292051 Si / 1000 Ang^3
#
#
#
# Elastic Constant Matrix: (Units=GPa)
#
#
# Indices 1 2 3 4 5 6 
#
# 1 101.4020 27.0465 12.7753 0.0000 0.0000 0.0000
# 2 27.0465 111.1276 26.1968 0.0000 0.0000 0.0000
# 3 12.7753 26.1968 94.5033 0.0000 0.0000 0.0000
# 4 0.0000 0.0000 0.0000 4.8665 0.0000 0.0000
# 5 0.0000 0.0000 0.0000 0.0000 30.3155 0.0000
# 6 0.0000 0.0000 0.0000 0.0000 0.0000 20.5699
#
#
#
# Elastic Compliance Matrix: (Units=1/GPa)
#
#
# Indices 1 2 3 4 5 6 
#
# 1 0.010598 -0.002398 -0.000768 0.000000 0.000000 0.000000
# 2 -0.002398 0.010171 -0.002495 0.000000 0.000000 0.000000
# 3 -0.000768 -0.002495 0.011377 0.000000 0.000000 0.000000
# 4 0.000000 0.000000 0.000000 0.205486 0.000000 0.000000
# 5 0.000000 0.000000 0.000000 0.000000 0.032986 0.000000
# 6 0.000000 0.000000 0.000000 0.000000 0.000000 0.048615
#
#
# Mechanical properties :
#
#
# Convention : Reuss Voigt Hill
#
# Bulk Modulus (GPa) = 48.02348 48.78555 48.40451
# Shear Modulus (GPa) = 14.81495 27.21799 21.01647
#
# Velocity S-wave (km/s) = 2.70494 3.66637 3.22172
# Velocity P-wave (km/s) = 5.78560 6.48204 6.14370
#
# Compressibility (1/GPa) = 0.02082315
#
# Stress axis : x y z
#
# Youngs Moduli (GPa) = 94.35567 98.32278 87.89588
#
# Poissons Ratio (x) = 0.23582 0.06749
# Poissons Ratio (y) = 0.22630 0.21931
# Poissons Ratio (z) = 0.07245 0.24533
#
# Static dielectric constant tensor:
#      x y z
#    x 4.109410 0.000000 0.000000 
#    y 0.000000 3.545540 0.000000 
#    z 0.000000 0.000000 4.176320 
# 
# 
# High freq. dielectric constant tensor:
#      x y z
#    x 1.805620 0.000000 0.000000 
#    y 0.000000 1.780860 0.000000 
#    z 0.000000 0.000000 1.805660 
# 
# From -- ./inp_files/11832.got.cif
#   From: 2010.03.12/outbox.cif.g09.slc.cpg/sg54_6_cif.got.tgz:11832.got - 2010.04.16 15:00:50.
