data_PCOD8222152
_publ_section_title
;
Structure prediction by ZEFSAII (Michael W. Deem and Ramdas Pophale) SiO2 
 PCOD8222152
Probable space group: P M N A
;
_chemical_formula_sum "Si O2"
_cell_formula_units_Z 40
_cell_length_a 14.676572
_cell_length_b 7.592895
_cell_length_c 17.437159
_cell_angle_alpha 90.000000
_cell_angle_beta 90.000000
_cell_angle_gamma 90.000000
_cell_volume 1943.156373
_symmetry_space_group_name_H-M "P M N A"
_symmetry_group_IT_number 53
_symmetry_cell_setting 'orthorhombic'
loop_
_space_group_symop_operation_xyz
x,y,z
1/2-x,-y,1/2+z
x,-y,-z
1/2-x,y,1/2-z
-x,-y,-z
1/2+x,y,1/2-z
-x,y,z
1/2+x,-y,1/2+z
loop_
_atom_site_type_symbol
_atom_site_label
_atom_site_fract_x
_atom_site_fract_y
_atom_site_fract_z
Si Si1 0.900016 0.306310 0.820148
Si Si2 0.145295 0.966809 0.736841
Si Si3 0.731704 0.565270 0.083221
Si Si4 0.604734 0.106416 0.927561
Si Si5 0.896922 0.404101 0.304119
O O1 0.903293 0.100885 0.795288
O O2 0.822942 0.353120 0.880983
O O3 0.882059 0.418454 0.743856
O O4 0.000000 0.351208 0.854835
O O5 0.250000 0.003250 0.750000
O O6 0.116642 0.993522 0.648975
O O7 0.118212 0.763554 0.752572
O O8 0.655316 0.711309 0.078723
O O9 0.682695 0.407139 0.131033
O O10 0.761023 0.500000 0.000000
O O11 0.500000 0.152401 0.941798
O O12 0.644681 0.000000 0.000000
O O13 0.000000 0.398401 0.338398
#
# Coordination Sequence:
#
# PCOD8222152 Si02
#       5
#     8   8   8   8   8
#     4  11  23  43  66  91 126 169 222 270 312 374
#     4  12  21  39  67  93 129 170 215 262 315 383
#     4  12  24  41  62  92 134 174 211 266 325 384
#     4  11  23  39  61  95 133 168 208 261 327 388
#     4  11  23  39  65 100 128 162 214 265 322 385
#
# _framework density 20.585065
#
# number of rings (size 3 to 8) (size 9 to 14) (size 15 to 20)
#    0.000    0.600    4.000    5.400    0.000    3.600 
#    0.000    0.000    0.000    0.600    0.000    0.000 
#    0.000    0.000    0.000    0.000    0.000    0.000 
#
# Total GULP energy -496018.172859 kJ/mol
# GULP energy per Si atom -12400.454321 kJ/mol
# Density = 2.053821 g / cm^3
# Si number density = 20.585065 Si / 1000 Ang^3
#
#
#
# Elastic Constant Matrix: (Units=GPa)
#
#
# Indices 1 2 3 4 5 6 
#
# 1 122.0273 35.9548 54.5764 0.0000 0.0000 0.0000
# 2 35.9548 108.3177 28.8617 0.0000 0.0000 0.0000
# 3 54.5764 28.8617 89.2228 0.0000 0.0000 0.0000
# 4 0.0000 0.0000 0.0000 -13.2994 0.0000 0.0000
# 5 0.0000 0.0000 0.0000 0.0000 20.0070 0.0000
# 6 0.0000 0.0000 0.0000 0.0000 0.0000 30.7522
#
#
#
# Elastic Compliance Matrix: (Units=1/GPa)
#
#
# Indices 1 2 3 4 5 6 
#
# 1 0.011729 -0.002169 -0.006473 0.000000 0.000000 0.000000
# 2 -0.002169 0.010504 -0.002071 0.000000 0.000000 0.000000
# 3 -0.006473 -0.002071 0.015837 0.000000 0.000000 0.000000
# 4 0.000000 0.000000 0.000000 -0.075192 0.000000 0.000000
# 5 0.000000 0.000000 0.000000 0.000000 0.049982 0.000000
# 6 0.000000 0.000000 0.000000 0.000000 0.000000 0.032518
#
#
# Mechanical properties :
#
#
# Convention : Reuss Voigt Hill
#
# Bulk Modulus (GPa) = 60.07990 62.03929 61.05960
# Shear Modulus (GPa) = 69.10617 20.83695 44.97156
#
# Velocity S-wave (km/s) = 5.80034 3.18502 4.67912
# Velocity P-wave (km/s) = 8.60860 6.61281 7.67585
#
# Compressibility (1/GPa) = 0.01664450
#
# Stress axis : x y z
#
# Youngs Moduli (GPa) = 85.26012 95.20334 63.14212
#
# Poissons Ratio (x) = 0.20645 0.40871
# Poissons Ratio (y) = 0.18489 0.13079
# Poissons Ratio (z) = 0.55188 0.19720
#
# Static dielectric constant tensor:
#      x y z
#    x 3.865680 0.000000 0.000000 
#    y 0.000000 3.928610 0.000000 
#    z 0.000000 0.000000 3.767970 
# 
# 
# High freq. dielectric constant tensor:
#      x y z
#    x 1.818640 0.000000 0.000000 
#    y 0.000000 1.819250 0.000000 
#    z 0.000000 0.000000 1.776390 
# 
# From -- ./inp_files/22380.got.cif
#   From: 2010.03.12/outbox.cif.g09.slc.cpg/sg53_12_cif.got.tgz:22380.got - 2010.04.16 14:36:59.
