data_PCOD8222282
_publ_section_title
;
Structure prediction by ZEFSAII (Michael W. Deem and Ramdas Pophale) SiO2 
 PCOD8222282
Probable space group: P C C A
;
_chemical_formula_sum "Si O2"
_cell_formula_units_Z 64
_cell_length_a 27.081432
_cell_length_b 26.884771
_cell_length_c 5.252349
_cell_angle_alpha 90.000000
_cell_angle_beta 90.000000
_cell_angle_gamma 90.000000
_cell_volume 3824.120268
_symmetry_space_group_name_H-M "P C C A"
_symmetry_group_IT_number 54
_symmetry_cell_setting 'orthorhombic'
loop_
_space_group_symop_operation_xyz
x,y,z
1/2-x,-y,z
1/2+x,-y,1/2-z
-x,y,1/2-z
-x,-y,-z
1/2+x,y,-z
1/2-x,y,1/2+z
x,-y,1/2+z
loop_
_atom_site_type_symbol
_atom_site_label
_atom_site_fract_x
_atom_site_fract_y
_atom_site_fract_z
Si Si1 0.056531 0.021027 0.995301
Si Si2 0.772103 0.706600 0.127230
Si Si3 0.118400 0.684522 0.404391
Si Si4 0.269739 0.595317 0.418690
Si Si5 0.879852 0.621690 0.589931
Si Si6 0.058397 0.528184 0.768638
Si Si7 0.532671 0.761887 0.498137
Si Si8 0.468739 0.871515 0.002602
O O1 0.065656 0.080399 0.971805
O O2 0.083589 0.997388 0.750699
O O3 0.000000 0.000000 0.000000
O O4 0.745904 0.733354 0.368342
O O5 0.830652 0.711613 0.168089
O O6 0.754872 0.649359 0.123188
O O7 0.128596 0.655068 0.662997
O O8 0.076970 0.724111 0.470019
O O9 0.101668 0.651160 0.161900
O O10 0.242932 0.566966 0.654198
O O11 0.327869 0.596077 0.475037
O O12 0.921137 0.582165 0.665855
O O13 0.076846 0.508848 0.493431
O O14 0.000000 0.532873 0.750000
O O15 0.500000 0.747911 0.250000
O O16 0.556487 0.817286 0.460920
O O17 0.500000 0.758904 0.750000
O O18 0.500000 0.867302 0.750000
O O19 0.500000 0.884509 0.250000
#
# Coordination Sequence:
#
# PCOD8222282 Si02
#       8
#     8   8   8   8   8   8   8   8
#     4  10  14  20  36  61  74  95 155 223 223 269
#     4  10  16  30  49  75  99 123 148 197 235 279
#     4  12  21  33  53  79  98 127 168 193 233 283
#     4  10  16  30  49  80 101 122 142 186 239 283
#     4  12  21  33  61  81  95 124 158 202 231 278
#     4  10  23  43  59  75  99 126 158 192 238 279
#     4  10  23  36  44  61 101 142 164 199 232 290
#     4  10  16  27  40  53  82 122 155 194 252 266
#
# _framework density 16.735876000000001
#
# number of rings (size 3 to 8) (size 9 to 14) (size 15 to 20)
#    0.000    1.500    7.500    1.500    0.000    1.500 
#    0.000    0.000    0.000    2.250    0.000    0.000 
#    0.000    0.000    0.000    0.000    0.000    3.750 
#
# Total GULP energy -792915.700855 kJ/mol
# GULP energy per Si atom -12389.307826 kJ/mol
# Density = 1.669778 g / cm^3
# Si number density = 16.735876 Si / 1000 Ang^3
#
#
#
# Elastic Constant Matrix: (Units=GPa)
#
#
# Indices 1 2 3 4 5 6 
#
# 1 52.0202 35.4432 28.9552 0.0000 0.0000 0.0000
# 2 35.4432 63.9285 30.0128 0.0000 0.0000 0.0000
# 3 28.9552 30.0128 152.9924 0.0000 0.0000 0.0000
# 4 0.0000 0.0000 0.0000 19.0363 0.0000 0.0000
# 5 0.0000 0.0000 0.0000 0.0000 20.1744 0.0000
# 6 0.0000 0.0000 0.0000 0.0000 0.0000 -0.7204
#
#
#
# Elastic Compliance Matrix: (Units=1/GPa)
#
#
# Indices 1 2 3 4 5 6 
#
# 1 0.031972 -0.016395 -0.002835 0.000000 0.000000 0.000000
# 2 -0.016395 0.025636 -0.001926 0.000000 0.000000 0.000000
# 3 -0.002835 -0.001926 0.007451 0.000000 0.000000 0.000000
# 4 0.000000 0.000000 0.000000 0.052531 0.000000 0.000000
# 5 0.000000 0.000000 0.000000 0.000000 0.049568 0.000000
# 6 0.000000 0.000000 0.000000 0.000000 0.000000 -1.388052
#
#
# Mechanical properties :
#
#
# Convention : Reuss Voigt Hill
#
# Bulk Modulus (GPa) = 43.96185 50.86261 47.41223
# Shear Modulus (GPa) = -4.26985 19.33337 7.53176
#
# Velocity S-wave (km/s) = -1.59902 3.40252 2.12371
# Velocity P-wave (km/s) = 4.78706 6.77448 5.86555
#
# Compressibility (1/GPa) = 0.02274699
#
# Stress axis : x y z
#
# Youngs Moduli (GPa) = 31.27783 39.00696 134.21661
#
# Poissons Ratio (x) = 0.63951 0.38046
# Poissons Ratio (y) = 0.51280 0.25854
# Poissons Ratio (z) = 0.08866 0.07514
#
# Static dielectric constant tensor:
#      x y z
#    x 2.885790 0.000000 0.000000 
#    y 0.000000 3.063230 0.000000 
#    z 0.000000 0.000000 4.906240 
# 
# 
# High freq. dielectric constant tensor:
#      x y z
#    x 1.596400 0.000000 0.000000 
#    y 0.000000 1.607940 0.000000 
#    z 0.000000 0.000000 1.690740 
# 
# From -- ./inp_files/1733.got.cif
#   From: 2010.03.12/outbox.cif.g09.slc.cpg/sg54_1_cif.got.tgz:1733.got - 2010.04.16 15:00:50.
