data_PCOD8222112
_publ_section_title
;
Structure prediction by ZEFSAII (Michael W. Deem and Ramdas Pophale) SiO2 
 PCOD8222112
Probable space group: P M N A
;
_chemical_formula_sum "Si O2"
_cell_formula_units_Z 64
_cell_length_a 8.676708
_cell_length_b 25.540591
_cell_length_c 14.363177
_cell_angle_alpha 90.000000
_cell_angle_beta 90.000000
_cell_angle_gamma 90.000000
_cell_volume 3182.998523
_symmetry_space_group_name_H-M "P M N A"
_symmetry_group_IT_number 53
_symmetry_cell_setting 'orthorhombic'
loop_
_space_group_symop_operation_xyz
x,y,z
1/2-x,-y,1/2+z
x,-y,-z
1/2-x,y,1/2-z
-x,-y,-z
1/2+x,y,1/2-z
-x,y,z
1/2+x,-y,1/2+z
loop_
_atom_site_type_symbol
_atom_site_label
_atom_site_fract_x
_atom_site_fract_y
_atom_site_fract_z
Si Si1 0.317760 0.364459 0.646615
Si Si2 0.183376 0.318606 0.472455
Si Si3 0.319307 0.470324 0.851261
Si Si4 0.182430 0.026652 0.154433
Si Si5 0.179451 0.415257 0.351369
Si Si6 0.316378 0.224972 0.352883
Si Si7 0.817317 0.876462 0.959749
Si Si8 0.818078 0.908747 0.154502
O O1 0.250000 0.356734 0.750000
O O2 0.500000 0.359672 0.651319
O O3 0.249175 0.320338 0.577795
O O4 0.267480 0.420974 0.602746
O O5 0.242415 0.370890 0.420081
O O6 0.256313 0.270143 0.419493
O O7 0.000000 0.313592 0.474852
O O8 0.250000 0.477300 0.750000
O O9 0.500000 0.456663 0.847642
O O10 0.289527 0.527239 0.898882
O O11 0.250000 0.048586 0.250000
O O12 0.241848 0.067160 0.076546
O O13 0.000000 0.026602 0.159064
O O14 0.243485 0.967866 0.135702
O O15 0.250000 0.408314 0.250000
O O16 0.000000 0.407621 0.336208
O O17 0.250000 0.231910 0.250000
O O18 0.500000 0.226604 0.347827
O O19 0.251990 0.171014 0.397866
O O20 0.000000 0.874610 0.954218
O O21 0.764200 0.872503 0.067897
O O22 0.750000 0.885451 0.250000
O O23 0.000000 0.909211 0.163933
#
# Coordination Sequence:
#
# PCOD8222112 Si02
#       8
#     8   8   8   8   8   8   8   8
#     4  11  22  38  59  84 112 144 180 222 271 325
#     4  11  23  40  59  81 108 143 186 231 278 327
#     4   9  16  30  51  78 110 144 178 216 265 321
#     4   9  16  28  49  77 108 143 181 221 268 322
#     4   9  19  33  53  79 110 145 181 222 270 325
#     4  11  23  40  60  83 110 141 179 226 278 329
#     4   9  18  33  54  77 105 144 186 224 267 324
#     4   9  17  31  51  77 109 144 181 221 266 319
#
# _framework density 20.106826000000002
#
# number of rings (size 3 to 8) (size 9 to 14) (size 15 to 20)
#    0.000    2.250    0.000    4.125    0.000    4.500 
#    0.000    5.625    0.000    4.500    0.000    0.000 
#    0.000    0.000    0.000    0.000    0.000    0.000 
#
# Total GULP energy -793203.409070 kJ/mol
# GULP energy per Si atom -12393.803267 kJ/mol
# Density = 2.006106 g / cm^3
# Si number density = 20.106826 Si / 1000 Ang^3
#
#
#
# Elastic Constant Matrix: (Units=GPa)
#
#
# Indices 1 2 3 4 5 6 
#
# 1 66.4125 27.6958 29.7709 0.0000 0.0000 0.0000
# 2 27.6958 81.1446 52.4581 0.0000 0.0000 0.0000
# 3 29.7709 52.4581 119.4007 0.0000 0.0000 0.0000
# 4 0.0000 0.0000 0.0000 36.2703 0.0000 0.0000
# 5 0.0000 0.0000 0.0000 0.0000 29.3347 0.0000
# 6 0.0000 0.0000 0.0000 0.0000 0.0000 25.6140
#
#
#
# Elastic Compliance Matrix: (Units=1/GPa)
#
#
# Indices 1 2 3 4 5 6 
#
# 1 0.018079 -0.004548 -0.002509 0.000000 0.000000 0.000000
# 2 -0.004548 0.018357 -0.006931 0.000000 0.000000 0.000000
# 3 -0.002509 -0.006931 0.012046 0.000000 0.000000 0.000000
# 4 0.000000 0.000000 0.000000 0.027571 0.000000 0.000000
# 5 0.000000 0.000000 0.000000 0.000000 0.034089 0.000000
# 6 0.000000 0.000000 0.000000 0.000000 0.000000 0.039041
#
#
# Mechanical properties :
#
#
# Convention : Reuss Voigt Hill
#
# Bulk Modulus (GPa) = 48.77007 54.08971 51.42989
# Shear Modulus (GPa) = 27.17463 28.71268 27.94365
#
# Velocity S-wave (km/s) = 3.68028 3.78300 3.73199
# Velocity P-wave (km/s) = 6.50903 6.78535 6.64862
#
# Compressibility (1/GPa) = 0.02050438
#
# Stress axis : x y z
#
# Youngs Moduli (GPa) = 55.31244 54.47597 83.01573
#
# Poissons Ratio (x) = 0.24777 0.20833
# Poissons Ratio (y) = 0.25158 0.57537
# Poissons Ratio (z) = 0.13881 0.37757
#
# Static dielectric constant tensor:
#      x y z
#    x 3.505000 0.000000 0.000000 
#    y 0.000000 3.926790 0.000000 
#    z 0.000000 0.000000 3.712720 
# 
# 
# High freq. dielectric constant tensor:
#      x y z
#    x 1.769800 0.000000 0.000000 
#    y 0.000000 1.775210 0.000000 
#    z 0.000000 0.000000 1.790560 
# 
# From -- ./inp_files/21025.got.cif
#   From: 2010.03.12/outbox.cif.g09.slc.cpg/sg53_11_cif.got.tgz:21025.got - 2010.04.16 14:36:59.
