data_PCOD8222285
_publ_section_title
;
Structure prediction by ZEFSAII (Michael W. Deem and Ramdas Pophale) SiO2 
 PCOD8222285
Probable space group: P C C A
;
_chemical_formula_sum "Si O2"
_cell_formula_units_Z 56
_cell_length_a 5.249201
_cell_length_b 32.868871
_cell_length_c 17.455020
_cell_angle_alpha 90.000000
_cell_angle_beta 90.000000
_cell_angle_gamma 90.000000
_cell_volume 3011.607296
_symmetry_space_group_name_H-M "P C C A"
_symmetry_group_IT_number 54
_symmetry_cell_setting 'orthorhombic'
loop_
_space_group_symop_operation_xyz
x,y,z
1/2-x,-y,z
1/2+x,-y,1/2-z
-x,y,1/2-z
-x,-y,-z
1/2+x,y,-z
1/2-x,y,1/2+z
x,-y,1/2+z
loop_
_atom_site_type_symbol
_atom_site_label
_atom_site_fract_x
_atom_site_fract_y
_atom_site_fract_z
Si Si1 0.750915 0.164750 0.079082
Si Si2 0.749765 0.308573 0.702580
Si Si3 0.749505 0.452469 0.547106
Si Si4 0.749063 0.869606 0.909273
Si Si5 0.709403 0.043674 0.451044
Si Si6 0.249779 0.403330 0.297460
Si Si7 0.746006 0.259795 0.546761
O O1 0.500263 0.151912 0.127320
O O2 0.753315 0.212073 0.062150
O O3 0.000112 0.151247 0.127505
O O4 0.752270 0.139310 0.000332
O O5 0.500000 0.296335 0.750000
O O6 0.748282 0.355949 0.681356
O O7 0.751160 0.283364 0.625552
O O8 0.000000 0.296671 0.750000
O O9 0.750000 0.500000 0.566609
O O10 0.498679 0.439880 0.500401
O O11 0.750850 0.428356 0.625337
O O12 0.748513 0.918180 0.893878
O O13 0.421554 0.046321 0.482276
O O14 0.750000 0.000000 0.408355
O O15 0.500000 0.415282 0.250000
O O16 0.000000 0.415608 0.250000
O O17 0.493163 0.272683 0.501393
#
# Coordination Sequence:
#
# PCOD8222285 Si02
#       7
#     8   8   8   8   8   8   8
#     4  10  16  25  39  60  85 110 145 200 242 282
#     4  10  23  41  55  75 110 145 172 215 278 319
#     4  10  21  36  56  85 119 146 174 221 275 315
#     4  10  14  25  36  51  87 114 143 194 247 279
#     4  10  16  20  29  45  67 109 156 178 210 287
#     4  10  21  38  59  79 105 145 188 219 254 318
#     4  12  21  33  54  81  99 125 178 225 248 308
#
# _framework density 18.594721
#
# number of rings (size 3 to 8) (size 9 to 14) (size 15 to 20)
#    0.000    1.714    5.714    1.714    0.000    1.714 
#    0.000    0.000    0.000    0.000    0.000    0.000 
#    0.000    0.000    0.000    0.000    0.000   24.286 
#
# Total GULP energy -694178.492589 kJ/mol
# GULP energy per Si atom -12396.044511 kJ/mol
# Density = 1.855240 g / cm^3
# Si number density = 18.594721 Si / 1000 Ang^3
#
#
#
# Elastic Constant Matrix: (Units=GPa)
#
#
# Indices 1 2 3 4 5 6 
#
# 1 194.7808 46.0283 55.7844 0.0000 0.0000 0.0000
# 2 46.0283 78.8188 66.4224 0.0000 0.0000 0.0000
# 3 55.7844 66.4224 91.7443 0.0000 0.0000 0.0000
# 4 0.0000 0.0000 0.0000 -0.0536 0.0000 0.0000
# 5 0.0000 0.0000 0.0000 0.0000 17.8061 0.0000
# 6 0.0000 0.0000 0.0000 0.0000 0.0000 8.3373
#
#
#
# Elastic Compliance Matrix: (Units=1/GPa)
#
#
# Indices 1 2 3 4 5 6 
#
# 1 0.006257 -0.001148 -0.002973 0.000000 0.000000 0.000000
# 2 -0.001148 0.032753 -0.023015 0.000000 0.000000 0.000000
# 3 -0.002973 -0.023015 0.029370 0.000000 0.000000 0.000000
# 4 0.000000 0.000000 0.000000-18.648946 0.000000 0.000000
# 5 0.000000 0.000000 0.000000 0.000000 0.056161 0.000000
# 6 0.000000 0.000000 0.000000 0.000000 0.000000 0.119942
#
#
# Mechanical properties :
#
#
# Convention : Reuss Voigt Hill
#
# Bulk Modulus (GPa) = 70.88332 77.97934 74.43133
# Shear Modulus (GPa) = -0.27255 18.35855 9.04300
#
# Velocity S-wave (km/s) = -0.38326 3.14554 2.20766
# Velocity P-wave (km/s) = 6.16498 7.43101 6.82740
#
# Compressibility (1/GPa) = 0.01410769
#
# Stress axis : x y z
#
# Youngs Moduli (GPa) = 159.82614 30.53159 34.04835
#
# Poissons Ratio (x) = 0.03507 0.10122
# Poissons Ratio (y) = 0.18356 0.78361
# Poissons Ratio (z) = 0.47515 0.70267
#
# Static dielectric constant tensor:
#      x y z
#    x 5.745340 0.000000 0.000000 
#    y 0.000000 3.650350 0.000000 
#    z 0.000000 0.000000 2.827580 
# 
# 
# High freq. dielectric constant tensor:
#      x y z
#    x 1.761160 0.000000 0.000000 
#    y 0.000000 1.732480 0.000000 
#    z 0.000000 0.000000 1.653190 
# 
# From -- ./inp_files/10984.got.cif
#   From: 2010.03.12/outbox.cif.g09.slc.cpg/sg54_6_cif.got.tgz:10984.got - 2010.04.16 15:00:50.
