data_PCOD8222747
_publ_section_title
;
Structure prediction by ZEFSAII (Michael W. Deem and Ramdas Pophale) SiO2 
 PCOD8222747
Probable space group: P C C A
;
_chemical_formula_sum "Si O2"
_cell_formula_units_Z 48
_cell_length_a 22.089789
_cell_length_b 6.155065
_cell_length_c 17.608525
_cell_angle_alpha 90.000000
_cell_angle_beta 90.000000
_cell_angle_gamma 90.000000
_cell_volume 2394.127027
_symmetry_space_group_name_H-M "P C C A"
_symmetry_group_IT_number 54
_symmetry_cell_setting 'orthorhombic'
loop_
_space_group_symop_operation_xyz
x,y,z
1/2-x,-y,z
1/2+x,-y,1/2-z
-x,y,1/2-z
-x,-y,-z
1/2+x,y,-z
1/2-x,y,1/2+z
x,-y,1/2+z
loop_
_atom_site_type_symbol
_atom_site_label
_atom_site_fract_x
_atom_site_fract_y
_atom_site_fract_z
Si Si1 0.820356 0.956957 0.011316
Si Si2 0.518588 0.089659 0.409059
Si Si3 0.397172 0.289021 0.375867
Si Si4 0.408900 0.334362 0.978931
Si Si5 0.434082 0.597340 0.718622
Si Si6 0.101513 0.290156 0.099089
O O1 0.849345 0.189101 0.029941
O O2 0.750000 0.000000 0.006668
O O3 0.836387 0.787667 0.080265
O O4 0.843579 0.867448 0.928753
O O5 0.446858 0.105927 0.397219
O O6 0.534571 0.184530 0.493587
O O7 0.555750 0.219469 0.344753
O O8 0.538499 0.840346 0.404452
O O9 0.420397 0.529707 0.401722
O O10 0.391340 0.302187 0.284881
O O11 0.398387 0.512219 0.042369
O O12 0.500000 0.523756 0.750000
O O13 0.396246 0.392815 0.683893
#
# Coordination Sequence:
#
# PCOD8222747 Si02
#       6
#     8   8   8   8   8   8
#     4  10  22  38  57  79 108 149 198 246 283 321
#     4   9  18  33  52  82 113 142 177 220 283 353
#     4  10  20  32  54  83 114 145 178 228 288 343
#     4   9  19  34  55  79 106 138 183 231 279 334
#     4   9  19  33  52  81 113 144 178 222 288 355
#     4   9  19  35  57  80 109 146 184 227 279 345
#
# _framework density 20.049060000000001
#
# number of rings (size 3 to 8) (size 9 to 14) (size 15 to 20)
#    0.000    2.667    0.000    0.500    0.000   17.333 
#    0.000    0.000    0.000   24.000    0.000    0.000 
#    0.000    0.000    0.000    0.000    0.000    0.000 
#
# Total GULP energy -594775.627021 kJ/mol
# GULP energy per Si atom -12391.158896 kJ/mol
# Density = 2.000343 g / cm^3
# Si number density = 20.049060 Si / 1000 Ang^3
#
#
#
# Elastic Constant Matrix: (Units=GPa)
#
#
# Indices 1 2 3 4 5 6 
#
# 1 92.8626 25.6262 32.0888 0.0000 0.0000 0.0000
# 2 25.6262 78.4356 32.3767 0.0000 0.0000 0.0000
# 3 32.0888 32.3767 112.7384 0.0000 0.0000 0.0000
# 4 0.0000 0.0000 0.0000 30.0956 0.0000 0.0000
# 5 0.0000 0.0000 0.0000 0.0000 18.7931 0.0000
# 6 0.0000 0.0000 0.0000 0.0000 0.0000 21.8092
#
#
#
# Elastic Compliance Matrix: (Units=1/GPa)
#
#
# Indices 1 2 3 4 5 6 
#
# 1 0.012526 -0.002973 -0.002711 0.000000 0.000000 0.000000
# 2 -0.002973 0.015170 -0.003510 0.000000 0.000000 0.000000
# 3 -0.002711 -0.003510 0.010650 0.000000 0.000000 0.000000
# 4 0.000000 0.000000 0.000000 0.033227 0.000000 0.000000
# 5 0.000000 0.000000 0.000000 0.000000 0.053211 0.000000
# 6 0.000000 0.000000 0.000000 0.000000 0.000000 0.045852
#
#
# Mechanical properties :
#
#
# Convention : Reuss Voigt Hill
#
# Bulk Modulus (GPa) = 50.11057 51.57999 50.84528
# Shear Modulus (GPa) = 25.55220 27.06925 26.31072
#
# Velocity S-wave (km/s) = 3.57386 3.67843 3.62652
# Velocity P-wave (km/s) = 6.48677 6.61996 6.55370
#
# Compressibility (1/GPa) = 0.01995587
#
# Stress axis : x y z
#
# Youngs Moduli (GPa) = 79.83382 65.92107 93.89737
#
# Poissons Ratio (x) = 0.19600 0.25460
# Poissons Ratio (y) = 0.23736 0.32960
# Poissons Ratio (z) = 0.21646 0.23140
#
# Static dielectric constant tensor:
#      x y z
#    x 3.169130 0.000000 0.000000 
#    y 0.000000 4.147800 0.000000 
#    z 0.000000 0.000000 4.069450 
# 
# 
# High freq. dielectric constant tensor:
#      x y z
#    x 1.727870 0.000000 0.000000 
#    y 0.000000 1.802430 0.000000 
#    z 0.000000 0.000000 1.785340 
# 
# From -- ./inp_files/19040.got.cif
#   From: 2010.03.12/outbox.cif.g09.slc.cpg/sg54_10_cif.got.tgz:19040.got - 2010.04.16 15:00:50.
