data_PCOD8222870
_publ_section_title
;
Structure prediction by ZEFSAII (Michael W. Deem and Ramdas Pophale) SiO2 
 PCOD8222870
Probable space group: P C C A
;
_chemical_formula_sum "Si O2"
_cell_formula_units_Z 40
_cell_length_a 5.374693
_cell_length_b 18.875742
_cell_length_c 16.848366
_cell_angle_alpha 90.000000
_cell_angle_beta 90.000000
_cell_angle_gamma 90.000000
_cell_volume 1709.288944
_symmetry_space_group_name_H-M "P C C A"
_symmetry_group_IT_number 54
_symmetry_cell_setting 'orthorhombic'
loop_
_space_group_symop_operation_xyz
x,y,z
1/2-x,-y,z
1/2+x,-y,1/2-z
-x,y,1/2-z
-x,-y,-z
1/2+x,y,-z
1/2-x,y,1/2+z
x,-y,1/2+z
loop_
_atom_site_type_symbol
_atom_site_label
_atom_site_fract_x
_atom_site_fract_y
_atom_site_fract_z
Si Si1 0.720964 0.214351 0.408373
Si Si2 0.222677 0.156384 0.410417
Si Si3 0.750000 0.000000 0.549553
Si Si4 0.559650 0.644639 0.840323
Si Si5 0.732734 0.418261 0.545858
Si Si6 0.750000 0.500000 0.799579
O O1 0.469523 0.184922 0.366600
O O2 0.718608 0.188829 0.500114
O O3 0.713993 0.298148 0.391637
O O4 0.969997 0.182679 0.367583
O O5 0.238839 0.071843 0.400586
O O6 0.500000 0.000000 0.500000
O O7 0.500000 0.666623 0.750000
O O8 0.284785 0.630487 0.876969
O O9 0.721667 0.571649 0.851543
O O10 0.750000 0.500000 0.571621
O O11 0.467163 0.398447 0.510751
O O12 0.500000 0.492124 0.750000
#
# Coordination Sequence:
#
# PCOD8222870 Si02
#       6
#     8   8   4   8   8   4
#     4  10  21  36  56  88 130 166 206 260 334 382
#     4  10  20  36  60  95 132 171 206 267 316 390
#     4  12  16  32  60  98 136 164 218 262 318 374
#     4  11  27  44  70  93 130 178 230 283 342 410
#     4  10  25  44  64  92 121 158 212 281 346 398
#     4  10  26  46  66  90 122 166 234 290 330 388
#
# _framework density 23.401544999999999
#
# number of rings (size 3 to 8) (size 9 to 14) (size 15 to 20)
#    0.000    1.600    4.000    0.000   15.400    3.200 
#    0.000    0.000    0.000    0.000    0.000    4.200 
#    0.000    0.000    0.000    0.000    0.000    0.000 
#
# Total GULP energy -495522.162289 kJ/mol
# GULP energy per Si atom -12388.054057 kJ/mol
# Density = 2.334828 g / cm^3
# Si number density = 23.401545 Si / 1000 Ang^3
#
#
#
# Elastic Constant Matrix: (Units=GPa)
#
#
# Indices 1 2 3 4 5 6 
#
# 1 206.3264 65.0948 13.7382 0.0000 0.0000 0.0000
# 2 65.0948 197.9396 28.1862 0.0000 0.0000 0.0000
# 3 13.7382 28.1862 59.0020 0.0000 0.0000 0.0000
# 4 0.0000 0.0000 0.0000 21.0717 0.0000 0.0000
# 5 0.0000 0.0000 0.0000 0.0000 9.8378 0.0000
# 6 0.0000 0.0000 0.0000 0.0000 0.0000 44.1444
#
#
#
# Elastic Compliance Matrix: (Units=1/GPa)
#
#
# Indices 1 2 3 4 5 6 
#
# 1 0.005418 -0.001719 -0.000440 0.000000 0.000000 0.000000
# 2 -0.001719 0.005966 -0.002450 0.000000 0.000000 0.000000
# 3 -0.000440 -0.002450 0.018221 0.000000 0.000000 0.000000
# 4 0.000000 0.000000 0.000000 0.047457 0.000000 0.000000
# 5 0.000000 0.000000 0.000000 0.000000 0.101649 0.000000
# 6 0.000000 0.000000 0.000000 0.000000 0.000000 0.022653
#
#
# Mechanical properties :
#
#
# Convention : Reuss Voigt Hill
#
# Bulk Modulus (GPa) = 49.05017 75.25625 62.15321
# Shear Modulus (GPa) = 23.00125 38.76070 30.88098
#
# Velocity S-wave (km/s) = 3.13852 4.07422 3.63659
# Velocity P-wave (km/s) = 5.84290 7.37298 6.65208
#
# Compressibility (1/GPa) = 0.02038729
#
# Stress axis : x y z
#
# Youngs Moduli (GPa) = 184.55606 167.60850 54.88033
#
# Poissons Ratio (x) = 0.28815 0.02417
# Poissons Ratio (y) = 0.31729 0.13445
# Poissons Ratio (z) = 0.08127 0.41062
#
# Static dielectric constant tensor:
#      x y z
#    x 5.521390 0.000000 0.000000 
#    y 0.000000 4.790320 0.000000 
#    z 0.000000 0.000000 3.700710 
# 
# 
# High freq. dielectric constant tensor:
#      x y z
#    x 1.965380 0.000000 0.000000 
#    y 0.000000 1.925250 0.000000 
#    z 0.000000 0.000000 1.861270 
# 
# From -- ./inp_files/15815.got.cif
#   From: 2010.03.12/outbox.cif.g09.slc.cpg/sg54_8_cif.got.tgz:15815.got - 2010.04.16 15:00:50.
