data_PCOD8222925
_publ_section_title
;
Structure prediction by ZEFSAII (Michael W. Deem and Ramdas Pophale) SiO2 
 PCOD8222925
Probable space group: P C C A
;
_chemical_formula_sum "Si O2"
_cell_formula_units_Z 48
_cell_length_a 8.543878
_cell_length_b 15.544662
_cell_length_c 17.259597
_cell_angle_alpha 90.000000
_cell_angle_beta 90.000000
_cell_angle_gamma 90.000000
_cell_volume 2292.276344
_symmetry_space_group_name_H-M "P C C A"
_symmetry_group_IT_number 54
_symmetry_cell_setting 'orthorhombic'
loop_
_space_group_symop_operation_xyz
x,y,z
1/2-x,-y,z
1/2+x,-y,1/2-z
-x,y,1/2-z
-x,-y,-z
1/2+x,y,-z
1/2-x,y,1/2+z
x,-y,1/2+z
loop_
_atom_site_type_symbol
_atom_site_label
_atom_site_fract_x
_atom_site_fract_y
_atom_site_fract_z
Si Si1 0.425637 0.337514 0.092897
Si Si2 0.432720 0.515113 0.829181
Si Si3 0.000000 0.102172 0.250000
Si Si4 0.565637 0.624679 0.432804
Si Si5 0.682639 0.157862 0.441192
Si Si6 0.963454 0.802942 0.599181
Si Si7 0.750000 0.000000 0.347246
O O1 0.509843 0.384671 0.165509
O O2 0.249244 0.369452 0.082952
O O3 0.421227 0.233202 0.099986
O O4 0.537906 0.367307 0.023658
O O5 0.250000 0.500000 0.830282
O O6 0.500000 0.475589 0.750000
O O7 0.507938 0.466437 0.901929
O O8 0.081553 0.159933 0.316695
O O9 0.868712 0.046193 0.290331
O O10 0.461108 0.699653 0.392408
O O11 0.654089 0.159757 0.533847
O O12 0.865129 0.171666 0.429103
O O13 0.648490 0.065500 0.401380
#
# Coordination Sequence:
#
# PCOD8222925 Si02
#       7
#     8   8   4   8   8   8   4
#     4  10  20  39  60  88 118 157 207 254 300 364
#     4  12  25  40  57  87 122 161 203 251 309 366
#     4  10  22  38  56  90 118 154 194 256 316 366
#     4  10  20  37  63  84 117 157 202 250 299 363
#     4   9  20  38  61  87 120 158 204 252 299 377
#     4   9  20  37  61  88 118 156 204 249 306 361
#     4  10  22  40  58  88 126 158 208 252 316 376
#
# _framework density 20.939885
#
# number of rings (size 3 to 8) (size 9 to 14) (size 15 to 20)
#    0.000    2.000    0.000    3.000    1.167    6.000 
#    4.500    0.000    0.000    0.000    0.000    0.000 
#    0.000    0.000    0.000    0.000    0.000    0.000 
#
# Total GULP energy -594966.959775 kJ/mol
# GULP energy per Si atom -12395.144995 kJ/mol
# Density = 2.089222 g / cm^3
# Si number density = 20.939885 Si / 1000 Ang^3
#
#
#
# Elastic Constant Matrix: (Units=GPa)
#
#
# Indices 1 2 3 4 5 6 
#
# 1 77.0817 32.5958 37.1618 0.0000 0.0000 0.0000
# 2 32.5958 120.8051 54.1461 0.0000 0.0000 0.0000
# 3 37.1618 54.1461 101.3593 0.0000 0.0000 0.0000
# 4 0.0000 0.0000 0.0000 43.8686 0.0000 0.0000
# 5 0.0000 0.0000 0.0000 0.0000 30.4632 0.0000
# 6 0.0000 0.0000 0.0000 0.0000 0.0000 19.6526
#
#
#
# Elastic Compliance Matrix: (Units=1/GPa)
#
#
# Indices 1 2 3 4 5 6 
#
# 1 0.016210 -0.002248 -0.004742 0.000000 0.000000 0.000000
# 2 -0.002248 0.011196 -0.005156 0.000000 0.000000 0.000000
# 3 -0.004742 -0.005156 0.014359 0.000000 0.000000 0.000000
# 4 0.000000 0.000000 0.000000 0.022795 0.000000 0.000000
# 5 0.000000 0.000000 0.000000 0.000000 0.032826 0.000000
# 6 0.000000 0.000000 0.000000 0.000000 0.000000 0.050884
#
#
# Mechanical properties :
#
#
# Convention : Reuss Voigt Hill
#
# Bulk Modulus (GPa) = 57.23729 60.78373 59.01051
# Shear Modulus (GPa) = 28.02877 30.48637 29.25757
#
# Velocity S-wave (km/s) = 3.66257 3.81976 3.74199
# Velocity P-wave (km/s) = 6.72899 6.96742 6.84924
#
# Compressibility (1/GPa) = 0.01747113
#
# Stress axis : x y z
#
# Youngs Moduli (GPa) = 61.68928 89.32090 69.64253
#
# Poissons Ratio (x) = 0.20083 0.33026
# Poissons Ratio (y) = 0.13870 0.35910
# Poissons Ratio (z) = 0.29254 0.46057
#
# Static dielectric constant tensor:
#      x y z
#    x 3.607550 0.000000 0.000000 
#    y 0.000000 4.435660 0.000000 
#    z 0.000000 0.000000 1.753820 
# 
# 
# High freq. dielectric constant tensor:
#      x y z
#    x 1.812990 0.000000 0.000000 
#    y 0.000000 1.829400 0.000000 
#    z 0.000000 0.000000 1.814610 
# 
# From -- ./inp_files/16683.got.cif
#   From: 2010.03.12/outbox.cif.g09.slc.cpg/sg54_9_cif.got.tgz:16683.got - 2010.04.16 15:00:50.
