data_PCOD8222647
_publ_section_title
;
Structure prediction by ZEFSAII (Michael W. Deem and Ramdas Pophale) SiO2 
 PCOD8222647
Probable space group: P C C A
;
_chemical_formula_sum "Si O2"
_cell_formula_units_Z 64
_cell_length_a 26.949806
_cell_length_b 20.911032
_cell_length_c 5.492057
_cell_angle_alpha 90.000000
_cell_angle_beta 90.000000
_cell_angle_gamma 90.000000
_cell_volume 3095.039142
_symmetry_space_group_name_H-M "P C C A"
_symmetry_group_IT_number 54
_symmetry_cell_setting 'orthorhombic'
loop_
_space_group_symop_operation_xyz
x,y,z
1/2-x,-y,z
1/2+x,-y,1/2-z
-x,y,1/2-z
-x,-y,-z
1/2+x,y,-z
1/2-x,y,1/2+z
x,-y,1/2+z
loop_
_atom_site_type_symbol
_atom_site_label
_atom_site_fract_x
_atom_site_fract_y
_atom_site_fract_z
Si Si1 0.944220 0.525299 0.021040
Si Si2 0.727456 0.746939 0.934921
Si Si3 0.874807 0.858002 0.907155
Si Si4 0.765989 0.890662 0.963977
Si Si5 0.553652 0.210553 0.227666
Si Si6 0.449037 0.334711 0.605326
Si Si7 0.877202 0.737618 0.607084
Si Si8 0.556870 0.962077 0.238273
O O1 0.918181 0.504579 0.763595
O O2 0.941833 0.601779 0.054717
O O3 0.000000 0.500000 0.000000
O O4 0.749827 0.716998 0.685222
O O5 0.736906 0.823008 0.934895
O O6 0.669091 0.726876 0.925723
O O7 0.824717 0.889228 0.005215
O O8 0.857592 0.790000 0.798411
O O9 0.905055 0.902667 0.720329
O O10 0.910757 0.844971 0.132920
O O11 0.755372 0.926572 0.705222
O O12 0.500000 0.177665 0.250000
O O13 0.574031 0.232690 0.485038
O O14 0.547627 0.272293 0.058685
O O15 0.500000 0.343210 0.750000
O O16 0.398992 0.326856 0.770512
O O17 0.500000 0.938012 0.250000
O O18 0.567990 0.999023 0.491363
#
# Coordination Sequence:
#
# PCOD8222647 Si02
#       8
#     8   8   8   8   8   8   8   8
#     4  10  21  34  58  75 104 167 220 240 281 334
#     4  10  19  36  56  80 116 151 194 233 293 363
#     4  11  24  37  62  88 112 156 203 239 308 370
#     4  10  19  35  59  86 113 147 189 237 292 366
#     4  11  24  33  54  82 127 161 190 245 302 364
#     4  11  22  36  49  83 126 165 201 247 294 348
#     4  11  23  35  56  88 121 161 192 243 304 371
#     4  10  25  45  64  85 114 155 201 254 289 343
#
# _framework density 20.678249999999998
#
# number of rings (size 3 to 8) (size 9 to 14) (size 15 to 20)
#    0.000    1.500    5.000    1.500    8.750    0.500 
#    0.000    0.000    0.000    2.250    0.000    0.000 
#    0.000    3.000    0.000    0.000    0.000    0.000 
#
# Total GULP energy -793077.989002 kJ/mol
# GULP energy per Si atom -12391.843578 kJ/mol
# Density = 2.063119 g / cm^3
# Si number density = 20.678250 Si / 1000 Ang^3
#
#
#
# Elastic Constant Matrix: (Units=GPa)
#
#
# Indices 1 2 3 4 5 6 
#
# 1 104.2514 13.3967 18.1575 0.0000 0.0000 0.0000
# 2 13.3967 53.8578 9.2117 0.0000 0.0000 0.0000
# 3 18.1575 9.2117 136.0136 0.0000 0.0000 0.0000
# 4 0.0000 0.0000 0.0000 14.9521 0.0000 0.0000
# 5 0.0000 0.0000 0.0000 0.0000 31.7073 0.0000
# 6 0.0000 0.0000 0.0000 0.0000 0.0000 9.7874
#
#
#
# Elastic Compliance Matrix: (Units=1/GPa)
#
#
# Indices 1 2 3 4 5 6 
#
# 1 0.010096 -0.002308 -0.001192 0.000000 0.000000 0.000000
# 2 -0.002308 0.019312 -0.001000 0.000000 0.000000 0.000000
# 3 -0.001192 -0.001000 0.007579 0.000000 0.000000 0.000000
# 4 0.000000 0.000000 0.000000 0.066880 0.000000 0.000000
# 5 0.000000 0.000000 0.000000 0.000000 0.031538 0.000000
# 6 0.000000 0.000000 0.000000 0.000000 0.000000 0.102172
#
#
# Mechanical properties :
#
#
# Convention : Reuss Voigt Hill
#
# Bulk Modulus (GPa) = 35.72750 41.73940 38.73345
# Shear Modulus (GPa) = 19.53837 28.17981 23.85909
#
# Velocity S-wave (km/s) = 3.07722 3.69558 3.40049
# Velocity P-wave (km/s) = 5.47184 6.19990 5.84721
#
# Compressibility (1/GPa) = 0.02798964
#
# Stress axis : x y z
#
# Youngs Moduli (GPa) = 99.04653 51.78016 131.94364
#
# Poissons Ratio (x) = 0.11949 0.15722
# Poissons Ratio (y) = 0.22856 0.13193
# Poissons Ratio (z) = 0.11802 0.05177
#
# Static dielectric constant tensor:
#      x y z
#    x 3.758070 0.000000 0.000000 
#    y 0.000000 3.438460 0.000000 
#    z 0.000000 0.000000 4.592660 
# 
# 
# High freq. dielectric constant tensor:
#      x y z
#    x 1.795530 0.000000 0.000000 
#    y 0.000000 1.755070 0.000000 
#    z 0.000000 0.000000 1.832120 
# 
# From -- ./inp_files/2019.got.cif
#   From: 2010.03.12/outbox.cif.g09.slc.cpg/sg54_2_cif.got.tgz:2019.got - 2010.04.16 15:00:50.
