data_PCOD8222623
_publ_section_title
;
Structure prediction by ZEFSAII (Michael W. Deem and Ramdas Pophale) SiO2 
 PCOD8222623
Probable space group: P C C A
;
_chemical_formula_sum "Si O2"
_cell_formula_units_Z 64
_cell_length_a 12.001259
_cell_length_b 9.407721
_cell_length_c 27.149626
_cell_angle_alpha 90.000000
_cell_angle_beta 90.000000
_cell_angle_gamma 90.000000
_cell_volume 3065.314849
_symmetry_space_group_name_H-M "P C C A"
_symmetry_group_IT_number 54
_symmetry_cell_setting 'orthorhombic'
loop_
_space_group_symop_operation_xyz
x,y,z
1/2-x,-y,z
1/2+x,-y,1/2-z
-x,y,1/2-z
-x,-y,-z
1/2+x,y,-z
1/2-x,y,1/2+z
x,-y,1/2+z
loop_
_atom_site_type_symbol
_atom_site_label
_atom_site_fract_x
_atom_site_fract_y
_atom_site_fract_z
Si Si1 0.034763 0.508205 0.079336
Si Si2 0.174257 0.628433 0.367237
Si Si3 0.024370 0.976918 0.102663
Si Si4 0.811379 0.371456 0.835442
Si Si5 0.668213 0.763788 0.411336
Si Si6 0.682194 0.863875 0.073593
Si Si7 0.612808 0.755713 0.971826
Si Si8 0.501116 0.796301 0.695889
O O1 0.123357 0.574887 0.116770
O O2 0.064215 0.341313 0.075255
O O3 0.060570 0.596108 0.029090
O O4 0.909985 0.542493 0.097138
O O5 0.250000 0.500000 0.345396
O O6 0.244007 0.746716 0.397804
O O7 0.111922 0.712557 0.322810
O O8 0.911158 0.066813 0.108569
O O9 0.127366 0.075850 0.089827
O O10 0.039487 0.909449 0.156184
O O11 0.028402 0.854287 0.060741
O O12 0.750000 0.500000 0.807578
O O13 0.718751 0.263891 0.856970
O O14 0.897924 0.310979 0.796520
O O15 0.760064 0.756025 0.453773
O O16 0.750000 0.000000 0.053909
O O17 0.613907 0.797406 0.028553
O O18 0.500000 0.868139 0.750000
#
# Coordination Sequence:
#
# PCOD8222623 Si02
#       8
#     8   8   8   8   8   8   8   8
#     4   9  18  38  60  88 128 165 206 264 317 369
#     4  11  23  44  65  91 129 173 217 270 330 390
#     4  12  22  40  59  90 129 167 216 264 312 382
#     4   8  16  34  61  88 121 152 195 261 324 368
#     4  10  19  34  62  92 120 163 210 264 312 371
#     4  12  24  40  61  91 136 180 214 254 322 393
#     4  11  21  37  63  93 126 173 216 258 316 379
#     4  11  23  42  68  92 124 169 212 270 337 389
#
# _framework density 20.878768000000001
#
# number of rings (size 3 to 8) (size 9 to 14) (size 15 to 20)
#    0.000    1.500    5.000    3.375    0.000    2.500 
#    0.000    4.375    0.000    7.500    0.000    0.000 
#    0.000    0.000    0.000    0.000    0.000    0.000 
#
# Total GULP energy -793010.634812 kJ/mol
# GULP energy per Si atom -12390.791169 kJ/mol
# Density = 2.083125 g / cm^3
# Si number density = 20.878768 Si / 1000 Ang^3
#
#
#
# Elastic Constant Matrix: (Units=GPa)
#
#
# Indices 1 2 3 4 5 6 
#
# 1 96.8932 40.1005 19.0833 0.0000 0.0000 0.0000
# 2 40.1005 103.4753 32.2189 0.0000 0.0000 0.0000
# 3 19.0833 32.2189 89.2425 0.0000 0.0000 0.0000
# 4 0.0000 0.0000 0.0000 8.6905 0.0000 0.0000
# 5 0.0000 0.0000 0.0000 0.0000 15.2855 0.0000
# 6 0.0000 0.0000 0.0000 0.0000 0.0000 48.0038
#
#
#
# Elastic Compliance Matrix: (Units=1/GPa)
#
#
# Indices 1 2 3 4 5 6 
#
# 1 0.012376 -0.004475 -0.001031 0.000000 0.000000 0.000000
# 2 -0.004475 0.012506 -0.003558 0.000000 0.000000 0.000000
# 3 -0.001031 -0.003558 0.012710 0.000000 0.000000 0.000000
# 4 0.000000 0.000000 0.000000 0.115068 0.000000 0.000000
# 5 0.000000 0.000000 0.000000 0.000000 0.065421 0.000000
# 6 0.000000 0.000000 0.000000 0.000000 0.000000 0.020832
#
#
# Mechanical properties :
#
#
# Convention : Reuss Voigt Hill
#
# Bulk Modulus (GPa) = 51.37580 52.49071 51.93325
# Shear Modulus (GPa) = 18.97322 27.60987 23.29155
#
# Velocity S-wave (km/s) = 3.01779 3.64041 3.34363
# Velocity P-wave (km/s) = 6.06654 6.54717 6.31143
#
# Compressibility (1/GPa) = 0.01946442
#
# Stress axis : x y z
#
# Youngs Moduli (GPa) = 80.80335 79.95969 78.67560
#
# Poissons Ratio (x) = 0.35783 0.08109
# Poissons Ratio (y) = 0.36160 0.27994
# Poissons Ratio (z) = 0.08329 0.28451
#
# Static dielectric constant tensor:
#      x y z
#    x 4.171080 0.000000 0.000000 
#    y 0.000000 4.194350 0.000000 
#    z 0.000000 0.000000 3.282350 
# 
# 
# High freq. dielectric constant tensor:
#      x y z
#    x 1.833540 0.000000 0.000000 
#    y 0.000000 1.831390 0.000000 
#    z 0.000000 0.000000 1.770310 
# 
# From -- ./inp_files/28151.got.cif
#   From: 2010.03.12/outbox.cif.g09.slc.cpg/sg54_15_cif.got.tgz:28151.got - 2010.04.16 15:00:50.
