data_PCOD8222910
_publ_section_title
;
Structure prediction by ZEFSAII (Michael W. Deem and Ramdas Pophale) SiO2 
 PCOD8222910
Probable space group: P C C A
;
_chemical_formula_sum "Si O2"
_cell_formula_units_Z 48
_cell_length_a 15.731494
_cell_length_b 8.577234
_cell_length_c 18.494069
_cell_angle_alpha 90.000000
_cell_angle_beta 90.000000
_cell_angle_gamma 90.000000
_cell_volume 2495.454760
_symmetry_space_group_name_H-M "P C C A"
_symmetry_group_IT_number 54
_symmetry_cell_setting 'orthorhombic'
loop_
_space_group_symop_operation_xyz
x,y,z
1/2-x,-y,z
1/2+x,-y,1/2-z
-x,y,1/2-z
-x,-y,-z
1/2+x,y,-z
1/2-x,y,1/2+z
x,-y,1/2+z
loop_
_atom_site_type_symbol
_atom_site_label
_atom_site_fract_x
_atom_site_fract_y
_atom_site_fract_z
Si Si1 0.840592 0.058994 0.837637
Si Si2 0.844216 0.050392 0.672614
Si Si3 0.009568 0.438531 0.079506
Si Si4 0.918759 0.376019 0.701143
Si Si5 0.498811 0.928151 0.420679
Si Si6 0.838491 0.429897 0.839006
O O1 0.852880 0.997083 0.755846
O O2 0.843490 0.244250 0.844967
O O3 0.750000 0.000000 0.868226
O O4 0.916890 0.988307 0.882577
O O5 0.862628 0.235245 0.669154
O O6 0.750000 0.000000 0.644523
O O7 0.913745 0.970930 0.622142
O O8 0.999096 0.255803 0.077120
O O9 0.102380 0.486869 0.103694
O O10 0.942023 0.514774 0.134305
O O11 0.000000 0.500000 0.000000
O O12 0.862061 0.477900 0.756589
O O13 0.000000 0.316184 0.750000
O O14 0.500000 0.000000 0.500000
O O15 0.750000 0.500000 0.860625
#
# Coordination Sequence:
#
# PCOD8222910 Si02
#       6
#     8   8   8   8   8   8
#     4  10  21  38  63  90 118 151 191 239 288 342
#     4  10  21  38  61  88 117 151 192 240 288 342
#     4  11  23  39  58  82 115 156 195 235 291 347
#     4   9  19  37  60  84 117 153 188 236 289 343
#     4  12  24  39  60  84 117 156 197 242 290 346
#     4  10  20  37  60  88 118 149 188 236 287 342
#
# _framework density 19.234970000000001
#
# number of rings (size 3 to 8) (size 9 to 14) (size 15 to 20)
#    0.000    1.667    0.000    6.500    0.000    8.667 
#    0.000    5.833    0.000    0.000    0.000    0.000 
#    0.000    0.000    0.000    0.000    0.000    0.000 
#
# Total GULP energy -595042.151603 kJ/mol
# GULP energy per Si atom -12396.711492 kJ/mol
# Density = 1.919119 g / cm^3
# Si number density = 19.234970 Si / 1000 Ang^3
#
#
#
# Elastic Constant Matrix: (Units=GPa)
#
#
# Indices 1 2 3 4 5 6 
#
# 1 164.4201 73.7545 86.2448 0.0000 0.0000 0.0000
# 2 73.7545 132.3163 82.6053 0.0000 0.0000 0.0000
# 3 86.2448 82.6053 144.5497 0.0000 0.0000 0.0000
# 4 0.0000 0.0000 0.0000 31.0190 0.0000 0.0000
# 5 0.0000 0.0000 0.0000 0.0000 11.0629 0.0000
# 6 0.0000 0.0000 0.0000 0.0000 0.0000 38.6716
#
#
#
# Elastic Compliance Matrix: (Units=1/GPa)
#
#
# Indices 1 2 3 4 5 6 
#
# 1 0.009440 -0.002714 -0.004082 0.000000 0.000000 0.000000
# 2 -0.002714 0.012530 -0.005541 0.000000 0.000000 0.000000
# 3 -0.004082 -0.005541 0.012520 0.000000 0.000000 0.000000
# 4 0.000000 0.000000 0.000000 0.032238 0.000000 0.000000
# 5 0.000000 0.000000 0.000000 0.000000 0.090392 0.000000
# 6 0.000000 0.000000 0.000000 0.000000 0.000000 0.025859
#
#
# Mechanical properties :
#
#
# Convention : Reuss Voigt Hill
#
# Bulk Modulus (GPa) = 101.86756 102.94393 102.40575
# Shear Modulus (GPa) = 23.70515 29.39613 26.55064
#
# Velocity S-wave (km/s) = 3.51436 3.91354 3.71931
# Velocity P-wave (km/s) = 8.33920 8.60561 8.47345
#
# Compressibility (1/GPa) = 0.00981667
#
# Stress axis : x y z
#
# Youngs Moduli (GPa) = 105.92810 79.81013 79.87351
#
# Poissons Ratio (x) = 0.21661 0.32601
# Poissons Ratio (y) = 0.28749 0.44258
# Poissons Ratio (z) = 0.43235 0.44223
#
# Static dielectric constant tensor:
#      x y z
#    x 3.809200 0.000000 0.000000 
#    y 0.000000 3.466630 0.000000 
#    z 0.000000 0.000000 3.614640 
# 
# 
# High freq. dielectric constant tensor:
#      x y z
#    x 1.760350 0.000000 0.000000 
#    y 0.000000 1.752790 0.000000 
#    z 0.000000 0.000000 1.748570 
# 
# From -- ./inp_files/18016.got.cif
#   From: 2010.03.12/outbox.cif.g09.slc.cpg/sg54_10_cif.got.tgz:18016.got - 2010.04.16 15:00:50.
