data_PCOD8222122
_publ_section_title
;
Structure prediction by ZEFSAII (Michael W. Deem and Ramdas Pophale) SiO2 
 PCOD8222122
Probable space group: P M N A
;
_chemical_formula_sum "Si O2"
_cell_formula_units_Z 48
_cell_length_a 8.625692
_cell_length_b 30.241975
_cell_length_c 9.122532
_cell_angle_alpha 90.000000
_cell_angle_beta 90.000000
_cell_angle_gamma 90.000000
_cell_volume 2379.685104
_symmetry_space_group_name_H-M "P M N A"
_symmetry_group_IT_number 53
_symmetry_cell_setting 'orthorhombic'
loop_
_space_group_symop_operation_xyz
x,y,z
1/2-x,-y,1/2+z
x,-y,-z
1/2-x,y,1/2-z
-x,-y,-z
1/2+x,y,1/2-z
-x,y,z
1/2+x,-y,1/2+z
loop_
_atom_site_type_symbol
_atom_site_label
_atom_site_fract_x
_atom_site_fract_y
_atom_site_fract_z
Si Si1 0.320417 0.043500 0.405977
Si Si2 0.818938 0.290352 0.406858
Si Si3 0.182838 0.880975 0.404465
Si Si4 0.183258 0.214212 0.905972
Si Si5 0.316965 0.457466 0.411070
Si Si6 0.180786 0.377223 0.589077
O O1 0.250000 0.032216 0.250000
O O2 0.500000 0.056685 0.395297
O O3 0.225577 0.084255 0.471421
O O4 0.294474 0.000000 0.500000
O O5 0.750000 0.303464 0.250000
O O6 0.734586 0.246855 0.465796
O O7 0.784977 0.329812 0.518880
O O8 0.000000 0.280661 0.391176
O O9 0.250000 0.897967 0.250000
O O10 0.254843 0.834019 0.447884
O O11 0.000000 0.875837 0.390444
O O12 0.250000 0.230355 0.750000
O O13 0.000000 0.212945 0.893887
O O14 0.256676 0.500000 0.500000
O O15 0.250000 0.459989 0.250000
O O16 0.500000 0.456845 0.400553
O O17 0.261797 0.413464 0.489798
O O18 0.250000 0.378116 0.750000
O O19 0.000000 0.387863 0.596987
#
# Coordination Sequence:
#
# PCOD8222122 Si02
#       6
#     8   8   8   8   8   8
#     4  11  24  41  62  89 121 157 199 246 297 354
#     4  11  24  41  61  89 122 158 200 247 300 355
#     4  11  22  39  63  90 122 158 199 246 297 354
#     4  11  22  39  63  90 121 158 200 245 296 354
#     4  11  24  41  63  91 124 161 202 249 300 356
#     4  11  24  41  64  91 122 159 201 249 300 358
#
# _framework density 20.170738
#
# number of rings (size 3 to 8) (size 9 to 14) (size 15 to 20)
#    0.000    1.000    0.000    8.000    0.000   11.333 
#    0.000    3.333    0.000    0.000    0.000    0.000 
#    0.000    0.000    0.000    0.000    0.000    0.000 
#
# Total GULP energy -595559.278536 kJ/mol
# GULP energy per Si atom -12407.484970 kJ/mol
# Density = 2.012483 g / cm^3
# Si number density = 20.170738 Si / 1000 Ang^3
#
#
#
# Elastic Constant Matrix: (Units=GPa)
#
#
# Indices 1 2 3 4 5 6 
#
# 1 142.7180 55.7331 59.4185 0.0000 0.0000 0.0000
# 2 55.7331 95.6765 54.1849 0.0000 0.0000 0.0000
# 3 59.4185 54.1849 146.9527 0.0000 0.0000 0.0000
# 4 0.0000 0.0000 0.0000 -820.4121 0.0000 0.0000
# 5 0.0000 0.0000 0.0000 0.0000 39.9353 0.0000
# 6 0.0000 0.0000 0.0000 0.0000 0.0000 43.3292
#
#
#
# Elastic Compliance Matrix: (Units=1/GPa)
#
#
# Indices 1 2 3 4 5 6 
#
# 1 0.009654 -0.004314 -0.002313 0.000000 0.000000 0.000000
# 2 -0.004314 0.015138 -0.003837 0.000000 0.000000 0.000000
# 3 -0.002313 -0.003837 0.009155 0.000000 0.000000 0.000000
# 4 0.000000 0.000000 0.000000 -0.001219 0.000000 0.000000
# 5 0.000000 0.000000 0.000000 0.000000 0.025041 0.000000
# 6 0.000000 0.000000 0.000000 0.000000 0.000000 0.023079
#
#
# Mechanical properties :
#
#
# Convention : Reuss Voigt Hill
#
# Bulk Modulus (GPa) = 76.81184 80.44667 78.62925
# Shear Modulus (GPa) = 47.11782 -133.02882 -42.95550
#
# Velocity S-wave (km/s) = 4.83841 -8.12986 -4.61976
# Velocity P-wave (km/s) = 8.32929 6.93950 3.25733
#
# Compressibility (1/GPa) = 0.01301883
#
# Stress axis : x y z
#
# Youngs Moduli (GPa) = 103.57906 66.05835 109.22845
#
# Poissons Ratio (x) = 0.28497 0.25265
# Poissons Ratio (y) = 0.44683 0.41916
# Poissons Ratio (z) = 0.23958 0.25350
#
# Static dielectric constant tensor:
#      x y z
#    x 3.871750 0.000000 0.000000 
#    y 0.000000 3.801620 0.000000 
#    z 0.000000 0.000000 3.654160 
# 
# 
# High freq. dielectric constant tensor:
#      x y z
#    x 1.808240 0.000000 0.000000 
#    y 0.000000 1.801510 0.000000 
#    z 0.000000 0.000000 1.798560 
# 
# From -- ./inp_files/6759.got.cif
#   From: 2010.03.12/outbox.cif.g09.slc.cpg/sg53_4_cif.got.tgz:6759.got - 2010.04.16 14:36:59.
