data_PCOD8222600
_publ_section_title
;
Structure prediction by ZEFSAII (Michael W. Deem and Ramdas Pophale) SiO2 
 PCOD8222600
Probable space group: P C C A
;
_chemical_formula_sum "Si O2"
_cell_formula_units_Z 40
_cell_length_a 4.997160
_cell_length_b 26.838352
_cell_length_c 13.427821
_cell_angle_alpha 90.000000
_cell_angle_beta 90.000000
_cell_angle_gamma 90.000000
_cell_volume 1800.879452
_symmetry_space_group_name_H-M "P C C A"
_symmetry_group_IT_number 54
_symmetry_cell_setting 'orthorhombic'
loop_
_space_group_symop_operation_xyz
x,y,z
1/2-x,-y,z
1/2+x,-y,1/2-z
-x,y,1/2-z
-x,-y,-z
1/2+x,y,-z
1/2-x,y,1/2+z
x,-y,1/2+z
loop_
_atom_site_type_symbol
_atom_site_label
_atom_site_fract_x
_atom_site_fract_y
_atom_site_fract_z
Si Si1 0.349059 0.790604 0.567754
Si Si2 0.750000 0.000000 0.929177
Si Si3 0.186947 0.596628 0.564646
Si Si4 0.789916 0.894697 0.933145
Si Si5 0.500000 0.532067 0.250000
Si Si6 0.244173 0.691886 0.183433
O O1 0.648264 0.786804 0.525639
O O2 0.286631 0.843503 0.625169
O O3 0.321891 0.746607 0.645577
O O4 0.747294 0.946701 0.869094
O O5 0.500000 0.000000 0.000000
O O6 0.478183 0.583393 0.522277
O O7 0.190929 0.655086 0.591949
O O8 0.121896 0.565345 0.662468
O O9 0.596512 0.894022 0.030529
O O10 0.250000 0.500000 0.291295
O O11 0.500000 0.696168 0.250000
O O12 0.000000 0.670650 0.250000
#
# Coordination Sequence:
#
# PCOD8222600 Si02
#       6
#     8   4   8   8   4   8
#     4  10  19  34  53  81 112 149 196 248 307 374
#     4   8  12  20  34  60  92 132 172 226 298 352
#     4  12  26  46  74 102 135 178 218 263 321 377
#     4   8  14  23  40  64  99 134 178 236 294 359
#     4  12  28  48  74 106 144 176 218 272 308 374
#     4  12  24  40  63  90 125 163 207 261 313 373
#
# _framework density 22.211372000000001
#
# number of rings (size 3 to 8) (size 9 to 14) (size 15 to 20)
#    0.000    1.600    1.000    4.800    1.400    2.400 
#    0.000    0.000    0.000    0.000    0.000    1.400 
#    0.000    0.000    0.000    0.000    0.000    0.000 
#
# Total GULP energy -495563.603924 kJ/mol
# GULP energy per Si atom -12389.090098 kJ/mol
# Density = 2.216082 g / cm^3
# Si number density = 22.211372 Si / 1000 Ang^3
#
#
#
# Elastic Constant Matrix: (Units=GPa)
#
#
# Indices 1 2 3 4 5 6 
#
# 1 105.1646 37.5196 19.4923 0.0000 0.0000 0.0000
# 2 37.5196 130.2824 33.6313 0.0000 0.0000 0.0000
# 3 19.4923 33.6313 58.6877 0.0000 0.0000 0.0000
# 4 0.0000 0.0000 0.0000 11.7440 0.0000 0.0000
# 5 0.0000 0.0000 0.0000 0.0000 29.5677 0.0000
# 6 0.0000 0.0000 0.0000 0.0000 0.0000 31.5006
#
#
#
# Elastic Compliance Matrix: (Units=1/GPa)
#
#
# Indices 1 2 3 4 5 6 
#
# 1 0.010818 -0.002568 -0.002122 0.000000 0.000000 0.000000
# 2 -0.002568 0.009618 -0.004659 0.000000 0.000000 0.000000
# 3 -0.002122 -0.004659 0.020414 0.000000 0.000000 0.000000
# 4 0.000000 0.000000 0.000000 0.085150 0.000000 0.000000
# 5 0.000000 0.000000 0.000000 0.000000 0.033821 0.000000
# 6 0.000000 0.000000 0.000000 0.000000 0.000000 0.031745
#
#
# Mechanical properties :
#
#
# Convention : Reuss Voigt Hill
#
# Bulk Modulus (GPa) = 45.13959 52.82455 48.98207
# Shear Modulus (GPa) = 22.97302 28.12854 25.55078
#
# Velocity S-wave (km/s) = 3.21953 3.56252 3.39536
# Velocity P-wave (km/s) = 5.84699 6.38407 6.12142
#
# Compressibility (1/GPa) = 0.02215350
#
# Stress axis : x y z
#
# Youngs Moduli (GPa) = 92.43614 103.97475 48.98681
#
# Poissons Ratio (x) = 0.26699 0.10393
# Poissons Ratio (y) = 0.23736 0.22821
# Poissons Ratio (z) = 0.19612 0.48438
#
# Static dielectric constant tensor:
#      x y z
#    x 4.298160 0.000000 0.000000 
#    y 0.000000 5.241060 0.000000 
#    z 0.000000 0.000000 3.315530 
# 
# 
# High freq. dielectric constant tensor:
#      x y z
#    x 1.903810 0.000000 0.000000 
#    y 0.000000 1.909470 0.000000 
#    z 0.000000 0.000000 1.803040 
# 
# From -- ./inp_files/6444.got.cif
#   From: 2010.03.12/outbox.cif.g09.slc.cpg/sg54_4_cif.got.tgz:6444.got - 2010.04.16 15:00:50.
