data_PCOD8222097
_publ_section_title
;
Structure prediction by ZEFSAII (Michael W. Deem and Ramdas Pophale) SiO2 
 PCOD8222097
Probable space group: P M N A
;
_chemical_formula_sum "Si O2"
_cell_formula_units_Z 48
_cell_length_a 9.684278
_cell_length_b 27.845244
_cell_length_c 8.571787
_cell_angle_alpha 90.000000
_cell_angle_beta 90.000000
_cell_angle_gamma 90.000000
_cell_volume 2311.477373
_symmetry_space_group_name_H-M "P M N A"
_symmetry_group_IT_number 53
_symmetry_cell_setting 'orthorhombic'
loop_
_space_group_symop_operation_xyz
x,y,z
1/2-x,-y,1/2+z
x,-y,-z
1/2-x,y,1/2-z
-x,-y,-z
1/2+x,y,1/2-z
-x,y,z
1/2+x,-y,1/2+z
loop_
_atom_site_type_symbol
_atom_site_label
_atom_site_fract_x
_atom_site_fract_y
_atom_site_fract_z
Si Si1 0.000000 0.777068 0.556080
Si Si2 0.000000 0.795604 0.925196
Si Si3 0.500000 0.885848 0.956070
Si Si4 0.267243 0.272111 0.434414
Si Si5 0.834559 0.377289 0.089525
Si Si6 0.840320 0.546909 0.397346
Si Si7 0.000000 0.095257 0.087383
Si Si8 0.736891 0.949732 0.066507
O O1 0.000000 0.786388 0.740704
O O2 0.123267 0.744060 0.492184
O O3 0.000000 0.830627 0.489795
O O4 0.132073 0.769313 0.996003
O O5 0.000000 0.850741 0.980285
O O6 0.500000 0.898526 0.773205
O O7 0.633423 0.907047 0.035590
O O8 0.250000 0.272318 0.250000
O O9 0.320289 0.324451 0.486980
O O10 0.750000 0.379968 0.250000
O O11 0.000000 0.389473 0.110763
O O12 0.754320 0.412590 0.975355
O O13 0.852065 0.500000 0.500000
O O14 0.750000 0.531050 0.250000
O O15 0.000000 0.564274 0.360896
O O16 0.873654 0.064226 0.026305
O O17 0.750000 0.955635 0.250000
O O18 0.680497 0.000000 0.000000
#
# Coordination Sequence:
#
# PCOD8222097 Si02
#       8
#     4   4   4   8   8   8   4   8
#     4   9  18  30  54  85 118 151 200 252 308 355
#     4   9  16  32  52  85 118 151 196 254 302 355
#     4  11  22  40  63  93 122 159 205 258 313 373
#     4   9  17  29  51  85 121 156 199 254 304 355
#     4  11  22  36  61  95 132 170 214 265 319 375
#     4  11  25  44  67  94 127 168 215 269 328 391
#     4  11  22  38  65  91 122 159 205 258 311 373
#     4  12  25  42  62  88 122 160 203 254 315 382
#
# _framework density 20.765937999999998
#
# number of rings (size 3 to 8) (size 9 to 14) (size 15 to 20)
#    0.000    1.500    0.833    5.000    4.667    5.333 
#    0.000    0.000    0.000    6.000    0.000    0.000 
#    0.000    0.000    0.000    0.000    0.000    0.000 
#
# Total GULP energy -594769.010231 kJ/mol
# GULP energy per Si atom -12391.021046 kJ/mol
# Density = 2.071867 g / cm^3
# Si number density = 20.765938 Si / 1000 Ang^3
#
#
#
# Elastic Constant Matrix: (Units=GPa)
#
#
# Indices 1 2 3 4 5 6 
#
# 1 173.8759 44.6718 23.9102 0.0000 0.0000 0.0000
# 2 44.6718 108.3313 19.1178 0.0000 0.0000 0.0000
# 3 23.9102 19.1178 74.1363 0.0000 0.0000 0.0000
# 4 0.0000 0.0000 0.0000 25.8987 0.0000 0.0000
# 5 0.0000 0.0000 0.0000 0.0000 53.9068 0.0000
# 6 0.0000 0.0000 0.0000 0.0000 0.0000 8.1143
#
#
#
# Elastic Compliance Matrix: (Units=1/GPa)
#
#
# Indices 1 2 3 4 5 6 
#
# 1 0.006587 -0.002453 -0.001492 0.000000 0.000000 0.000000
# 2 -0.002453 0.010584 -0.001938 0.000000 0.000000 0.000000
# 3 -0.001492 -0.001938 0.014470 0.000000 0.000000 0.000000
# 4 0.000000 0.000000 0.000000 0.038612 0.000000 0.000000
# 5 0.000000 0.000000 0.000000 0.000000 0.018551 0.000000
# 6 0.000000 0.000000 0.000000 0.000000 0.000000 0.123239
#
#
# Mechanical properties :
#
#
# Convention : Reuss Voigt Hill
#
# Bulk Modulus (GPa) = 50.31502 59.08256 54.69879
# Shear Modulus (GPa) = 21.69832 35.49353 28.59592
#
# Velocity S-wave (km/s) = 3.23600 4.13875 3.71490
# Velocity P-wave (km/s) = 6.18421 7.16607 6.69317
#
# Compressibility (1/GPa) = 0.01987478
#
# Stress axis : x y z
#
# Youngs Moduli (GPa) = 151.82505 94.47817 69.11019
#
# Poissons Ratio (x) = 0.23173 0.10310
# Poissons Ratio (y) = 0.37239 0.13396
# Poissons Ratio (z) = 0.22649 0.18313
#
# Static dielectric constant tensor:
#      x y z
#    x 4.243110 0.000000 0.000000 
#    y 0.000000 4.026450 0.000000 
#    z 0.000000 0.000000 3.455220 
# 
# 
# High freq. dielectric constant tensor:
#      x y z
#    x 1.835550 0.000000 0.000000 
#    y 0.000000 1.830320 0.000000 
#    z 0.000000 0.000000 1.774760 
# 
# From -- ./inp_files/6882.got.cif
#   From: 2010.03.12/outbox.cif.g09.slc.cpg/sg53_4_cif.got.tgz:6882.got - 2010.04.16 14:36:59.
