data_PCOD8222826
_publ_section_title
;
Structure prediction by ZEFSAII (Michael W. Deem and Ramdas Pophale) SiO2 
 PCOD8222826
Probable space group: P C C A
;
_chemical_formula_sum "Si O2"
_cell_formula_units_Z 40
_cell_length_a 9.070391
_cell_length_b 14.035387
_cell_length_c 16.793367
_cell_angle_alpha 90.000000
_cell_angle_beta 90.000000
_cell_angle_gamma 90.000000
_cell_volume 2137.903901
_symmetry_space_group_name_H-M "P C C A"
_symmetry_group_IT_number 54
_symmetry_cell_setting 'orthorhombic'
loop_
_space_group_symop_operation_xyz
x,y,z
1/2-x,-y,z
1/2+x,-y,1/2-z
-x,y,1/2-z
-x,-y,-z
1/2+x,y,-z
1/2-x,y,1/2+z
x,-y,1/2+z
loop_
_atom_site_type_symbol
_atom_site_label
_atom_site_fract_x
_atom_site_fract_y
_atom_site_fract_z
Si Si1 0.240802 0.293858 0.606153
Si Si2 0.008630 0.778873 0.503046
Si Si3 0.668261 0.201968 0.242137
Si Si4 0.164942 0.588782 0.247178
Si Si5 0.260050 0.110949 0.909880
O O1 0.395376 0.290669 0.559661
O O2 0.100130 0.286898 0.548139
O O3 0.237754 0.204247 0.668833
O O4 0.224048 0.391788 0.656528
O O5 0.913413 0.852237 0.554977
O O6 0.118480 0.838193 0.447646
O O7 0.500000 0.167827 0.250000
O O8 0.676443 0.310560 0.204805
O O9 0.758234 0.131440 0.185039
O O10 0.250000 0.500000 0.286598
O O11 0.000000 0.552280 0.250000
O O12 0.250000 0.000000 0.926969
#
# Coordination Sequence:
#
# PCOD8222826 Si02
#       5
#     8   8   8   8   8
#     4   9  19  37  57  78 111 147 181 221 279 322
#     4  10  20  36  56  77 111 151 178 225 274 328
#     4   9  18  38  55  75 112 143 178 231 270 314
#     4   9  18  34  58  82 108 140 179 226 275 327
#     4  11  21  36  55  82 109 149 185 225 272 320
#
# _framework density 18.709916
#
# number of rings (size 3 to 8) (size 9 to 14) (size 15 to 20)
#    1.200    1.200    2.000    0.600    0.000    2.400 
#    3.600    2.000    0.000    4.800    0.000    0.000 
#    0.000    0.000    0.000    0.000    0.000    0.000 
#
# Total GULP energy -495559.154994 kJ/mol
# GULP energy per Si atom -12388.978875 kJ/mol
# Density = 1.866733 g / cm^3
# Si number density = 18.709916 Si / 1000 Ang^3
#
#
#
# Elastic Constant Matrix: (Units=GPa)
#
#
# Indices 1 2 3 4 5 6 
#
# 1 94.9988 17.9945 22.1133 0.0000 0.0000 0.0000
# 2 17.9945 44.8380 -7.5927 0.0000 0.0000 0.0000
# 3 22.1133 -7.5927 70.8955 0.0000 0.0000 0.0000
# 4 0.0000 0.0000 0.0000 11.8920 0.0000 0.0000
# 5 0.0000 0.0000 0.0000 0.0000 20.2429 0.0000
# 6 0.0000 0.0000 0.0000 0.0000 0.0000 10.5796
#
#
#
# Elastic Compliance Matrix: (Units=1/GPa)
#
#
# Indices 1 2 3 4 5 6 
#
# 1 0.012709 -0.005878 -0.004594 0.000000 0.000000 0.000000
# 2 -0.005878 0.025433 0.004557 0.000000 0.000000 0.000000
# 3 -0.004594 0.004557 0.016026 0.000000 0.000000 0.000000
# 4 0.000000 0.000000 0.000000 0.084090 0.000000 0.000000
# 5 0.000000 0.000000 0.000000 0.000000 0.049400 0.000000
# 6 0.000000 0.000000 0.000000 0.000000 0.000000 0.094521
#
#
# Mechanical properties :
#
#
# Convention : Reuss Voigt Hill
#
# Bulk Modulus (GPa) = 23.61868 30.64026 27.12947
# Shear Modulus (GPa) = 16.22731 20.42406 18.32568
#
# Velocity S-wave (km/s) = 2.94821 3.30755 3.13303
# Velocity P-wave (km/s) = 4.92344 5.56763 5.25542
#
# Compressibility (1/GPa) = 0.04233936
#
# Stress axis : x y z
#
# Youngs Moduli (GPa) = 78.68303 39.31840 62.39782
#
# Poissons Ratio (x) = 0.23113 0.28664
# Poissons Ratio (y) = 0.46253 -0.28437
# Poissons Ratio (z) = 0.36145 -0.17919
#
# Static dielectric constant tensor:
#      x y z
#    x 3.449500 0.000000 0.000000 
#    y 0.000000 3.022870 0.000000 
#    z 0.000000 0.000000 3.427040 
# 
# 
# High freq. dielectric constant tensor:
#      x y z
#    x 1.732540 0.000000 0.000000 
#    y 0.000000 1.693540 0.000000 
#    z 0.000000 0.000000 1.719180 
# 
# From -- ./inp_files/16470.got.cif
#   From: 2010.03.12/outbox.cif.g09.slc.cpg/sg54_9_cif.got.tgz:16470.got - 2010.04.16 15:00:50.
