data_PCOD8222286
_publ_section_title
;
Structure prediction by ZEFSAII (Michael W. Deem and Ramdas Pophale) SiO2 
 PCOD8222286
Probable space group: P C C A
;
_chemical_formula_sum "Si O2"
_cell_formula_units_Z 56
_cell_length_a 17.870585
_cell_length_b 32.608370
_cell_length_c 5.234696
_cell_angle_alpha 90.000000
_cell_angle_beta 90.000000
_cell_angle_gamma 90.000000
_cell_volume 3050.417791
_symmetry_space_group_name_H-M "P C C A"
_symmetry_group_IT_number 54
_symmetry_cell_setting 'orthorhombic'
loop_
_space_group_symop_operation_xyz
x,y,z
1/2-x,-y,z
1/2+x,-y,1/2-z
-x,y,1/2-z
-x,-y,-z
1/2+x,y,-z
1/2-x,y,1/2+z
x,-y,1/2+z
loop_
_atom_site_type_symbol
_atom_site_label
_atom_site_fract_x
_atom_site_fract_y
_atom_site_fract_z
Si Si1 0.799177 0.402246 0.275007
Si Si2 0.912682 0.474545 0.249734
Si Si3 0.328484 0.810113 0.712667
Si Si4 0.296316 0.905495 0.721358
Si Si5 0.412613 0.025233 0.252302
Si Si6 0.203590 0.311509 0.279359
Si Si7 0.661581 0.224680 0.787728
O O1 0.759144 0.409758 0.545855
O O2 0.868991 0.432091 0.249400
O O3 0.833661 0.356181 0.260615
O O4 0.889742 0.500356 0.498314
O O5 0.000000 0.463758 0.250000
O O6 0.317233 0.858143 0.738007
O O7 0.249854 0.786069 0.695480
O O8 0.374217 0.798672 0.455838
O O9 0.375709 0.793326 0.954898
O O10 0.258526 0.916706 0.453088
O O11 0.371683 0.931320 0.746543
O O12 0.500000 0.035227 0.250000
O O13 0.388779 0.001316 0.507416
O O14 0.230195 0.307615 0.571696
O O15 0.147140 0.273659 0.230339
#
# Coordination Sequence:
#
# PCOD8222286 Si02
#       7
#     8   8   8   8   8   8   8
#     4  10  21  32  48  78 106 125 165 216 256 288
#     4  10  21  37  55  72  96 135 174 203 249 314
#     4  10  16  25  41  69 101 127 153 198 244 287
#     4  12  21  32  53  83 108 123 166 216 260 283
#     4  10  23  42  57  71  99 141 175 199 246 313
#     4  10  16  25  41  64  96 127 162 192 237 286
#     4  10  14  25  41  61 101 135 153 186 244 294
#
# _framework density 18.358142000000001
#
# number of rings (size 3 to 8) (size 9 to 14) (size 15 to 20)
#    0.000    1.714    5.714    1.714    0.000    3.429 
#    0.000    0.000    0.000    0.000    0.000    2.000 
#    0.000    0.000    0.000    0.000    0.000    0.000 
#
# Total GULP energy -694123.742469 kJ/mol
# GULP energy per Si atom -12395.066830 kJ/mol
# Density = 1.831636 g / cm^3
# Si number density = 18.358142 Si / 1000 Ang^3
#
#
#
# Elastic Constant Matrix: (Units=GPa)
#
#
# Indices 1 2 3 4 5 6 
#
# 1 26.7282 42.4470 7.3499 0.0000 0.0000 0.0000
# 2 42.4470 121.5420 23.2580 0.0000 0.0000 0.0000
# 3 7.3499 23.2580 128.5856 0.0000 0.0000 0.0000
# 4 0.0000 0.0000 0.0000 26.1113 0.0000 0.0000
# 5 0.0000 0.0000 0.0000 0.0000 4.9815 0.0000
# 6 0.0000 0.0000 0.0000 0.0000 0.0000 2.4533
#
#
#
# Elastic Compliance Matrix: (Units=1/GPa)
#
#
# Indices 1 2 3 4 5 6 
#
# 1 0.084038 -0.029449 0.000523 0.000000 0.000000 0.000000
# 2 -0.029449 0.018842 -0.001725 0.000000 0.000000 0.000000
# 3 0.000523 -0.001725 0.008059 0.000000 0.000000 0.000000
# 4 0.000000 0.000000 0.000000 0.038298 0.000000 0.000000
# 5 0.000000 0.000000 0.000000 0.000000 0.200741 0.000000
# 6 0.000000 0.000000 0.000000 0.000000 0.000000 0.407621
#
#
# Mechanical properties :
#
#
# Convention : Reuss Voigt Hill
#
# Bulk Modulus (GPa) = 20.14605 46.99618 33.57111
# Shear Modulus (GPa) = 5.98481 20.29594 13.14037
#
# Velocity S-wave (km/s) = 1.80751 3.32860 2.67831
# Velocity P-wave (km/s) = 3.91840 6.35830 5.28118
#
# Compressibility (1/GPa) = 0.04963752
#
# Stress axis : x y z
#
# Youngs Moduli (GPa) = 11.89934 53.07156 124.08482
#
# Poissons Ratio (x) = 1.56292 -0.06491
# Poissons Ratio (y) = 0.35043 0.21403
# Poissons Ratio (z) = -0.00622 0.09154
#
# Static dielectric constant tensor:
#      x y z
#    x 2.728590 0.000000 0.000000 
#    y 0.000000 3.543750 0.000000 
#    z 0.000000 0.000000 5.158230 
# 
# 
# High freq. dielectric constant tensor:
#      x y z
#    x 1.631820 0.000000 0.000000 
#    y 0.000000 1.728780 0.000000 
#    z 0.000000 0.000000 1.751110 
# 
# From -- ./inp_files/714.got.cif
#   From: 2010.03.12/outbox.cif.g09.slc.cpg/sg54_1_cif.got.tgz:714.got - 2010.04.16 15:00:50.
