data_PCOD8222295
_publ_section_title
;
Structure prediction by ZEFSAII (Michael W. Deem and Ramdas Pophale) SiO2 
 PCOD8222295
Probable space group: P C C A
;
_chemical_formula_sum "Si O2"
_cell_formula_units_Z 40
_cell_length_a 12.372733
_cell_length_b 22.190164
_cell_length_c 5.376764
_cell_angle_alpha 90.000000
_cell_angle_beta 90.000000
_cell_angle_gamma 90.000000
_cell_volume 1476.206549
_symmetry_space_group_name_H-M "P C C A"
_symmetry_group_IT_number 54
_symmetry_cell_setting 'orthorhombic'
loop_
_space_group_symop_operation_xyz
x,y,z
1/2-x,-y,z
1/2+x,-y,1/2-z
-x,y,1/2-z
-x,-y,-z
1/2+x,y,-z
1/2-x,y,1/2+z
x,-y,1/2+z
loop_
_atom_site_type_symbol
_atom_site_label
_atom_site_fract_x
_atom_site_fract_y
_atom_site_fract_z
Si Si1 0.629917 0.475698 0.891619
Si Si2 0.182550 0.842167 0.019936
Si Si3 0.617620 0.974110 0.985137
Si Si4 0.867782 0.663951 0.892364
Si Si5 0.623897 0.712416 0.893701
O O1 0.750000 0.500000 0.835570
O O2 0.572394 0.487732 0.621376
O O3 0.636924 0.405905 0.961095
O O4 0.233036 0.841461 0.745502
O O5 0.110890 0.902093 0.040459
O O6 0.108994 0.782886 0.045689
O O7 0.676251 0.004079 0.742111
O O8 0.500000 0.000000 0.000000
O O9 0.749096 0.692818 0.850909
O O10 0.926580 0.673588 0.623723
O O11 0.929593 0.698259 0.121435
#
# Coordination Sequence:
#
# PCOD8222295 Si02
#       5
#     8   8   8   8   8
#     4  10  16  22  31  49  71 111 169 213 237 283
#     4  12  21  34  55  82 106 127 172 225 265 316
#     4  10  23  42  59  77 106 141 168 203 261 334
#     4  10  16  25  38  51  87 123 153 211 267 295
#     4  10  16  27  38  61  86 119 151 200 274 292
#
# _framework density 27.09648
#
# number of rings (size 3 to 8) (size 9 to 14) (size 15 to 20)
#    0.000    1.600    4.000    7.200    0.000    2.400 
#    0.000    0.000    0.000    0.000    0.000    0.000 
#    0.000    0.000    0.000    0.000    0.000    0.000 
#
# Total GULP energy -495930.992591 kJ/mol
# GULP energy per Si atom -12398.274815 kJ/mol
# Density = 2.703481 g / cm^3
# Si number density = 27.096480 Si / 1000 Ang^3
#
#
#
# Elastic Constant Matrix: (Units=GPa)
#
#
# Indices 1 2 3 4 5 6 
#
# 1 54.5747 2.9180 16.6388 0.0000 0.0000 0.0000
# 2 2.9180 236.1372 44.4305 0.0000 0.0000 0.0000
# 3 16.6388 44.4305 251.5407 0.0000 0.0000 0.0000
# 4 0.0000 0.0000 0.0000 54.8326 0.0000 0.0000
# 5 0.0000 0.0000 0.0000 0.0000 395.8038 0.0000
# 6 0.0000 0.0000 0.0000 0.0000 0.0000 22.0396
#
#
#
# Elastic Compliance Matrix: (Units=1/GPa)
#
#
# Indices 1 2 3 4 5 6 
#
# 1 0.018701 0.000002 -0.001237 0.000000 0.000000 0.000000
# 2 0.000002 0.004380 -0.000774 0.000000 0.000000 0.000000
# 3 -0.001237 -0.000774 0.004194 0.000000 0.000000 0.000000
# 4 0.000000 0.000000 0.000000 0.018237 0.000000 0.000000
# 5 0.000000 0.000000 0.000000 0.000000 0.002527 0.000000
# 6 0.000000 0.000000 0.000000 0.000000 0.000000 0.045373
#
#
# Mechanical properties :
#
#
# Convention : Reuss Voigt Hill
#
# Bulk Modulus (GPa) = 42.99924 74.46972 58.73448
# Shear Modulus (GPa) = 47.53630 126.41955 86.97792
#
# Velocity S-wave (km/s) = 4.19302 6.83788 5.67177
# Velocity P-wave (km/s) = 6.27258 9.48077 8.03835
#
# Compressibility (1/GPa) = 0.02325623
#
# Stress axis : x y z
#
# Youngs Moduli (GPa) = 53.47408 228.28929 238.43417
#
# Poissons Ratio (x) = -0.00039 0.29502
# Poissons Ratio (y) = -0.00009 0.18451
# Poissons Ratio (z) = 0.06616 0.17666
#
# Static dielectric constant tensor:
#      x y z
#    x 4.684800 0.000000 0.000000 
#    y 0.000000 4.912740 0.000000 
#    z 0.000000 0.000000 5.133000 
# 
# 
# High freq. dielectric constant tensor:
#      x y z
#    x 2.124320 0.000000 0.000000 
#    y 0.000000 2.075560 0.000000 
#    z 0.000000 0.000000 2.147440 
# 
# From -- ./inp_files/933.got.cif
#   From: 2010.03.12/outbox.cif.g09.slc.cpg/sg54_1_cif.got.tgz:933.got - 2010.04.16 15:00:50.
