data_PCOD8222207
_publ_section_title
;
Structure prediction by ZEFSAII (Michael W. Deem and Ramdas Pophale) SiO2 
 PCOD8222207
Probable space group: P M N A
;
_chemical_formula_sum "Si O2"
_cell_formula_units_Z 16
_cell_length_a 14.783216
_cell_length_b 5.284910
_cell_length_c 7.339840
_cell_angle_alpha 90.000000
_cell_angle_beta 90.000000
_cell_angle_gamma 90.000000
_cell_volume 573.446770
_symmetry_space_group_name_H-M "P M N A"
_symmetry_group_IT_number 53
_symmetry_cell_setting 'orthorhombic'
loop_
_space_group_symop_operation_xyz
x,y,z
1/2-x,-y,1/2+z
x,-y,-z
1/2-x,y,1/2-z
-x,-y,-z
1/2+x,y,1/2-z
-x,y,z
1/2+x,-y,1/2+z
loop_
_atom_site_type_symbol
_atom_site_label
_atom_site_fract_x
_atom_site_fract_y
_atom_site_fract_z
Si Si1 0.899912 0.784621 0.859153
Si Si2 0.250000 0.391014 0.750000
Si Si3 0.654919 0.000000 0.000000
O O1 0.831722 0.550471 0.838851
O O2 0.000000 0.689873 0.917299
O O3 0.908871 0.906645 0.660549
O O4 0.864558 0.000000 0.000000
O O5 0.282431 0.224697 0.921564
#
# Coordination Sequence:
#
# PCOD8222207 Si02
#       3
#     8   4   4
#     4  11  29  56  88 126 168 221 285 356 429 504
#     4  12  30  54  86 128 174 230 284 348 428 506
#     4  12  29  48  85 124 174 226 283 348 415 516
#
# _framework density 27.901457000000001
#
# number of rings (size 3 to 8) (size 9 to 14) (size 15 to 20)
#    0.000    0.500    0.000    3.750   21.000    6.000 
#    0.000    6.250    0.000    0.000    0.000    0.000 
#    0.000    0.000    0.000    0.000    0.000    0.000 
#
# Total GULP energy -198329.034829 kJ/mol
# GULP energy per Si atom -12395.564677 kJ/mol
# Density = 2.783795 g / cm^3
# Si number density = 27.901457 Si / 1000 Ang^3
#
#
#
# Elastic Constant Matrix: (Units=GPa)
#
#
# Indices 1 2 3 4 5 6 
#
# 1 191.9487 93.6804 19.1103 0.0000 0.0000 0.0000
# 2 93.6804 211.8043 71.1598 0.0000 0.0000 0.0000
# 3 19.1103 71.1598 201.5547 0.0000 0.0000 0.0000
# 4 0.0000 0.0000 0.0000 60.4071 0.0000 0.0000
# 5 0.0000 0.0000 0.0000 0.0000 -33.8707 0.0000
# 6 0.0000 0.0000 0.0000 0.0000 0.000015203.4168
#
#
#
# Elastic Compliance Matrix: (Units=1/GPa)
#
#
# Indices 1 2 3 4 5 6 
#
# 1 0.006682 -0.003112 0.000465 0.000000 0.000000 0.000000
# 2 -0.003112 0.006806 -0.002108 0.000000 0.000000 0.000000
# 3 0.000465 -0.002108 0.005662 0.000000 0.000000 0.000000
# 4 0.000000 0.000000 0.000000 0.016554 0.000000 0.000000
# 5 0.000000 0.000000 0.000000 0.000000 -0.029524 0.000000
# 6 0.000000 0.000000 0.000000 0.000000 0.000000 0.000066
#
#
# Mechanical properties :
#
#
# Convention : Reuss Voigt Hill
#
# Bulk Modulus (GPa) = 103.72915 108.13429 105.93172
# Shear Modulus (GPa) = 263.60342 3074.08112 1668.84227
#
# Velocity S-wave (km/s) = 9.73045 33.22884 24.48303
# Velocity P-wave (km/s) = 12.78671 38.87219 28.93568
#
# Compressibility (1/GPa) = 0.00964049
#
# Stress axis : x y z
#
# Youngs Moduli (GPa) = 149.65376 146.93372 176.63163
#
# Poissons Ratio (x) = 0.45721 -0.08214
# Poissons Ratio (y) = 0.46568 0.37230
# Poissons Ratio (z) = -0.06960 0.30970
#
# Static dielectric constant tensor:
#      x y z
#    x 4.712020 0.000000 0.000000 
#    y 0.000000 5.377980 0.000000 
#    z 0.000000 0.000000 5.960630 
# 
# 
# High freq. dielectric constant tensor:
#      x y z
#    x 2.131820 0.000000 0.000000 
#    y 0.000000 2.140280 0.000000 
#    z 0.000000 0.000000 2.170060 
# 
# From -- ./inp_files/9021.got.cif
#   From: 2010.03.12/outbox.cif.g09.slc.cpg/sg53_5_cif.got.tgz:9021.got - 2010.04.16 14:36:59.
