data_PCOD8222730
_publ_section_title
;
Structure prediction by ZEFSAII (Michael W. Deem and Ramdas Pophale) SiO2 
 PCOD8222730
Probable space group: P C C A
;
_chemical_formula_sum "Si O2"
_cell_formula_units_Z 32
_cell_length_a 9.875647
_cell_length_b 10.382110
_cell_length_c 13.944864
_cell_angle_alpha 90.000000
_cell_angle_beta 90.000000
_cell_angle_gamma 90.000000
_cell_volume 1429.767652
_symmetry_space_group_name_H-M "P C C A"
_symmetry_group_IT_number 54
_symmetry_cell_setting 'orthorhombic'
loop_
_space_group_symop_operation_xyz
x,y,z
1/2-x,-y,z
1/2+x,-y,1/2-z
-x,y,1/2-z
-x,-y,-z
1/2+x,y,-z
1/2-x,y,1/2+z
x,-y,1/2+z
loop_
_atom_site_type_symbol
_atom_site_label
_atom_site_fract_x
_atom_site_fract_y
_atom_site_fract_z
Si Si1 0.304985 0.305403 0.353091
Si Si2 0.045512 0.452150 0.397416
Si Si3 0.871008 0.089020 0.505290
Si Si4 0.623169 0.236214 0.812099
O O1 0.169419 0.350772 0.409862
O O2 0.405192 0.425640 0.335134
O O3 0.386484 0.201457 0.416255
O O4 0.260049 0.247581 0.250517
O O5 0.000000 0.500000 0.500000
O O6 0.921847 0.380262 0.344696
O O7 0.840841 0.147406 0.401223
O O8 0.750000 0.000000 0.540094
O O9 0.000000 0.000000 0.500000
O O10 0.500000 0.174301 0.750000
#
# Coordination Sequence:
#
# PCOD8222730 Si02
#       4
#     8   8   8   8
#     4  10  23  43  66 103 137 180 233 292 358 426
#     4  10  19  42  70  97 140 176 225 294 367 429
#     4  12  26  46  73  98 139 193 242 289 345 412
#     4  10  22  44  67 102 138 177 234 293 353 426
#
# _framework density 22.381259
#
# number of rings (size 3 to 8) (size 9 to 14) (size 15 to 20)
#    0.000    1.500    2.500    3.000    0.000    3.000 
#   22.500    0.000    0.000    0.000    0.000    0.000 
#    0.000    0.000    0.000    0.000    0.000    0.000 
#
# Total GULP energy -396837.337011 kJ/mol
# GULP energy per Si atom -12401.166782 kJ/mol
# Density = 2.233032 g / cm^3
# Si number density = 22.381259 Si / 1000 Ang^3
#
#
#
# Elastic Constant Matrix: (Units=GPa)
#
#
# Indices 1 2 3 4 5 6 
#
# 1 71.0993 40.3705 22.0094 0.0000 0.0000 0.0000
# 2 40.3705 119.7620 41.2319 0.0000 0.0000 0.0000
# 3 22.0094 41.2319 113.9711 0.0000 0.0000 0.0000
# 4 0.0000 0.0000 0.0000 32.1619 0.0000 0.0000
# 5 0.0000 0.0000 0.0000 0.0000 38.8599 0.0000
# 6 0.0000 0.0000 0.0000 0.0000 0.0000 37.1373
#
#
#
# Elastic Compliance Matrix: (Units=1/GPa)
#
#
# Indices 1 2 3 4 5 6 
#
# 1 0.017596 -0.005439 -0.001430 0.000000 0.000000 0.000000
# 2 -0.005439 0.011219 -0.003008 0.000000 0.000000 0.000000
# 3 -0.001430 -0.003008 0.010139 0.000000 0.000000 0.000000
# 4 0.000000 0.000000 0.000000 0.031093 0.000000 0.000000
# 5 0.000000 0.000000 0.000000 0.000000 0.025733 0.000000
# 6 0.000000 0.000000 0.000000 0.000000 0.000000 0.026927
#
#
# Mechanical properties :
#
#
# Convention : Reuss Voigt Hill
#
# Bulk Modulus (GPa) = 52.08811 56.89511 54.49161
# Shear Modulus (GPa) = 33.58822 35.04654 34.31738
#
# Velocity S-wave (km/s) = 3.87813 3.96142 3.92000
# Velocity P-wave (km/s) = 6.58611 6.81175 6.69988
#
# Compressibility (1/GPa) = 0.01919824
#
# Stress axis : x y z
#
# Youngs Moduli (GPa) = 56.83157 89.13406 98.63144
#
# Poissons Ratio (x) = 0.48479 0.14108
# Poissons Ratio (y) = 0.30910 0.29673
# Poissons Ratio (z) = 0.08129 0.26815
#
# Static dielectric constant tensor:
#      x y z
#    x 3.961200 0.000000 0.000000 
#    y 0.000000 4.290970 0.000000 
#    z 0.000000 0.000000 4.154320 
# 
# 
# High freq. dielectric constant tensor:
#      x y z
#    x 1.870870 0.000000 0.000000 
#    y 0.000000 1.883650 0.000000 
#    z 0.000000 0.000000 1.882830 
# 
# From -- ./inp_files/11313.got.cif
#   From: 2010.03.12/outbox.cif.g09.slc.cpg/sg54_6_cif.got.tgz:11313.got - 2010.04.16 15:00:50.
