data_PCOD8222010
_publ_section_title
;
Structure prediction by ZEFSAII (Michael W. Deem and Ramdas Pophale) SiO2 
 PCOD8222010
Probable space group: P M N A
;
_chemical_formula_sum "Si O2"
_cell_formula_units_Z 56
_cell_length_a 8.653502
_cell_length_b 19.145732
_cell_length_c 17.363906
_cell_angle_alpha 90.000000
_cell_angle_beta 90.000000
_cell_angle_gamma 90.000000
_cell_volume 2876.810796
_symmetry_space_group_name_H-M "P M N A"
_symmetry_group_IT_number 53
_symmetry_cell_setting 'orthorhombic'
loop_
_space_group_symop_operation_xyz
x,y,z
1/2-x,-y,1/2+z
x,-y,-z
1/2-x,y,1/2-z
-x,-y,-z
1/2+x,y,1/2-z
-x,y,z
1/2+x,-y,1/2+z
loop_
_atom_site_type_symbol
_atom_site_label
_atom_site_fract_x
_atom_site_fract_y
_atom_site_fract_z
Si Si1 0.182293 0.962057 0.578355
Si Si2 0.816803 0.286296 0.062096
Si Si3 0.681572 0.354575 0.670545
Si Si4 0.683011 0.219236 0.590829
Si Si5 0.182674 0.834937 0.834252
Si Si6 0.316266 0.082081 0.669605
Si Si7 0.684116 0.576588 0.485870
O O1 0.258154 0.887392 0.598643
O O2 0.000000 0.951969 0.573994
O O3 0.244829 0.000000 0.500000
O O4 0.230928 0.010752 0.649097
O O5 0.768272 0.244580 0.139941
O O6 0.759125 0.366977 0.051659
O O7 0.000000 0.286751 0.055903
O O8 0.747137 0.241729 0.991102
O O9 0.750000 0.383572 0.750000
O O10 0.500000 0.361123 0.676389
O O11 0.735867 0.274554 0.656280
O O12 0.741775 0.400193 0.598465
O O13 0.500000 0.221391 0.587103
O O14 0.738426 0.141246 0.609382
O O15 0.250000 0.851132 0.750000
O O16 0.000000 0.843032 0.829303
O O17 0.250000 0.108033 0.750000
O O18 0.500000 0.071497 0.671714
O O19 0.756343 0.500000 0.500000
O O20 0.500000 0.573331 0.488221
#
# Coordination Sequence:
#
# PCOD8222010 Si02
#       7
#     8   8   8   8   8   8   8
#     4  11  24  40  56  75 100 129 167 216 266 314
#     4   8  15  29  50  74  97 127 169 210 247 294
#     4   9  16  27  45  70  99 128 160 199 242 292
#     4   8  15  28  47  71  97 126 162 202 242 291
#     4  11  22  37  57  78 104 138 178 222 266 313
#     4  11  21  33  50  72 100 131 164 202 248 299
#     4   8  14  27  49  75 101 131 169 209 247 293
#
# _framework density 19.466000999999999
#
# number of rings (size 3 to 8) (size 9 to 14) (size 15 to 20)
#    0.000    2.571    0.000    4.714    0.000    2.286 
#    0.000    1.429    0.000    7.286    0.000    0.000 
#    0.000    0.000    0.000    0.000    0.000    0.000 
#
# Total GULP energy -693792.140181 kJ/mol
# GULP energy per Si atom -12389.145360 kJ/mol
# Density = 1.942170 g / cm^3
# Si number density = 19.466001 Si / 1000 Ang^3
#
#
#
# Elastic Constant Matrix: (Units=GPa)
#
#
# Indices 1 2 3 4 5 6 
#
# 1 39.9954 22.9699 22.8365 0.0000 0.0000 0.0000
# 2 22.9699 140.1066 44.4774 0.0000 0.0000 0.0000
# 3 22.8365 44.4774 90.6634 0.0000 0.0000 0.0000
# 4 0.0000 0.0000 0.0000 28.5606 0.0000 0.0000
# 5 0.0000 0.0000 0.0000 0.0000 23.0333 0.0000
# 6 0.0000 0.0000 0.0000 0.0000 0.0000 10.6461
#
#
#
# Elastic Compliance Matrix: (Units=1/GPa)
#
#
# Indices 1 2 3 4 5 6 
#
# 1 0.030236 -0.003008 -0.006140 0.000000 0.000000 0.000000
# 2 -0.003008 0.008753 -0.003537 0.000000 0.000000 0.000000
# 3 -0.006140 -0.003537 0.014311 0.000000 0.000000 0.000000
# 4 0.000000 0.000000 0.000000 0.035013 0.000000 0.000000
# 5 0.000000 0.000000 0.000000 0.000000 0.043415 0.000000
# 6 0.000000 0.000000 0.000000 0.000000 0.000000 0.093931
#
#
# Mechanical properties :
#
#
# Convention : Reuss Voigt Hill
#
# Bulk Modulus (GPa) = 35.80192 50.14810 42.97501
# Shear Modulus (GPa) = 19.20559 24.48010 21.84284
#
# Velocity S-wave (km/s) = 3.14446 3.55009 3.35341
# Velocity P-wave (km/s) = 5.62276 6.52855 6.09251
#
# Compressibility (1/GPa) = 0.02793146
#
# Stress axis : x y z
#
# Youngs Moduli (GPa) = 33.07275 114.24364 69.87431
#
# Poissons Ratio (x) = 0.34362 0.42906
# Poissons Ratio (y) = 0.09948 0.24711
# Poissons Ratio (z) = 0.20308 0.40402
#
# Static dielectric constant tensor:
#      x y z
#    x 3.085860 0.000000 0.000000 
#    y 0.000000 3.947570 0.000000 
#    z 0.000000 0.000000 3.640890 
# 
# 
# High freq. dielectric constant tensor:
#      x y z
#    x 1.715570 0.000000 0.000000 
#    y 0.000000 1.760550 0.000000 
#    z 0.000000 0.000000 1.754880 
# 
# From -- ./inp_files/20645.got.cif
#   From: 2010.03.12/outbox.cif.g09.slc.cpg/sg53_11_cif.got.tgz:20645.got - 2010.04.16 14:36:59.
