data_PCOD8222478
_publ_section_title
;
Structure prediction by ZEFSAII (Michael W. Deem and Ramdas Pophale) SiO2 
 PCOD8222478
Probable space group: P C C A
;
_chemical_formula_sum "Si O2"
_cell_formula_units_Z 44
_cell_length_a 8.675279
_cell_length_b 11.340664
_cell_length_c 25.259723
_cell_angle_alpha 90.000000
_cell_angle_beta 90.000000
_cell_angle_gamma 90.000000
_cell_volume 2485.138044
_symmetry_space_group_name_H-M "P C C A"
_symmetry_group_IT_number 54
_symmetry_cell_setting 'orthorhombic'
loop_
_space_group_symop_operation_xyz
x,y,z
1/2-x,-y,z
1/2+x,-y,1/2-z
-x,y,1/2-z
-x,-y,-z
1/2+x,y,-z
1/2-x,y,1/2+z
x,-y,1/2+z
loop_
_atom_site_type_symbol
_atom_site_label
_atom_site_fract_x
_atom_site_fract_y
_atom_site_fract_z
Si Si1 0.031474 0.700357 0.356607
Si Si2 0.793562 0.365814 0.941606
Si Si3 0.726707 0.124410 0.607564
Si Si4 0.250000 0.500000 0.887418
Si Si5 0.000000 0.166576 0.750000
Si Si6 0.750000 0.000000 0.708206
Si Si7 0.050176 0.682004 0.951108
O O1 0.110661 0.806619 0.388854
O O2 0.155811 0.593084 0.351438
O O3 0.877300 0.657498 0.385956
O O4 0.980303 0.746332 0.299445
O O5 0.750000 0.500000 0.949651
O O6 0.631465 0.300124 0.944506
O O7 0.908853 0.321930 0.987177
O O8 0.605661 0.199020 0.575669
O O9 0.750000 0.000000 0.576715
O O10 0.664750 0.092664 0.667562
O O11 0.123162 0.565957 0.923740
O O12 0.143306 0.077722 0.754039
#
# Coordination Sequence:
#
# PCOD8222478 Si02
#       7
#     8   8   8   4   4   4   8
#     4  10  21  37  58  84 115 147 195 241 285 340
#     4  12  22  36  55  90 118 155 195 233 285 365
#     4   8  18  38  58  81 112 153 189 236 282 344
#     4  10  18  36  56  80 114 154 186 230 286 342
#     4  10  20  40  62  84 112 150 194 248 288 340
#     4   8  18  36  64  78 112 148 192 234 294 344
#     4  11  20  34  60  83 119 155 189 229 291 345
#
# _framework density 17.705254
#
# number of rings (size 3 to 8) (size 9 to 14) (size 15 to 20)
#    0.545    1.455    2.727    2.727    0.000    1.455 
#    1.636    3.636    0.000    0.000    0.000    0.000 
#    0.000    0.000    0.000    0.000    0.000    0.000 
#
# Total GULP energy -545231.776355 kJ/mol
# GULP energy per Si atom -12391.631281 kJ/mol
# Density = 1.766496 g / cm^3
# Si number density = 17.705254 Si / 1000 Ang^3
#
#
#
# Elastic Constant Matrix: (Units=GPa)
#
#
# Indices 1 2 3 4 5 6 
#
# 1 108.7941 44.1579 56.2737 0.0000 0.0000 0.0000
# 2 44.1579 117.0986 48.2451 0.0000 0.0000 0.0000
# 3 56.2737 48.2451 104.7926 0.0000 0.0000 0.0000
# 4 0.0000 0.0000 0.0000 -7.3895 0.0000 0.0000
# 5 0.0000 0.0000 0.0000 0.0000 30.9393 0.0000
# 6 0.0000 0.0000 0.0000 0.0000 0.0000 17.2022
#
#
#
# Elastic Compliance Matrix: (Units=1/GPa)
#
#
# Indices 1 2 3 4 5 6 
#
# 1 0.013322 -0.002562 -0.005974 0.000000 0.000000 0.000000
# 2 -0.002562 0.011032 -0.003703 0.000000 0.000000 0.000000
# 3 -0.005974 -0.003703 0.014456 0.000000 0.000000 0.000000
# 4 0.000000 0.000000 0.000000 -0.135328 0.000000 0.000000
# 5 0.000000 0.000000 0.000000 0.000000 0.032321 0.000000
# 6 0.000000 0.000000 0.000000 0.000000 0.000000 0.058132
#
#
# Mechanical properties :
#
#
# Convention : Reuss Voigt Hill
#
# Bulk Modulus (GPa) = 69.78201 69.78207 69.78204
# Shear Modulus (GPa) = 215.61023 20.28431 117.94727
#
# Velocity S-wave (km/s) = 11.04726 3.38844 8.17078
# Velocity P-wave (km/s) = 14.22045 7.40321 11.33642
#
# Compressibility (1/GPa) = 0.01433034
#
# Stress axis : x y z
#
# Youngs Moduli (GPa) = 75.06485 90.64835 69.17746
#
# Poissons Ratio (x) = 0.23226 0.41328
# Poissons Ratio (y) = 0.19234 0.25616
# Poissons Ratio (z) = 0.44845 0.33566
#
# Static dielectric constant tensor:
#      x y z
#    x 2.584890 0.000000 0.000000 
#    y 0.000000 3.436940 0.000000 
#    z 0.000000 0.000000 3.117290 
# 
# 
# High freq. dielectric constant tensor:
#      x y z
#    x 1.677510 0.000000 0.000000 
#    y 0.000000 1.695040 0.000000 
#    z 0.000000 0.000000 1.667620 
# 
# From -- ./inp_files/23437.got.cif
#   From: 2010.03.12/outbox.cif.g09.slc.cpg/sg54_12_cif.got.tgz:23437.got - 2010.04.16 15:00:50.
