data_PCOD8222780
_publ_section_title
;
Structure prediction by ZEFSAII (Michael W. Deem and Ramdas Pophale) SiO2 
 PCOD8222780
Probable space group: P C C A
;
_chemical_formula_sum "Si O2"
_cell_formula_units_Z 40
_cell_length_a 4.887113
_cell_length_b 12.283212
_cell_length_c 33.124974
_cell_angle_alpha 90.000000
_cell_angle_beta 90.000000
_cell_angle_gamma 90.000000
_cell_volume 1988.473806
_symmetry_space_group_name_H-M "P C C A"
_symmetry_group_IT_number 54
_symmetry_cell_setting 'orthorhombic'
loop_
_space_group_symop_operation_xyz
x,y,z
1/2-x,-y,z
1/2+x,-y,1/2-z
-x,y,1/2-z
-x,-y,-z
1/2+x,y,-z
1/2-x,y,1/2+z
x,-y,1/2+z
loop_
_atom_site_type_symbol
_atom_site_label
_atom_site_fract_x
_atom_site_fract_y
_atom_site_fract_z
Si Si1 0.860931 0.716135 0.388616
Si Si2 0.707548 0.623273 0.972379
Si Si3 0.505515 0.070556 0.154947
Si Si4 0.146101 0.621257 0.847262
Si Si5 0.252761 0.219490 0.277457
O O1 0.766105 0.705918 0.434992
O O2 0.867405 0.842458 0.375604
O O3 0.665970 0.639645 0.361177
O O4 0.168933 0.674309 0.382358
O O5 0.750000 0.500000 0.956028
O O6 0.412996 0.645513 0.991298
O O7 0.647989 0.121856 0.194126
O O8 0.250000 0.000000 0.170087
O O9 0.750000 0.000000 0.133691
O O10 0.250000 0.500000 0.841613
O O11 0.168950 0.677581 0.804040
O O12 0.500000 0.259842 0.250000
O O13 0.000000 0.179574 0.250000
#
# Coordination Sequence:
#
# PCOD8222780 Si02
#       5
#     8   8   8   8   8
#     4  11  22  39  60  85 118 151 194 239 278 343
#     4  10  20  34  57  89 120 149 180 222 282 342
#     4  11  23  41  62  83 109 151 200 247 298 341
#     4  11  22  37  59  84 115 157 193 227 282 350
#     4  11  23  39  57  84 115 144 189 243 293 345
#
# _framework density 20.115931
#
# number of rings (size 3 to 8) (size 9 to 14) (size 15 to 20)
#    0.000    1.200    0.000    9.000    0.000    4.000 
#    0.000    2.000    0.000    3.600    0.000    0.000 
#    0.000    0.000    0.000    0.000    0.000    0.000 
#
# Total GULP energy -495945.013601 kJ/mol
# GULP energy per Si atom -12398.625340 kJ/mol
# Density = 2.007015 g / cm^3
# Si number density = 20.115931 Si / 1000 Ang^3
#
#
#
# Elastic Constant Matrix: (Units=GPa)
#
#
# Indices 1 2 3 4 5 6 
#
# 1 91.7017 29.0378 28.3389 0.0000 0.0000 0.0000
# 2 29.0378 113.3083 51.1170 0.0000 0.0000 0.0000
# 3 28.3389 51.1170 119.4704 0.0000 0.0000 0.0000
# 4 0.0000 0.0000 0.0000 2.0859 0.0000 0.0000
# 5 0.0000 0.0000 0.0000 0.0000 -4.6841 0.0000
# 6 0.0000 0.0000 0.0000 0.0000 0.0000 36.4958
#
#
#
# Elastic Compliance Matrix: (Units=1/GPa)
#
#
# Indices 1 2 3 4 5 6 
#
# 1 0.012217 -0.002260 -0.001931 0.000000 0.000000 0.000000
# 2 -0.002260 0.011354 -0.004322 0.000000 0.000000 0.000000
# 3 -0.001931 -0.004322 0.010678 0.000000 0.000000 0.000000
# 4 0.000000 0.000000 0.000000 0.479408 0.000000 0.000000
# 5 0.000000 0.000000 0.000000 0.000000 -0.213489 0.000000
# 6 0.000000 0.000000 0.000000 0.000000 0.000000 0.027400
#
#
# Mechanical properties :
#
#
# Convention : Reuss Voigt Hill
#
# Bulk Modulus (GPa) = 58.06078 60.16307 59.11193
# Shear Modulus (GPa) = 14.27202 21.17864 17.72533
#
# Velocity S-wave (km/s) = 2.66651 3.24825 2.97165
# Velocity P-wave (km/s) = 6.19727 6.63636 6.42057
#
# Compressibility (1/GPa) = 0.01722333
#
# Stress axis : x y z
#
# Youngs Moduli (GPa) = 81.85135 88.07133 93.65382
#
# Poissons Ratio (x) = 0.19902 0.18086
# Poissons Ratio (y) = 0.18496 0.40478
# Poissons Ratio (z) = 0.15807 0.38065
#
# Static dielectric constant tensor:
#      x y z
#    x 3.941100 0.000000 0.000000 
#    y 0.000000 3.693320 0.000000 
#    z 0.000000 0.000000 3.442080 
# 
# 
# High freq. dielectric constant tensor:
#      x y z
#    x 1.813540 0.000000 0.000000 
#    y 0.000000 1.770900 0.000000 
#    z 0.000000 0.000000 1.770210 
# 
# From -- ./inp_files/27049.got.cif
#   From: 2010.03.12/outbox.cif.g09.slc.cpg/sg54_14_cif.got.tgz:27049.got - 2010.04.16 15:00:50.
