data_PCOD8222231
_publ_section_title
;
Structure prediction by ZEFSAII (Michael W. Deem and Ramdas Pophale) SiO2 
 PCOD8222231
Probable space group: P M N A
;
_chemical_formula_sum "Si O2"
_cell_formula_units_Z 24
_cell_length_a 9.810810
_cell_length_b 7.818359
_cell_length_c 13.865754
_cell_angle_alpha 90.000000
_cell_angle_beta 90.000000
_cell_angle_gamma 90.000000
_cell_volume 1063.564822
_symmetry_space_group_name_H-M "P M N A"
_symmetry_group_IT_number 53
_symmetry_cell_setting 'orthorhombic'
loop_
_space_group_symop_operation_xyz
x,y,z
1/2-x,-y,1/2+z
x,-y,-z
1/2-x,y,1/2-z
-x,-y,-z
1/2+x,y,1/2-z
-x,y,z
1/2+x,-y,1/2+z
loop_
_atom_site_type_symbol
_atom_site_label
_atom_site_fract_x
_atom_site_fract_y
_atom_site_fract_z
Si Si1 0.757460 0.859101 0.068915
Si Si2 0.750000 0.067772 0.250000
Si Si3 0.500000 0.707286 0.740025
Si Si4 0.000000 0.396140 0.902059
Si Si5 0.500000 0.308110 0.031282
O O1 0.865205 0.718221 0.102793
O O2 0.695153 0.948020 0.164060
O O3 0.634216 0.781657 0.008192
O O4 0.829485 0.000000 0.000000
O O5 0.631506 0.186658 0.293605
O O6 0.500000 0.522389 0.689460
O O7 0.500000 0.689273 0.854112
O O8 0.000000 0.500000 0.000000
O O9 0.500000 0.500000 0.000000
#
# Coordination Sequence:
#
# PCOD8222231 Si02
#       5
#     8   4   4   4   4
#     4  12  25  49  75 108 146 192 248 298 371 436
#     4  12  26  46  78 106 144 194 246 310 360 444
#     4  12  28  50  73 110 149 193 248 304 376 433
#     4  12  28  46  74 110 150 192 240 309 370 441
#     4  12  28  47  75 107 150 196 244 307 363 446
#
# _framework density 22.565619999999999
#
# number of rings (size 3 to 8) (size 9 to 14) (size 15 to 20)
#    0.000    0.000    3.333    6.000    9.333    0.000 
#    0.000    0.000    0.000    0.000    0.000    0.000 
#    0.000    0.000    0.000    0.000    0.000    0.000 
#
# Total GULP energy -297731.720863 kJ/mol
# GULP energy per Si atom -12405.488369 kJ/mol
# Density = 2.251426 g / cm^3
# Si number density = 22.565620 Si / 1000 Ang^3
#
#
#
# Elastic Constant Matrix: (Units=GPa)
#
#
# Indices 1 2 3 4 5 6 
#
# 1 150.4196 71.0768 41.6267 0.0000 0.0000 0.0000
# 2 71.0768 164.4209 78.9195 0.0000 0.0000 0.0000
# 3 41.6267 78.9195 159.7534 0.0000 0.0000 0.0000
# 4 0.0000 0.0000 0.0000 65.0489 0.0000 0.0000
# 5 0.0000 0.0000 0.0000 0.0000 33.9596 0.0000
# 6 0.0000 0.0000 0.0000 0.0000 0.0000 -8.4231
#
#
#
# Elastic Compliance Matrix: (Units=1/GPa)
#
#
# Indices 1 2 3 4 5 6 
#
# 1 0.008387 -0.003378 -0.000517 0.000000 0.000000 0.000000
# 2 -0.003378 0.009332 -0.003730 0.000000 0.000000 0.000000
# 3 -0.000517 -0.003730 0.008237 0.000000 0.000000 0.000000
# 4 0.000000 0.000000 0.000000 0.015373 0.000000 0.000000
# 5 0.000000 0.000000 0.000000 0.000000 0.029447 0.000000
# 6 0.000000 0.000000 0.000000 0.000000 0.000000 -0.118721
#
#
# Mechanical properties :
#
#
# Convention : Reuss Voigt Hill
#
# Bulk Modulus (GPa) = 93.39379 95.31557 94.35468
# Shear Modulus (GPa) = -171.66598 36.98180 -67.34209
#
# Velocity S-wave (km/s) = -8.73151 4.05267 -5.46878
# Velocity P-wave (km/s) = 7.75725 8.01435 1.42390
#
# Compressibility (1/GPa) = 0.01070735
#
# Stress axis : x y z
#
# Youngs Moduli (GPa) = 119.23121 107.15284 121.40194
#
# Poissons Ratio (x) = 0.36191 0.06275
# Poissons Ratio (y) = 0.40271 0.45286
# Poissons Ratio (z) = 0.06163 0.39971
#
# Static dielectric constant tensor:
#      x y z
#    x 4.025720 0.000000 0.000000 
#    y 0.000000 4.551650 0.000000 
#    z 0.000000 0.000000 4.204970 
# 
# 
# High freq. dielectric constant tensor:
#      x y z
#    x 1.890270 0.000000 0.000000 
#    y 0.000000 1.911460 0.000000 
#    z 0.000000 0.000000 1.910280 
# 
# From -- ./inp_files/19398.got.cif
#   From: 2010.03.12/outbox.cif.g09.slc.cpg/sg53_10_cif.got.tgz:19398.got - 2010.04.16 14:36:59.
