data_PCOD8222084
_publ_section_title
;
Structure prediction by ZEFSAII (Michael W. Deem and Ramdas Pophale) SiO2 
 PCOD8222084
Probable space group: P M N A
;
_chemical_formula_sum "Si O2"
_cell_formula_units_Z 48
_cell_length_a 9.116768
_cell_length_b 20.321374
_cell_length_c 14.033370
_cell_angle_alpha 90.000000
_cell_angle_beta 90.000000
_cell_angle_gamma 90.000000
_cell_volume 2599.895832
_symmetry_space_group_name_H-M "P M N A"
_symmetry_group_IT_number 53
_symmetry_cell_setting 'orthorhombic'
loop_
_space_group_symop_operation_xyz
x,y,z
1/2-x,-y,1/2+z
x,-y,-z
1/2-x,y,1/2-z
-x,-y,-z
1/2+x,y,1/2-z
-x,y,z
1/2+x,-y,1/2+z
loop_
_atom_site_type_symbol
_atom_site_label
_atom_site_fract_x
_atom_site_fract_y
_atom_site_fract_z
Si Si1 0.326745 0.343519 0.042907
Si Si2 0.172463 0.467227 0.344369
Si Si3 0.327959 0.899525 0.542426
Si Si4 0.827913 0.616368 0.344343
Si Si5 0.324736 0.214955 0.148776
Si Si6 0.670496 0.968380 0.348987
O O1 0.500000 0.340036 0.048636
O O2 0.273736 0.415668 0.076152
O O3 0.264855 0.284533 0.107572
O O4 0.277909 0.337405 0.932315
O O5 0.250000 0.442220 0.250000
O O6 0.220434 0.541514 0.369381
O O7 0.000000 0.463297 0.329265
O O8 0.500000 0.882235 0.551329
O O9 0.226727 0.839184 0.573146
O O10 0.288099 0.916836 0.432760
O O11 0.287957 0.959385 0.612989
O O12 0.750000 0.643145 0.250000
O O13 0.000000 0.619760 0.326360
O O14 0.250000 0.201825 0.250000
O O15 0.500000 0.212522 0.159952
O O16 0.750000 0.951379 0.250000
O O17 0.500000 0.964283 0.326853
#
# Coordination Sequence:
#
# PCOD8222084 Si02
#       6
#     8   8   8   8   8   8
#     4   9  18  32  49  69  95 128 164 198 237 291
#     4   9  16  28  48  71  94 122 156 198 246 291
#     4   9  19  36  54  76 106 137 168 203 245 291
#     4   9  17  31  50  70  92 121 160 203 246 291
#     4  11  22  35  52  74 101 133 166 201 243 294
#     4   9  18  33  55  80 106 134 166 207 249 288
#
# _framework density 18.462277
#
# number of rings (size 3 to 8) (size 9 to 14) (size 15 to 20)
#    0.000    2.667    0.000    3.000    0.000    4.667 
#    0.000    5.833    0.000    8.000    0.000    0.000 
#    0.000    0.000    0.000    0.000    0.000    0.000 
#
# Total GULP energy -594934.899930 kJ/mol
# GULP energy per Si atom -12394.477082 kJ/mol
# Density = 1.842026 g / cm^3
# Si number density = 18.462277 Si / 1000 Ang^3
#
#
#
# Elastic Constant Matrix: (Units=GPa)
#
#
# Indices 1 2 3 4 5 6 
#
# 1 40.2549 23.6567 39.0396 0.0000 0.0000 0.0000
# 2 23.6567 55.7938 42.1028 0.0000 0.0000 0.0000
# 3 39.0396 42.1028 143.3192 0.0000 0.0000 0.0000
# 4 0.0000 0.0000 0.0000 28.7470 0.0000 0.0000
# 5 0.0000 0.0000 0.0000 0.0000 34.1167 0.0000
# 6 0.0000 0.0000 0.0000 0.0000 0.0000 30.6857
#
#
#
# Elastic Compliance Matrix: (Units=1/GPa)
#
#
# Indices 1 2 3 4 5 6 
#
# 1 0.038168 -0.010713 -0.007250 0.000000 0.000000 0.000000
# 2 -0.010713 0.026035 -0.004730 0.000000 0.000000 0.000000
# 3 -0.007250 -0.004730 0.010342 0.000000 0.000000 0.000000
# 4 0.000000 0.000000 0.000000 0.034786 0.000000 0.000000
# 5 0.000000 0.000000 0.000000 0.000000 0.029311 0.000000
# 6 0.000000 0.000000 0.000000 0.000000 0.000000 0.032588
#
#
# Mechanical properties :
#
#
# Convention : Reuss Voigt Hill
#
# Bulk Modulus (GPa) = 34.29397 49.88512 42.08955
# Shear Modulus (GPa) = 22.09110 27.68114 24.88612
#
# Velocity S-wave (km/s) = 3.46288 3.87633 3.67542
# Velocity P-wave (km/s) = 5.88253 6.86391 6.39208
#
# Compressibility (1/GPa) = 0.02915964
#
# Stress axis : x y z
#
# Youngs Moduli (GPa) = 26.19985 38.41024 96.69468
#
# Poissons Ratio (x) = 0.41147 0.70102
# Poissons Ratio (y) = 0.28067 0.45738
# Poissons Ratio (z) = 0.18994 0.18169
#
# Static dielectric constant tensor:
#      x y z
#    x 3.154220 0.000000 0.000000 
#    y 0.000000 3.407480 0.000000 
#    z 0.000000 0.000000 3.464780 
# 
# 
# High freq. dielectric constant tensor:
#      x y z
#    x 1.693450 0.000000 0.000000 
#    y 0.000000 1.701450 0.000000 
#    z 0.000000 0.000000 1.728890 
# 
# From -- ./inp_files/20326.got.cif
#   From: 2010.03.12/outbox.cif.g09.slc.cpg/sg53_11_cif.got.tgz:20326.got - 2010.04.16 14:36:59.
