data_PCOD8222462
_publ_section_title
;
Structure prediction by ZEFSAII (Michael W. Deem and Ramdas Pophale) SiO2 
 PCOD8222462
Probable space group: P C C A
;
_chemical_formula_sum "Si O2"
_cell_formula_units_Z 48
_cell_length_a 16.065909
_cell_length_b 8.944078
_cell_length_c 16.646462
_cell_angle_alpha 90.000000
_cell_angle_beta 90.000000
_cell_angle_gamma 90.000000
_cell_volume 2392.009083
_symmetry_space_group_name_H-M "P C C A"
_symmetry_group_IT_number 54
_symmetry_cell_setting 'orthorhombic'
loop_
_space_group_symop_operation_xyz
x,y,z
1/2-x,-y,z
1/2+x,-y,1/2-z
-x,y,1/2-z
-x,-y,-z
1/2+x,y,-z
1/2-x,y,1/2+z
x,-y,1/2+z
loop_
_atom_site_type_symbol
_atom_site_label
_atom_site_fract_x
_atom_site_fract_y
_atom_site_fract_z
Si Si1 0.125418 0.683178 0.642486
Si Si2 0.368543 0.362713 0.940568
Si Si3 0.524676 0.169964 0.992602
Si Si4 0.500000 0.494556 0.750000
Si Si5 0.272802 0.674456 0.290050
Si Si6 0.250000 0.500000 0.045880
Si Si7 0.108526 0.672924 0.370093
O O1 0.091718 0.807327 0.579698
O O2 0.046782 0.611288 0.687045
O O3 0.193500 0.748758 0.707098
O O4 0.171288 0.549312 0.597721
O O5 0.445059 0.275895 0.979171
O O6 0.350565 0.304230 0.850851
O O7 0.380989 0.542577 0.936689
O O8 0.284308 0.356145 0.994733
O O9 0.561219 0.199309 0.081170
O O10 0.500000 0.000000 0.000000
O O11 0.560958 0.606186 0.705351
O O12 0.250000 0.500000 0.277585
O O13 0.191758 0.748188 0.331163
#
# Coordination Sequence:
#
# PCOD8222462 Si02
#       7
#     8   8   8   4   8   4   8
#     4  12  20  35  61  98 122 164 212 269 328 376
#     4  11  19  37  63  92 120 160 212 274 317 371
#     4  12  26  41  60  92 141 179 209 247 324 413
#     4  12  20  34  68  96 126 152 222 284 320 362
#     4  10  18  34  61  97 122 144 213 284 329 356
#     4  12  20  32  66  98 122 152 222 280 318 364
#     4  11  20  39  62  97 121 160 214 283 319 362
#
# _framework density 20.066813
#
# number of rings (size 3 to 8) (size 9 to 14) (size 15 to 20)
#    0.000    0.667   10.000    1.500    0.000    0.000 
#    0.000    5.833    0.000    4.000    0.000    0.000 
#    0.000    0.000    0.000    0.000    0.000    0.000 
#
# Total GULP energy -594789.250062 kJ/mol
# GULP energy per Si atom -12391.442710 kJ/mol
# Density = 2.002114 g / cm^3
# Si number density = 20.066813 Si / 1000 Ang^3
#
#
#
# Elastic Constant Matrix: (Units=GPa)
#
#
# Indices 1 2 3 4 5 6 
#
# 1 109.9607 34.8285 40.0228 0.0000 0.0000 0.0000
# 2 34.8285 63.8597 27.4240 0.0000 0.0000 0.0000
# 3 40.0228 27.4240 97.0008 0.0000 0.0000 0.0000
# 4 0.0000 0.0000 0.0000 12.5409 0.0000 0.0000
# 5 0.0000 0.0000 0.0000 0.0000 58.2705 0.0000
# 6 0.0000 0.0000 0.0000 0.0000 0.0000 15.9436
#
#
#
# Elastic Compliance Matrix: (Units=1/GPa)
#
#
# Indices 1 2 3 4 5 6 
#
# 1 0.011963 -0.005013 -0.003518 0.000000 0.000000 0.000000
# 2 -0.005013 0.019924 -0.003564 0.000000 0.000000 0.000000
# 3 -0.003518 -0.003564 0.012769 0.000000 0.000000 0.000000
# 4 0.000000 0.000000 0.000000 0.079739 0.000000 0.000000
# 5 0.000000 0.000000 0.000000 0.000000 0.017161 0.000000
# 6 0.000000 0.000000 0.000000 0.000000 0.000000 0.062721
#
#
# Mechanical properties :
#
#
# Convention : Reuss Voigt Hill
#
# Bulk Modulus (GPa) = 48.86850 52.81909 50.84379
# Shear Modulus (GPa) = 21.25029 28.58739 24.91884
#
# Velocity S-wave (km/s) = 3.25772 3.77850 3.52773
# Velocity P-wave (km/s) = 6.20936 6.73905 6.47962
#
# Compressibility (1/GPa) = 0.02046308
#
# Stress axis : x y z
#
# Youngs Moduli (GPa) = 83.59304 50.18995 78.31673
#
# Poissons Ratio (x) = 0.25162 0.27556
# Poissons Ratio (y) = 0.41908 0.27916
# Poissons Ratio (z) = 0.29412 0.17890
#
# Static dielectric constant tensor:
#      x y z
#    x 4.191570 0.000000 0.000000 
#    y 0.000000 2.964480 0.000000 
#    z 0.000000 0.000000 4.109800 
# 
# 
# High freq. dielectric constant tensor:
#      x y z
#    x 1.808410 0.000000 0.000000 
#    y 0.000000 1.698970 0.000000 
#    z 0.000000 0.000000 1.811430 
# 
# From -- ./inp_files/18097.got.cif
#   From: 2010.03.12/outbox.cif.g09.slc.cpg/sg54_10_cif.got.tgz:18097.got - 2010.04.16 15:00:50.
