data_PCOD8222364
_publ_section_title
;
Structure prediction by ZEFSAII (Michael W. Deem and Ramdas Pophale) SiO2 
 PCOD8222364
Probable space group: P C C A
;
_chemical_formula_sum "Si O2"
_cell_formula_units_Z 52
_cell_length_a 19.669872
_cell_length_b 13.867505
_cell_length_c 8.878913
_cell_angle_alpha 90.000000
_cell_angle_beta 90.000000
_cell_angle_gamma 90.000000
_cell_volume 2421.919286
_symmetry_space_group_name_H-M "P C C A"
_symmetry_group_IT_number 54
_symmetry_cell_setting 'orthorhombic'
loop_
_space_group_symop_operation_xyz
x,y,z
1/2-x,-y,z
1/2+x,-y,1/2-z
-x,y,1/2-z
-x,-y,-z
1/2+x,y,-z
1/2-x,y,1/2+z
x,-y,1/2+z
loop_
_atom_site_type_symbol
_atom_site_label
_atom_site_fract_x
_atom_site_fract_y
_atom_site_fract_z
Si Si1 0.706803 0.326629 0.382718
Si Si2 0.213253 0.882848 0.021055
Si Si3 0.857712 0.014519 0.247111
Si Si4 0.374559 0.130594 0.487218
Si Si5 0.000000 0.512077 0.750000
Si Si6 0.156641 0.659614 0.453195
Si Si7 0.906748 0.456525 0.000774
O O1 0.683908 0.219722 0.427396
O O2 0.694884 0.344372 0.206698
O O3 0.786115 0.344375 0.416660
O O4 0.662669 0.398582 0.485645
O O5 0.179583 0.911677 0.863764
O O6 0.292937 0.878704 0.990836
O O7 0.196745 0.959297 0.149813
O O8 0.903814 0.082372 0.358130
O O9 0.901393 0.934444 0.153792
O O10 0.390642 0.244030 0.468883
O O11 0.046978 0.442790 0.647116
O O12 0.049360 0.578318 0.854150
O O13 0.107094 0.570100 0.474995
#
# Coordination Sequence:
#
# PCOD8222364 Si02
#       7
#     8   8   8   8   4   8   8
#     4  11  24  37  56  86 122 158 189 230 283 349
#     4  10  18  28  46  72 110 153 196 223 266 329
#     4  10  17  28  44  68 108 159 192 229 260 316
#     4  10  18  28  46  72 110 153 196 223 266 329
#     4  10  24  42  66  86 100 148 190 254 284 344
#     4  11  24  37  56  86 122 158 189 230 283 349
#     4  11  23  44  64  82 117 141 196 236 298 335
#
# _framework density 21.470573999999999
#
# number of rings (size 3 to 8) (size 9 to 14) (size 15 to 20)
#    0.000    1.538    3.077    4.154    8.615    1.231 
#    0.000    0.000    0.000    0.000    0.000    0.000 
#    0.000   86.154    0.000    0.000    0.000    0.000 
#
# Total GULP energy -644477.991740 kJ/mol
# GULP energy per Si atom -12393.807533 kJ/mol
# Density = 2.142171 g / cm^3
# Si number density = 21.470574 Si / 1000 Ang^3
#
#
#
# Elastic Constant Matrix: (Units=GPa)
#
#
# Indices 1 2 3 4 5 6 
#
# 1 29.8238 20.4555 14.4053 0.0000 0.0000 0.0000
# 2 20.4555 128.9171 35.4439 0.0000 0.0000 0.0000
# 3 14.4053 35.4439 130.5954 0.0000 0.0000 0.0000
# 4 0.0000 0.0000 0.0000 26.5842 0.0000 0.0000
# 5 0.0000 0.0000 0.0000 0.0000 20.8896 0.0000
# 6 0.0000 0.0000 0.0000 0.0000 0.0000 4.7380
#
#
#
# Elastic Compliance Matrix: (Units=1/GPa)
#
#
# Indices 1 2 3 4 5 6 
#
# 1 0.038551 -0.005347 -0.002801 0.000000 0.000000 0.000000
# 2 -0.005347 0.009124 -0.001886 0.000000 0.000000 0.000000
# 3 -0.002801 -0.001886 0.008478 0.000000 0.000000 0.000000
# 4 0.000000 0.000000 0.000000 0.037616 0.000000 0.000000
# 5 0.000000 0.000000 0.000000 0.000000 0.047871 0.000000
# 6 0.000000 0.000000 0.000000 0.000000 0.000000 0.211059
#
#
# Mechanical properties :
#
#
# Convention : Reuss Voigt Hill
#
# Bulk Modulus (GPa) = 27.71320 47.77173 37.74246
# Shear Modulus (GPa) = 12.99390 25.04446 19.01918
#
# Velocity S-wave (km/s) = 2.46274 3.41905 2.97951
# Velocity P-wave (km/s) = 4.58501 6.15505 5.42711
#
# Compressibility (1/GPa) = 0.03608389
#
# Stress axis : x y z
#
# Youngs Moduli (GPa) = 25.93998 109.60157 117.94927
#
# Poissons Ratio (x) = 0.58601 0.33040
# Poissons Ratio (y) = 0.13869 0.22251
# Poissons Ratio (z) = 0.07266 0.20676
#
# Static dielectric constant tensor:
#      x y z
#    x 3.226680 0.000000 0.000000 
#    y 0.000000 4.396900 0.000000 
#    z 0.000000 0.000000 4.397090 
# 
# 
# High freq. dielectric constant tensor:
#      x y z
#    x 1.775470 0.000000 0.000000 
#    y 0.000000 1.844720 0.000000 
#    z 0.000000 0.000000 1.870580 
# 
# From -- ./inp_files/4752.got.cif
#   From: 2010.03.12/outbox.cif.g09.slc.cpg/sg54_3_cif.got.tgz:4752.got - 2010.04.16 15:00:50.
