data_PCOD8222974
_publ_section_title
;
Structure prediction by ZEFSAII (Michael W. Deem and Ramdas Pophale) SiO2 
 PCOD8222974
Probable space group: P C C A
;
_chemical_formula_sum "Si O2"
_cell_formula_units_Z 52
_cell_length_a 8.068688
_cell_length_b 20.562702
_cell_length_c 15.710278
_cell_angle_alpha 90.000000
_cell_angle_beta 90.000000
_cell_angle_gamma 90.000000
_cell_volume 2606.555486
_symmetry_space_group_name_H-M "P C C A"
_symmetry_group_IT_number 54
_symmetry_cell_setting 'orthorhombic'
loop_
_space_group_symop_operation_xyz
x,y,z
1/2-x,-y,z
1/2+x,-y,1/2-z
-x,y,1/2-z
-x,-y,-z
1/2+x,y,-z
1/2-x,y,1/2+z
x,-y,1/2+z
loop_
_atom_site_type_symbol
_atom_site_label
_atom_site_fract_x
_atom_site_fract_y
_atom_site_fract_z
Si Si1 0.350684 0.636585 0.581706
Si Si2 0.804114 0.429546 0.759556
Si Si3 0.280283 0.924690 0.895047
Si Si4 0.668511 0.786637 0.894862
Si Si5 0.969989 0.858418 0.961852
Si Si6 0.000000 0.858079 0.250000
Si Si7 0.300386 0.426494 0.425782
O O1 0.240734 0.617379 0.664766
O O2 0.383406 0.712068 0.594319
O O3 0.258604 0.626813 0.492907
O O4 0.504069 0.586340 0.580005
O O5 0.750000 0.500000 0.789373
O O6 0.721131 0.412573 0.667787
O O7 0.000000 0.423695 0.750000
O O8 0.392880 0.901263 0.815824
O O9 0.100451 0.889375 0.895425
O O10 0.250000 0.000000 0.881156
O O11 0.362643 0.913516 0.988514
O O12 0.859561 0.805957 0.910475
O O13 0.624014 0.811146 0.800814
O O14 0.558937 0.820744 0.964277
O O15 0.250000 0.500000 0.453803
#
# Coordination Sequence:
#
# PCOD8222974 Si02
#       7
#     8   8   8   8   8   4   8
#     4  11  21  36  60  79 112 157 196 235 305 365
#     4   9  20  36  54  78 110 143 182 242 297 345
#     4  10  20  38  64  91 119 159 202 248 305 363
#     4  10  21  38  57  82 116 159 198 240 300 368
#     4   9  20  39  59  86 120 154 199 253 293 353
#     4  10  24  36  56  86 124 156 192 248 304 350
#     4  10  21  36  56  85 110 144 196 254 304 356
#
# _framework density 19.949701000000001
#
# number of rings (size 3 to 8) (size 9 to 14) (size 15 to 20)
#    0.000    2.154    0.000    2.308    3.231    4.308 
#    0.000    1.538    3.385    0.000    0.000    0.000 
#    0.000    0.000    0.000    0.000    0.000    0.000 
#
# Total GULP energy -644318.693990 kJ/mol
# GULP energy per Si atom -12390.744115 kJ/mol
# Density = 1.990430 g / cm^3
# Si number density = 19.949701 Si / 1000 Ang^3
#
#
#
# Elastic Constant Matrix: (Units=GPa)
#
#
# Indices 1 2 3 4 5 6 
#
# 1 71.4603 20.2055 32.1742 0.0000 0.0000 0.0000
# 2 20.2055 107.4410 52.4518 0.0000 0.0000 0.0000
# 3 32.1742 52.4518 105.0904 0.0000 0.0000 0.0000
# 4 0.0000 0.0000 0.0000 -72.3348 0.0000 0.0000
# 5 0.0000 0.0000 0.0000 0.0000 19.9804 0.0000
# 6 0.0000 0.0000 0.0000 0.0000 0.0000 21.3242
#
#
#
# Elastic Compliance Matrix: (Units=1/GPa)
#
#
# Indices 1 2 3 4 5 6 
#
# 1 0.016287 -0.000831 -0.004572 0.000000 0.000000 0.000000
# 2 -0.000831 0.012348 -0.005909 0.000000 0.000000 0.000000
# 3 -0.004572 -0.005909 0.013864 0.000000 0.000000 0.000000
# 4 0.000000 0.000000 0.000000 -0.013825 0.000000 0.000000
# 5 0.000000 0.000000 0.000000 0.000000 0.050049 0.000000
# 6 0.000000 0.000000 0.000000 0.000000 0.000000 0.046895
#
#
# Mechanical properties :
#
#
# Convention : Reuss Voigt Hill
#
# Bulk Modulus (GPa) = 50.30977 54.85051 52.58014
# Shear Modulus (GPa) = 32.28563 5.73799 19.01181
#
# Velocity S-wave (km/s) = 4.02724 1.69778 3.09040
# Velocity P-wave (km/s) = 6.84821 5.60334 6.25681
#
# Compressibility (1/GPa) = 0.01987685
#
# Stress axis : x y z
#
# Youngs Moduli (GPa) = 61.39837 80.98257 72.12743
#
# Poissons Ratio (x) = 0.06731 0.32973
# Poissons Ratio (y) = 0.05103 0.42618
# Poissons Ratio (z) = 0.28069 0.47850
#
# Static dielectric constant tensor:
#      x y z
#    x 3.950680 0.000000 0.000000 
#    y 0.000000 3.571200 0.000000 
#    z 0.000000 0.000000 4.288040 
# 
# 
# High freq. dielectric constant tensor:
#      x y z
#    x 1.769060 0.000000 0.000000 
#    y 0.000000 1.769150 0.000000 
#    z 0.000000 0.000000 1.794450 
# 
# From -- ./inp_files/11845.got.cif
#   From: 2010.03.12/outbox.cif.g09.slc.cpg/sg54_6_cif.got.tgz:11845.got - 2010.04.16 15:00:50.
