data_PCOD8222618
_publ_section_title
;
Structure prediction by ZEFSAII (Michael W. Deem and Ramdas Pophale) SiO2 
 PCOD8222618
Probable space group: P C C A
;
_chemical_formula_sum "Si O2"
_cell_formula_units_Z 48
_cell_length_a 5.110400
_cell_length_b 19.710996
_cell_length_c 23.958187
_cell_angle_alpha 90.000000
_cell_angle_beta 90.000000
_cell_angle_gamma 90.000000
_cell_volume 2413.333907
_symmetry_space_group_name_H-M "P C C A"
_symmetry_group_IT_number 54
_symmetry_cell_setting 'orthorhombic'
loop_
_space_group_symop_operation_xyz
x,y,z
1/2-x,-y,z
1/2+x,-y,1/2-z
-x,y,1/2-z
-x,-y,-z
1/2+x,y,-z
1/2-x,y,1/2+z
x,-y,1/2+z
loop_
_atom_site_type_symbol
_atom_site_label
_atom_site_fract_x
_atom_site_fract_y
_atom_site_fract_z
Si Si1 0.705133 0.146607 0.538962
Si Si2 0.424298 0.440110 0.188932
Si Si3 0.578817 0.733978 0.120725
Si Si4 0.950455 0.385260 0.036515
Si Si5 0.750000 0.500000 0.102240
Si Si6 0.591703 0.288509 0.310346
Si Si7 0.250000 0.000000 0.962122
O O1 0.474432 0.157147 0.494255
O O2 0.664384 0.198813 0.588465
O O3 0.724415 0.072159 0.570089
O O4 0.250000 0.500000 0.163225
O O5 0.500000 0.466383 0.250000
O O6 0.652207 0.438712 0.142533
O O7 0.298479 0.365711 0.194959
O O8 0.484586 0.675019 0.079331
O O9 0.335187 0.752314 0.162400
O O10 0.833878 0.710083 0.152903
O O11 0.965552 0.460183 0.064598
O O12 0.656763 0.377984 0.013146
O O13 0.500000 0.259587 0.250000
O O14 0.500000 0.000000 0.000000
#
# Coordination Sequence:
#
# PCOD8222618 Si02
#       7
#     8   8   8   8   4   8   4
#     4  10  19  34  58  90 126 161 195 231 279 338
#     4  11  23  38  60  82 103 136 187 253 312 365
#     4  12  22  41  61  84 114 156 191 239 286 350
#     4  12  26  41  55  78 109 148 191 230 276 346
#     4  12  24  40  56  76 104 146 182 238 302 348
#     4  11  25  41  61  85 113 142 191 249 306 350
#     4   8  16  30  52  86 126 158 190 234 272 318
#
# _framework density 19.889499000000001
#
# number of rings (size 3 to 8) (size 9 to 14) (size 15 to 20)
#    0.000    1.000    2.500    5.000    2.333    0.000 
#    0.000    0.000    0.000    0.000    0.000    2.333 
#    0.000    0.000    0.000    0.000    0.000    0.000 
#
# Total GULP energy -594710.452627 kJ/mol
# GULP energy per Si atom -12389.801096 kJ/mol
# Density = 1.984423 g / cm^3
# Si number density = 19.889499 Si / 1000 Ang^3
#
#
#
# Elastic Constant Matrix: (Units=GPa)
#
#
# Indices 1 2 3 4 5 6 
#
# 1 91.2028 13.7907 27.2356 0.0000 0.0000 0.0000
# 2 13.7907 95.0263 45.9552 0.0000 0.0000 0.0000
# 3 27.2356 45.9552 95.5856 0.0000 0.0000 0.0000
# 4 0.0000 0.0000 0.0000 6.1616 0.0000 0.0000
# 5 0.0000 0.0000 0.0000 0.0000 35.0145 0.0000
# 6 0.0000 0.0000 0.0000 0.0000 0.0000 23.9604
#
#
#
# Elastic Compliance Matrix: (Units=1/GPa)
#
#
# Indices 1 2 3 4 5 6 
#
# 1 0.011985 -0.000114 -0.003360 0.000000 0.000000 0.000000
# 2 -0.000114 0.013712 -0.006560 0.000000 0.000000 0.000000
# 3 -0.003360 -0.006560 0.014573 0.000000 0.000000 0.000000
# 4 0.000000 0.000000 0.000000 0.162297 0.000000 0.000000
# 5 0.000000 0.000000 0.000000 0.000000 0.028560 0.000000
# 6 0.000000 0.000000 0.000000 0.000000 0.000000 0.041736
#
#
# Mechanical properties :
#
#
# Convention : Reuss Voigt Hill
#
# Bulk Modulus (GPa) = 49.50021 50.64196 50.07109
# Shear Modulus (GPa) = 16.68528 26.01616 21.35072
#
# Velocity S-wave (km/s) = 2.89952 3.62060 3.27993
# Velocity P-wave (km/s) = 6.01259 6.55708 6.29073
#
# Compressibility (1/GPa) = 0.02020193
#
# Stress axis : x y z
#
# Youngs Moduli (GPa) = 83.43579 72.92640 68.61972
#
# Poissons Ratio (x) = 0.00835 0.23056
# Poissons Ratio (y) = 0.00955 0.45014
# Poissons Ratio (z) = 0.28034 0.47840
#
# Static dielectric constant tensor:
#      x y z
#    x 3.876130 0.000000 0.000000 
#    y 0.000000 3.974230 0.000000 
#    z 0.000000 0.000000 3.624300 
# 
# 
# High freq. dielectric constant tensor:
#      x y z
#    x 1.789490 0.000000 0.000000 
#    y 0.000000 1.754160 0.000000 
#    z 0.000000 0.000000 1.766710 
# 
# From -- ./inp_files/22937.got.cif
#   From: 2010.03.12/outbox.cif.g09.slc.cpg/sg54_12_cif.got.tgz:22937.got - 2010.04.16 15:00:50.
