data_PCOD8222821
_publ_section_title
;
Structure prediction by ZEFSAII (Michael W. Deem and Ramdas Pophale) SiO2 
 PCOD8222821
Probable space group: P C C A
;
_chemical_formula_sum "Si O2"
_cell_formula_units_Z 40
_cell_length_a 18.085048
_cell_length_b 9.985607
_cell_length_c 10.040468
_cell_angle_alpha 90.000000
_cell_angle_beta 90.000000
_cell_angle_gamma 90.000000
_cell_volume 1813.209943
_symmetry_space_group_name_H-M "P C C A"
_symmetry_group_IT_number 54
_symmetry_cell_setting 'orthorhombic'
loop_
_space_group_symop_operation_xyz
x,y,z
1/2-x,-y,z
1/2+x,-y,1/2-z
-x,y,1/2-z
-x,-y,-z
1/2+x,y,-z
1/2-x,y,1/2+z
x,-y,1/2+z
loop_
_atom_site_type_symbol
_atom_site_label
_atom_site_fract_x
_atom_site_fract_y
_atom_site_fract_z
Si Si1 0.919278 0.453556 0.800224
Si Si2 0.820687 0.291356 0.352825
Si Si3 0.030377 0.803419 0.101084
Si Si4 0.290836 0.365760 0.369203
Si Si5 0.439796 0.092173 0.634751
O O1 0.872412 0.576827 0.856807
O O2 0.925433 0.337561 0.916955
O O3 0.875171 0.391460 0.675077
O O4 0.000000 0.502945 0.750000
O O5 0.752625 0.299157 0.252876
O O6 0.790256 0.269478 0.502337
O O7 0.866632 0.161156 0.308152
O O8 0.000000 0.787213 0.250000
O O9 0.079325 0.939448 0.090827
O O10 0.966496 0.818586 0.990747
O O11 0.250000 0.500000 0.414908
O O12 0.500000 0.088585 0.750000
#
# Coordination Sequence:
#
# PCOD8222821 Si02
#       5
#     8   8   8   8   8
#     4  10  20  35  61  88 111 144 192 240 287 344
#     4  11  22  38  59  84 115 154 194 234 286 348
#     4   9  19  37  58  85 119 148 180 233 291 334
#     4  10  22  38  56  81 118 153 185 235 292 338
#     4  10  21  36  59  89 118 147 187 239 291 341
#
# _framework density 22.060324999999999
#
# number of rings (size 3 to 8) (size 9 to 14) (size 15 to 20)
#    0.000    2.000    0.000    4.800    0.000    8.000 
#    0.000    1.000    0.000    7.200    0.000    0.000 
#    0.000    0.000    0.000    0.000    0.000    0.000 
#
# Total GULP energy -495833.103578 kJ/mol
# GULP energy per Si atom -12395.827589 kJ/mol
# Density = 2.201012 g / cm^3
# Si number density = 22.060325 Si / 1000 Ang^3
#
#
#
# Elastic Constant Matrix: (Units=GPa)
#
#
# Indices 1 2 3 4 5 6 
#
# 1 107.3165 17.4661 33.6572 0.0000 0.0000 0.0000
# 2 17.4661 74.2575 3.0185 0.0000 0.0000 0.0000
# 3 33.6572 3.0185 100.5022 0.0000 0.0000 0.0000
# 4 0.0000 0.0000 0.0000 3.8040 0.0000 0.0000
# 5 0.0000 0.0000 0.0000 0.0000 24.5869 0.0000
# 6 0.0000 0.0000 0.0000 0.0000 0.0000 11.5404
#
#
#
# Elastic Compliance Matrix: (Units=1/GPa)
#
#
# Indices 1 2 3 4 5 6 
#
# 1 0.010823 -0.002401 -0.003552 0.000000 0.000000 0.000000
# 2 -0.002401 0.014016 0.000383 0.000000 0.000000 0.000000
# 3 -0.003552 0.000383 0.011128 0.000000 0.000000 0.000000
# 4 0.000000 0.000000 0.000000 0.262880 0.000000 0.000000
# 5 0.000000 0.000000 0.000000 0.000000 0.040672 0.000000
# 6 0.000000 0.000000 0.000000 0.000000 0.000000 0.086652
#
#
# Mechanical properties :
#
#
# Convention : Reuss Voigt Hill
#
# Bulk Modulus (GPa) = 40.28005 43.37330 41.82668
# Shear Modulus (GPa) = 11.22112 23.18189 17.20151
#
# Velocity S-wave (km/s) = 2.25779 3.24518 2.79543
# Velocity P-wave (km/s) = 5.00954 5.80909 5.42407
#
# Compressibility (1/GPa) = 0.02482618
#
# Stress axis : x y z
#
# Youngs Moduli (GPa) = 92.39415 71.34760 89.86178
#
# Poissons Ratio (x) = 0.17133 0.31923
# Poissons Ratio (y) = 0.22187 -0.03444
# Poissons Ratio (z) = 0.32823 -0.02734
#
# Static dielectric constant tensor:
#      x y z
#    x 3.894020 0.000000 0.000000 
#    y 0.000000 4.268640 0.000000 
#    z 0.000000 0.000000 3.903950 
# 
# 
# High freq. dielectric constant tensor:
#      x y z
#    x 1.852030 0.000000 0.000000 
#    y 0.000000 1.861650 0.000000 
#    z 0.000000 0.000000 1.870330 
# 
# From -- ./inp_files/3942.got.cif
#   From: 2010.03.12/outbox.cif.g09.slc.cpg/sg54_2_cif.got.tgz:3942.got - 2010.04.16 15:00:50.
