data_PCOD8222851
_publ_section_title
;
Structure prediction by ZEFSAII (Michael W. Deem and Ramdas Pophale) SiO2 
 PCOD8222851
Probable space group: P C C A
;
_chemical_formula_sum "Si O2"
_cell_formula_units_Z 56
_cell_length_a 20.941252
_cell_length_b 13.521863
_cell_length_c 9.015033
_cell_angle_alpha 90.000000
_cell_angle_beta 90.000000
_cell_angle_gamma 90.000000
_cell_volume 2552.739481
_symmetry_space_group_name_H-M "P C C A"
_symmetry_group_IT_number 54
_symmetry_cell_setting 'orthorhombic'
loop_
_space_group_symop_operation_xyz
x,y,z
1/2-x,-y,z
1/2+x,-y,1/2-z
-x,y,1/2-z
-x,-y,-z
1/2+x,y,-z
1/2-x,y,1/2+z
x,-y,1/2+z
loop_
_atom_site_type_symbol
_atom_site_label
_atom_site_fract_x
_atom_site_fract_y
_atom_site_fract_z
Si Si1 0.990381 0.795285 0.425996
Si Si2 0.383544 0.100448 0.483074
Si Si3 0.080043 0.603736 0.022825
Si Si4 0.695613 0.295167 0.312757
Si Si5 0.431862 0.410137 0.700054
Si Si6 0.370464 0.096492 0.147275
Si Si7 0.823698 0.702093 0.973590
O O1 0.977989 0.683900 0.484688
O O2 0.927400 0.859896 0.452724
O O3 0.000000 0.786823 0.250000
O O4 0.047163 0.849259 0.518080
O O5 0.390472 0.069796 0.313074
O O6 0.329700 0.180017 0.520923
O O7 0.355995 0.007946 0.573075
O O8 0.141972 0.646431 0.100608
O O9 0.053172 0.511602 0.114918
O O10 0.103452 0.572615 0.857936
O O11 0.686733 0.177066 0.343370
O O12 0.764737 0.328484 0.370121
O O13 0.688639 0.330184 0.142934
O O14 0.500000 0.362714 0.750000
O O15 0.388783 0.343032 0.592104
#
# Coordination Sequence:
#
# PCOD8222851 Si02
#       7
#     8   8   8   8   8   8   8
#     4   9  18  36  59  87 126 169 209 262 320 377
#     4  10  20  36  59  90 125 165 209 261 319 375
#     4  11  23  41  65  93 129 166 212 268 325 390
#     4  10  23  44  65  92 127 172 218 270 331 391
#     4  12  25  41  66  99 128 167 213 266 327 393
#     4   9  20  35  58  87 122 165 213 261 314 378
#     4  11  24  43  65  92 129 170 218 271 327 396
#
# _framework density 21.937217
#
# number of rings (size 3 to 8) (size 9 to 14) (size 15 to 20)
#    0.000    1.714    0.000    4.714    0.000    4.571 
#    0.000    9.286    0.000    0.000    0.000    0.000 
#    0.000    0.000    0.000    0.000    0.000    0.000 
#
# Total GULP energy -693924.657483 kJ/mol
# GULP energy per Si atom -12391.511741 kJ/mol
# Density = 2.188729 g / cm^3
# Si number density = 21.937217 Si / 1000 Ang^3
#
#
#
# Elastic Constant Matrix: (Units=GPa)
#
#
# Indices 1 2 3 4 5 6 
#
# 1 108.9251 7.0137 48.1941 0.0000 0.0000 0.0000
# 2 7.0137 62.6501 51.0665 0.0000 0.0000 0.0000
# 3 48.1941 51.0665 141.0198 0.0000 0.0000 0.0000
# 4 0.0000 0.0000 0.0000 35.4021 0.0000 0.0000
# 5 0.0000 0.0000 0.0000 0.0000 36.4932 0.0000
# 6 0.0000 0.0000 0.0000 0.0000 0.0000 16.7153
#
#
#
# Elastic Compliance Matrix: (Units=1/GPa)
#
#
# Indices 1 2 3 4 5 6 
#
# 1 0.011113 0.002627 -0.004749 0.000000 0.000000 0.000000
# 2 0.002627 0.023267 -0.009323 0.000000 0.000000 0.000000
# 3 -0.004749 -0.009323 0.012090 0.000000 0.000000 0.000000
# 4 0.000000 0.000000 0.000000 0.028247 0.000000 0.000000
# 5 0.000000 0.000000 0.000000 0.000000 0.027402 0.000000
# 6 0.000000 0.000000 0.000000 0.000000 0.000000 0.059825
#
#
# Mechanical properties :
#
#
# Convention : Reuss Voigt Hill
#
# Bulk Modulus (GPa) = 42.41014 58.34931 50.37972
# Shear Modulus (GPa) = 25.94768 31.47685 28.71227
#
# Velocity S-wave (km/s) = 3.44294 3.79206 3.62171
# Velocity P-wave (km/s) = 5.93124 6.76972 6.36430
#
# Compressibility (1/GPa) = 0.02357927
#
# Stress axis : x y z
#
# Youngs Moduli (GPa) = 89.98706 42.97916 82.71012
#
# Poissons Ratio (x) = -0.11290 0.39280
# Poissons Ratio (y) = -0.23639 0.77113
# Poissons Ratio (z) = 0.42736 0.40071
#
# Static dielectric constant tensor:
#      x y z
#    x 3.933460 0.000000 0.000000 
#    y 0.000000 3.939300 0.000000 
#    z 0.000000 0.000000 4.127520 
# 
# 
# High freq. dielectric constant tensor:
#      x y z
#    x 1.854040 0.000000 0.000000 
#    y 0.000000 1.858830 0.000000 
#    z 0.000000 0.000000 1.870840 
# 
# From -- ./inp_files/4822.got.cif
#   From: 2010.03.12/outbox.cif.g09.slc.cpg/sg54_3_cif.got.tgz:4822.got - 2010.04.16 15:00:50.
