data_PCOD8222386
_publ_section_title
;
Structure prediction by ZEFSAII (Michael W. Deem and Ramdas Pophale) SiO2 
 PCOD8222386
Probable space group: P C C A
;
_chemical_formula_sum "Si O2"
_cell_formula_units_Z 48
_cell_length_a 11.328444
_cell_length_b 8.976201
_cell_length_c 23.126573
_cell_angle_alpha 90.000000
_cell_angle_beta 90.000000
_cell_angle_gamma 90.000000
_cell_volume 2351.657730
_symmetry_space_group_name_H-M "P C C A"
_symmetry_group_IT_number 54
_symmetry_cell_setting 'orthorhombic'
loop_
_space_group_symop_operation_xyz
x,y,z
1/2-x,-y,z
1/2+x,-y,1/2-z
-x,y,1/2-z
-x,-y,-z
1/2+x,y,-z
1/2-x,y,1/2+z
x,-y,1/2+z
loop_
_atom_site_type_symbol
_atom_site_label
_atom_site_fract_x
_atom_site_fract_y
_atom_site_fract_z
Si Si1 0.494976 0.098065 0.115429
Si Si2 0.222332 0.173523 0.829799
Si Si3 0.799432 0.164536 0.798285
Si Si4 0.434040 0.236030 0.899293
Si Si5 0.184177 0.846254 0.016221
Si Si6 0.318622 0.345841 0.604942
O O1 0.619187 0.185210 0.121702
O O2 0.425222 0.157306 0.171026
O O3 0.431083 0.136367 0.055926
O O4 0.506079 0.920707 0.116207
O O5 0.186079 0.232122 0.766144
O O6 0.335119 0.269815 0.850614
O O7 0.250000 0.000000 0.824448
O O8 0.710889 0.267277 0.834635
O O9 0.750000 0.000000 0.796533
O O10 0.537938 0.360838 0.898554
O O11 0.363665 0.233924 0.959454
O O12 0.280682 0.748553 0.049149
O O13 0.250000 0.000000 0.999851
O O14 0.250000 0.500000 0.602115
#
# Coordination Sequence:
#
# PCOD8222386 Si02
#       6
#     8   8   8   8   8   8
#     4  10  17  33  57  94 119 147 189 248 304 366
#     4   9  20  30  57  95 119 145 193 255 314 354
#     4  10  18  37  61  85 115 153 198 251 304 364
#     4  11  21  35  59  90 124 149 199 254 305 368
#     4  11  21  36  64  87 116 156 197 253 308 365
#     4  11  24  40  59  82 117 165 208 246 305 363
#
# _framework density 20.411134000000001
#
# number of rings (size 3 to 8) (size 9 to 14) (size 15 to 20)
#    0.000    1.667    3.333    3.500    2.333    1.333 
#    0.000    0.000   14.667    0.000    0.000    0.000 
#    0.000    0.000    0.000    0.000    0.000    0.000 
#
# Total GULP energy -594967.390644 kJ/mol
# GULP energy per Si atom -12395.153972 kJ/mol
# Density = 2.036468 g / cm^3
# Si number density = 20.411134 Si / 1000 Ang^3
#
#
#
# Elastic Constant Matrix: (Units=GPa)
#
#
# Indices 1 2 3 4 5 6 
#
# 1 116.6607 16.4762 31.8749 0.0000 0.0000 0.0000
# 2 16.4762 43.1979 7.1618 0.0000 0.0000 0.0000
# 3 31.8749 7.1618 107.9719 0.0000 0.0000 0.0000
# 4 0.0000 0.0000 0.0000 2.0920 0.0000 0.0000
# 5 0.0000 0.0000 0.0000 0.0000 19.5620 0.0000
# 6 0.0000 0.0000 0.0000 0.0000 0.0000 31.5143
#
#
#
# Elastic Compliance Matrix: (Units=1/GPa)
#
#
# Indices 1 2 3 4 5 6 
#
# 1 0.009763 -0.003282 -0.002665 0.000000 0.000000 0.000000
# 2 -0.003282 0.024510 -0.000657 0.000000 0.000000 0.000000
# 3 -0.002665 -0.000657 0.010092 0.000000 0.000000 0.000000
# 4 0.000000 0.000000 0.000000 0.478009 0.000000 0.000000
# 5 0.000000 0.000000 0.000000 0.000000 0.051119 0.000000
# 6 0.000000 0.000000 0.000000 0.000000 0.000000 0.031732
#
#
# Mechanical properties :
#
#
# Convention : Reuss Voigt Hill
#
# Bulk Modulus (GPa) = 32.09425 42.09514 37.09470
# Shear Modulus (GPa) = 7.95141 24.78816 16.36979
#
# Velocity S-wave (km/s) = 1.97588 3.48867 2.83504
# Velocity P-wave (km/s) = 4.57859 6.07422 5.37864
#
# Compressibility (1/GPa) = 0.03115823
#
# Stress axis : x y z
#
# Youngs Moduli (GPa) = 102.42273 40.79962 99.08967
#
# Poissons Ratio (x) = 0.13391 0.26404
# Poissons Ratio (y) = 0.33617 0.06508
# Poissons Ratio (z) = 0.27292 0.02680
#
# Static dielectric constant tensor:
#      x y z
#    x 3.920080 0.000000 0.000000 
#    y 0.000000 3.071650 0.000000 
#    z 0.000000 0.000000 4.017380 
# 
# 
# High freq. dielectric constant tensor:
#      x y z
#    x 1.817430 0.000000 0.000000 
#    y 0.000000 1.734270 0.000000 
#    z 0.000000 0.000000 1.809360 
# 
# From -- ./inp_files/24067.got.cif
#   From: 2010.03.12/outbox.cif.g09.slc.cpg/sg54_13_cif.got.tgz:24067.got - 2010.04.16 15:00:50.
