data_PCOD8222560
_publ_section_title
;
Structure prediction by ZEFSAII (Michael W. Deem and Ramdas Pophale) SiO2 
 PCOD8222560
Probable space group: P C C A
;
_chemical_formula_sum "Si O2"
_cell_formula_units_Z 52
_cell_length_a 8.961962
_cell_length_b 8.987493
_cell_length_c 28.556533
_cell_angle_alpha 90.000000
_cell_angle_beta 90.000000
_cell_angle_gamma 90.000000
_cell_volume 2300.102249
_symmetry_space_group_name_H-M "P C C A"
_symmetry_group_IT_number 54
_symmetry_cell_setting 'orthorhombic'
loop_
_space_group_symop_operation_xyz
x,y,z
1/2-x,-y,z
1/2+x,-y,1/2-z
-x,y,1/2-z
-x,-y,-z
1/2+x,y,-z
1/2-x,y,1/2+z
x,-y,1/2+z
loop_
_atom_site_type_symbol
_atom_site_label
_atom_site_fract_x
_atom_site_fract_y
_atom_site_fract_z
Si Si1 0.293381 0.679907 0.302893
Si Si2 0.258879 0.705390 0.699093
Si Si3 0.877515 0.121820 0.625734
Si Si4 0.490588 0.362527 0.439822
Si Si5 0.535461 0.938763 0.299423
Si Si6 0.521913 0.517616 0.843210
Si Si7 0.250000 0.500000 0.006275
O O1 0.216684 0.658133 0.252768
O O2 0.187117 0.739534 0.344361
O O3 0.427954 0.796127 0.297316
O O4 0.366810 0.519118 0.316903
O O5 0.417926 0.681073 0.673190
O O6 0.206892 0.877843 0.696784
O O7 0.142036 0.605233 0.670761
O O8 0.956530 0.195395 0.580083
O O9 0.750000 0.000000 0.611846
O O10 0.003409 0.040284 0.656250
O O11 0.492670 0.485080 0.398536
O O12 0.653357 0.379888 0.463863
O O13 0.359761 0.399623 0.475706
O O14 0.500000 0.025255 0.250000
#
# Coordination Sequence:
#
# PCOD8222560 Si02
#       7
#     8   8   8   8   8   8   4
#     4   9  18  32  52  85 130 172 202 244 294 339
#     4   9  18  32  52  84 129 170 207 248 285 334
#     4  10  21  37  60  89 122 164 208 241 287 365
#     4  11  23  42  67  93 117 153 198 258 326 383
#     4   8  16  33  53  79 122 174 215 240 274 333
#     4  10  19  32  55  87 116 152 205 252 298 352
#     4  10  24  46  70  92 120 146 192 264 342 402
#
# _framework density 22.607690999999999
#
# number of rings (size 3 to 8) (size 9 to 14) (size 15 to 20)
#    0.000    2.462    0.000    3.231    0.000    4.923 
#    0.000    3.077    0.000    0.000    0.000    0.000 
#    0.000    0.000    0.000    0.000    0.000    0.000 
#
# Total GULP energy -644571.732940 kJ/mol
# GULP energy per Si atom -12395.610249 kJ/mol
# Density = 2.255624 g / cm^3
# Si number density = 22.607691 Si / 1000 Ang^3
#
#
#
# Elastic Constant Matrix: (Units=GPa)
#
#
# Indices 1 2 3 4 5 6 
#
# 1 117.5700 53.5609 66.0857 0.0000 0.0000 0.0000
# 2 53.5609 121.9179 52.0403 0.0000 0.0000 0.0000
# 3 66.0857 52.0403 141.1048 0.0000 0.0000 0.0000
# 4 0.0000 0.0000 0.0000 38.7582 0.0000 0.0000
# 5 0.0000 0.0000 0.0000 0.0000 31.2468 0.0000
# 6 0.0000 0.0000 0.0000 0.0000 0.0000 21.6481
#
#
#
# Elastic Compliance Matrix: (Units=1/GPa)
#
#
# Indices 1 2 3 4 5 6 
#
# 1 0.012767 -0.003628 -0.004642 0.000000 0.000000 0.000000
# 2 -0.003628 0.010765 -0.002271 0.000000 0.000000 0.000000
# 3 -0.004642 -0.002271 0.010098 0.000000 0.000000 0.000000
# 4 0.000000 0.000000 0.000000 0.025801 0.000000 0.000000
# 5 0.000000 0.000000 0.000000 0.000000 0.032003 0.000000
# 6 0.000000 0.000000 0.000000 0.000000 0.000000 0.046193
#
#
# Mechanical properties :
#
#
# Convention : Reuss Voigt Hill
#
# Bulk Modulus (GPa) = 79.68137 80.44073 80.06105
# Shear Modulus (GPa) = 30.69495 32.25768 31.47631
#
# Velocity S-wave (km/s) = 3.68872 3.78146 3.73538
# Velocity P-wave (km/s) = 7.31191 7.39759 7.35487
#
# Compressibility (1/GPa) = 0.01254999
#
# Stress axis : x y z
#
# Youngs Moduli (GPa) = 78.32569 92.88962 99.02487
#
# Poissons Ratio (x) = 0.33697 0.45963
# Poissons Ratio (y) = 0.28414 0.22492
# Poissons Ratio (z) = 0.36355 0.21099
#
# Static dielectric constant tensor:
#      x y z
#    x 4.923920 0.000000 0.000000 
#    y 0.000000 4.344880 0.000000 
#    z 0.000000 0.000000 3.942610 
# 
# 
# High freq. dielectric constant tensor:
#      x y z
#    x 1.926100 0.000000 0.000000 
#    y 0.000000 1.901600 0.000000 
#    z 0.000000 0.000000 1.862870 
# 
# From -- ./inp_files/25888.got.cif
#   From: 2010.03.12/outbox.cif.g09.slc.cpg/sg54_13_cif.got.tgz:25888.got - 2010.04.16 15:00:50.
