data_PCOD8222442
_publ_section_title
;
Structure prediction by ZEFSAII (Michael W. Deem and Ramdas Pophale) SiO2 
 PCOD8222442
Probable space group: P C C A
;
_chemical_formula_sum "Si O2"
_cell_formula_units_Z 52
_cell_length_a 14.048598
_cell_length_b 9.004462
_cell_length_c 19.067832
_cell_angle_alpha 90.000000
_cell_angle_beta 90.000000
_cell_angle_gamma 90.000000
_cell_volume 2412.082023
_symmetry_space_group_name_H-M "P C C A"
_symmetry_group_IT_number 54
_symmetry_cell_setting 'orthorhombic'
loop_
_space_group_symop_operation_xyz
x,y,z
1/2-x,-y,z
1/2+x,-y,1/2-z
-x,y,1/2-z
-x,-y,-z
1/2+x,y,-z
1/2-x,y,1/2+z
x,-y,1/2+z
loop_
_atom_site_type_symbol
_atom_site_label
_atom_site_fract_x
_atom_site_fract_y
_atom_site_fract_z
Si Si1 0.151596 0.410440 0.009648
Si Si2 0.531321 0.866671 0.868370
Si Si3 0.501434 0.441075 0.399856
Si Si4 0.167368 0.887499 0.579974
Si Si5 0.500000 0.571431 0.250000
Si Si6 0.632018 0.126020 0.227491
Si Si7 0.172763 0.205539 0.232891
O O1 0.250000 0.500000 0.016903
O O2 0.161797 0.231021 0.016468
O O3 0.079680 0.444618 0.073221
O O4 0.101194 0.460094 0.937356
O O5 0.541632 0.723840 0.918736
O O6 0.419110 0.872262 0.848194
O O7 0.578383 0.814956 0.795699
O O8 0.570430 0.016250 0.905862
O O9 0.488452 0.466319 0.317098
O O10 0.196325 0.797700 0.649935
O O11 0.250000 0.000000 0.558788
O O12 0.404947 0.670695 0.249482
O O13 0.728617 0.224686 0.223643
O O14 0.637164 0.953021 0.244022
#
# Coordination Sequence:
#
# PCOD8222442 Si02
#       7
#     8   8   8   8   4   8   8
#     4  11  26  47  66  92 140 179 222 285 340 417
#     4  10  19  36  60  91 131 165 222 277 329 397
#     4  11  26  43  65 100 132 181 222 275 353 402
#     4  11  19  39  70  95 124 181 238 274 334 402
#     4  12  22  38  68 100 134 176 230 280 338 430
#     4   9  18  32  57  92 136 166 205 293 331 381
#     4  10  18  33  58  99 129 171 224 270 347 397
#
# _framework density 21.558139000000001
#
# number of rings (size 3 to 8) (size 9 to 14) (size 15 to 20)
#    0.000    1.538    4.615    3.692    0.000    1.846 
#    0.000    2.308    3.385    0.000    0.000    0.000 
#    0.000    0.000    0.000    0.000    0.000    0.000 
#
# Total GULP energy -644198.835027 kJ/mol
# GULP energy per Si atom -12388.439135 kJ/mol
# Density = 2.150907 g / cm^3
# Si number density = 21.558139 Si / 1000 Ang^3
#
#
#
# Elastic Constant Matrix: (Units=GPa)
#
#
# Indices 1 2 3 4 5 6 
#
# 1 135.3978 55.5372 43.9610 0.0000 0.0000 0.0000
# 2 55.5372 98.7008 38.9679 0.0000 0.0000 0.0000
# 3 43.9610 38.9679 83.1295 0.0000 0.0000 0.0000
# 4 0.0000 0.0000 0.0000 13.5367 0.0000 0.0000
# 5 0.0000 0.0000 0.0000 0.0000 10.1454 0.0000
# 6 0.0000 0.0000 0.0000 0.0000 0.0000 30.8039
#
#
#
# Elastic Compliance Matrix: (Units=1/GPa)
#
#
# Indices 1 2 3 4 5 6 
#
# 1 0.010311 -0.004478 -0.003354 0.000000 0.000000 0.000000
# 2 -0.004478 0.014377 -0.004371 0.000000 0.000000 0.000000
# 3 -0.003354 -0.004371 0.015852 0.000000 0.000000 0.000000
# 4 0.000000 0.000000 0.000000 0.073873 0.000000 0.000000
# 5 0.000000 0.000000 0.000000 0.000000 0.098567 0.000000
# 6 0.000000 0.000000 0.000000 0.000000 0.000000 0.032463
#
#
# Mechanical properties :
#
#
# Convention : Reuss Voigt Hill
#
# Bulk Modulus (GPa) = 61.97959 66.01782 63.99871
# Shear Modulus (GPa) = 18.16671 22.81466 20.49068
#
# Velocity S-wave (km/s) = 2.90605 3.25666 3.08634
# Velocity P-wave (km/s) = 6.33029 6.69558 6.51549
#
# Compressibility (1/GPa) = 0.01613434
#
# Stress axis : x y z
#
# Youngs Moduli (GPa) = 96.98117 69.55497 63.08287
#
# Poissons Ratio (x) = 0.31146 0.21157
# Poissons Ratio (y) = 0.43427 0.27576
# Poissons Ratio (z) = 0.32526 0.30405
#
# Static dielectric constant tensor:
#      x y z
#    x 4.352200 0.000000 0.000000 
#    y 0.000000 3.873430 0.000000 
#    z 0.000000 0.000000 3.027350 
# 
# 
# High freq. dielectric constant tensor:
#      x y z
#    x 1.851630 0.000000 0.000000 
#    y 0.000000 1.850290 0.000000 
#    z 0.000000 0.000000 1.817050 
# 
# From -- ./inp_files/21553.got.cif
#   From: 2010.03.12/outbox.cif.g09.slc.cpg/sg54_11_cif.got.tgz:21553.got - 2010.04.16 15:00:50.
