data_PCOD8222881
_publ_section_title
;
Structure prediction by ZEFSAII (Michael W. Deem and Ramdas Pophale) SiO2 
 PCOD8222881
Probable space group: P C C A
;
_chemical_formula_sum "Si O2"
_cell_formula_units_Z 28
_cell_length_a 7.677540
_cell_length_b 8.501523
_cell_length_c 21.659443
_cell_angle_alpha 90.000000
_cell_angle_beta 90.000000
_cell_angle_gamma 90.000000
_cell_volume 1413.728802
_symmetry_space_group_name_H-M "P C C A"
_symmetry_group_IT_number 54
_symmetry_cell_setting 'orthorhombic'
loop_
_space_group_symop_operation_xyz
x,y,z
1/2-x,-y,z
1/2+x,-y,1/2-z
-x,y,1/2-z
-x,-y,-z
1/2+x,y,-z
1/2-x,y,1/2+z
x,-y,1/2+z
loop_
_atom_site_type_symbol
_atom_site_label
_atom_site_fract_x
_atom_site_fract_y
_atom_site_fract_z
Si Si1 0.750000 0.000000 0.105939
Si Si2 0.429120 0.907814 0.683397
Si Si3 0.186684 0.675031 0.085119
Si Si4 0.583023 0.827516 0.506924
O O1 0.766266 0.847342 0.060224
O O2 0.924474 0.011327 0.147797
O O3 0.500000 0.859579 0.750000
O O4 0.389322 0.745417 0.648110
O O5 0.250000 0.000000 0.690093
O O6 0.250000 0.500000 0.097448
O O7 0.043302 0.688893 0.030880
O O8 0.347079 0.779866 0.060150
O O9 0.500000 0.000000 0.500000
#
# Coordination Sequence:
#
# PCOD8222881 Si02
#       4
#     4   8   8   8
#     4  10  20  36  62  96 120 156 212 268 306 366
#     4  11  23  41  66  88 120 167 226 270 306 371
#     4  11  23  37  60  94 132 160 196 258 333 382
#     4  11  19  37  64  91 126 161 208 252 313 382
#
# _framework density 19.805778
#
# number of rings (size 3 to 8) (size 9 to 14) (size 15 to 20)
#    0.000    1.143    4.286    4.286    0.000    0.000 
#    0.000    1.429    0.000    0.000    0.000    0.000 
#    0.000    0.000    0.000    0.000    0.000    0.000 
#
# Total GULP energy -346926.821532 kJ/mol
# GULP energy per Si atom -12390.243626 kJ/mol
# Density = 1.976070 g / cm^3
# Si number density = 19.805778 Si / 1000 Ang^3
#
#
#
# Elastic Constant Matrix: (Units=GPa)
#
#
# Indices 1 2 3 4 5 6 
#
# 1 119.0980 62.5215 57.1404 0.0000 0.0000 0.0000
# 2 62.5215 110.0812 52.5838 0.0000 0.0000 0.0000
# 3 57.1404 52.5838 142.0153 0.0000 0.0000 0.0000
# 4 0.0000 0.0000 0.0000 18.6005 0.0000 0.0000
# 5 0.0000 0.0000 0.0000 0.0000 44.8820 0.0000
# 6 0.0000 0.0000 0.0000 0.0000 0.0000 34.0993
#
#
#
# Elastic Compliance Matrix: (Units=1/GPa)
#
#
# Indices 1 2 3 4 5 6 
#
# 1 0.012949 -0.005911 -0.003021 0.000000 0.000000 0.000000
# 2 -0.005911 0.013735 -0.002707 0.000000 0.000000 0.000000
# 3 -0.003021 -0.002707 0.009260 0.000000 0.000000 0.000000
# 4 0.000000 0.000000 0.000000 0.053762 0.000000 0.000000
# 5 0.000000 0.000000 0.000000 0.000000 0.022281 0.000000
# 6 0.000000 0.000000 0.000000 0.000000 0.000000 0.029326
#
#
# Mechanical properties :
#
#
# Convention : Reuss Voigt Hill
#
# Bulk Modulus (GPa) = 78.96505 79.52063 79.24284
# Shear Modulus (GPa) = 29.61854 32.77962 31.19908
#
# Velocity S-wave (km/s) = 3.87130 4.07265 3.97325
# Velocity P-wave (km/s) = 7.74202 7.89637 7.81958
#
# Compressibility (1/GPa) = 0.01266383
#
# Stress axis : x y z
#
# Youngs Moduli (GPa) = 77.22453 72.80811 107.99710
#
# Poissons Ratio (x) = 0.43040 0.32630
# Poissons Ratio (y) = 0.45650 0.29236
# Poissons Ratio (z) = 0.23333 0.19710
#
# Static dielectric constant tensor:
#      x y z
#    x 4.197950 0.000000 0.000000 
#    y 0.000000 3.108880 0.000000 
#    z 0.000000 0.000000 3.931930 
# 
# 
# High freq. dielectric constant tensor:
#      x y z
#    x 1.800230 0.000000 0.000000 
#    y 0.000000 1.725480 0.000000 
#    z 0.000000 0.000000 1.776540 
# 
# From -- ./inp_files/19960.got.cif
#   From: 2010.03.12/outbox.cif.g09.slc.cpg/sg54_10_cif.got.tgz:19960.got - 2010.04.16 15:00:50.
