data_PCOD8222013
_publ_section_title
;
Structure prediction by ZEFSAII (Michael W. Deem and Ramdas Pophale) SiO2 
 PCOD8222013
Probable space group: P M N A
;
_chemical_formula_sum "Si O2"
_cell_formula_units_Z 48
_cell_length_a 9.028482
_cell_length_b 18.525105
_cell_length_c 15.692896
_cell_angle_alpha 90.000000
_cell_angle_beta 90.000000
_cell_angle_gamma 90.000000
_cell_volume 2624.692990
_symmetry_space_group_name_H-M "P M N A"
_symmetry_group_IT_number 53
_symmetry_cell_setting 'orthorhombic'
loop_
_space_group_symop_operation_xyz
x,y,z
1/2-x,-y,1/2+z
x,-y,-z
1/2-x,y,1/2-z
-x,-y,-z
1/2+x,y,1/2-z
-x,y,z
1/2+x,-y,1/2+z
loop_
_atom_site_type_symbol
_atom_site_label
_atom_site_fract_x
_atom_site_fract_y
_atom_site_fract_z
Si Si1 0.825924 0.668880 0.009885
Si Si2 0.825271 0.409970 0.663987
Si Si3 0.673911 0.078603 0.336135
Si Si4 0.175317 0.832806 0.996566
Si Si5 0.662719 0.536714 0.591452
Si Si6 0.173770 0.912057 0.163847
O O1 0.775860 0.749808 0.988744
O O2 0.791169 0.620126 0.925793
O O3 0.000000 0.663746 0.033247
O O4 0.731325 0.641377 0.089266
O O5 0.750000 0.381448 0.750000
O O6 0.780352 0.494093 0.649186
O O7 0.000000 0.404356 0.671424
O O8 0.750000 0.106783 0.250000
O O9 0.500000 0.090367 0.325860
O O10 0.739146 0.124208 0.415282
O O11 0.713573 0.995335 0.353217
O O12 0.000000 0.841675 0.997235
O O13 0.237843 0.866542 0.084295
O O14 0.653883 0.500000 0.500000
O O15 0.500000 0.532375 0.635277
O O16 0.250000 0.883590 0.250000
O O17 0.000000 0.900372 0.174881
#
# Coordination Sequence:
#
# PCOD8222013 Si02
#       6
#     8   8   8   8   8   8
#     4   9  18  33  51  71  98 129 159 195 243 296
#     4  11  21  33  51  73  97 125 160 200 241 288
#     4   9  17  31  51  73  97 129 170 213 252 292
#     4   9  17  31  52  74  99 135 171 201 245 305
#     4   8  15  30  50  69  91 120 153 189 231 280
#     4   9  17  30  49  73 100 131 170 211 248 292
#
# _framework density 18.287852999999998
#
# number of rings (size 3 to 8) (size 9 to 14) (size 15 to 20)
#    0.000    2.833    0.000    3.000    0.000    5.667 
#    0.000    5.000    0.000    6.000    0.000    0.000 
#    0.000    0.000    0.000    0.000    0.000    0.000 
#
# Total GULP energy -595056.441363 kJ/mol
# GULP energy per Si atom -12397.009195 kJ/mol
# Density = 1.824623 g / cm^3
# Si number density = 18.287853 Si / 1000 Ang^3
#
#
#
# Elastic Constant Matrix: (Units=GPa)
#
#
# Indices 1 2 3 4 5 6 
#
# 1 58.6192 20.7415 22.4402 0.0000 0.0000 0.0000
# 2 20.7415 109.5562 48.4294 0.0000 0.0000 0.0000
# 3 22.4402 48.4294 92.1165 0.0000 0.0000 0.0000
# 4 0.0000 0.0000 0.0000 17.9691 0.0000 0.0000
# 5 0.0000 0.0000 0.0000 0.0000 28.9113 0.0000
# 6 0.0000 0.0000 0.0000 0.0000 0.0000 10.2625
#
#
#
# Elastic Compliance Matrix: (Units=1/GPa)
#
#
# Indices 1 2 3 4 5 6 
#
# 1 0.019157 -0.002037 -0.003596 0.000000 0.000000 0.000000
# 2 -0.002037 0.012108 -0.005869 0.000000 0.000000 0.000000
# 3 -0.003596 -0.005869 0.014817 0.000000 0.000000 0.000000
# 4 0.000000 0.000000 0.000000 0.055651 0.000000 0.000000
# 5 0.000000 0.000000 0.000000 0.000000 0.034588 0.000000
# 6 0.000000 0.000000 0.000000 0.000000 0.000000 0.097442
#
#
# Mechanical properties :
#
#
# Convention : Reuss Voigt Hill
#
# Bulk Modulus (GPa) = 43.33223 49.27937 46.30580
# Shear Modulus (GPa) = 18.90641 22.67398 20.79019
#
# Velocity S-wave (km/s) = 3.21880 3.52495 3.37535
# Velocity P-wave (km/s) = 6.12864 6.60091 6.36916
#
# Compressibility (1/GPa) = 0.02307751
#
# Stress axis : x y z
#
# Youngs Moduli (GPa) = 52.20142 82.58989 67.48785
#
# Poissons Ratio (x) = 0.16827 0.24266
# Poissons Ratio (y) = 0.10635 0.39611
# Poissons Ratio (z) = 0.18769 0.48475
#
# Static dielectric constant tensor:
#      x y z
#    x 3.114030 0.000000 0.000000 
#    y 0.000000 3.589760 0.000000 
#    z 0.000000 0.000000 3.439830 
# 
# 
# High freq. dielectric constant tensor:
#      x y z
#    x 1.682600 0.000000 0.000000 
#    y 0.000000 1.705360 0.000000 
#    z 0.000000 0.000000 1.702930 
# 
# From -- ./inp_files/20328.got.cif
#   From: 2010.03.12/outbox.cif.g09.slc.cpg/sg53_11_cif.got.tgz:20328.got - 2010.04.16 14:36:59.
