data_PCOD8222326
_publ_section_title
;
Structure prediction by ZEFSAII (Michael W. Deem and Ramdas Pophale) SiO2 
 PCOD8222326
Probable space group: P C C A
;
_chemical_formula_sum "Si O2"
_cell_formula_units_Z 40
_cell_length_a 5.248438
_cell_length_b 17.094483
_cell_length_c 26.047962
_cell_angle_alpha 90.000000
_cell_angle_beta 90.000000
_cell_angle_gamma 90.000000
_cell_volume 2337.005807
_symmetry_space_group_name_H-M "P C C A"
_symmetry_group_IT_number 54
_symmetry_cell_setting 'orthorhombic'
loop_
_space_group_symop_operation_xyz
x,y,z
1/2-x,-y,z
1/2+x,-y,1/2-z
-x,y,1/2-z
-x,-y,-z
1/2+x,y,-z
1/2-x,y,1/2+z
x,-y,1/2+z
loop_
_atom_site_type_symbol
_atom_site_label
_atom_site_fract_x
_atom_site_fract_y
_atom_site_fract_z
Si Si1 0.500299 0.966172 0.942639
Si Si2 0.842915 0.583941 0.197732
Si Si3 0.954773 0.717357 0.360560
Si Si4 0.445350 0.266860 0.805332
Si Si5 0.508506 0.212462 0.033012
O O1 0.506127 0.873114 0.942205
O O2 0.750000 0.000000 0.913759
O O3 0.250000 0.000000 0.913922
O O4 0.500000 0.000000 0.000000
O O5 0.750000 0.500000 0.177669
O O6 0.597240 0.640081 0.205118
O O7 0.000000 0.574566 0.250000
O O8 0.023298 0.625287 0.154634
O O9 0.683003 0.750473 0.342403
O O10 0.979298 0.724940 0.421600
O O11 0.184898 0.765537 0.331935
O O12 0.500000 0.226577 0.750000
O O13 0.781049 0.225614 0.006925
#
# Coordination Sequence:
#
# PCOD8222326 Si02
#       5
#     8   8   8   8   8
#     4  10  16  30  49  76  99 131 165 221 265 296
#     4  10  20  31  56  80 105 128 162 221 280 317
#     4  10  22  32  48  79 107 137 177 204 263 327
#     4  10  17  35  50  74 105 128 163 220 267 319
#     4  12  21  34  53  73 111 150 172 212 258 301
#
# _framework density 17.115919000000002
#
# number of rings (size 3 to 8) (size 9 to 14) (size 15 to 20)
#    1.200    0.400    6.000    2.400    0.000    0.000 
#    0.000    0.000    0.000    1.200    0.000    0.000 
#    0.000   27.200    0.000    0.000    0.000    0.000 
#
# Total GULP energy -495535.608624 kJ/mol
# GULP energy per Si atom -12388.390216 kJ/mol
# Density = 1.707696 g / cm^3
# Si number density = 17.115919 Si / 1000 Ang^3
#
#
#
# Elastic Constant Matrix: (Units=GPa)
#
#
# Indices 1 2 3 4 5 6 
#
# 1 135.8556 6.0436 21.5388 0.0000 0.0000 0.0000
# 2 6.0436 50.0494 24.9108 0.0000 0.0000 0.0000
# 3 21.5388 24.9108 62.7471 0.0000 0.0000 0.0000
# 4 0.0000 0.0000 0.0000 6.0938 0.0000 0.0000
# 5 0.0000 0.0000 0.0000 0.0000 13.2268 0.0000
# 6 0.0000 0.0000 0.0000 0.0000 0.0000 17.1444
#
#
#
# Elastic Compliance Matrix: (Units=1/GPa)
#
#
# Indices 1 2 3 4 5 6 
#
# 1 0.007794 0.000487 -0.002869 0.000000 0.000000 0.000000
# 2 0.000487 0.024931 -0.010065 0.000000 0.000000 0.000000
# 3 -0.002869 -0.010065 0.020917 0.000000 0.000000 0.000000
# 4 0.000000 0.000000 0.000000 0.164102 0.000000 0.000000
# 5 0.000000 0.000000 0.000000 0.000000 0.075604 0.000000
# 6 0.000000 0.000000 0.000000 0.000000 0.000000 0.058328
#
#
# Mechanical properties :
#
#
# Convention : Reuss Voigt Hill
#
# Bulk Modulus (GPa) = 34.78388 39.29316 37.03852
# Shear Modulus (GPa) = 12.94825 20.37025 16.65925
#
# Velocity S-wave (km/s) = 2.75344 3.45358 3.12319
# Velocity P-wave (km/s) = 5.52044 6.23778 5.89004
#
# Compressibility (1/GPa) = 0.02874895
#
# Stress axis : x y z
#
# Youngs Moduli (GPa) = 128.30558 40.11076 47.80707
#
# Poissons Ratio (x) = -0.01952 0.13714
# Poissons Ratio (y) = -0.06244 0.48117
# Poissons Ratio (z) = 0.36805 0.40370
#
# Static dielectric constant tensor:
#      x y z
#    x 2.003690 0.000000 0.000000 
#    y 0.000000 2.912560 0.000000 
#    z 0.000000 0.000000 2.735390 
# 
# 
# High freq. dielectric constant tensor:
#      x y z
#    x 1.691660 0.000000 0.000000 
#    y 0.000000 1.615760 0.000000 
#    z 0.000000 0.000000 1.622890 
# 
# From -- ./inp_files/22824.got.cif
#   From: 2010.03.12/outbox.cif.g09.slc.cpg/sg54_12_cif.got.tgz:22824.got - 2010.04.16 15:00:50.
