data_PCOD8222074
_publ_section_title
;
Structure prediction by ZEFSAII (Michael W. Deem and Ramdas Pophale) SiO2 
 PCOD8222074
Probable space group: P M N A
;
_chemical_formula_sum "Si O2"
_cell_formula_units_Z 48
_cell_length_a 14.147793
_cell_length_b 19.244316
_cell_length_c 8.436089
_cell_angle_alpha 90.000000
_cell_angle_beta 90.000000
_cell_angle_gamma 90.000000
_cell_volume 2296.848390
_symmetry_space_group_name_H-M "P M N A"
_symmetry_group_IT_number 53
_symmetry_cell_setting 'orthorhombic'
loop_
_space_group_symop_operation_xyz
x,y,z
1/2-x,-y,1/2+z
x,-y,-z
1/2-x,y,1/2-z
-x,-y,-z
1/2+x,y,1/2-z
-x,y,z
1/2+x,-y,1/2+z
loop_
_atom_site_type_symbol
_atom_site_label
_atom_site_fract_x
_atom_site_fract_y
_atom_site_fract_z
Si Si1 0.000000 0.282956 0.173447
Si Si2 0.703960 0.827298 0.096948
Si Si3 0.673352 0.054993 0.132055
Si Si4 0.701710 0.574737 0.076210
Si Si5 0.500000 0.209959 0.903564
Si Si6 0.500000 0.136039 0.231693
Si Si7 0.000000 0.640982 0.479685
Si Si8 0.291860 0.701445 0.581012
O O1 0.000000 0.198100 0.142306
O O2 0.000000 0.325363 0.341978
O O3 0.905162 0.303972 0.081301
O O4 0.750000 0.860974 0.250000
O O5 0.596291 0.822590 0.160601
O O6 0.720443 0.878840 0.951639
O O7 0.749687 0.753425 0.051245
O O8 0.750000 0.020792 0.250000
O O9 0.587609 0.083455 0.237549
O O10 0.638356 0.000000 0.000000
O O11 0.750000 0.577557 0.250000
O O12 0.714361 0.500000 0.000000
O O13 0.590943 0.595286 0.067807
O O14 0.757450 0.625167 0.959667
O O15 0.500000 0.190280 0.087464
O O16 0.500000 0.291822 0.867088
O O17 0.250000 0.725792 0.750000
#
# Coordination Sequence:
#
# PCOD8222074 Si02
#       8
#     4   8   8   8   4   4   4   8
#     4  11  22  38  71 104 125 169 224 271 338 397
#     4  11  22  38  62  93 129 170 213 276 328 387
#     4  11  22  39  62  89 126 169 219 265 321 398
#     4  12  27  46  68  96 132 177 223 274 334 402
#     4   9  18  35  62  87 122 157 212 246 328 393
#     4   9  19  38  60  93 121 169 203 258 324 397
#     4  11  21  43  70  91 130 176 209 262 342 403
#     4  12  22  41  66  96 130 167 216 276 326 393
#
# _framework density 20.898202000000001
#
# number of rings (size 3 to 8) (size 9 to 14) (size 15 to 20)
#    0.000    1.000    3.333    5.500    0.000    1.333 
#    0.000    2.083    0.000    0.000    0.000    0.000 
#    0.000    0.000    0.000    0.000    0.000    0.000 
#
# Total GULP energy -594683.674850 kJ/mol
# GULP energy per Si atom -12389.243226 kJ/mol
# Density = 2.085064 g / cm^3
# Si number density = 20.898202 Si / 1000 Ang^3
#
#
#
# Elastic Constant Matrix: (Units=GPa)
#
#
# Indices 1 2 3 4 5 6 
#
# 1 176.3461 37.1350 45.2537 0.0000 0.0000 0.0000
# 2 37.1350 98.0649 8.4210 0.0000 0.0000 0.0000
# 3 45.2537 8.4210 58.6845 0.0000 0.0000 0.0000
# 4 0.0000 0.0000 0.0000 26.2100 0.0000 0.0000
# 5 0.0000 0.0000 0.0000 0.0000 31.5376 0.0000
# 6 0.0000 0.0000 0.0000 0.0000 0.0000 -1.9330
#
#
#
# Elastic Compliance Matrix: (Units=1/GPa)
#
#
# Indices 1 2 3 4 5 6 
#
# 1 0.007590 -0.002401 -0.005508 0.000000 0.000000 0.000000
# 2 -0.002401 0.011084 0.000261 0.000000 0.000000 0.000000
# 3 -0.005508 0.000261 0.021250 0.000000 0.000000 0.000000
# 4 0.000000 0.000000 0.000000 0.038153 0.000000 0.000000
# 5 0.000000 0.000000 0.000000 0.000000 0.031708 0.000000
# 6 0.000000 0.000000 0.000000 0.000000 0.000000 -0.517320
#
#
# Mechanical properties :
#
#
# Convention : Reuss Voigt Hill
#
# Bulk Modulus (GPa) = 40.60452 57.19056 48.89754
# Shear Modulus (GPa) = -13.01987 27.31531 7.14772
#
# Velocity S-wave (km/s) = -2.49873 3.61926 1.85140
# Velocity P-wave (km/s) = 3.33871 6.70008 5.29330
#
# Compressibility (1/GPa) = 0.02462780
#
# Stress axis : x y z
#
# Youngs Moduli (GPa) = 131.75572 90.21892 47.05794
#
# Poissons Ratio (x) = 0.21662 0.25921
# Poissons Ratio (y) = 0.31636 -0.01228
# Poissons Ratio (z) = 0.72574 -0.02355
#
# Static dielectric constant tensor:
#      x y z
#    x 3.542030 0.000000 0.000000 
#    y 0.000000 3.767000 0.000000 
#    z 0.000000 0.000000 3.584210 
# 
# 
# High freq. dielectric constant tensor:
#      x y z
#    x 1.833310 0.000000 0.000000 
#    y 0.000000 1.822560 0.000000 
#    z 0.000000 0.000000 1.795250 
# 
# From -- ./inp_files/8761.got.cif
#   From: 2010.03.12/outbox.cif.g09.slc.cpg/sg53_5_cif.got.tgz:8761.got - 2010.04.16 14:36:59.
