data_PCOD8222265
_publ_section_title
;
Structure prediction by ZEFSAII (Michael W. Deem and Ramdas Pophale) SiO2 
 PCOD8222265
Probable space group: P M N A
;
_chemical_formula_sum "Si O2"
_cell_formula_units_Z 48
_cell_length_a 9.000000
_cell_length_b 9.000000
_cell_length_c 30.000000
_cell_angle_alpha 90.000000
_cell_angle_beta 90.000000
_cell_angle_gamma 90.000000
_cell_volume 2430.000000
_symmetry_space_group_name_H-M "P M N A"
_symmetry_group_IT_number 53
_symmetry_cell_setting 'orthorhombic'
loop_
_space_group_symop_operation_xyz
x,y,z
1/2-x,-y,1/2+z
x,-y,-z
1/2-x,y,1/2-z
-x,-y,-z
1/2+x,y,1/2-z
-x,y,z
1/2+x,-y,1/2+z
loop_
_atom_site_type_symbol
_atom_site_label
_atom_site_fract_x
_atom_site_fract_y
_atom_site_fract_z
Si Si1 0.822027 0.309244 0.796661
Si Si2 0.326535 0.810297 0.614609
Si Si3 0.666461 0.711412 0.064531
Si Si4 0.675359 0.089203 0.853480
Si Si5 0.174367 0.839823 0.986468
Si Si6 0.329823 0.475709 0.134225
O O1 0.750000 0.349878 0.750000
O O2 0.774187 0.143668 0.811454
O O3 0.732568 0.408631 0.831058
O O4 0.000000 0.331110 0.796963
O O5 0.500000 0.850551 0.620116
O O6 0.276463 0.803076 0.563346
O O7 0.288457 0.655119 0.636896
O O8 0.219307 0.919763 0.641005
O O9 0.500000 0.755117 0.051124
O O10 0.726145 0.827656 0.101356
O O11 0.673888 0.546409 0.084803
O O12 0.764050 0.715651 0.020028
O O13 0.500000 0.110805 0.843929
O O14 0.000000 0.839205 0.991707
O O15 0.240697 0.000000 0.000000
O O16 0.500000 0.430060 0.145995
#
# Coordination Sequence:
#
# PCOD8222265 Si02
#       6
#     8   8   8   8   8   8
#     4  11  22  40  66  92 116 146 184 228 278 343
#     4  11  22  36  55  83 116 155 197 239 291 341
#     4   9  19  34  54  78 107 149 197 238 281 334
#     4  10  20  36  58  85 115 149 188 234 283 335
#     4  10  20  33  51  78 113 152 196 244 288 335
#     4  10  22  40  58  83 117 153 192 237 291 346
#
# _framework density 19.753086
#
# number of rings (size 3 to 8) (size 9 to 14) (size 15 to 20)
#    0.000    1.833    1.667    4.000    0.000    5.667 
#    0.000    4.167    0.000    0.000    0.000    0.000 
#    0.000    0.000    0.000    0.000    0.000    0.000 
#
# Total GULP energy -595036.794131 kJ/mol
# GULP energy per Si atom -12396.599878 kJ/mol
# Density = 1.970813 g / cm^3
# Si number density = 19.753086 Si / 1000 Ang^3
#
#
#
# Elastic Constant Matrix: (Units=GPa)
#
#
# Indices 1 2 3 4 5 6 
#
# 1 77.8423 12.9324 28.5508 0.0000 0.0000 0.0000
# 2 12.9324 54.2106 8.9336 0.0000 0.0000 0.0000
# 3 28.5508 8.9336 57.6534 0.0000 0.0000 0.0000
# 4 0.0000 0.0000 0.0000 8.5451 0.0000 0.0000
# 5 0.0000 0.0000 0.0000 0.0000 34.9589 0.0000
# 6 0.0000 0.0000 0.0000 0.0000 0.0000 27.5810
#
#
#
# Elastic Compliance Matrix: (Units=1/GPa)
#
#
# Indices 1 2 3 4 5 6 
#
# 1 0.016043 -0.002584 -0.007544 0.000000 0.000000 0.000000
# 2 -0.002584 0.019346 -0.001718 0.000000 0.000000 0.000000
# 3 -0.007544 -0.001718 0.021347 0.000000 0.000000 0.000000
# 4 0.000000 0.000000 0.000000 0.117026 0.000000 0.000000
# 5 0.000000 0.000000 0.000000 0.000000 0.028605 0.000000
# 6 0.000000 0.000000 0.000000 0.000000 0.000000 0.036257
#
#
# Mechanical properties :
#
#
# Convention : Reuss Voigt Hill
#
# Bulk Modulus (GPa) = 30.26307 32.28224 31.27266
# Shear Modulus (GPa) = 18.29280 23.50296 20.89788
#
# Velocity S-wave (km/s) = 3.04645 3.45314 3.25615
# Velocity P-wave (km/s) = 5.26578 5.68131 5.47749
#
# Compressibility (1/GPa) = 0.03304357
#
# Stress axis : x y z
#
# Youngs Moduli (GPa) = 62.33313 51.68991 46.84435
#
# Poissons Ratio (x) = 0.13356 0.35341
# Poissons Ratio (y) = 0.16106 0.08049
# Poissons Ratio (z) = 0.47026 0.08881
#
# Static dielectric constant tensor:
#      x y z
#    x 3.552160 0.000000 0.000000 
#    y 0.000000 3.478310 0.000000 
#    z 0.000000 0.000000 3.657810 
# 
# 
# High freq. dielectric constant tensor:
#      x y z
#    x 1.777090 0.000000 0.000000 
#    y 0.000000 1.751470 0.000000 
#    z 0.000000 0.000000 1.751960 
# 
# From -- ./inp_files/37661.got.cif
#   From: 2010.03.12/outbox.ucp.g09.slc.cvg/sg53_19_cif.got.tgz:37661.got - 2010.05.04 19:20:06.
