data_PCOD8222802
_publ_section_title
;
Structure prediction by ZEFSAII (Michael W. Deem and Ramdas Pophale) SiO2 
 PCOD8222802
Probable space group: P C C A
;
_chemical_formula_sum "Si O2"
_cell_formula_units_Z 56
_cell_length_a 22.071601
_cell_length_b 8.240400
_cell_length_c 14.476162
_cell_angle_alpha 90.000000
_cell_angle_beta 90.000000
_cell_angle_gamma 90.000000
_cell_volume 2632.907275
_symmetry_space_group_name_H-M "P C C A"
_symmetry_group_IT_number 54
_symmetry_cell_setting 'orthorhombic'
loop_
_space_group_symop_operation_xyz
x,y,z
1/2-x,-y,z
1/2+x,-y,1/2-z
-x,y,1/2-z
-x,-y,-z
1/2+x,y,-z
1/2-x,y,1/2+z
x,-y,1/2+z
loop_
_atom_site_type_symbol
_atom_site_label
_atom_site_fract_x
_atom_site_fract_y
_atom_site_fract_z
Si Si1 0.068070 0.647071 0.069594
Si Si2 0.158353 0.925272 0.086364
Si Si3 0.655523 0.937629 0.599910
Si Si4 0.570609 0.644390 0.556447
Si Si5 0.778885 0.254751 0.754365
Si Si6 0.611416 0.479120 0.247522
Si Si7 0.857808 0.175421 0.257995
O O1 0.106394 0.807128 0.046367
O O2 0.074000 0.625287 0.179210
O O3 0.999755 0.681723 0.038455
O O4 0.094456 0.483521 0.020786
O O5 0.207963 0.833335 0.147902
O O6 0.131335 0.067525 0.151144
O O7 0.188320 0.993071 0.991935
O O8 0.605691 0.814297 0.558717
O O9 0.704364 0.852707 0.665341
O O10 0.625495 0.076357 0.664894
O O11 0.579632 0.553704 0.651853
O O12 0.817086 0.422286 0.749171
O O13 0.707252 0.265625 0.750466
O O14 0.599606 0.668513 0.267147
#
# Coordination Sequence:
#
# PCOD8222802 Si02
#       7
#     8   8   8   8   8   8   8
#     4  10  21  38  57  77 106 144 182 222 273 329
#     4  10  20  35  55  80 108 138 177 224 271 319
#     4  10  20  35  55  80 108 138 177 224 271 319
#     4  10  21  38  57  77 106 144 182 222 273 329
#     4   9  21  36  54  79 109 147 178 211 265 325
#     4  10  20  37  57  79 108 143 182 220 263 324
#     4  11  21  35  55  82 111 140 179 225 270 317
#
# _framework density 21.269264
#
# number of rings (size 3 to 8) (size 9 to 14) (size 15 to 20)
#    0.000    2.000    0.000    5.143    0.000    2.857 
#    0.000    2.857    0.000    5.143    0.000    0.000 
#    0.000    0.000    0.000    0.000    0.000    0.000 
#
# Total GULP energy -694015.638418 kJ/mol
# GULP energy per Si atom -12393.136400 kJ/mol
# Density = 2.122085 g / cm^3
# Si number density = 21.269264 Si / 1000 Ang^3
#
#
#
# Elastic Constant Matrix: (Units=GPa)
#
#
# Indices 1 2 3 4 5 6 
#
# 1 50.1261 13.7511 15.5421 0.0000 0.0000 0.0000
# 2 13.7511 111.5385 32.7792 0.0000 0.0000 0.0000
# 3 15.5421 32.7792 127.4087 0.0000 0.0000 0.0000
# 4 0.0000 0.0000 0.0000 41.2356 0.0000 0.0000
# 5 0.0000 0.0000 0.0000 0.0000 12.1394 0.0000
# 6 0.0000 0.0000 0.0000 0.0000 0.0000 17.8604
#
#
#
# Elastic Compliance Matrix: (Units=1/GPa)
#
#
# Indices 1 2 3 4 5 6 
#
# 1 0.021138 -0.001999 -0.002064 0.000000 0.000000 0.000000
# 2 -0.001999 0.009888 -0.002300 0.000000 0.000000 0.000000
# 3 -0.002064 -0.002300 0.008692 0.000000 0.000000 0.000000
# 4 0.000000 0.000000 0.000000 0.024251 0.000000 0.000000
# 5 0.000000 0.000000 0.000000 0.000000 0.082376 0.000000
# 6 0.000000 0.000000 0.000000 0.000000 0.000000 0.055990
#
#
# Mechanical properties :
#
#
# Convention : Reuss Voigt Hill
#
# Bulk Modulus (GPa) = 37.04909 45.91314 41.48111
# Shear Modulus (GPa) = 22.31548 29.38047 25.84798
#
# Velocity S-wave (km/s) = 3.24263 3.72070 3.48986
# Velocity P-wave (km/s) = 5.61039 6.33179 5.98197
#
# Compressibility (1/GPa) = 0.02699121
#
# Stress axis : x y z
#
# Youngs Moduli (GPa) = 47.30776 101.13321 115.04430
#
# Poissons Ratio (x) = 0.20221 0.23747
# Poissons Ratio (y) = 0.09459 0.26461
# Poissons Ratio (z) = 0.09765 0.23261
#
# Static dielectric constant tensor:
#      x y z
#    x 3.450970 0.000000 0.000000 
#    y 0.000000 4.015270 0.000000 
#    z 0.000000 0.000000 3.933010 
# 
# 
# High freq. dielectric constant tensor:
#      x y z
#    x 1.799050 0.000000 0.000000 
#    y 0.000000 1.846350 0.000000 
#    z 0.000000 0.000000 1.847830 
# 
# From -- ./inp_files/14684.got.cif
#   From: 2010.03.12/outbox.cif.g09.slc.cpg/sg54_8_cif.got.tgz:14684.got - 2010.04.16 15:00:50.
