data_PCOD8222790
_publ_section_title
;
Structure prediction by ZEFSAII (Michael W. Deem and Ramdas Pophale) SiO2 
 PCOD8222790
Probable space group: P C C A
;
_chemical_formula_sum "Si O2"
_cell_formula_units_Z 56
_cell_length_a 8.518396
_cell_length_b 15.105499
_cell_length_c 20.147840
_cell_angle_alpha 90.000000
_cell_angle_beta 90.000000
_cell_angle_gamma 90.000000
_cell_volume 2592.515701
_symmetry_space_group_name_H-M "P C C A"
_symmetry_group_IT_number 54
_symmetry_cell_setting 'orthorhombic'
loop_
_space_group_symop_operation_xyz
x,y,z
1/2-x,-y,z
1/2+x,-y,1/2-z
-x,y,1/2-z
-x,-y,-z
1/2+x,y,-z
1/2-x,y,1/2+z
x,-y,1/2+z
loop_
_atom_site_type_symbol
_atom_site_label
_atom_site_fract_x
_atom_site_fract_y
_atom_site_fract_z
Si Si1 0.073247 0.855898 0.321273
Si Si2 0.796523 0.657917 0.002225
Si Si3 0.456341 0.613152 0.402505
Si Si4 0.067106 0.971990 0.677144
Si Si5 0.076966 0.463096 0.681936
Si Si6 0.944094 0.290403 0.905727
Si Si7 0.065449 0.205022 0.322613
O O1 0.953576 0.785026 0.351492
O O2 0.251768 0.824238 0.318484
O O3 0.000000 0.874998 0.250000
O O4 0.042099 0.951352 0.357030
O O5 0.692249 0.595613 0.049942
O O6 0.898788 0.716764 0.051386
O O7 0.895455 0.598438 0.951145
O O8 0.695131 0.725829 0.957876
O O9 0.463594 0.540586 0.344959
O O10 0.451620 0.710995 0.370779
O O11 0.000000 0.950662 0.750000
O O12 0.035568 0.875450 0.643602
O O13 0.250000 0.000000 0.676698
O O14 0.250000 0.500000 0.695701
O O15 0.000000 0.427792 0.750000
O O16 0.081415 0.384696 0.629145
O O17 0.000000 0.232973 0.250000
#
# Coordination Sequence:
#
# PCOD8222790 Si02
#       7
#     8   8   8   8   8   8   8
#     4  11  22  38  63  94 127 163 202 259 320 373
#     4  10  24  43  66  91 118 168 218 257 294 369
#     4  11  24  43  66  91 126 164 211 258 308 363
#     4  10  20  34  60  93 124 161 203 253 313 383
#     4  12  28  43  65  96 130 163 204 258 317 374
#     4  11  24  43  66  91 126 164 211 258 308 363
#     4  11  22  38  63  94 127 163 202 259 320 373
#
# _framework density 21.600643000000002
#
# number of rings (size 3 to 8) (size 9 to 14) (size 15 to 20)
#    0.000    1.143    2.857    4.714    6.000    5.714 
#    0.000    0.000    0.000    5.143    0.000    0.000 
#    0.000    0.000    0.000    0.000    0.000    0.000 
#
# Total GULP energy -693997.095798 kJ/mol
# GULP energy per Si atom -12392.805282 kJ/mol
# Density = 2.155148 g / cm^3
# Si number density = 21.600643 Si / 1000 Ang^3
#
#
#
# Elastic Constant Matrix: (Units=GPa)
#
#
# Indices 1 2 3 4 5 6 
#
# 1 107.6507 16.6894 40.4963 0.0000 0.0000 0.0000
# 2 16.6894 114.4341 32.6361 0.0000 0.0000 0.0000
# 3 40.4963 32.6361 77.9381 0.0000 0.0000 0.0000
# 4 0.0000 0.0000 0.0000 0.0988 0.0000 0.0000
# 5 0.0000 0.0000 0.0000 0.0000 163.8225 0.0000
# 6 0.0000 0.0000 0.0000 0.0000 0.0000 24.0039
#
#
#
# Elastic Compliance Matrix: (Units=1/GPa)
#
#
# Indices 1 2 3 4 5 6 
#
# 1 0.011546 0.000031 -0.006012 0.000000 0.000000 0.000000
# 2 0.000031 0.009924 -0.004172 0.000000 0.000000 0.000000
# 3 -0.006012 -0.004172 0.017701 0.000000 0.000000 0.000000
# 4 0.000000 0.000000 0.000000 10.124529 0.000000 0.000000
# 5 0.000000 0.000000 0.000000 0.000000 0.006104 0.000000
# 6 0.000000 0.000000 0.000000 0.000000 0.000000 0.041660
#
#
# Mechanical properties :
#
#
# Convention : Reuss Voigt Hill
#
# Bulk Modulus (GPa) = 53.00693 53.29628 53.15161
# Shear Modulus (GPa) = 0.48837 51.59845 26.04341
#
# Velocity S-wave (km/s) = 0.47601 4.89278 3.47605
# Velocity P-wave (km/s) = 4.98948 7.52636 6.38518
#
# Compressibility (1/GPa) = 0.01886546
#
# Stress axis : x y z
#
# Youngs Moduli (GPa) = 86.60836 100.76708 56.49266
#
# Poissons Ratio (x) = -0.00310 0.33965
# Poissons Ratio (y) = -0.00266 0.23566
# Poissons Ratio (z) = 0.52071 0.42035
#
# Static dielectric constant tensor:
#      x y z
#    x 4.209740 0.000000 0.000000 
#    y 0.000000 3.938690 0.000000 
#    z 0.000000 0.000000 3.699160 
# 
# 
# High freq. dielectric constant tensor:
#      x y z
#    x 1.868780 0.000000 0.000000 
#    y 0.000000 1.844030 0.000000 
#    z 0.000000 0.000000 1.830350 
# 
# From -- ./inp_files/20550.got.cif
#   From: 2010.03.12/outbox.cif.g09.slc.cpg/sg54_11_cif.got.tgz:20550.got - 2010.04.16 15:00:50.
