data_PCOD8222115
_publ_section_title
;
Structure prediction by ZEFSAII (Michael W. Deem and Ramdas Pophale) SiO2 
 PCOD8222115
Probable space group: P M N A
;
_chemical_formula_sum "Si O2"
_cell_formula_units_Z 32
_cell_length_a 16.461313
_cell_length_b 10.621356
_cell_length_c 8.759926
_cell_angle_alpha 90.000000
_cell_angle_beta 90.000000
_cell_angle_gamma 90.000000
_cell_volume 1531.598300
_symmetry_space_group_name_H-M "P M N A"
_symmetry_group_IT_number 53
_symmetry_cell_setting 'orthorhombic'
loop_
_space_group_symop_operation_xyz
x,y,z
1/2-x,-y,1/2+z
x,-y,-z
1/2-x,y,1/2-z
-x,-y,-z
1/2+x,y,1/2-z
-x,y,z
1/2+x,-y,1/2+z
loop_
_atom_site_type_symbol
_atom_site_label
_atom_site_fract_x
_atom_site_fract_y
_atom_site_fract_z
Si Si1 0.663522 0.512209 0.821897
Si Si2 0.907709 0.766342 0.640489
Si Si3 0.841025 0.760698 0.313772
Si Si4 0.660923 0.990856 0.679512
O O1 0.750000 0.541250 0.750000
O O2 0.604388 0.628475 0.782747
O O3 0.623924 0.377816 0.767558
O O4 0.679241 0.500000 0.000000
O O5 0.846811 0.781464 0.496851
O O6 0.891220 0.871082 0.768285
O O7 0.000000 0.777496 0.582049
O O8 0.750000 0.763342 0.250000
O O9 0.884760 0.881021 0.236825
O O10 0.750000 0.978284 0.750000
O O11 0.667050 0.000000 0.500000
#
# Coordination Sequence:
#
# PCOD8222115 Si02
#       4
#     8   8   8   8
#     4   9  19  35  59  86 114 149 194 240 286 344
#     4  11  23  38  59  89 123 157 192 238 297 353
#     4   9  19  37  59  86 115 150 197 241 288 344
#     4  11  22  38  61  87 116 153 202 249 289 344
#
# _framework density 20.893205999999999
#
# number of rings (size 3 to 8) (size 9 to 14) (size 15 to 20)
#    0.000    2.000    0.000    4.500    0.000   13.000 
#    0.000    0.000    0.000    5.250    0.000    0.000 
#    0.000    0.000    0.000    0.000    0.000    0.000 
#
# Total GULP energy -396462.451437 kJ/mol
# GULP energy per Si atom -12389.451607 kJ/mol
# Density = 2.084565 g / cm^3
# Si number density = 20.893206 Si / 1000 Ang^3
#
#
#
# Elastic Constant Matrix: (Units=GPa)
#
#
# Indices 1 2 3 4 5 6 
#
# 1 71.6342 42.2492 35.1634 0.0000 0.0000 0.0000
# 2 42.2492 223.2423 72.7053 0.0000 0.0000 0.0000
# 3 35.1634 72.7053 97.3826 0.0000 0.0000 0.0000
# 4 0.0000 0.0000 0.0000 18.5965 0.0000 0.0000
# 5 0.0000 0.0000 0.0000 0.0000 15.9281 0.0000
# 6 0.0000 0.0000 0.0000 0.0000 0.0000 8.1474
#
#
#
# Elastic Compliance Matrix: (Units=1/GPa)
#
#
# Indices 1 2 3 4 5 6 
#
# 1 0.017415 -0.001649 -0.005057 0.000000 0.000000 0.000000
# 2 -0.001649 0.006075 -0.003940 0.000000 0.000000 0.000000
# 3 -0.005057 -0.003940 0.015036 0.000000 0.000000 0.000000
# 4 0.000000 0.000000 0.000000 0.053774 0.000000 0.000000
# 5 0.000000 0.000000 0.000000 0.000000 0.062782 0.000000
# 6 0.000000 0.000000 0.000000 0.000000 0.000000 0.122739
#
#
# Mechanical properties :
#
#
# Convention : Reuss Voigt Hill
#
# Bulk Modulus (GPa) = 58.02526 76.94387 67.48457
# Shear Modulus (GPa) = 16.40112 24.67713 20.53913
#
# Velocity S-wave (km/s) = 2.80482 3.44045 3.13877
# Velocity P-wave (km/s) = 6.19047 7.25875 6.74579
#
# Compressibility (1/GPa) = 0.01723387
#
# Stress axis : x y z
#
# Youngs Moduli (GPa) = 57.42277 164.61932 66.50525
#
# Poissons Ratio (x) = 0.27141 0.33633
# Poissons Ratio (y) = 0.09468 0.26203
# Poissons Ratio (z) = 0.29040 0.64859
#
# Static dielectric constant tensor:
#      x y z
#    x 3.343650 0.000000 0.000000 
#    y 0.000000 5.151910 0.000000 
#    z 0.000000 0.000000 3.754030 
# 
# 
# High freq. dielectric constant tensor:
#      x y z
#    x 1.771700 0.000000 0.000000 
#    y 0.000000 1.860830 0.000000 
#    z 0.000000 0.000000 1.803150 
# 
# From -- ./inp_files/7963.got.cif
#   From: 2010.03.12/outbox.cif.g09.slc.cpg/sg53_4_cif.got.tgz:7963.got - 2010.04.16 14:36:59.
