data_PCOD8222775
_publ_section_title
;
Structure prediction by ZEFSAII (Michael W. Deem and Ramdas Pophale) SiO2 
 PCOD8222775
Probable space group: P C C A
;
_chemical_formula_sum "Si O2"
_cell_formula_units_Z 52
_cell_length_a 10.985332
_cell_length_b 7.980961
_cell_length_c 29.676024
_cell_angle_alpha 90.000000
_cell_angle_beta 90.000000
_cell_angle_gamma 90.000000
_cell_volume 2601.801076
_symmetry_space_group_name_H-M "P C C A"
_symmetry_group_IT_number 54
_symmetry_cell_setting 'orthorhombic'
loop_
_space_group_symop_operation_xyz
x,y,z
1/2-x,-y,z
1/2+x,-y,1/2-z
-x,y,1/2-z
-x,-y,-z
1/2+x,y,-z
1/2-x,y,1/2+z
x,-y,1/2+z
loop_
_atom_site_type_symbol
_atom_site_label
_atom_site_fract_x
_atom_site_fract_y
_atom_site_fract_z
Si Si1 0.500000 0.411392 0.750000
Si Si2 0.687164 0.246630 0.451189
Si Si3 0.187193 0.677912 0.951482
Si Si4 0.202591 0.818653 0.857776
Si Si5 0.935992 0.245888 0.339689
Si Si6 0.250000 0.500000 0.295285
Si Si7 0.427005 0.430871 0.576621
Si Si8 0.250000 0.000000 0.118161
O O1 0.442094 0.291654 0.712406
O O2 0.620636 0.514162 0.732568
O O3 0.689621 0.202294 0.504362
O O4 0.581940 0.379926 0.440175
O O5 0.819535 0.317204 0.441364
O O6 0.659630 0.094503 0.417018
O O7 0.250000 0.500000 0.961918
O O8 0.247272 0.770978 0.908472
O O9 0.047662 0.646990 0.942310
O O10 0.246712 0.668838 0.825026
O O11 0.058424 0.843831 0.855848
O O12 0.250000 0.000000 0.842543
O O13 0.922602 0.418184 0.368696
O O14 0.823963 0.121368 0.348760
#
# Coordination Sequence:
#
# PCOD8222775 Si02
#       8
#     4   8   8   8   8   4   8   4
#     4  10  22  44  72  94 126 156 220 272 312 410
#     4  10  20  34  55  82 120 159 207 251 292 371
#     4  11  20  33  58  87 117 167 215 251 299 371
#     4  10  22  42  62  92 132 169 208 262 315 378
#     4   9  21  43  61  86 126 156 205 266 312 381
#     4  10  22  46  68  98 130 170 208 272 334 384
#     4   9  19  36  55  78 113 157 199 254 306 353
#     4  10  22  40  56  90 124 166 198 254 328 366
#
# _framework density 19.986156000000001
#
# number of rings (size 3 to 8) (size 9 to 14) (size 15 to 20)
#    0.000    2.154    2.308    0.462    1.077    3.692 
#    8.308    3.077    0.000    0.000    0.000    0.000 
#    0.000    0.000    0.000    0.000    0.000    0.000 
#
# Total GULP energy -644230.953871 kJ/mol
# GULP energy per Si atom -12389.056805 kJ/mol
# Density = 1.994067 g / cm^3
# Si number density = 19.986156 Si / 1000 Ang^3
#
#
#
# Elastic Constant Matrix: (Units=GPa)
#
#
# Indices 1 2 3 4 5 6 
#
# 1 78.7060 23.2274 40.1666 0.0000 0.0000 0.0000
# 2 23.2274 85.5733 43.3876 0.0000 0.0000 0.0000
# 3 40.1666 43.3876 157.3247 0.0000 0.0000 0.0000
# 4 0.0000 0.0000 0.0000 8.3868 0.0000 0.0000
# 5 0.0000 0.0000 0.0000 0.0000 19.9515 0.0000
# 6 0.0000 0.0000 0.0000 0.0000 0.0000 19.2899
#
#
#
# Elastic Compliance Matrix: (Units=1/GPa)
#
#
# Indices 1 2 3 4 5 6 
#
# 1 0.015050 -0.002484 -0.003157 0.000000 0.000000 0.000000
# 2 -0.002484 0.013996 -0.003226 0.000000 0.000000 0.000000
# 3 -0.003157 -0.003226 0.008052 0.000000 0.000000 0.000000
# 4 0.000000 0.000000 0.000000 0.119235 0.000000 0.000000
# 5 0.000000 0.000000 0.000000 0.000000 0.050122 0.000000
# 6 0.000000 0.000000 0.000000 0.000000 0.000000 0.051841
#
#
# Mechanical properties :
#
#
# Convention : Reuss Voigt Hill
#
# Bulk Modulus (GPa) = 51.64385 59.46300 55.55342
# Shear Modulus (GPa) = 17.70019 23.84713 20.77366
#
# Velocity S-wave (km/s) = 2.97917 3.45799 3.22747
# Velocity P-wave (km/s) = 6.14246 6.76464 6.46104
#
# Compressibility (1/GPa) = 0.01936339
#
# Stress axis : x y z
#
# Youngs Moduli (GPa) = 66.44549 71.45103 124.19406
#
# Poissons Ratio (x) = 0.17750 0.39212
# Poissons Ratio (y) = 0.16507 0.40059
# Poissons Ratio (z) = 0.20979 0.23047
#
# Static dielectric constant tensor:
#      x y z
#    x 3.785140 0.000000 0.000000 
#    y 0.000000 3.671380 0.000000 
#    z 0.000000 0.000000 3.971370 
# 
# 
# High freq. dielectric constant tensor:
#      x y z
#    x 1.783070 0.000000 0.000000 
#    y 0.000000 1.756460 0.000000 
#    z 0.000000 0.000000 1.791230 
# 
# From -- ./inp_files/28086.got.cif
#   From: 2010.03.12/outbox.cif.g09.slc.cpg/sg54_15_cif.got.tgz:28086.got - 2010.04.16 15:00:50.
