data_PCOD8222361
_publ_section_title
;
Structure prediction by ZEFSAII (Michael W. Deem and Ramdas Pophale) SiO2 
 PCOD8222361
Probable space group: P C C A
;
_chemical_formula_sum "Si O2"
_cell_formula_units_Z 64
_cell_length_a 12.189835
_cell_length_b 11.117260
_cell_length_c 24.954400
_cell_angle_alpha 90.000000
_cell_angle_beta 90.000000
_cell_angle_gamma 90.000000
_cell_volume 3381.759525
_symmetry_space_group_name_H-M "P C C A"
_symmetry_group_IT_number 54
_symmetry_cell_setting 'orthorhombic'
loop_
_space_group_symop_operation_xyz
x,y,z
1/2-x,-y,z
1/2+x,-y,1/2-z
-x,y,1/2-z
-x,-y,-z
1/2+x,y,-z
1/2-x,y,1/2+z
x,-y,1/2+z
loop_
_atom_site_type_symbol
_atom_site_label
_atom_site_fract_x
_atom_site_fract_y
_atom_site_fract_z
Si Si1 0.262353 0.133681 0.004209
Si Si2 0.207946 0.132271 0.319566
Si Si3 0.439796 0.288422 0.948211
Si Si4 0.600999 0.136072 0.391792
Si Si5 0.925331 0.716678 0.044300
Si Si6 0.755448 0.860591 0.802470
Si Si7 0.246378 0.627891 0.883681
Si Si8 0.467759 0.869773 0.139115
O O1 0.297385 0.139186 0.066506
O O2 0.250000 0.000000 0.983692
O O3 0.356362 0.185789 0.966861
O O4 0.145721 0.194303 0.992789
O O5 0.253059 0.162837 0.260532
O O6 0.255874 0.245728 0.352521
O O7 0.077041 0.129242 0.324187
O O8 0.250000 0.000000 0.338671
O O9 0.368869 0.384649 0.915266
O O10 0.526235 0.222970 0.909751
O O11 0.497543 0.349624 0.000035
O O12 0.499582 0.215566 0.411736
O O13 0.651523 0.192525 0.336279
O O14 0.556423 0.001632 0.383889
O O15 0.847604 0.623255 0.074663
O O16 0.872674 0.814756 0.823378
O O17 0.750000 0.000000 0.815705
O O18 0.250000 0.500000 0.850536
#
# Coordination Sequence:
#
# PCOD8222361 Si02
#       8
#     8   8   8   8   8   8   8   8
#     4  10  17  26  43  74 113 144 170 207 258 311
#     4  10  20  35  55  78 102 134 177 221 264 310
#     4   9  19  30  48  73  98 135 175 206 248 309
#     4  10  18  28  47  76 110 143 175 216 263 312
#     4  10  19  32  49  72 103 139 175 210 252 310
#     4   9  18  30  48  75 104 136 176 220 264 307
#     4  10  22  38  55  76 103 135 171 213 260 313
#     4  10  17  29  48  74 108 141 172 214 263 310
#
# _framework density 18.925059999999998
#
# number of rings (size 3 to 8) (size 9 to 14) (size 15 to 20)
#    0.000    2.250    0.000    4.500    0.000    6.000 
#    0.000    1.875    0.000    6.000    0.000    3.500 
#    0.000    0.000    0.000    0.000    0.000    0.000 
#
# Total GULP energy -792863.889006 kJ/mol
# GULP energy per Si atom -12388.498266 kJ/mol
# Density = 1.888199 g / cm^3
# Si number density = 18.925060 Si / 1000 Ang^3
#
#
#
# Elastic Constant Matrix: (Units=GPa)
#
#
# Indices 1 2 3 4 5 6 
#
# 1 91.3350 21.2476 38.8375 0.0000 0.0000 0.0000
# 2 21.2476 85.3193 35.2785 0.0000 0.0000 0.0000
# 3 38.8375 35.2785 90.9035 0.0000 0.0000 0.0000
# 4 0.0000 0.0000 0.0000 6.6458 0.0000 0.0000
# 5 0.0000 0.0000 0.0000 0.0000 35.0707 0.0000
# 6 0.0000 0.0000 0.0000 0.0000 0.0000 -6.5780
#
#
#
# Elastic Compliance Matrix: (Units=1/GPa)
#
#
# Indices 1 2 3 4 5 6 
#
# 1 0.013475 -0.001162 -0.005306 0.000000 0.000000 0.000000
# 2 -0.001162 0.014061 -0.004961 0.000000 0.000000 0.000000
# 3 -0.005306 -0.004961 0.015193 0.000000 0.000000 0.000000
# 4 0.000000 0.000000 0.000000 0.150472 0.000000 0.000000
# 5 0.000000 0.000000 0.000000 0.000000 0.028514 0.000000
# 6 0.000000 0.000000 0.000000 0.000000 0.000000 -0.152022
#
#
# Mechanical properties :
#
#
# Convention : Reuss Voigt Hill
#
# Bulk Modulus (GPa) = 50.32204 50.92055 50.62130
# Shear Modulus (GPa) = 50.41644 18.50731 34.46188
#
# Velocity S-wave (km/s) = 5.16700 3.13057 4.27191
# Velocity P-wave (km/s) = 7.88955 6.32710 7.15113
#
# Compressibility (1/GPa) = 0.01987201
#
# Stress axis : x y z
#
# Youngs Moduli (GPa) = 74.20981 71.11799 65.82029
#
# Poissons Ratio (x) = 0.08262 0.34926
# Poissons Ratio (y) = 0.08621 0.32651
# Poissons Ratio (z) = 0.39378 0.35279
#
# Static dielectric constant tensor:
#      x y z
#    x 3.763720 0.000000 0.000000 
#    y 0.000000 3.020880 0.000000 
#    z 0.000000 0.000000 3.457490 
# 
# 
# High freq. dielectric constant tensor:
#      x y z
#    x 1.752880 0.000000 0.000000 
#    y 0.000000 1.688910 0.000000 
#    z 0.000000 0.000000 1.734420 
# 
# From -- ./inp_files/24262.got.cif
#   From: 2010.03.12/outbox.cif.g09.slc.cpg/sg54_13_cif.got.tgz:24262.got - 2010.04.16 15:00:50.
