data_PCOD8222617
_publ_section_title
;
Structure prediction by ZEFSAII (Michael W. Deem and Ramdas Pophale) SiO2 
 PCOD8222617
Probable space group: P C C A
;
_chemical_formula_sum "Si O2"
_cell_formula_units_Z 44
_cell_length_a 12.875840
_cell_length_b 9.490984
_cell_length_c 16.940260
_cell_angle_alpha 90.000000
_cell_angle_beta 90.000000
_cell_angle_gamma 90.000000
_cell_volume 2070.174164
_symmetry_space_group_name_H-M "P C C A"
_symmetry_group_IT_number 54
_symmetry_cell_setting 'orthorhombic'
loop_
_space_group_symop_operation_xyz
x,y,z
1/2-x,-y,z
1/2+x,-y,1/2-z
-x,y,1/2-z
-x,-y,-z
1/2+x,y,-z
1/2-x,y,1/2+z
x,-y,1/2+z
loop_
_atom_site_type_symbol
_atom_site_label
_atom_site_fract_x
_atom_site_fract_y
_atom_site_fract_z
Si Si1 0.893120 0.382155 0.286228
Si Si2 0.623478 0.237434 0.417510
Si Si3 0.890938 0.458336 0.463214
Si Si4 0.170738 0.694105 0.250290
Si Si5 0.113948 0.223390 0.923103
Si Si6 0.250000 0.000000 0.497985
O O1 0.903121 0.375222 0.380839
O O2 0.795677 0.290313 0.256505
O O3 0.872705 0.536783 0.252839
O O4 0.000000 0.321381 0.250000
O O5 0.668997 0.393058 0.444571
O O6 0.621288 0.223016 0.323005
O O7 0.506602 0.216024 0.447660
O O8 0.696864 0.116757 0.448675
O O9 0.835734 0.354574 0.527128
O O10 0.000000 0.500000 0.500000
O O11 0.130593 0.759150 0.330727
O O12 0.164685 0.074582 0.943945
#
# Coordination Sequence:
#
# PCOD8222617 Si02
#       6
#     8   8   8   8   8   4
#     4  10  19  34  57  95 128 155 200 260 315 372
#     4  10  22  43  63  86 123 163 205 252 311 380
#     4   9  19  37  65  91 120 160 204 253 310 367
#     4  10  21  37  61  85 120 167 207 246 310 379
#     4  11  23  41  63  91 122 161 207 258 310 374
#     4  12  26  38  60  90 122 162 208 260 320 372
#
# _framework density 21.254249999999999
#
# number of rings (size 3 to 8) (size 9 to 14) (size 15 to 20)
#    0.000    1.818    0.000    5.455    0.000    8.727 
#    0.000    1.818    0.000    0.000    0.000    0.000 
#    0.000    0.000    0.000    0.000    0.000    0.000 
#
# Total GULP energy -545490.066223 kJ/mol
# GULP energy per Si atom -12397.501505 kJ/mol
# Density = 2.120587 g / cm^3
# Si number density = 21.254250 Si / 1000 Ang^3
#
#
#
# Elastic Constant Matrix: (Units=GPa)
#
#
# Indices 1 2 3 4 5 6 
#
# 1 83.4982 16.9700 3.0035 0.0000 0.0000 0.0000
# 2 16.9700 101.1097 43.2625 0.0000 0.0000 0.0000
# 3 3.0035 43.2625 106.5236 0.0000 0.0000 0.0000
# 4 0.0000 0.0000 0.0000 18.9499 0.0000 0.0000
# 5 0.0000 0.0000 0.0000 0.0000 32.7058 0.0000
# 6 0.0000 0.0000 0.0000 0.0000 0.0000 34.2382
#
#
#
# Elastic Compliance Matrix: (Units=1/GPa)
#
#
# Indices 1 2 3 4 5 6 
#
# 1 0.012431 -0.002344 0.000601 0.000000 0.000000 0.000000
# 2 -0.002344 0.012412 -0.004975 0.000000 0.000000 0.000000
# 3 0.000601 -0.004975 0.011391 0.000000 0.000000 0.000000
# 4 0.000000 0.000000 0.000000 0.052771 0.000000 0.000000
# 5 0.000000 0.000000 0.000000 0.000000 0.030576 0.000000
# 6 0.000000 0.000000 0.000000 0.000000 0.000000 0.029207
#
#
# Mechanical properties :
#
#
# Convention : Reuss Voigt Hill
#
# Bulk Modulus (GPa) = 43.85996 46.40038 45.13017
# Shear Modulus (GPa) = 29.44255 32.37182 30.90718
#
# Velocity S-wave (km/s) = 3.72594 3.90689 3.81749
# Velocity P-wave (km/s) = 6.26026 6.49848 6.38048
#
# Compressibility (1/GPa) = 0.02279984
#
# Stress axis : x y z
#
# Youngs Moduli (GPa) = 80.44403 80.56552 87.78780
#
# Poissons Ratio (x) = 0.18882 -0.05279
# Poissons Ratio (y) = 0.18854 0.43674
# Poissons Ratio (z) = -0.04837 0.40081
#
# Static dielectric constant tensor:
#      x y z
#    x 4.132920 0.000000 0.000000 
#    y 0.000000 3.679910 0.000000 
#    z 0.000000 0.000000 3.890490 
# 
# 
# High freq. dielectric constant tensor:
#      x y z
#    x 1.848080 0.000000 0.000000 
#    y 0.000000 1.798660 0.000000 
#    z 0.000000 0.000000 1.842050 
# 
# From -- ./inp_files/17914.got.cif
#   From: 2010.03.12/outbox.cif.g09.slc.cpg/sg54_9_cif.got.tgz:17914.got - 2010.04.16 15:00:50.
