data_PCOD8222011
_publ_section_title
;
Structure prediction by ZEFSAII (Michael W. Deem and Ramdas Pophale) SiO2 
 PCOD8222011
Probable space group: P M N A
;
_chemical_formula_sum "Si O2"
_cell_formula_units_Z 40
_cell_length_a 8.794110
_cell_length_b 12.882908
_cell_length_c 19.747430
_cell_angle_alpha 90.000000
_cell_angle_beta 90.000000
_cell_angle_gamma 90.000000
_cell_volume 2237.259609
_symmetry_space_group_name_H-M "P M N A"
_symmetry_group_IT_number 53
_symmetry_cell_setting 'orthorhombic'
loop_
_space_group_symop_operation_xyz
x,y,z
1/2-x,-y,1/2+z
x,-y,-z
1/2-x,y,1/2-z
-x,-y,-z
1/2+x,y,1/2-z
-x,y,z
1/2+x,-y,1/2+z
loop_
_atom_site_type_symbol
_atom_site_label
_atom_site_fract_x
_atom_site_fract_y
_atom_site_fract_z
Si Si1 0.320467 0.884433 0.920296
Si Si2 0.678114 0.286208 0.823356
Si Si3 0.820719 0.718159 0.824250
Si Si4 0.820754 0.880650 0.427537
Si Si5 0.677615 0.485218 0.176810
O O1 0.500000 0.864175 0.911952
O O2 0.226202 0.815547 0.868832
O O3 0.278578 0.003658 0.903479
O O4 0.262944 0.858858 0.996303
O O5 0.750000 0.270979 0.750000
O O6 0.500000 0.267905 0.813808
O O7 0.750335 0.202801 0.875367
O O8 0.708223 0.401168 0.855623
O O9 0.750000 0.730893 0.750000
O O10 0.758932 0.611902 0.860624
O O11 0.000000 0.712823 0.817718
O O12 0.000000 0.868129 0.429236
O O13 0.750000 0.490624 0.250000
O O14 0.500000 0.460641 0.181426
#
# Coordination Sequence:
#
# PCOD8222011 Si02
#       5
#     8   8   8   8   8
#     4   9  17  33  54  72  95 129 165 199 238 284
#     4   9  17  30  49  74  99 124 158 197 238 284
#     4  11  21  33  50  72  98 126 160 201 241 285
#     4   8  16  32  53  73  96 129 164 197 237 287
#     4   9  16  28  47  69  95 125 156 193 237 285
#
# _framework density 17.879014000000002
#
# number of rings (size 3 to 8) (size 9 to 14) (size 15 to 20)
#    0.000    2.800    0.000    4.800    0.000    1.600 
#    0.000    7.000    0.000    6.000    0.000    0.000 
#    0.000    0.000    0.000    0.000    0.000    0.000 
#
# Total GULP energy -495655.528700 kJ/mol
# GULP energy per Si atom -12391.388218 kJ/mol
# Density = 1.783832 g / cm^3
# Si number density = 17.879014 Si / 1000 Ang^3
#
#
#
# Elastic Constant Matrix: (Units=GPa)
#
#
# Indices 1 2 3 4 5 6 
#
# 1 85.3871 56.9611 37.1949 0.0000 0.0000 0.0000
# 2 56.9611 160.2487 78.6454 0.0000 0.0000 0.0000
# 3 37.1949 78.6454 81.6646 0.0000 0.0000 0.0000
# 4 0.0000 0.0000 0.0000 8.4231 0.0000 0.0000
# 5 0.0000 0.0000 0.0000 0.0000 20.2538 0.0000
# 6 0.0000 0.0000 0.0000 0.0000 0.0000 24.7198
#
#
#
# Elastic Compliance Matrix: (Units=1/GPa)
#
#
# Indices 1 2 3 4 5 6 
#
# 1 0.015833 -0.003961 -0.003397 0.000000 0.000000 0.000000
# 2 -0.003961 0.012824 -0.010546 0.000000 0.000000 0.000000
# 3 -0.003397 -0.010546 0.023948 0.000000 0.000000 0.000000
# 4 0.000000 0.000000 0.000000 0.118721 0.000000 0.000000
# 5 0.000000 0.000000 0.000000 0.000000 0.049374 0.000000
# 6 0.000000 0.000000 0.000000 0.000000 0.000000 0.040453
#
#
# Mechanical properties :
#
#
# Convention : Reuss Voigt Hill
#
# Bulk Modulus (GPa) = 59.53001 74.76701 67.14851
# Shear Modulus (GPa) = 16.52570 20.97928 18.75249
#
# Velocity S-wave (km/s) = 3.04354 3.42921 3.24212
# Velocity P-wave (km/s) = 6.76159 7.58870 7.18706
#
# Compressibility (1/GPa) = 0.01679825
#
# Stress axis : x y z
#
# Youngs Moduli (GPa) = 63.15764 77.98083 41.75699
#
# Poissons Ratio (x) = 0.30887 0.14185
# Poissons Ratio (y) = 0.25016 0.44035
# Poissons Ratio (z) = 0.21455 0.82235
#
# Static dielectric constant tensor:
#      x y z
#    x 3.135260 0.000000 0.000000 
#    y 0.000000 4.162740 0.000000 
#    z 0.000000 0.000000 3.266230 
# 
# 
# High freq. dielectric constant tensor:
#      x y z
#    x 1.675710 0.000000 0.000000 
#    y 0.000000 1.712910 0.000000 
#    z 0.000000 0.000000 1.661820 
# 
# From -- ./inp_files/25980.got.cif
#   From: 2010.03.12/outbox.cif.g09.slc.cpg/sg53_13_cif.got.tgz:25980.got - 2010.04.16 14:36:59.
