data_PCOD8222772
_publ_section_title
;
Structure prediction by ZEFSAII (Michael W. Deem and Ramdas Pophale) SiO2 
 PCOD8222772
Probable space group: P C C A
;
_chemical_formula_sum "Si O2"
_cell_formula_units_Z 32
_cell_length_a 4.981882
_cell_length_b 12.452553
_cell_length_c 28.473146
_cell_angle_alpha 90.000000
_cell_angle_beta 90.000000
_cell_angle_gamma 90.000000
_cell_volume 1766.392819
_symmetry_space_group_name_H-M "P C C A"
_symmetry_group_IT_number 54
_symmetry_cell_setting 'orthorhombic'
loop_
_space_group_symop_operation_xyz
x,y,z
1/2-x,-y,z
1/2+x,-y,1/2-z
-x,y,1/2-z
-x,-y,-z
1/2+x,y,-z
1/2-x,y,1/2+z
x,-y,1/2+z
loop_
_atom_site_type_symbol
_atom_site_label
_atom_site_fract_x
_atom_site_fract_y
_atom_site_fract_z
Si Si1 0.740847 0.875871 0.969039
Si Si2 0.240633 0.304824 0.102851
Si Si3 0.500000 0.429584 0.250000
Si Si4 0.750000 0.500000 0.966754
Si Si5 0.740292 0.373628 0.155583
O O1 0.799452 0.809953 0.921697
O O2 0.750000 0.000000 0.954317
O O3 0.452650 0.846537 0.990374
O O4 0.207567 0.395892 0.064420
O O5 0.540106 0.309993 0.122265
O O6 0.031200 0.321517 0.145914
O O7 0.250000 0.500000 0.228735
O O8 0.636705 0.358280 0.209157
O O9 0.500000 0.500000 0.000000
O O10 0.750000 0.500000 0.143471
#
# Coordination Sequence:
#
# PCOD8222772 Si02
#       5
#     8   8   4   4   8
#     4  10  21  38  56  75 103 142 189 231 262 301
#     4  12  21  34  53  77 108 142 178 221 264 314
#     4  10  20  34  54  76 108 148 178 210 270 324
#     4  12  22  32  46  70 108 144 172 204 262 320
#     4  11  20  35  51  79 110 140 173 218 263 328
#
# _framework density 18.116014
#
# number of rings (size 3 to 8) (size 9 to 14) (size 15 to 20)
#    0.000    1.000    2.500    7.500    0.000    0.000 
#    0.000    0.000    0.000    0.000    0.000    3.500 
#    0.000    2.000    0.000    0.000    0.000    0.000 
#
# Total GULP energy -396758.283685 kJ/mol
# GULP energy per Si atom -12398.696365 kJ/mol
# Density = 1.807478 g / cm^3
# Si number density = 18.116014 Si / 1000 Ang^3
#
#
#
# Elastic Constant Matrix: (Units=GPa)
#
#
# Indices 1 2 3 4 5 6 
#
# 1 97.5949 21.4086 26.3057 0.0000 0.0000 0.0000
# 2 21.4086 77.3532 42.3775 0.0000 0.0000 0.0000
# 3 26.3057 42.3775 99.2727 0.0000 0.0000 0.0000
# 4 0.0000 0.0000 0.0000 -4.6205 0.0000 0.0000
# 5 0.0000 0.0000 0.0000 0.0000 0.7107 0.0000
# 6 0.0000 0.0000 0.0000 0.0000 0.0000 20.5417
#
#
#
# Elastic Compliance Matrix: (Units=1/GPa)
#
#
# Indices 1 2 3 4 5 6 
#
# 1 0.011252 -0.001933 -0.002157 0.000000 0.000000 0.000000
# 2 -0.001933 0.017206 -0.006833 0.000000 0.000000 0.000000
# 3 -0.002157 -0.006833 0.013561 0.000000 0.000000 0.000000
# 4 0.000000 0.000000 0.000000 -0.216428 0.000000 0.000000
# 5 0.000000 0.000000 0.000000 0.000000 1.407046 0.000000
# 6 0.000000 0.000000 0.000000 0.000000 0.000000 0.048682
#
#
# Mechanical properties :
#
#
# Convention : Reuss Voigt Hill
#
# Bulk Modulus (GPa) = 49.56568 50.48939 50.02753
# Shear Modulus (GPa) = 3.81712 15.60165 9.70938
#
# Velocity S-wave (km/s) = 1.45314 2.93782 2.31758
# Velocity P-wave (km/s) = 5.49864 6.27999 5.90226
#
# Compressibility (1/GPa) = 0.02017525
#
# Stress axis : x y z
#
# Youngs Moduli (GPa) = 88.87588 58.11979 73.73850
#
# Poissons Ratio (x) = 0.11232 0.15902
# Poissons Ratio (y) = 0.17176 0.50383
# Poissons Ratio (z) = 0.19166 0.39712
#
# Static dielectric constant tensor:
#      x y z
#    x 3.749990 0.000000 0.000000 
#    y 0.000000 3.092150 0.000000 
#    z 0.000000 0.000000 3.322010 
# 
# 
# High freq. dielectric constant tensor:
#      x y z
#    x 1.733170 0.000000 0.000000 
#    y 0.000000 1.659970 0.000000 
#    z 0.000000 0.000000 1.697530 
# 
# From -- ./inp_files/22657.got.cif
#   From: 2010.03.12/outbox.cif.g09.slc.cpg/sg54_12_cif.got.tgz:22657.got - 2010.04.16 15:00:50.
