data_PCOD8222258
_publ_section_title
;
Structure prediction by ZEFSAII (Michael W. Deem and Ramdas Pophale) SiO2 
 PCOD8222258
Probable space group: P M N A
;
_chemical_formula_sum "Si O2"
_cell_formula_units_Z 48
_cell_length_a 9.539176
_cell_length_b 8.054188
_cell_length_c 35.288341
_cell_angle_alpha 90.000000
_cell_angle_beta 90.000000
_cell_angle_gamma 90.000000
_cell_volume 2711.214421
_symmetry_space_group_name_H-M "P M N A"
_symmetry_group_IT_number 53
_symmetry_cell_setting 'orthorhombic'
loop_
_space_group_symop_operation_xyz
x,y,z
1/2-x,-y,1/2+z
x,-y,-z
1/2-x,y,1/2-z
-x,-y,-z
1/2+x,y,1/2-z
-x,y,z
1/2+x,-y,1/2+z
loop_
_atom_site_type_symbol
_atom_site_label
_atom_site_fract_x
_atom_site_fract_y
_atom_site_fract_z
Si Si1 0.164054 0.147942 0.419219
Si Si2 0.665295 0.234612 0.163284
Si Si3 0.835910 0.546154 0.288176
Si Si4 0.849531 0.689252 0.503765
Si Si5 0.158150 0.899945 0.039170
Si Si6 0.163532 0.921094 0.287937
O O1 0.216910 0.231303 0.380227
O O2 0.199197 0.273185 0.453357
O O3 0.000000 0.099679 0.416628
O O4 0.256940 0.984225 0.426651
O O5 0.500000 0.239413 0.164624
O O6 0.720637 0.404987 0.182704
O O7 0.716959 0.063694 0.183222
O O8 0.750000 0.520028 0.250000
O O9 0.810202 0.733771 0.304344
O O10 0.000000 0.520100 0.279244
O O11 0.878385 0.500000 0.500000
O O12 0.736138 0.730247 0.471470
O O13 0.000000 0.782174 0.496494
O O14 0.000000 0.866777 0.052541
O O15 0.165904 0.000000 0.000000
O O16 0.250000 0.947207 0.250000
O O17 0.000000 0.944899 0.278476
#
# Coordination Sequence:
#
# PCOD8222258 Si02
#       6
#     8   8   8   8   8   8
#     4   9  17  31  48  67  94 122 153 197 238 278
#     4   9  17  30  47  70  96 123 156 193 238 282
#     4   9  17  30  48  69  94 122 157 194 230 277
#     4   9  17  30  48  72  94 119 158 198 237 284
#     4   9  17  30  48  67  89 121 156 189 230 280
#     4   9  17  30  48  70  93 122 158 193 231 279
#
# _framework density 17.704243999999999
#
# number of rings (size 3 to 8) (size 9 to 14) (size 15 to 20)
#    0.000    3.000    0.000    1.000    0.000    2.333 
#    3.000    1.667    0.000    0.000    0.000    0.000 
#    0.000    0.000    0.000    0.000    0.000    0.000 
#
# Total GULP energy -594694.419096 kJ/mol
# GULP energy per Si atom -12389.467065 kJ/mol
# Density = 1.766395 g / cm^3
# Si number density = 17.704244 Si / 1000 Ang^3
#
#
#
# Elastic Constant Matrix: (Units=GPa)
#
#
# Indices 1 2 3 4 5 6 
#
# 1 57.6298 25.6002 26.5240 0.0000 0.0000 0.0000
# 2 25.6002 107.7543 51.2091 0.0000 0.0000 0.0000
# 3 26.5240 51.2091 87.9435 0.0000 0.0000 0.0000
# 4 0.0000 0.0000 0.0000 20.3995 0.0000 0.0000
# 5 0.0000 0.0000 0.0000 0.0000 18.7980 0.0000
# 6 0.0000 0.0000 0.0000 0.0000 0.0000 10.3400
#
#
#
# Elastic Compliance Matrix: (Units=1/GPa)
#
#
# Indices 1 2 3 4 5 6 
#
# 1 0.020701 -0.002697 -0.004673 0.000000 0.000000 0.000000
# 2 -0.002697 0.013183 -0.006863 0.000000 0.000000 0.000000
# 3 -0.004673 -0.006863 0.016776 0.000000 0.000000 0.000000
# 4 0.000000 0.000000 0.000000 0.049021 0.000000 0.000000
# 5 0.000000 0.000000 0.000000 0.000000 0.053197 0.000000
# 6 0.000000 0.000000 0.000000 0.000000 0.000000 0.096712
#
#
# Mechanical properties :
#
#
# Convention : Reuss Voigt Hill
#
# Bulk Modulus (GPa) = 45.05664 51.11047 48.08356
# Shear Modulus (GPa) = 17.51599 19.90713 18.71156
#
# Velocity S-wave (km/s) = 3.14883 3.35689 3.25452
# Velocity P-wave (km/s) = 6.22295 6.62998 6.42969
#
# Compressibility (1/GPa) = 0.02219429
#
# Stress axis : x y z
#
# Youngs Moduli (GPa) = 48.30681 75.85750 59.60785
#
# Poissons Ratio (x) = 0.20462 0.27853
# Poissons Ratio (y) = 0.13031 0.40907
# Poissons Ratio (z) = 0.22573 0.52058
#
# Static dielectric constant tensor:
#      x y z
#    x 3.235550 0.000000 0.000000 
#    y 0.000000 3.445750 0.000000 
#    z 0.000000 0.000000 3.260290 
# 
# 
# High freq. dielectric constant tensor:
#      x y z
#    x 1.668590 0.000000 0.000000 
#    y 0.000000 1.684070 0.000000 
#    z 0.000000 0.000000 1.666640 
# 
# From -- ./inp_files/37775.got.cif
#   From: 2010.03.12/outbox.cif.g09.slc.cpg/sg53_19_cif.got.tgz:37775.got - 2010.04.16 14:36:59.
