data_PCOD8222758
_publ_section_title
;
Structure prediction by ZEFSAII (Michael W. Deem and Ramdas Pophale) SiO2 
 PCOD8222758
Probable space group: P C C A
;
_chemical_formula_sum "Si O2"
_cell_formula_units_Z 56
_cell_length_a 21.176865
_cell_length_b 15.799590
_cell_length_c 8.857383
_cell_angle_alpha 90.000000
_cell_angle_beta 90.000000
_cell_angle_gamma 90.000000
_cell_volume 2963.554440
_symmetry_space_group_name_H-M "P C C A"
_symmetry_group_IT_number 54
_symmetry_cell_setting 'orthorhombic'
loop_
_space_group_symop_operation_xyz
x,y,z
1/2-x,-y,z
1/2+x,-y,1/2-z
-x,y,1/2-z
-x,-y,-z
1/2+x,y,-z
1/2-x,y,1/2+z
x,-y,1/2+z
loop_
_atom_site_type_symbol
_atom_site_label
_atom_site_fract_x
_atom_site_fract_y
_atom_site_fract_z
Si Si1 0.301406 0.734153 0.092202
Si Si2 0.089941 0.615622 0.555925
Si Si3 0.709874 0.881314 0.991813
Si Si4 0.859424 0.503396 0.185234
Si Si5 0.126400 0.751434 0.891085
Si Si6 0.500000 0.706248 0.250000
Si Si7 0.250000 0.000000 0.254768
Si Si8 0.687811 0.609705 0.947404
O O1 0.365119 0.696649 0.014625
O O2 0.316513 0.749290 0.268401
O O3 0.272627 0.820669 0.021450
O O4 0.252357 0.658889 0.068468
O O5 0.085940 0.549883 0.416807
O O6 0.113918 0.571454 0.711019
O O7 0.021440 0.650612 0.604619
O O8 0.644366 0.829131 0.998563
O O9 0.710399 0.936108 0.143596
O O10 0.703737 0.944408 0.850442
O O11 0.807609 0.467040 0.067630
O O12 0.826097 0.575320 0.281784
O O13 0.129488 0.667638 0.994349
O O14 0.058378 0.763008 0.811305
#
# Coordination Sequence:
#
# PCOD8222758 Si02
#       8
#     8   8   8   8   8   4   4   8
#     4  10  20  33  54  78 114 145 185 226 282 347
#     4  10  22  35  52  77 105 152 203 239 291 322
#     4  10  20  35  59  89 120 141 176 215 278 345
#     4  10  21  35  48  80 107 150 191 255 293 333
#     4  10  20  39  56  83 108 158 187 232 278 339
#     4  10  20  40  58  74 108 154 212 234 282 336
#     4  10  20  34  58  98 120 144 156 218 286 346
#     4  10  21  34  51  75 113 142 192 237 303 334
#
# _framework density 18.896227
#
# number of rings (size 3 to 8) (size 9 to 14) (size 15 to 20)
#    0.000    2.000    4.286    0.000    4.000    4.000 
#    0.000    0.000    0.000    0.857    0.000    0.000 
#    0.000    0.000    0.000    0.000    0.000    0.000 
#
# Total GULP energy -693844.102404 kJ/mol
# GULP energy per Si atom -12390.073257 kJ/mol
# Density = 1.885322 g / cm^3
# Si number density = 18.896227 Si / 1000 Ang^3
#
#
#
# Elastic Constant Matrix: (Units=GPa)
#
#
# Indices 1 2 3 4 5 6 
#
# 1 86.3182 36.8505 32.0141 0.0000 0.0000 0.0000
# 2 36.8505 102.9847 50.8697 0.0000 0.0000 0.0000
# 3 32.0141 50.8697 109.6560 0.0000 0.0000 0.0000
# 4 0.0000 0.0000 0.0000 20.6184 0.0000 0.0000
# 5 0.0000 0.0000 0.0000 0.0000 22.7277 0.0000
# 6 0.0000 0.0000 0.0000 0.0000 0.0000 15.5405
#
#
#
# Elastic Compliance Matrix: (Units=1/GPa)
#
#
# Indices 1 2 3 4 5 6 
#
# 1 0.014109 -0.003910 -0.002305 0.000000 0.000000 0.000000
# 2 -0.003910 0.013680 -0.005205 0.000000 0.000000 0.000000
# 3 -0.002305 -0.005205 0.012207 0.000000 0.000000 0.000000
# 4 0.000000 0.000000 0.000000 0.048500 0.000000 0.000000
# 5 0.000000 0.000000 0.000000 0.000000 0.043999 0.000000
# 6 0.000000 0.000000 0.000000 0.000000 0.000000 0.064348
#
#
# Mechanical properties :
#
#
# Convention : Reuss Voigt Hill
#
# Bulk Modulus (GPa) = 58.28760 59.82528 59.05644
# Shear Modulus (GPa) = 22.18252 23.72564 22.95408
#
# Velocity S-wave (km/s) = 3.42996 3.54725 3.48910
# Velocity P-wave (km/s) = 6.82637 6.96462 6.89584
#
# Compressibility (1/GPa) = 0.01715631
#
# Stress axis : x y z
#
# Youngs Moduli (GPa) = 70.87541 73.09868 81.92033
#
# Poissons Ratio (x) = 0.28581 0.18886
# Poissons Ratio (y) = 0.27711 0.42638
# Poissons Ratio (z) = 0.16340 0.38046
#
# Static dielectric constant tensor:
#      x y z
#    x 3.116510 0.000000 0.000000 
#    y 0.000000 3.661640 0.000000 
#    z 0.000000 0.000000 3.656270 
# 
# 
# High freq. dielectric constant tensor:
#      x y z
#    x 1.690600 0.000000 0.000000 
#    y 0.000000 1.731430 0.000000 
#    z 0.000000 0.000000 1.744160 
# 
# From -- ./inp_files/4872.got.cif
#   From: 2010.03.12/outbox.cif.g09.slc.cpg/sg54_3_cif.got.tgz:4872.got - 2010.04.16 15:00:50.
