data_PCOD8222033
_publ_section_title
;
Structure prediction by ZEFSAII (Michael W. Deem and Ramdas Pophale) SiO2 
 PCOD8222033
Probable space group: P M N A
;
_chemical_formula_sum "Si O2"
_cell_formula_units_Z 56
_cell_length_a 8.458973
_cell_length_b 15.339720
_cell_length_c 23.064004
_cell_angle_alpha 90.000000
_cell_angle_beta 90.000000
_cell_angle_gamma 90.000000
_cell_volume 2992.745427
_symmetry_space_group_name_H-M "P M N A"
_symmetry_group_IT_number 53
_symmetry_cell_setting 'orthorhombic'
loop_
_space_group_symop_operation_xyz
x,y,z
1/2-x,-y,1/2+z
x,-y,-z
1/2-x,y,1/2-z
-x,-y,-z
1/2+x,y,1/2-z
-x,y,z
1/2+x,-y,1/2+z
loop_
_atom_site_type_symbol
_atom_site_label
_atom_site_fract_x
_atom_site_fract_y
_atom_site_fract_z
Si Si1 0.686128 0.654617 0.393898
Si Si2 0.185183 0.999816 0.813947
Si Si3 0.684021 0.599405 0.988752
Si Si4 0.184674 0.509908 0.312705
Si Si5 0.817081 0.653925 0.868752
Si Si6 0.314779 0.176890 0.184776
Si Si7 0.815146 0.190730 0.814132
O O1 0.500000 0.661243 0.405077
O O2 0.776189 0.656567 0.454962
O O3 0.724058 0.565543 0.360651
O O4 0.753787 0.736384 0.357316
O O5 0.250000 0.008585 0.750000
O O6 0.274635 0.918100 0.843644
O O7 0.000000 0.978942 0.813455
O O8 0.222386 0.094833 0.841844
O O9 0.500000 0.606431 0.973051
O O10 0.784750 0.636339 0.935903
O O11 0.734429 0.500000 0.000000
O O12 0.250000 0.535262 0.250000
O O13 0.215988 0.408860 0.326850
O O14 0.000000 0.530604 0.315706
O O15 0.770096 0.752576 0.855104
O O16 0.000000 0.638510 0.854836
O O17 0.250000 0.181689 0.250000
O O18 0.500000 0.193787 0.184679
O O19 0.750000 0.204846 0.750000
O O20 0.000000 0.204072 0.808158
#
# Coordination Sequence:
#
# PCOD8222033 Si02
#       7
#     8   8   8   8   8   8   8
#     4  11  22  37  57  82 110 146 187 228 274 325
#     4   9  16  30  51  78 111 146 182 221 267 322
#     4  11  23  40  60  81 107 142 187 233 276 323
#     4  12  24  38  54  79 112 146 180 223 274 327
#     4  12  24  39  59  81 107 143 184 228 275 327
#     4  11  21  35  55  83 116 147 182 224 273 329
#     4   9  19  33  53  82 115 147 183 225 271 325
#
# _framework density 18.711915999999999
#
# number of rings (size 3 to 8) (size 9 to 14) (size 15 to 20)
#    0.000    1.286    1.429    6.857    0.000    3.429 
#    0.000    0.000    0.000    0.857    0.000    6.000 
#    0.000    0.000    0.000    0.000    0.000    0.000 
#
# Total GULP energy -694459.243245 kJ/mol
# GULP energy per Si atom -12401.057915 kJ/mol
# Density = 1.866933 g / cm^3
# Si number density = 18.711916 Si / 1000 Ang^3
#
#
#
# Elastic Constant Matrix: (Units=GPa)
#
#
# Indices 1 2 3 4 5 6 
#
# 1 66.6359 24.9382 23.3452 0.0000 0.0000 0.0000
# 2 24.9382 115.4171 29.3844 0.0000 0.0000 0.0000
# 3 23.3452 29.3844 75.6848 0.0000 0.0000 0.0000
# 4 0.0000 0.0000 0.0000 3.4143 0.0000 0.0000
# 5 0.0000 0.0000 0.0000 0.0000 28.8511 0.0000
# 6 0.0000 0.0000 0.0000 0.0000 0.0000 34.0771
#
#
#
# Elastic Compliance Matrix: (Units=1/GPa)
#
#
# Indices 1 2 3 4 5 6 
#
# 1 0.017540 -0.002677 -0.004371 0.000000 0.000000 0.000000
# 2 -0.002677 0.010023 -0.003066 0.000000 0.000000 0.000000
# 3 -0.004371 -0.003066 0.015751 0.000000 0.000000 0.000000
# 4 0.000000 0.000000 0.000000 0.292885 0.000000 0.000000
# 5 0.000000 0.000000 0.000000 0.000000 0.034661 0.000000
# 6 0.000000 0.000000 0.000000 0.000000 0.000000 0.029345
#
#
# Mechanical properties :
#
#
# Convention : Reuss Voigt Hill
#
# Bulk Modulus (GPa) = 43.31442 45.89706 44.60574
# Shear Modulus (GPa) = 11.67873 25.27317 18.47595
#
# Velocity S-wave (km/s) = 2.50098 3.67910 3.14568
# Velocity P-wave (km/s) = 5.61588 6.52910 6.08964
#
# Compressibility (1/GPa) = 0.02308700
#
# Stress axis : x y z
#
# Youngs Moduli (GPa) = 57.01214 99.76875 63.48735
#
# Poissons Ratio (x) = 0.26709 0.27750
# Poissons Ratio (y) = 0.15263 0.19463
# Poissons Ratio (z) = 0.24920 0.30586
#
# Static dielectric constant tensor:
#      x y z
#    x 3.491520 0.000000 0.000000 
#    y 0.000000 4.067460 0.000000 
#    z 0.000000 0.000000 3.127910 
# 
# 
# High freq. dielectric constant tensor:
#      x y z
#    x 1.739760 0.000000 0.000000 
#    y 0.000000 1.737550 0.000000 
#    z 0.000000 0.000000 1.697570 
# 
# From -- ./inp_files/30869.got.cif
#   From: 2010.03.12/outbox.cif.g09.slc.cpg/sg53_16_cif.got.tgz:30869.got - 2010.04.16 14:36:59.
