data_PCOD8222889
_publ_section_title
;
Structure prediction by ZEFSAII (Michael W. Deem and Ramdas Pophale) SiO2 
 PCOD8222889
Probable space group: P C C A
;
_chemical_formula_sum "Si O2"
_cell_formula_units_Z 40
_cell_length_a 10.442303
_cell_length_b 19.241384
_cell_length_c 8.812876
_cell_angle_alpha 90.000000
_cell_angle_beta 90.000000
_cell_angle_gamma 90.000000
_cell_volume 1770.721487
_symmetry_space_group_name_H-M "P C C A"
_symmetry_group_IT_number 54
_symmetry_cell_setting 'orthorhombic'
loop_
_space_group_symop_operation_xyz
x,y,z
1/2-x,-y,z
1/2+x,-y,1/2-z
-x,y,1/2-z
-x,-y,-z
1/2+x,y,-z
1/2-x,y,1/2+z
x,-y,1/2+z
loop_
_atom_site_type_symbol
_atom_site_label
_atom_site_fract_x
_atom_site_fract_y
_atom_site_fract_z
Si Si1 0.356835 0.905142 0.756949
Si Si2 0.093013 0.443453 0.074093
Si Si3 0.250000 0.500000 0.837931
Si Si4 0.887257 0.290613 0.352181
Si Si5 0.750000 0.000000 0.496998
Si Si6 0.855859 0.754405 0.187606
O O1 0.500000 0.880229 0.750000
O O2 0.290202 0.830139 0.775659
O O3 0.346706 0.958209 0.896528
O O4 0.321049 0.942898 0.602052
O O5 0.132609 0.472212 0.238830
O O6 0.049254 0.364805 0.099500
O O7 0.208858 0.437703 0.952098
O O8 0.000000 0.500000 0.000000
O O9 0.750877 0.297521 0.261542
O O10 0.861551 0.248403 0.505738
O O11 0.000000 0.254889 0.250000
O O12 0.000000 0.739389 0.250000
#
# Coordination Sequence:
#
# PCOD8222889 Si02
#       6
#     8   8   4   8   4   8
#     4  10  21  39  61  92 128 170 219 269 330 394
#     4  11  23  41  62  90 122 158 206 268 333 399
#     4  10  22  38  62  88 118 154 198 256 326 400
#     4  12  25  43  67  97 130 175 227 281 345 412
#     4  10  20  36  64  94 128 166 214 274 330 392
#     4  11  25  44  66  95 136 181 227 279 337 415
#
# _framework density 22.589663999999999
#
# number of rings (size 3 to 8) (size 9 to 14) (size 15 to 20)
#    0.000    1.200    0.000    6.000    0.000    8.000 
#    0.000    5.000    0.000    0.000    0.000    0.000 
#    0.000    0.000    0.000    0.000    0.000    0.000 
#
# Total GULP energy -495578.595530 kJ/mol
# GULP energy per Si atom -12389.464888 kJ/mol
# Density = 2.253825 g / cm^3
# Si number density = 22.589664 Si / 1000 Ang^3
#
#
#
# Elastic Constant Matrix: (Units=GPa)
#
#
# Indices 1 2 3 4 5 6 
#
# 1 105.2851 16.4470 42.7612 0.0000 0.0000 0.0000
# 2 16.4470 99.4746 25.1571 0.0000 0.0000 0.0000
# 3 42.7612 25.1571 165.4399 0.0000 0.0000 0.0000
# 4 0.0000 0.0000 0.0000 -182.3044 0.0000 0.0000
# 5 0.0000 0.0000 0.0000 0.0000 33.2629 0.0000
# 6 0.0000 0.0000 0.0000 0.0000 0.0000 28.3121
#
#
#
# Elastic Compliance Matrix: (Units=1/GPa)
#
#
# Indices 1 2 3 4 5 6 
#
# 1 0.010730 -0.001116 -0.002604 0.000000 0.000000 0.000000
# 2 -0.001116 0.010571 -0.001319 0.000000 0.000000 0.000000
# 3 -0.002604 -0.001319 0.006918 0.000000 0.000000 0.000000
# 4 0.000000 0.000000 0.000000 -0.005485 0.000000 0.000000
# 5 0.000000 0.000000 0.000000 0.000000 0.030064 0.000000
# 6 0.000000 0.000000 0.000000 0.000000 0.000000 0.035321
#
#
# Mechanical properties :
#
#
# Convention : Reuss Voigt Hill
#
# Bulk Modulus (GPa) = 55.12072 59.88112 57.50092
# Shear Modulus (GPa) = 47.96560 -5.09024 21.43768
#
# Velocity S-wave (km/s) = 4.61297 -1.50274 3.08393
# Velocity P-wave (km/s) = 7.26819 4.85332 6.17986
#
# Compressibility (1/GPa) = 0.01814200
#
# Stress axis : x y z
#
# Youngs Moduli (GPa) = 93.19874 94.59967 144.54953
#
# Poissons Ratio (x) = 0.10553 0.37636
# Poissons Ratio (y) = 0.10397 0.19067
# Poissons Ratio (z) = 0.24266 0.12478
#
# Static dielectric constant tensor:
#      x y z
#    x 4.113630 0.000000 0.000000 
#    y 0.000000 3.996230 0.000000 
#    z 0.000000 0.000000 5.520860 
# 
# 
# High freq. dielectric constant tensor:
#      x y z
#    x 1.885620 0.000000 0.000000 
#    y 0.000000 1.884730 0.000000 
#    z 0.000000 0.000000 1.919830 
# 
# From -- ./inp_files/2949.got.cif
#   From: 2010.03.12/outbox.cif.g09.slc.cpg/sg54_2_cif.got.tgz:2949.got - 2010.04.16 15:00:50.
