data_PCOD8222537
_publ_section_title
;
Structure prediction by ZEFSAII (Michael W. Deem and Ramdas Pophale) SiO2 
 PCOD8222537
Probable space group: P C C A
;
_chemical_formula_sum "Si O2"
_cell_formula_units_Z 64
_cell_length_a 16.108948
_cell_length_b 37.069941
_cell_length_c 5.227700
_cell_angle_alpha 90.000000
_cell_angle_beta 90.000000
_cell_angle_gamma 90.000000
_cell_volume 3121.761580
_symmetry_space_group_name_H-M "P C C A"
_symmetry_group_IT_number 54
_symmetry_cell_setting 'orthorhombic'
loop_
_space_group_symop_operation_xyz
x,y,z
1/2-x,-y,z
1/2+x,-y,1/2-z
-x,y,1/2-z
-x,-y,-z
1/2+x,y,-z
1/2-x,y,1/2+z
x,-y,1/2+z
loop_
_atom_site_type_symbol
_atom_site_label
_atom_site_fract_x
_atom_site_fract_y
_atom_site_fract_z
Si Si1 0.598061 0.861987 0.750183
Si Si2 0.400737 0.218988 0.250258
Si Si3 0.598020 0.259563 0.749947
Si Si4 0.598764 0.094905 0.750103
Si Si5 0.843402 0.984391 0.751660
Si Si6 0.697271 0.670733 0.292648
Si Si7 0.401886 0.520005 0.250360
Si Si8 0.302821 0.589706 0.207152
O O1 0.500000 0.859091 0.750000
O O2 0.635134 0.821651 0.752933
O O3 0.627596 0.882588 0.496572
O O4 0.627708 0.883143 0.001311
O O5 0.500000 0.218734 0.250000
O O6 0.366154 0.238917 0.502287
O O7 0.366206 0.239977 0.002246
O O8 0.500000 0.257706 0.750000
O O9 0.622984 0.301343 0.752716
O O10 0.500000 0.086779 0.750000
O O11 0.652441 0.058589 0.752254
O O12 0.750000 0.000000 0.751234
O O13 0.890058 0.999947 0.501495
O O14 0.734706 0.677032 0.573250
O O15 0.660643 0.630227 0.270602
O O16 0.500000 0.517898 0.250000
O O17 0.365263 0.500963 0.504092
O O18 0.377381 0.561842 0.244824
O O19 0.235136 0.583345 0.427344
#
# Coordination Sequence:
#
# PCOD8222537 Si02
#       8
#     8   8   8   8   8   8   8   8
#     4   9  17  30  49  78 110 134 160 204 260 303
#     4   9  17  30  50  80 112 135 168 215 259 310
#     4  10  19  32  54  83 107 139 183 220 258 320
#     4  10  19  31  51  79 105 130 165 208 253 299
#     4  10  21  36  52  73  95 132 172 200 245 301
#     4  10  21  37  54  78 107 149 181 224 281 322
#     4  10  21  36  54  79 110 143 178 223 285 339
#     4  10  21  36  55  78 106 138 189 230 269 330
#
# _framework density 20.501245999999998
#
# number of rings (size 3 to 8) (size 9 to 14) (size 15 to 20)
#    0.000    2.250    0.000    3.000    0.000    5.500 
#    0.000    0.000    0.000    9.000   65.000    0.000 
#    0.000    0.000    0.000    0.000    0.000    0.000 
#
# Total GULP energy -793538.367244 kJ/mol
# GULP energy per Si atom -12399.036988 kJ/mol
# Density = 2.045458 g / cm^3
# Si number density = 20.501246 Si / 1000 Ang^3
#
#
#
# Elastic Constant Matrix: (Units=GPa)
#
#
# Indices 1 2 3 4 5 6 
#
# 1 15.2895 28.8479 13.8023 0.0000 0.0000 0.0000
# 2 28.8479 187.9514 77.1866 0.0000 0.0000 0.0000
# 3 13.8023 77.1866 187.2601 0.0000 0.0000 0.0000
# 4 0.0000 0.0000 0.0000 37.1702 0.0000 0.0000
# 5 0.0000 0.0000 0.0000 0.0000 6.5862 0.0000
# 6 0.0000 0.0000 0.0000 0.0000 0.0000 32.5770
#
#
#
# Elastic Compliance Matrix: (Units=1/GPa)
#
#
# Indices 1 2 3 4 5 6 
#
# 1 0.092275 -0.013687 -0.001160 0.000000 0.000000 0.000000
# 2 -0.013687 0.008435 -0.002468 0.000000 0.000000 0.000000
# 3 -0.001160 -0.002468 0.006443 0.000000 0.000000 0.000000
# 4 0.000000 0.000000 0.000000 0.026903 0.000000 0.000000
# 5 0.000000 0.000000 0.000000 0.000000 0.151834 0.000000
# 6 0.000000 0.000000 0.000000 0.000000 0.000000 0.030696
#
#
# Mechanical properties :
#
#
# Convention : Reuss Voigt Hill
#
# Bulk Modulus (GPa) = 13.78857 70.01938 41.90398
# Shear Modulus (GPa) = 13.31952 33.31097 23.31524
#
# Velocity S-wave (km/s) = 2.55167 4.03529 3.37599
# Velocity P-wave (km/s) = 3.92705 7.47925 5.97331
#
# Compressibility (1/GPa) = 0.07252385
#
# Stress axis : x y z
#
# Youngs Moduli (GPa) = 10.83720 118.55751 155.20965
#
# Poissons Ratio (x) = 1.62265 0.18001
# Poissons Ratio (y) = 0.14832 0.38304
# Poissons Ratio (z) = 0.01257 0.29259
#
# Static dielectric constant tensor:
#      x y z
#    x 3.051330 0.000000 0.000000 
#    y 0.000000 3.911370 0.000000 
#    z 0.000000 0.000000 5.529420 
# 
# 
# High freq. dielectric constant tensor:
#      x y z
#    x 1.748620 0.000000 0.000000 
#    y 0.000000 1.816250 0.000000 
#    z 0.000000 0.000000 1.831280 
# 
# From -- ./inp_files/1095.got.cif
#   From: 2010.03.12/outbox.cif.g09.slc.cpg/sg54_1_cif.got.tgz:1095.got - 2010.04.16 15:00:50.
