data_PCOD8222697
_publ_section_title
;
Structure prediction by ZEFSAII (Michael W. Deem and Ramdas Pophale) SiO2 
 PCOD8222697
Probable space group: P C C A
;
_chemical_formula_sum "Si O2"
_cell_formula_units_Z 28
_cell_length_a 9.549089
_cell_length_b 7.402163
_cell_length_c 17.806245
_cell_angle_alpha 90.000000
_cell_angle_beta 90.000000
_cell_angle_gamma 90.000000
_cell_volume 1258.615077
_symmetry_space_group_name_H-M "P C C A"
_symmetry_group_IT_number 54
_symmetry_cell_setting 'orthorhombic'
loop_
_space_group_symop_operation_xyz
x,y,z
1/2-x,-y,z
1/2+x,-y,1/2-z
-x,y,1/2-z
-x,-y,-z
1/2+x,y,-z
1/2-x,y,1/2+z
x,-y,1/2+z
loop_
_atom_site_type_symbol
_atom_site_label
_atom_site_fract_x
_atom_site_fract_y
_atom_site_fract_z
Si Si1 0.055081 0.835274 0.951679
Si Si2 0.250000 0.000000 0.828803
Si Si3 0.343471 0.338187 0.235354
Si Si4 0.754548 0.214762 0.422027
O O1 0.127525 0.910783 0.877272
O O2 0.917059 0.718930 0.929808
O O3 0.168503 0.727985 0.002655
O O4 0.000000 0.000000 0.000000
O O5 0.317677 0.848932 0.777029
O O6 0.250000 0.500000 0.268877
O O7 0.500000 0.401886 0.250000
O O8 0.315314 0.316854 0.147060
O O9 0.750000 0.000000 0.409057
#
# Coordination Sequence:
#
# PCOD8222697 Si02
#       4
#     8   4   8   8
#     4  10  19  37  71 103 126 180 232 281 342 408
#     4  12  24  42  78  96 142 182 232 288 350 408
#     4  12  29  46  68 105 143 184 232 283 348 416
#     4  10  20  41  68  99 135 172 234 281 341 409
#
# _framework density 22.246673999999999
#
# number of rings (size 3 to 8) (size 9 to 14) (size 15 to 20)
#    0.000    1.143    5.714    3.429    4.000    0.000 
#    0.000    2.857    0.000    0.000    0.000    0.000 
#    0.000    0.000    0.000    0.000    0.000    0.000 
#
# Total GULP energy -347191.285255 kJ/mol
# GULP energy per Si atom -12399.688759 kJ/mol
# Density = 2.219604 g / cm^3
# Si number density = 22.246674 Si / 1000 Ang^3
#
#
#
# Elastic Constant Matrix: (Units=GPa)
#
#
# Indices 1 2 3 4 5 6 
#
# 1 227.0233 44.5948 76.2658 0.0000 0.0000 0.0000
# 2 44.5948 54.6128 33.4115 0.0000 0.0000 0.0000
# 3 76.2658 33.4115 133.7750 0.0000 0.0000 0.0000
# 4 0.0000 0.0000 0.0000 12.5481 0.0000 0.0000
# 5 0.0000 0.0000 0.0000 0.0000 54.9594 0.0000
# 6 0.0000 0.0000 0.0000 0.0000 0.0000 23.4513
#
#
#
# Elastic Compliance Matrix: (Units=1/GPa)
#
#
# Indices 1 2 3 4 5 6 
#
# 1 0.005902 -0.003259 -0.002551 0.000000 0.000000 0.000000
# 2 -0.003259 0.023412 -0.003990 0.000000 0.000000 0.000000
# 3 -0.002551 -0.003990 0.009926 0.000000 0.000000 0.000000
# 4 0.000000 0.000000 0.000000 0.079693 0.000000 0.000000
# 5 0.000000 0.000000 0.000000 0.000000 0.018195 0.000000
# 6 0.000000 0.000000 0.000000 0.000000 0.000000 0.042642
#
#
# Mechanical properties :
#
#
# Convention : Reuss Voigt Hill
#
# Bulk Modulus (GPa) = 50.91151 80.43950 65.67550
# Shear Modulus (GPa) = 24.28173 35.60102 29.94137
#
# Velocity S-wave (km/s) = 3.30733 4.00470 3.67260
# Velocity P-wave (km/s) = 6.12530 7.59078 6.89707
#
# Compressibility (1/GPa) = 0.01964193
#
# Stress axis : x y z
#
# Youngs Moduli (GPa) = 169.43830 42.71225 100.74643
#
# Poissons Ratio (x) = 0.13919 0.25698
# Poissons Ratio (y) = 0.55215 0.40195
# Poissons Ratio (z) = 0.43220 0.17041
#
# Static dielectric constant tensor:
#      x y z
#    x 4.913890 0.000000 0.000000 
#    y 0.000000 3.620120 0.000000 
#    z 0.000000 0.000000 4.299910 
# 
# 
# High freq. dielectric constant tensor:
#      x y z
#    x 1.901410 0.000000 0.000000 
#    y 0.000000 1.839650 0.000000 
#    z 0.000000 0.000000 1.883440 
# 
# From -- ./inp_files/16145.got.cif
#   From: 2010.03.12/outbox.cif.g09.slc.cpg/sg54_9_cif.got.tgz:16145.got - 2010.04.16 15:00:50.
