data_PCOD8222042
_publ_section_title
;
Structure prediction by ZEFSAII (Michael W. Deem and Ramdas Pophale) SiO2 
 PCOD8222042
Probable space group: P M N A
;
_chemical_formula_sum "Si O2"
_cell_formula_units_Z 40
_cell_length_a 16.290544
_cell_length_b 23.212248
_cell_length_c 5.070623
_cell_angle_alpha 90.000000
_cell_angle_beta 90.000000
_cell_angle_gamma 90.000000
_cell_volume 1917.406129
_symmetry_space_group_name_H-M "P M N A"
_symmetry_group_IT_number 53
_symmetry_cell_setting 'orthorhombic'
loop_
_space_group_symop_operation_xyz
x,y,z
1/2-x,-y,1/2+z
x,-y,-z
1/2-x,y,1/2-z
-x,-y,-z
1/2+x,y,1/2-z
-x,y,z
1/2+x,-y,1/2+z
loop_
_atom_site_type_symbol
_atom_site_label
_atom_site_fract_x
_atom_site_fract_y
_atom_site_fract_z
Si Si1 0.157378 0.181949 0.353728
Si Si2 0.307069 0.061717 0.001632
Si Si3 0.097618 0.366867 0.015562
Si Si4 0.594343 0.241547 0.637311
Si Si5 0.902139 0.435324 0.513903
O O1 0.250000 0.186274 0.250000
O O2 0.134467 0.117161 0.454040
O O3 0.145238 0.223766 0.603539
O O4 0.099851 0.196947 0.105863
O O5 0.250000 0.073617 0.750000
O O6 0.250000 0.055048 0.250000
O O7 0.356080 0.000000 0.000000
O O8 0.130535 0.302286 0.967355
O O9 0.128882 0.408259 0.784757
O O10 0.000000 0.364627 0.026672
O O11 0.133295 0.394406 0.283012
O O12 0.500000 0.246828 0.726889
O O13 0.866610 0.500000 0.500000
O O14 0.000000 0.437159 0.494978
#
# Coordination Sequence:
#
# PCOD8222042 Si02
#       5
#     8   8   8   8   8
#     4  11  21  36  57  82 108 138 183 232 268 310
#     4   9  17  31  53  80 106 134 173 223 274 318
#     4   9  17  28  42  64  96 135 172 205 255 319
#     4  11  22  36  54  77 112 152 182 214 269 336
#     4   9  15  24  40  63  93 128 167 213 261 305
#
# _framework density 20.861518
#
# number of rings (size 3 to 8) (size 9 to 14) (size 15 to 20)
#    0.000    2.200    0.000    5.400    0.000    5.600 
#    0.000    0.000    0.000    3.600    0.000    0.000 
#    0.000   44.800    0.000    0.000    0.000    0.000 
#
# Total GULP energy -495743.991088 kJ/mol
# GULP energy per Si atom -12393.599777 kJ/mol
# Density = 2.081404 g / cm^3
# Si number density = 20.861518 Si / 1000 Ang^3
#
#
#
# Elastic Constant Matrix: (Units=GPa)
#
#
# Indices 1 2 3 4 5 6 
#
# 1 19.7091 22.1159 6.1437 0.0000 0.0000 0.0000
# 2 22.1159 138.3958 26.8782 0.0000 0.0000 0.0000
# 3 6.1437 26.8782 120.0509 0.0000 0.0000 0.0000
# 4 0.0000 0.0000 0.0000 41.3924 0.0000 0.0000
# 5 0.0000 0.0000 0.0000 0.0000 23.5102 0.0000
# 6 0.0000 0.0000 0.0000 0.0000 0.0000 8.1878
#
#
#
# Elastic Compliance Matrix: (Units=1/GPa)
#
#
# Indices 1 2 3 4 5 6 
#
# 1 0.061938 -0.009704 -0.000997 0.000000 0.000000 0.000000
# 2 -0.009704 0.009075 -0.001535 0.000000 0.000000 0.000000
# 3 -0.000997 -0.001535 0.008725 0.000000 0.000000 0.000000
# 4 0.000000 0.000000 0.000000 0.024159 0.000000 0.000000
# 5 0.000000 0.000000 0.000000 0.000000 0.042535 0.000000
# 6 0.000000 0.000000 0.000000 0.000000 0.000000 0.122133
#
#
# Mechanical properties :
#
#
# Convention : Reuss Voigt Hill
#
# Bulk Modulus (GPa) = 18.09480 43.15904 30.62692
# Shear Modulus (GPa) = 16.05356 29.48597 22.76977
#
# Velocity S-wave (km/s) = 2.77705 3.76362 3.30733
# Velocity P-wave (km/s) = 4.35606 6.29442 5.41272
#
# Compressibility (1/GPa) = 0.05526448
#
# Stress axis : x y z
#
# Youngs Moduli (GPa) = 16.14517 110.19867 114.61957
#
# Poissons Ratio (x) = 1.06938 0.11428
# Poissons Ratio (y) = 0.15668 0.17595
# Poissons Ratio (z) = 0.01610 0.16916
#
# Static dielectric constant tensor:
#      x y z
#    x 3.049710 0.000000 0.000000 
#    y 0.000000 4.582420 0.000000 
#    z 0.000000 0.000000 3.975060 
# 
# 
# High freq. dielectric constant tensor:
#      x y z
#    x 1.737630 0.000000 0.000000 
#    y 0.000000 1.840390 0.000000 
#    z 0.000000 0.000000 1.842110 
# 
# From -- ./inp_files/2182.got.cif
#   From: 2010.03.12/outbox.cif.g09.slc.cpg/sg53_2_cif.got.tgz:2182.got - 2010.04.16 14:36:59.
