data_PCOD8222942
_publ_section_title
;
Structure prediction by ZEFSAII (Michael W. Deem and Ramdas Pophale) SiO2 
 PCOD8222942
Probable space group: P C C A
;
_chemical_formula_sum "Si O2"
_cell_formula_units_Z 36
_cell_length_a 15.568096
_cell_length_b 8.012046
_cell_length_c 13.963767
_cell_angle_alpha 90.000000
_cell_angle_beta 90.000000
_cell_angle_gamma 90.000000
_cell_volume 1741.732793
_symmetry_space_group_name_H-M "P C C A"
_symmetry_group_IT_number 54
_symmetry_cell_setting 'orthorhombic'
loop_
_space_group_symop_operation_xyz
x,y,z
1/2-x,-y,z
1/2+x,-y,1/2-z
-x,y,1/2-z
-x,-y,-z
1/2+x,y,-z
1/2-x,y,1/2+z
x,-y,1/2+z
loop_
_atom_site_type_symbol
_atom_site_label
_atom_site_fract_x
_atom_site_fract_y
_atom_site_fract_z
Si Si1 0.343155 0.327500 0.832071
Si Si2 0.147595 0.325695 0.907568
Si Si3 0.910767 0.991913 0.196354
Si Si4 0.694956 0.663655 0.387219
Si Si5 0.750000 0.000000 0.334426
O O1 0.246315 0.308101 0.871965
O O2 0.387701 0.496372 0.869671
O O3 0.348917 0.339978 0.716337
O O4 0.397708 0.164220 0.864376
O O5 0.091353 0.171922 0.869669
O O6 0.131953 0.328567 0.021805
O O7 0.000000 0.996275 0.250000
O O8 0.834228 0.986758 0.271172
O O9 0.750000 0.500000 0.402523
O O10 0.751018 0.833032 0.398256
#
# Coordination Sequence:
#
# PCOD8222942 Si02
#       5
#     8   8   8   8   4
#     4  10  20  38  58  89 122 153 204 251 292 356
#     4  11  20  35  65  88 114 161 202 239 307 358
#     4  11  22  40  63  88 123 166 200 247 304 360
#     4  11  19  33  61  93 114 156 201 245 300 358
#     4  10  22  38  60  86 126 158 198 258 296 358
#
# _framework density 20.669073000000001
#
# number of rings (size 3 to 8) (size 9 to 14) (size 15 to 20)
#    0.000    1.333    8.889    0.000    3.111    0.889 
#    0.000    4.444    0.000    8.000    0.000    0.000 
#    0.000    0.000    0.000    0.000    0.000    0.000 
#
# Total GULP energy -446050.475209 kJ/mol
# GULP energy per Si atom -12390.290978 kJ/mol
# Density = 2.062203 g / cm^3
# Si number density = 20.669073 Si / 1000 Ang^3
#
#
#
# Elastic Constant Matrix: (Units=GPa)
#
#
# Indices 1 2 3 4 5 6 
#
# 1 45.9140 12.9151 4.5612 0.0000 0.0000 0.0000
# 2 12.9151 200.0059 22.9883 0.0000 0.0000 0.0000
# 3 4.5612 22.9883 100.7637 0.0000 0.0000 0.0000
# 4 0.0000 0.0000 0.0000 -27.9828 0.0000 0.0000
# 5 0.0000 0.0000 0.0000 0.0000 -27.5905 0.0000
# 6 0.0000 0.0000 0.0000 0.0000 0.0000 13.5928
#
#
#
# Elastic Compliance Matrix: (Units=1/GPa)
#
#
# Indices 1 2 3 4 5 6 
#
# 1 0.022230 -0.001355 -0.000697 0.000000 0.000000 0.000000
# 2 -0.001355 0.005217 -0.001129 0.000000 0.000000 0.000000
# 3 -0.000697 -0.001129 0.010213 0.000000 0.000000 0.000000
# 4 0.000000 0.000000 0.000000 -0.035736 0.000000 0.000000
# 5 0.000000 0.000000 0.000000 0.000000 -0.036244 0.000000
# 6 0.000000 0.000000 0.000000 0.000000 0.000000 0.073568
#
#
# Mechanical properties :
#
#
# Convention : Reuss Voigt Hill
#
# Bulk Modulus (GPa) = 31.95080 47.51254 39.73167
# Shear Modulus (GPa) = 89.21554 12.01849 50.61702
#
# Velocity S-wave (km/s) = 6.57704 2.41399 4.95403
# Velocity P-wave (km/s) = 8.55386 5.55040 7.21025
#
# Compressibility (1/GPa) = 0.03129812
#
# Stress axis : x y z
#
# Youngs Moduli (GPa) = 44.98356 191.67643 97.91147
#
# Poissons Ratio (x) = 0.25979 0.06825
# Poissons Ratio (y) = 0.06097 0.11053
# Poissons Ratio (z) = 0.03136 0.21638
#
# Static dielectric constant tensor:
#      x y z
#    x 2.642160 0.000000 0.000000 
#    y 0.000000 4.992110 0.000000 
#    z 0.000000 0.000000 3.918650 
# 
# 
# High freq. dielectric constant tensor:
#      x y z
#    x 1.746750 0.000000 0.000000 
#    y 0.000000 1.852950 0.000000 
#    z 0.000000 0.000000 1.803220 
# 
# From -- ./inp_files/13880.got.cif
#   From: 2010.03.12/outbox.cif.g09.slc.cpg/sg54_7_cif.got.tgz:13880.got - 2010.04.16 15:00:50.
