data_PCOD8222007
_publ_section_title
;
Structure prediction by ZEFSAII (Michael W. Deem and Ramdas Pophale) SiO2 
 PCOD8222007
Probable space group: P M N A
;
_chemical_formula_sum "Si O2"
_cell_formula_units_Z 56
_cell_length_a 9.026278
_cell_length_b 19.010609
_cell_length_c 18.943863
_cell_angle_alpha 90.000000
_cell_angle_beta 90.000000
_cell_angle_gamma 90.000000
_cell_volume 3250.672963
_symmetry_space_group_name_H-M "P M N A"
_symmetry_group_IT_number 53
_symmetry_cell_setting 'orthorhombic'
loop_
_space_group_symop_operation_xyz
x,y,z
1/2-x,-y,1/2+z
x,-y,-z
1/2-x,y,1/2-z
-x,-y,-z
1/2+x,y,1/2-z
-x,y,z
1/2+x,-y,1/2+z
loop_
_atom_site_type_symbol
_atom_site_label
_atom_site_fract_x
_atom_site_fract_y
_atom_site_fract_z
Si Si1 0.662551 0.716474 0.985363
Si Si2 0.166645 0.978709 0.581355
Si Si3 0.674480 0.570902 0.040365
Si Si4 0.834851 0.756024 0.353513
Si Si5 0.165506 0.154135 0.047024
Si Si6 0.676603 0.384643 0.680189
Si Si7 0.833016 0.887956 0.116215
O O1 0.500000 0.717552 0.949600
O O2 0.722819 0.636262 0.990149
O O3 0.649602 0.746843 0.063449
O O4 0.770282 0.767138 0.940844
O O5 0.239196 0.902040 0.591212
O O6 0.000000 0.975883 0.610728
O O7 0.167705 0.000000 0.500000
O O8 0.257971 0.035941 0.626083
O O9 0.500000 0.577240 0.058290
O O10 0.765669 0.571985 0.112857
O O11 0.714853 0.500000 0.000000
O O12 0.729559 0.696149 0.322010
O O13 0.758947 0.831231 0.337946
O O14 0.000000 0.752706 0.319445
O O15 0.000000 0.153379 0.077401
O O16 0.166387 0.134161 0.965221
O O17 0.750000 0.419342 0.750000
O O18 0.500000 0.388442 0.683593
O O19 0.000000 0.891699 0.145327
#
# Coordination Sequence:
#
# PCOD8222007 Si02
#       7
#     8   8   8   8   8   8   8
#     4   8  14  24  38  55  76 104 137 172 212 262
#     4   9  15  21  29  42  63  94 131 169 208 250
#     4   9  18  33  51  70  93 121 153 190 235 288
#     4   9  16  27  41  57  78 106 141 178 217 260
#     4   9  15  21  30  45  67  96 131 171 210 249
#     4  11  21  33  49  69  93 121 155 193 233 277
#     4   9  15  22  32  48  70  97 131 170 210 250
#
# _framework density 17.227201999999998
#
# number of rings (size 3 to 8) (size 9 to 14) (size 15 to 20)
#    0.000    2.857    0.000    3.857    0.000    8.857 
#    0.000    0.000    0.000    0.000    0.000    0.000 
#    0.000    0.000    0.000    1.286    0.000   20.286 
#
# Total GULP energy -694141.552995 kJ/mol
# GULP energy per Si atom -12395.384875 kJ/mol
# Density = 1.718799 g / cm^3
# Si number density = 17.227202 Si / 1000 Ang^3
#
#
#
# Elastic Constant Matrix: (Units=GPa)
#
#
# Indices 1 2 3 4 5 6 
#
# 1 146.2925 68.4475 30.1597 0.0000 0.0000 0.0000
# 2 68.4475 141.1012 31.3967 0.0000 0.0000 0.0000
# 3 30.1597 31.3967 31.1368 0.0000 0.0000 0.0000
# 4 0.0000 0.0000 0.0000 5.8263 0.0000 0.0000
# 5 0.0000 0.0000 0.0000 0.0000 12.5685 0.0000
# 6 0.0000 0.0000 0.0000 0.0000 0.0000 25.9034
#
#
#
# Elastic Compliance Matrix: (Units=1/GPa)
#
#
# Indices 1 2 3 4 5 6 
#
# 1 0.009628 -0.003346 -0.005952 0.000000 0.000000 0.000000
# 2 -0.003346 0.010300 -0.007145 0.000000 0.000000 0.000000
# 3 -0.005952 -0.007145 0.045086 0.000000 0.000000 0.000000
# 4 0.000000 0.000000 0.000000 0.171635 0.000000 0.000000
# 5 0.000000 0.000000 0.000000 0.000000 0.079564 0.000000
# 6 0.000000 0.000000 0.000000 0.000000 0.000000 0.038605
#
#
# Mechanical properties :
#
#
# Convention : Reuss Voigt Hill
#
# Bulk Modulus (GPa) = 31.12524 64.28203 47.70364
# Shear Modulus (GPa) = 12.54975 21.42809 16.98892
#
# Velocity S-wave (km/s) = 2.70197 3.53065 3.14374
# Velocity P-wave (km/s) = 5.27645 7.34956 6.39753
#
# Compressibility (1/GPa) = 0.03212826
#
# Stress axis : x y z
#
# Youngs Moduli (GPa) = 103.86007 97.08549 22.17983
#
# Poissons Ratio (x) = 0.32488 0.13201
# Poissons Ratio (y) = 0.34754 0.15847
# Poissons Ratio (z) = 0.61817 0.69366
#
# Static dielectric constant tensor:
#      x y z
#    x 3.436530 0.000000 0.000000 
#    y 0.000000 3.312880 0.000000 
#    z 0.000000 0.000000 2.632540 
# 
# 
# High freq. dielectric constant tensor:
#      x y z
#    x 1.680280 0.000000 0.000000 
#    y 0.000000 1.660300 0.000000 
#    z 0.000000 0.000000 1.587400 
# 
# From -- ./inp_files/30988.got.cif
#   From: 2010.03.12/outbox.cif.g09.slc.cpg/sg53_16_cif.got.tgz:30988.got - 2010.04.16 14:36:59.
