data_PCOD8222612
_publ_section_title
;
Structure prediction by ZEFSAII (Michael W. Deem and Ramdas Pophale) SiO2 
 PCOD8222612
Probable space group: P C C A
;
_chemical_formula_sum "Si O2"
_cell_formula_units_Z 64
_cell_length_a 24.303685
_cell_length_b 8.693054
_cell_length_c 15.451544
_cell_angle_alpha 90.000000
_cell_angle_beta 90.000000
_cell_angle_gamma 90.000000
_cell_volume 3264.497858
_symmetry_space_group_name_H-M "P C C A"
_symmetry_group_IT_number 54
_symmetry_cell_setting 'orthorhombic'
loop_
_space_group_symop_operation_xyz
x,y,z
1/2-x,-y,z
1/2+x,-y,1/2-z
-x,y,1/2-z
-x,-y,-z
1/2+x,y,-z
1/2-x,y,1/2+z
x,-y,1/2+z
loop_
_atom_site_type_symbol
_atom_site_label
_atom_site_fract_x
_atom_site_fract_y
_atom_site_fract_z
Si Si1 0.651752 0.142083 0.064010
Si Si2 0.757674 0.330484 0.018142
Si Si3 0.062256 0.389925 0.918639
Si Si4 0.185168 0.835887 0.252477
Si Si5 0.716254 0.650348 0.211679
Si Si6 0.653499 0.131283 0.430254
Si Si7 0.065360 0.611572 0.074299
Si Si8 0.883730 0.476564 0.752191
O O1 0.697861 0.258951 0.031205
O O2 0.594114 0.229621 0.070603
O O3 0.668930 0.074414 0.158868
O O4 0.645806 0.005712 0.996534
O O5 0.750000 0.500000 0.977659
O O6 0.790155 0.340121 0.108234
O O7 0.793129 0.232878 0.951262
O O8 0.074496 0.474981 0.828329
O O9 0.998526 0.346360 0.924119
O O10 0.080782 0.505380 0.993744
O O11 0.251430 0.801457 0.252052
O O12 0.165669 0.930008 0.167658
O O13 0.154391 0.672790 0.255188
O O14 0.750000 0.500000 0.238272
O O15 0.654656 0.630288 0.249849
O O16 0.597967 0.229194 0.432732
O O17 0.081457 0.518298 0.160335
#
# Coordination Sequence:
#
# PCOD8222612 Si02
#       8
#     8   8   8   8   8   8   8   8
#     4  10  21  38  56  77 110 148 183 227 280 332
#     4  10  19  34  56  81 110 144 179 219 272 330
#     4  10  20  37  55  78 112 144 182 229 276 331
#     4   8  18  33  51  76 107 143 180 221 270 327
#     4   8  14  28  51  78 108 137 171 215 266 321
#     4  11  21  35  55  82 110 142 188 230 277 332
#     4  10  21  34  56  84 107 141 185 228 277 334
#     4   9  16  31  55  82 106 137 178 222 273 326
#
# _framework density 19.604854
#
# number of rings (size 3 to 8) (size 9 to 14) (size 15 to 20)
#    0.000    2.500    0.000    4.500    0.000    4.000 
#    0.000    7.500    0.000    0.000    0.000    0.000 
#    0.000    0.000    0.000    0.000    0.000    0.000 
#
# Total GULP energy -793504.574627 kJ/mol
# GULP energy per Si atom -12398.508979 kJ/mol
# Density = 1.956023 g / cm^3
# Si number density = 19.604854 Si / 1000 Ang^3
#
#
#
# Elastic Constant Matrix: (Units=GPa)
#
#
# Indices 1 2 3 4 5 6 
#
# 1 84.7131 35.0778 54.2430 0.0000 0.0000 0.0000
# 2 35.0778 62.2376 58.9715 0.0000 0.0000 0.0000
# 3 54.2430 58.9715 154.3874 0.0000 0.0000 0.0000
# 4 0.0000 0.0000 0.0000 32.3523 0.0000 0.0000
# 5 0.0000 0.0000 0.0000 0.0000 27.4473 0.0000
# 6 0.0000 0.0000 0.0000 0.0000 0.0000 18.0439
#
#
#
# Elastic Compliance Matrix: (Units=1/GPa)
#
#
# Indices 1 2 3 4 5 6 
#
# 1 0.016539 -0.005980 -0.003527 0.000000 0.000000 0.000000
# 2 -0.005980 0.027343 -0.008343 0.000000 0.000000 0.000000
# 3 -0.003527 -0.008343 0.010903 0.000000 0.000000 0.000000
# 4 0.000000 0.000000 0.000000 0.030910 0.000000 0.000000
# 5 0.000000 0.000000 0.000000 0.000000 0.036433 0.000000
# 6 0.000000 0.000000 0.000000 0.000000 0.000000 0.055420
#
#
# Mechanical properties :
#
#
# Convention : Reuss Voigt Hill
#
# Bulk Modulus (GPa) = 52.39569 66.43587 59.41578
# Shear Modulus (GPa) = 22.76758 25.77176 24.26967
#
# Velocity S-wave (km/s) = 3.41152 3.62962 3.52226
# Velocity P-wave (km/s) = 6.50399 7.17820 6.84939
#
# Compressibility (1/GPa) = 0.01908554
#
# Stress axis : x y z
#
# Youngs Moduli (GPa) = 60.46362 36.57202 91.71610
#
# Poissons Ratio (x) = 0.21870 0.32345
# Poissons Ratio (y) = 0.36157 0.76522
# Poissons Ratio (z) = 0.21324 0.30513
#
# Static dielectric constant tensor:
#      x y z
#    x 3.553040 0.000000 0.000000 
#    y 0.000000 3.228310 0.000000 
#    z 0.000000 0.000000 3.902600 
# 
# 
# High freq. dielectric constant tensor:
#      x y z
#    x 1.760540 0.000000 0.000000 
#    y 0.000000 1.730060 0.000000 
#    z 0.000000 0.000000 1.779010 
# 
# From -- ./inp_files/14997.got.cif
#   From: 2010.03.12/outbox.cif.g09.slc.cpg/sg54_8_cif.got.tgz:14997.got - 2010.04.16 15:00:50.
