data_PCOD8222742
_publ_section_title
;
Structure prediction by ZEFSAII (Michael W. Deem and Ramdas Pophale) SiO2 
 PCOD8222742
Probable space group: P C C A
;
_chemical_formula_sum "Si O2"
_cell_formula_units_Z 40
_cell_length_a 5.150242
_cell_length_b 15.539201
_cell_length_c 28.992337
_cell_angle_alpha 90.000000
_cell_angle_beta 90.000000
_cell_angle_gamma 90.000000
_cell_volume 2320.275449
_symmetry_space_group_name_H-M "P C C A"
_symmetry_group_IT_number 54
_symmetry_cell_setting 'orthorhombic'
loop_
_space_group_symop_operation_xyz
x,y,z
1/2-x,-y,z
1/2+x,-y,1/2-z
-x,y,1/2-z
-x,-y,-z
1/2+x,y,-z
1/2-x,y,1/2+z
x,-y,1/2+z
loop_
_atom_site_type_symbol
_atom_site_label
_atom_site_fract_x
_atom_site_fract_y
_atom_site_fract_z
Si Si1 0.248311 0.903561 0.719091
Si Si2 0.336942 0.265138 0.671817
Si Si3 0.759147 0.599892 0.528999
Si Si4 0.352663 0.661093 0.872553
Si Si5 0.750000 0.500000 0.678939
Si Si6 0.500000 0.373192 0.750000
O O1 0.500000 0.885010 0.750000
O O2 0.217199 0.836350 0.677345
O O3 0.000000 0.890161 0.750000
O O4 0.250000 0.000000 0.698059
O O5 0.628014 0.286726 0.654631
O O6 0.295966 0.311635 0.722407
O O7 0.128565 0.293633 0.633972
O O8 0.750000 0.500000 0.543053
O O9 0.537891 0.622954 0.492098
O O10 0.720353 0.658573 0.573893
O O11 0.408990 0.564176 0.854080
O O12 0.588655 0.436789 0.710402
#
# Coordination Sequence:
#
# PCOD8222742 Si02
#       6
#     8   8   8   8   4   4
#     4  10  20  35  54  75 102 138 178 212 259 308
#     4  11  22  33  53  73 106 134 179 219 250 295
#     4  10  20  36  55  73 100 134 173 214 269 320
#     4  11  22  35  51  76 102 134 176 223 253 299
#     4  10  20  32  44  68  98 142 180 210 242 282
#     4  10  20  32  48  66 102 146 184 208 244 284
#
# _framework density 17.239333999999999
#
# number of rings (size 3 to 8) (size 9 to 14) (size 15 to 20)
#    0.000    1.600    2.000    3.600    2.800    2.400 
#    0.000    0.000    0.000    0.000    0.000    0.000 
#    0.000   16.000    0.000    0.000    0.000    0.000 
#
# Total GULP energy -495669.880899 kJ/mol
# GULP energy per Si atom -12391.747022 kJ/mol
# Density = 1.720010 g / cm^3
# Si number density = 17.239334 Si / 1000 Ang^3
#
#
#
# Elastic Constant Matrix: (Units=GPa)
#
#
# Indices 1 2 3 4 5 6 
#
# 1 85.5928 18.4487 12.9787 0.0000 0.0000 0.0000
# 2 18.4487 96.7813 34.2497 0.0000 0.0000 0.0000
# 3 12.9787 34.2497 77.3856 0.0000 0.0000 0.0000
# 4 0.0000 0.0000 0.0000 -4.1040 0.0000 0.0000
# 5 0.0000 0.0000 0.0000 0.0000 15.9699 0.0000
# 6 0.0000 0.0000 0.0000 0.0000 0.0000 21.3120
#
#
#
# Elastic Compliance Matrix: (Units=1/GPa)
#
#
# Indices 1 2 3 4 5 6 
#
# 1 0.012279 -0.001911 -0.001214 0.000000 0.000000 0.000000
# 2 -0.001911 0.012549 -0.005233 0.000000 0.000000 0.000000
# 3 -0.001214 -0.005233 0.015442 0.000000 0.000000 0.000000
# 4 0.000000 0.000000 0.000000 -0.243663 0.000000 0.000000
# 5 0.000000 0.000000 0.000000 0.000000 0.062618 0.000000
# 6 0.000000 0.000000 0.000000 0.000000 0.000000 0.046922
#
#
# Mechanical properties :
#
#
# Convention : Reuss Voigt Hill
#
# Bulk Modulus (GPa) = 42.45595 43.45710 42.95653
# Shear Modulus (GPa) = -72.16512 19.57442 -26.29535
#
# Velocity S-wave (km/s) = -6.47701 3.37330 -3.90976
# Velocity P-wave (km/s) = 5.59059 6.35886 2.14248
#
# Compressibility (1/GPa) = 0.02355382
#
# Stress axis : x y z
#
# Youngs Moduli (GPa) = 81.43861 79.68796 64.75815
#
# Poissons Ratio (x) = 0.15230 0.07859
# Poissons Ratio (y) = 0.15565 0.33891
# Poissons Ratio (z) = 0.09883 0.41704
#
# Static dielectric constant tensor:
#      x y z
#    x 3.790040 0.000000 0.000000 
#    y 0.000000 3.823460 0.000000 
#    z 0.000000 0.000000 3.284510 
# 
# 
# High freq. dielectric constant tensor:
#      x y z
#    x 1.672200 0.000000 0.000000 
#    y 0.000000 1.649190 0.000000 
#    z 0.000000 0.000000 1.646010 
# 
# From -- ./inp_files/25288.got.cif
#   From: 2010.03.12/outbox.cif.g09.slc.cpg/sg54_13_cif.got.tgz:25288.got - 2010.04.16 15:00:50.
