data_PCOD8222366
_publ_section_title
;
Structure prediction by ZEFSAII (Michael W. Deem and Ramdas Pophale) SiO2 
 PCOD8222366
Probable space group: P C C A
;
_chemical_formula_sum "Si O2"
_cell_formula_units_Z 56
_cell_length_a 19.418239
_cell_length_b 16.134770
_cell_length_c 8.636077
_cell_angle_alpha 90.000000
_cell_angle_beta 90.000000
_cell_angle_gamma 90.000000
_cell_volume 2705.759095
_symmetry_space_group_name_H-M "P C C A"
_symmetry_group_IT_number 54
_symmetry_cell_setting 'orthorhombic'
loop_
_space_group_symop_operation_xyz
x,y,z
1/2-x,-y,z
1/2+x,-y,1/2-z
-x,y,1/2-z
-x,-y,-z
1/2+x,y,-z
1/2-x,y,1/2+z
x,-y,1/2+z
loop_
_atom_site_type_symbol
_atom_site_label
_atom_site_fract_x
_atom_site_fract_y
_atom_site_fract_z
Si Si1 0.640190 0.485529 0.980641
Si Si2 0.626721 0.616821 0.212853
Si Si3 0.313328 0.219662 0.176173
Si Si4 0.289231 0.399011 0.245086
Si Si5 0.664241 0.203891 0.677349
Si Si6 0.073094 0.106094 0.809132
Si Si7 0.071718 0.931167 0.671297
O O1 0.593835 0.425849 0.867880
O O2 0.698024 0.527306 0.873865
O O3 0.599159 0.559462 0.069915
O O4 0.676840 0.420845 0.092050
O O5 0.709382 0.611950 0.220318
O O6 0.613370 0.715245 0.197517
O O7 0.327415 0.317705 0.179429
O O8 0.236127 0.208732 0.234702
O O9 0.367268 0.173857 0.288212
O O10 0.321899 0.186423 0.002601
O O11 0.628671 0.125702 0.752343
O O12 0.000000 0.142850 0.750000
O O13 0.091748 0.026012 0.706051
O O14 0.067225 0.081340 0.988010
O O15 0.000000 0.907849 0.750000
#
# Coordination Sequence:
#
# PCOD8222366 Si02
#       7
#     8   8   8   8   8   8   8
#     4  10  17  28  44  72 107 158 197 242 287 342
#     4  10  18  27  46  72 114 153 199 238 291 339
#     4  11  23  37  56  89 128 160 196 245 301 351
#     4  10  18  27  46  72 114 153 199 238 291 339
#     4  11  23  37  56  89 128 160 196 245 301 351
#     4  11  23  43  69  92 117 151 196 241 288 353
#     4  11  23  43  69  92 117 151 196 241 288 353
#
# _framework density 20.696596
#
# number of rings (size 3 to 8) (size 9 to 14) (size 15 to 20)
#    0.000    1.429    1.429    7.714    8.000    0.571 
#    0.000    2.857    0.000    0.000    0.000    6.000 
#    0.000    0.000    0.000    0.000    0.000    0.000 
#
# Total GULP energy -693964.853166 kJ/mol
# GULP energy per Si atom -12392.229521 kJ/mol
# Density = 2.064949 g / cm^3
# Si number density = 20.696596 Si / 1000 Ang^3
#
#
#
# Elastic Constant Matrix: (Units=GPa)
#
#
# Indices 1 2 3 4 5 6 
#
# 1 45.3669 39.0112 15.8727 0.0000 0.0000 0.0000
# 2 39.0112 73.1194 14.0116 0.0000 0.0000 0.0000
# 3 15.8727 14.0116 133.1856 0.0000 0.0000 0.0000
# 4 0.0000 0.0000 0.0000 -62.1338 0.0000 0.0000
# 5 0.0000 0.0000 0.0000 0.0000 21.1463 0.0000
# 6 0.0000 0.0000 0.0000 0.0000 0.0000 -8.2642
#
#
#
# Elastic Compliance Matrix: (Units=1/GPa)
#
#
# Indices 1 2 3 4 5 6 
#
# 1 0.041644 -0.021705 -0.002680 0.000000 0.000000 0.000000
# 2 -0.021705 0.025270 -0.000072 0.000000 0.000000 0.000000
# 3 -0.002680 -0.000072 0.007835 0.000000 0.000000 0.000000
# 4 0.000000 0.000000 0.000000 -0.016094 0.000000 0.000000
# 5 0.000000 0.000000 0.000000 0.000000 0.047290 0.000000
# 6 0.000000 0.000000 0.000000 0.000000 0.000000 -0.121003
#
#
# Mechanical properties :
#
#
# Convention : Reuss Voigt Hill
#
# Bulk Modulus (GPa) = 38.70411 43.27364 40.98888
# Shear Modulus (GPa) = 117.74268 2.33476 60.03872
#
# Velocity S-wave (km/s) = 7.55072 1.06327 5.39184
# Velocity P-wave (km/s) = 9.73443 4.73934 7.65573
#
# Compressibility (1/GPa) = 0.02583705
#
# Stress axis : x y z
#
# Youngs Moduli (GPa) = 24.01310 39.57251 127.62879
#
# Poissons Ratio (x) = 0.85891 0.34200
# Poissons Ratio (y) = 0.52120 0.00916
# Poissons Ratio (z) = 0.06435 0.00284
#
# Static dielectric constant tensor:
#      x y z
#    x 3.226440 0.000000 0.000000 
#    y 0.000000 4.506220 0.000000 
#    z 0.000000 0.000000 4.242120 
# 
# 
# High freq. dielectric constant tensor:
#      x y z
#    x 1.753610 0.000000 0.000000 
#    y 0.000000 1.823440 0.000000 
#    z 0.000000 0.000000 1.836810 
# 
# From -- ./inp_files/4824.got.cif
#   From: 2010.03.12/outbox.cif.g09.slc.cpg/sg54_3_cif.got.tgz:4824.got - 2010.04.16 15:00:50.
