data_PCOD8222316
_publ_section_title
;
Structure prediction by ZEFSAII (Michael W. Deem and Ramdas Pophale) SiO2 
 PCOD8222316
Probable space group: P C C A
;
_chemical_formula_sum "Si O2"
_cell_formula_units_Z 56
_cell_length_a 14.631088
_cell_length_b 31.483415
_cell_length_c 5.326010
_cell_angle_alpha 90.000000
_cell_angle_beta 90.000000
_cell_angle_gamma 90.000000
_cell_volume 2453.355220
_symmetry_space_group_name_H-M "P C C A"
_symmetry_group_IT_number 54
_symmetry_cell_setting 'orthorhombic'
loop_
_space_group_symop_operation_xyz
x,y,z
1/2-x,-y,z
1/2+x,-y,1/2-z
-x,y,1/2-z
-x,-y,-z
1/2+x,y,-z
1/2-x,y,1/2+z
x,-y,1/2+z
loop_
_atom_site_type_symbol
_atom_site_label
_atom_site_fract_x
_atom_site_fract_y
_atom_site_fract_z
Si Si1 0.147156 0.982131 0.004571
Si Si2 0.102530 0.799981 0.998606
Si Si3 0.190391 0.886110 0.993376
Si Si4 0.396468 0.764240 0.998342
Si Si5 0.712988 0.547711 0.434043
Si Si6 0.690529 0.322676 0.020619
Si Si7 0.943151 0.399625 0.496853
O O1 0.250000 0.000000 0.014532
O O2 0.097171 0.998683 0.257929
O O3 0.142094 0.931547 0.994416
O O4 0.109414 0.851099 0.994657
O O5 0.152935 0.781565 0.750461
O O6 0.153048 0.782899 0.249681
O O7 0.999795 0.781833 0.000080
O O8 0.248975 0.880721 0.741515
O O9 0.388782 0.713261 0.992724
O O10 0.750000 0.500000 0.403912
O O11 0.761900 0.570538 0.670900
O O12 0.603431 0.553304 0.471284
O O13 0.757031 0.317848 0.783487
O O14 0.641180 0.367697 0.011196
O O15 0.000000 0.388799 0.250000
O O16 0.000000 0.397258 0.750000
#
# Coordination Sequence:
#
# PCOD8222316 Si02
#       7
#     8   8   8   8   8   8   8
#     4  10  16  30  48  75 118 154 196 257 311 371
#     4  10  23  39  60  86 122 174 207 261 329 396
#     4  12  21  32  55  88 124 158 207 261 312 378
#     4  10  23  43  63  83 124 166 214 259 336 390
#     4  10  21  43  70  97 142 195 230 292 344 395
#     4  12  26  44  73 102 129 177 230 284 338 398
#     4  12  26  43  71 107 145 182 234 284 350 418
#
# _framework density 22.825883999999999
#
# number of rings (size 3 to 8) (size 9 to 14) (size 15 to 20)
#    0.000    1.143    2.857    4.286    4.000    3.429 
#    0.000    8.571    0.000    0.000    0.000   12.000 
#    0.000    0.000    0.000    0.000    0.000    0.000 
#
# Total GULP energy -693883.565290 kJ/mol
# GULP energy per Si atom -12390.777952 kJ/mol
# Density = 2.277393 g / cm^3
# Si number density = 22.825884 Si / 1000 Ang^3
#
#
#
# Elastic Constant Matrix: (Units=GPa)
#
#
# Indices 1 2 3 4 5 6 
#
# 1 64.3131 36.8400 7.1546 0.0000 0.0000 0.0000
# 2 36.8400 124.5740 8.2311 0.0000 0.0000 0.0000
# 3 7.1546 8.2311 205.0092 0.0000 0.0000 0.0000
# 4 0.0000 0.0000 0.0000 -8.1207 0.0000 0.0000
# 5 0.0000 0.0000 0.0000 0.0000 11.9798 0.0000
# 6 0.0000 0.0000 0.0000 0.0000 0.0000 38.2356
#
#
#
# Elastic Compliance Matrix: (Units=1/GPa)
#
#
# Indices 1 2 3 4 5 6 
#
# 1 0.018758 -0.005519 -0.000433 0.000000 0.000000 0.000000
# 2 -0.005519 0.009672 -0.000196 0.000000 0.000000 0.000000
# 3 -0.000433 -0.000196 0.004901 0.000000 0.000000 0.000000
# 4 0.000000 0.000000 0.000000 -0.123142 0.000000 0.000000
# 5 0.000000 0.000000 0.000000 0.000000 0.083474 0.000000
# 6 0.000000 0.000000 0.000000 0.000000 0.000000 0.026154
#
#
# Mechanical properties :
#
#
# Convention : Reuss Voigt Hill
#
# Bulk Modulus (GPa) = 47.53669 55.37196 51.45433
# Shear Modulus (GPa) = 127.79828 31.19697 79.49762
#
# Velocity S-wave (km/s) = 7.49065 3.70095 5.90791
# Velocity P-wave (km/s) = 9.78183 6.52486 8.31438
#
# Compressibility (1/GPa) = 0.02103638
#
# Stress axis : x y z
#
# Youngs Moduli (GPa) = 53.30947 103.38763 204.04818
#
# Poissons Ratio (x) = 0.57057 0.08837
# Poissons Ratio (y) = 0.29420 0.03994
# Poissons Ratio (z) = 0.02309 0.02024
#
# Static dielectric constant tensor:
#      x y z
#    x 3.681260 0.000000 0.000000 
#    y 0.000000 4.208970 0.000000 
#    z 0.000000 0.000000 7.090790 
# 
# 
# High freq. dielectric constant tensor:
#      x y z
#    x 1.863430 0.000000 0.000000 
#    y 0.000000 1.902880 0.000000 
#    z 0.000000 0.000000 1.949790 
# 
# From -- ./inp_files/704.got.cif
#   From: 2010.03.12/outbox.cif.g09.slc.cpg/sg54_1_cif.got.tgz:704.got - 2010.04.16 15:00:50.
