data_PCOD8222952
_publ_section_title
;
Structure prediction by ZEFSAII (Michael W. Deem and Ramdas Pophale) SiO2 
 PCOD8222952
Probable space group: P C C A
;
_chemical_formula_sum "Si O2"
_cell_formula_units_Z 36
_cell_length_a 12.998006
_cell_length_b 10.645379
_cell_length_c 9.484526
_cell_angle_alpha 90.000000
_cell_angle_beta 90.000000
_cell_angle_gamma 90.000000
_cell_volume 1312.361534
_symmetry_space_group_name_H-M "P C C A"
_symmetry_group_IT_number 54
_symmetry_cell_setting 'orthorhombic'
loop_
_space_group_symop_operation_xyz
x,y,z
1/2-x,-y,z
1/2+x,-y,1/2-z
-x,y,1/2-z
-x,-y,-z
1/2+x,y,-z
1/2-x,y,1/2+z
x,-y,1/2+z
loop_
_atom_site_type_symbol
_atom_site_label
_atom_site_fract_x
_atom_site_fract_y
_atom_site_fract_z
Si Si1 0.750000 0.500000 0.506744
Si Si2 0.563246 0.146182 0.102197
Si Si3 0.915117 0.334772 0.359850
Si Si4 0.153853 0.068955 0.585711
Si Si5 0.772668 0.245604 0.147736
O O1 0.846028 0.452110 0.411324
O O2 0.716756 0.392125 0.613515
O O3 0.659014 0.199792 0.200094
O O4 0.605529 0.020962 0.032833
O O5 0.536370 0.257868 0.990887
O O6 0.448555 0.113271 0.175297
O O7 0.848559 0.226167 0.279503
O O8 0.000000 0.387001 0.250000
O O9 0.201626 0.182696 0.499869
O O10 0.250000 0.000000 0.669488
#
# Coordination Sequence:
#
# PCOD8222952 Si02
#       5
#     4   8   8   8   8
#     4  10  24  40  56  88 128 162 214 272 322 374
#     4   9  19  36  61  91 125 158 200 265 324 382
#     4  11  21  39  64  89 119 168 223 262 322 392
#     4   9  17  35  62  87 121 158 196 249 325 386
#     4  10  20  38  60  87 123 166 207 261 320 379
#
# _framework density 27.431464999999999
#
# number of rings (size 3 to 8) (size 9 to 14) (size 15 to 20)
#    0.000    2.222    2.222    0.667    0.000    0.889 
#    4.000   16.667    0.000    0.000    0.000    0.000 
#    0.000    0.000    0.000    0.000    0.000    0.000 
#
# Total GULP energy -446041.259231 kJ/mol
# GULP energy per Si atom -12390.034979 kJ/mol
# Density = 2.736903 g / cm^3
# Si number density = 27.431465 Si / 1000 Ang^3
#
#
#
# Elastic Constant Matrix: (Units=GPa)
#
#
# Indices 1 2 3 4 5 6 
#
# 1 231.7557 59.2952 94.4109 0.0000 0.0000 0.0000
# 2 59.2952 107.8953 14.0355 0.0000 0.0000 0.0000
# 3 94.4109 14.0355 80.2329 0.0000 0.0000 0.0000
# 4 0.0000 0.0000 0.0000 6.3431 0.0000 0.0000
# 5 0.0000 0.0000 0.0000 0.0000 79.8086 0.0000
# 6 0.0000 0.0000 0.0000 0.0000 0.0000 49.0049
#
#
#
# Elastic Compliance Matrix: (Units=1/GPa)
#
#
# Indices 1 2 3 4 5 6 
#
# 1 0.009680 -0.003927 -0.010704 0.000000 0.000000 0.000000
# 2 -0.003927 0.011078 0.002684 0.000000 0.000000 0.000000
# 3 -0.010704 0.002684 0.024589 0.000000 0.000000 0.000000
# 4 0.000000 0.000000 0.000000 0.157651 0.000000 0.000000
# 5 0.000000 0.000000 0.000000 0.000000 0.012530 0.000000
# 6 0.000000 0.000000 0.000000 0.000000 0.000000 0.020406
#
#
# Mechanical properties :
#
#
# Convention : Reuss Voigt Hill
#
# Bulk Modulus (GPa) = 46.61556 83.92969 65.27263
# Shear Modulus (GPa) = 18.72802 43.84082 31.28442
#
# Velocity S-wave (km/s) = 2.61573 4.00208 3.38073
# Velocity P-wave (km/s) = 5.11401 7.21236 6.25185
#
# Compressibility (1/GPa) = 0.02145206
#
# Stress axis : x y z
#
# Youngs Moduli (GPa) = 103.30464 90.27286 40.66803
#
# Poissons Ratio (x) = 0.35454 0.43530
# Poissons Ratio (y) = 0.40572 -0.10914
# Poissons Ratio (z) = 1.10574 -0.24226
#
# Static dielectric constant tensor:
#      x y z
#    x 5.989750 0.000000 0.000000 
#    y 0.000000 4.826050 0.000000 
#    z 0.000000 0.000000 5.099720 
# 
# 
# High freq. dielectric constant tensor:
#      x y z
#    x 2.148300 0.000000 0.000000 
#    y 0.000000 2.094890 0.000000 
#    z 0.000000 0.000000 2.136260 
# 
# From -- ./inp_files/8155.got.cif
#   From: 2010.03.12/outbox.cif.g09.slc.cpg/sg54_5_cif.got.tgz:8155.got - 2010.04.16 15:00:50.
