data_PCOD8222263
_publ_section_title
;
Structure prediction by ZEFSAII (Michael W. Deem and Ramdas Pophale) SiO2 
 PCOD8222263
Probable space group: P M N A
;
_chemical_formula_sum "Si O2"
_cell_formula_units_Z 64
_cell_length_a 9.000000
_cell_length_b 12.000000
_cell_length_c 30.000000
_cell_angle_alpha 90.000000
_cell_angle_beta 90.000000
_cell_angle_gamma 90.000000
_cell_volume 3240.000000
_symmetry_space_group_name_H-M "P M N A"
_symmetry_group_IT_number 53
_symmetry_cell_setting 'orthorhombic'
loop_
_space_group_symop_operation_xyz
x,y,z
1/2-x,-y,1/2+z
x,-y,-z
1/2-x,y,1/2-z
-x,-y,-z
1/2+x,y,1/2-z
-x,y,z
1/2+x,-y,1/2+z
loop_
_atom_site_type_symbol
_atom_site_label
_atom_site_fract_x
_atom_site_fract_y
_atom_site_fract_z
Si Si1 0.824388 0.033485 0.891648
Si Si2 0.828318 0.903579 0.205918
Si Si3 0.827434 0.563920 0.706767
Si Si4 0.168168 0.654123 0.183382
Si Si5 0.169304 0.393678 0.391229
Si Si6 0.669457 0.160608 0.061766
Si Si7 0.174782 0.800534 0.460547
Si Si8 0.169938 0.608674 0.082679
O O1 0.767320 0.044243 0.840472
O O2 0.747331 0.121453 0.923769
O O3 0.000000 0.054057 0.893760
O O4 0.782047 0.912098 0.909335
O O5 0.750000 0.954670 0.250000
O O6 0.797782 0.771954 0.205527
O O7 0.000000 0.932519 0.210516
O O8 0.750000 0.620296 0.750000
O O9 0.781886 0.434207 0.703864
O O10 0.780214 0.624641 0.660501
O O11 0.000000 0.573071 0.715516
O O12 0.190612 0.667940 0.130436
O O13 0.000000 0.613751 0.193267
O O14 0.185886 0.283736 0.419670
O O15 0.272105 0.482981 0.415457
O O16 0.000000 0.437773 0.390840
O O17 0.500000 0.117362 0.067317
O O18 0.715658 0.156557 0.009941
O O19 0.237191 0.676078 0.454193
O O20 0.000000 0.798890 0.453542
O O21 0.000000 0.606728 0.067367
#
# Coordination Sequence:
#
# PCOD8222263 Si02
#       8
#     8   8   8   8   8   8   8   8
#     4  11  23  41  61  85 118 150 188 241 292 339
#     4  10  21  36  54  81 114 148 184 226 281 339
#     4  10  19  31  51  79 107 143 187 230 279 333
#     4   9  17  32  51  76 113 148 178 222 275 332
#     4   9  20  39  58  79 113 153 192 233 282 339
#     4  10  23  42  61  83 112 151 199 244 283 338
#     4  11  22  37  61  89 116 150 192 235 289 347
#     4  10  19  34  57  86 121 151 182 230 283 336
#
# _framework density 19.753086
#
# number of rings (size 3 to 8) (size 9 to 14) (size 15 to 20)
#    0.000    2.000    1.250    2.250    0.000    7.000 
#    0.000    3.125    0.000    3.000    0.000    0.000 
#    0.000    0.000    0.000    0.000    0.000    0.000 
#
# Total GULP energy -793628.554763 kJ/mol
# GULP energy per Si atom -12400.446168 kJ/mol
# Density = 1.970813 g / cm^3
# Si number density = 19.753086 Si / 1000 Ang^3
#
#
#
# Elastic Constant Matrix: (Units=GPa)
#
#
# Indices 1 2 3 4 5 6 
#
# 1 78.1963 34.4458 58.7346 0.0000 0.0000 0.0000
# 2 34.4458 49.4552 46.0115 0.0000 0.0000 0.0000
# 3 58.7346 46.0115 151.7257 0.0000 0.0000 0.0000
# 4 0.0000 0.0000 0.0000 15.7972 0.0000 0.0000
# 5 0.0000 0.0000 0.0000 0.0000 33.5629 0.0000
# 6 0.0000 0.0000 0.0000 0.0000 0.0000 23.4992
#
#
#
# Elastic Compliance Matrix: (Units=1/GPa)
#
#
# Indices 1 2 3 4 5 6 
#
# 1 0.020979 -0.009830 -0.005140 0.000000 0.000000 0.000000
# 2 -0.009830 0.032773 -0.006133 0.000000 0.000000 0.000000
# 3 -0.005140 -0.006133 0.010441 0.000000 0.000000 0.000000
# 4 0.000000 0.000000 0.000000 0.063302 0.000000 0.000000
# 5 0.000000 0.000000 0.000000 0.000000 0.029795 0.000000
# 6 0.000000 0.000000 0.000000 0.000000 0.000000 0.042555
#
#
# Mechanical properties :
#
#
# Convention : Reuss Voigt Hill
#
# Bulk Modulus (GPa) = 45.48330 61.97345 53.72837
# Shear Modulus (GPa) = 20.04961 23.91752 21.98357
#
# Velocity S-wave (km/s) = 3.18938 3.48347 3.33966
# Velocity P-wave (km/s) = 6.05300 6.90084 6.49077
#
# Compressibility (1/GPa) = 0.02198609
#
# Stress axis : x y z
#
# Youngs Moduli (GPa) = 47.66559 30.51276 95.77868
#
# Poissons Ratio (x) = 0.29994 0.49235
# Poissons Ratio (y) = 0.46854 0.58745
# Poissons Ratio (z) = 0.24502 0.18715
#
# Static dielectric constant tensor:
#      x y z
#    x 3.754320 0.000000 0.000000 
#    y 0.000000 3.329460 0.000000 
#    z 0.000000 0.000000 3.922870 
# 
# 
# High freq. dielectric constant tensor:
#      x y z
#    x 1.768260 0.000000 0.000000 
#    y 0.000000 1.742590 0.000000 
#    z 0.000000 0.000000 1.787380 
# 
# From -- ./inp_files/38308.got.cif
#   From: 2010.03.12/outbox.ucp.g09.slc.cvg/sg53_20_cif.got.tgz:38308.got - 2010.05.04 19:20:06.
