data_PCOD8222987
_publ_section_title
;
Structure prediction by ZEFSAII (Michael W. Deem and Ramdas Pophale) SiO2 
 PCOD8222987
Probable space group: P C C A
;
_chemical_formula_sum "Si O2"
_cell_formula_units_Z 36
_cell_length_a 10.528223
_cell_length_b 17.397366
_cell_length_c 9.222234
_cell_angle_alpha 90.000000
_cell_angle_beta 90.000000
_cell_angle_gamma 90.000000
_cell_volume 1689.175263
_symmetry_space_group_name_H-M "P C C A"
_symmetry_group_IT_number 54
_symmetry_cell_setting 'orthorhombic'
loop_
_space_group_symop_operation_xyz
x,y,z
1/2-x,-y,z
1/2+x,-y,1/2-z
-x,y,1/2-z
-x,-y,-z
1/2+x,y,-z
1/2-x,y,1/2+z
x,-y,1/2+z
loop_
_atom_site_type_symbol
_atom_site_label
_atom_site_fract_x
_atom_site_fract_y
_atom_site_fract_z
Si Si1 0.352844 0.230941 0.789352
Si Si2 0.815909 0.857280 0.433018
Si Si3 0.643627 0.399016 0.745986
Si Si4 0.250000 0.500000 0.002141
Si Si5 0.250000 0.000000 0.389812
Si Si6 0.000000 0.945700 0.250000
O O1 0.500000 0.224064 0.750000
O O2 0.270631 0.169278 0.701004
O O3 0.289126 0.315673 0.764188
O O4 0.340313 0.213716 0.959945
O O5 0.951271 0.889926 0.378312
O O6 0.740420 0.924574 0.513131
O O7 0.500000 0.375378 0.750000
O O8 0.660858 0.451085 0.603646
O O9 0.674305 0.442250 0.894992
O O10 0.119527 0.999719 0.295593
#
# Coordination Sequence:
#
# PCOD8222987 Si02
#       6
#     8   8   8   4   4   4
#     4  11  25  42  66  94 134 172 215 271 330 393
#     4  12  25  45  67  96 131 173 224 271 335 390
#     4  10  21  39  63  95 127 167 211 260 321 381
#     4  10  20  38  66  92 128 164 212 260 312 386
#     4  12  26  46  72  96 132 172 230 276 334 392
#     4  12  26  46  70 100 126 176 228 282 334 396
#
# _framework density 21.312175
#
# number of rings (size 3 to 8) (size 9 to 14) (size 15 to 20)
#    0.000    0.889    2.222    4.667    1.556    0.000 
#    0.000    0.000    4.889    0.000    0.000    0.000 
#    0.000    0.000    0.000    0.000    0.000    0.000 
#
# Total GULP energy -446312.478325 kJ/mol
# GULP energy per Si atom -12397.568842 kJ/mol
# Density = 2.126367 g / cm^3
# Si number density = 21.312175 Si / 1000 Ang^3
#
#
#
# Elastic Constant Matrix: (Units=GPa)
#
#
# Indices 1 2 3 4 5 6 
#
# 1 103.6380 32.2838 37.2881 0.0000 0.0000 0.0000
# 2 32.2838 124.9653 49.4325 0.0000 0.0000 0.0000
# 3 37.2881 49.4325 135.6366 0.0000 0.0000 0.0000
# 4 0.0000 0.0000 0.0000 25.5201 0.0000 0.0000
# 5 0.0000 0.0000 0.0000 0.0000 29.5283 0.0000
# 6 0.0000 0.0000 0.0000 0.0000 0.0000 22.3137
#
#
#
# Elastic Compliance Matrix: (Units=1/GPa)
#
#
# Indices 1 2 3 4 5 6 
#
# 1 0.011096 -0.001940 -0.002344 0.000000 0.000000 0.000000
# 2 -0.001940 0.009689 -0.002998 0.000000 0.000000 0.000000
# 3 -0.002344 -0.002998 0.009110 0.000000 0.000000 0.000000
# 4 0.000000 0.000000 0.000000 0.039185 0.000000 0.000000
# 5 0.000000 0.000000 0.000000 0.000000 0.033866 0.000000
# 6 0.000000 0.000000 0.000000 0.000000 0.000000 0.044816
#
#
# Mechanical properties :
#
#
# Convention : Reuss Voigt Hill
#
# Bulk Modulus (GPa) = 65.22013 66.91651 66.06832
# Shear Modulus (GPa) = 29.86240 31.82146 30.84193
#
# Velocity S-wave (km/s) = 3.74731 3.86827 3.80827
# Velocity P-wave (km/s) = 7.02793 7.17062 7.09963
#
# Compressibility (1/GPa) = 0.01533269
#
# Stress axis : x y z
#
# Youngs Moduli (GPa) = 90.11941 103.20750 109.77488
#
# Poissons Ratio (x) = 0.20018 0.25727
# Poissons Ratio (y) = 0.17479 0.32911
# Poissons Ratio (z) = 0.21121 0.30942
#
# Static dielectric constant tensor:
#      x y z
#    x 3.658910 0.000000 0.000000 
#    y 0.000000 4.012630 0.000000 
#    z 0.000000 0.000000 3.703260 
# 
# 
# High freq. dielectric constant tensor:
#      x y z
#    x 1.824910 0.000000 0.000000 
#    y 0.000000 1.850030 0.000000 
#    z 0.000000 0.000000 1.851150 
# 
# From -- ./inp_files/2516.got.cif
#   From: 2010.03.12/outbox.cif.g09.slc.cpg/sg54_2_cif.got.tgz:2516.got - 2010.04.16 15:00:50.
