data_PCOD8222698
_publ_section_title
;
Structure prediction by ZEFSAII (Michael W. Deem and Ramdas Pophale) SiO2 
 PCOD8222698
Probable space group: P C C A
;
_chemical_formula_sum "Si O2"
_cell_formula_units_Z 32
_cell_length_a 7.530784
_cell_length_b 11.128190
_cell_length_c 13.353141
_cell_angle_alpha 90.000000
_cell_angle_beta 90.000000
_cell_angle_gamma 90.000000
_cell_volume 1119.046564
_symmetry_space_group_name_H-M "P C C A"
_symmetry_group_IT_number 54
_symmetry_cell_setting 'orthorhombic'
loop_
_space_group_symop_operation_xyz
x,y,z
1/2-x,-y,z
1/2+x,-y,1/2-z
-x,y,1/2-z
-x,-y,-z
1/2+x,y,-z
1/2-x,y,1/2+z
x,-y,1/2+z
loop_
_atom_site_type_symbol
_atom_site_label
_atom_site_fract_x
_atom_site_fract_y
_atom_site_fract_z
Si Si1 0.483921 0.801266 0.548080
Si Si2 0.952693 0.038021 0.139891
Si Si3 0.695994 0.364504 0.867557
Si Si4 0.209041 0.362075 0.365052
O O1 0.504599 0.854557 0.435210
O O2 0.816752 0.713279 0.441223
O O3 0.661894 0.731375 0.580934
O O4 0.438396 0.915628 0.618677
O O5 0.000000 0.087198 0.250000
O O6 0.750000 0.000000 0.126097
O O7 0.750000 0.500000 0.888265
O O8 0.727482 0.333755 0.752151
O O9 0.493170 0.341860 0.902647
O O10 0.250000 0.500000 0.388480
#
# Coordination Sequence:
#
# PCOD8222698 Si02
#       4
#     8   8   8   8
#     4  11  24  50  85 130 178 224 295 371 449 540
#     4  11  28  58  88 121 168 231 301 380 454 529
#     4  10  19  37  76 134 195 240 291 360 440 532
#     4  10  19  37  76 135 192 243 290 358 445 527
#
# _framework density 28.595770999999999
#
# number of rings (size 3 to 8) (size 9 to 14) (size 15 to 20)
#    0.000    1.500    2.500    2.250    0.000    4.000 
#   22.500    1.250    0.000    6.000    0.000    7.000 
#    0.000    0.000    0.000    0.000    0.000    0.000 
#
# Total GULP energy -396899.116247 kJ/mol
# GULP energy per Si atom -12403.097383 kJ/mol
# Density = 2.853069 g / cm^3
# Si number density = 28.595771 Si / 1000 Ang^3
#
#
#
# Elastic Constant Matrix: (Units=GPa)
#
#
# Indices 1 2 3 4 5 6 
#
# 1 188.7692 123.4792 96.0007 0.0000 0.0000 0.0000
# 2 123.4792 256.9866 103.1974 0.0000 0.0000 0.0000
# 3 96.0007 103.1974 237.2597 0.0000 0.0000 0.0000
# 4 0.0000 0.0000 0.0000 62.6851 0.0000 0.0000
# 5 0.0000 0.0000 0.0000 0.0000 56.5113 0.0000
# 6 0.0000 0.0000 0.0000 0.0000 0.0000 76.5752
#
#
#
# Elastic Compliance Matrix: (Units=1/GPa)
#
#
# Indices 1 2 3 4 5 6 
#
# 1 0.008443 -0.003253 -0.002001 0.000000 0.000000 0.000000
# 2 -0.003253 0.005968 -0.001280 0.000000 0.000000 0.000000
# 3 -0.002001 -0.001280 0.005581 0.000000 0.000000 0.000000
# 4 0.000000 0.000000 0.000000 0.015953 0.000000 0.000000
# 5 0.000000 0.000000 0.000000 0.000000 0.017696 0.000000
# 6 0.000000 0.000000 0.000000 0.000000 0.000000 0.013059
#
#
# Mechanical properties :
#
#
# Convention : Reuss Voigt Hill
#
# Bulk Modulus (GPa) = 144.41769 147.59669 146.00719
# Shear Modulus (GPa) = 60.91874 63.17688 62.04781
#
# Velocity S-wave (km/s) = 4.62057 4.70543 4.66319
# Velocity P-wave (km/s) = 8.89264 9.01378 8.95342
#
# Compressibility (1/GPa) = 0.00692436
#
# Stress axis : x y z
#
# Youngs Moduli (GPa) = 118.43676 167.55355 179.17487
#
# Poissons Ratio (x) = 0.54509 0.35859
# Poissons Ratio (y) = 0.38530 0.22927
# Poissons Ratio (z) = 0.23703 0.21440
#
# Static dielectric constant tensor:
#      x y z
#    x 5.873830 0.000000 0.000000 
#    y 0.000000 5.891880 0.000000 
#    z 0.000000 0.000000 5.651180 
# 
# 
# High freq. dielectric constant tensor:
#      x y z
#    x 2.169610 0.000000 0.000000 
#    y 0.000000 2.204650 0.000000 
#    z 0.000000 0.000000 2.194270 
# 
# From -- ./inp_files/11324.got.cif
#   From: 2010.03.12/outbox.cif.g09.slc.cpg/sg54_6_cif.got.tgz:11324.got - 2010.04.16 15:00:50.
