data_PCOD8222656
_publ_section_title
;
Structure prediction by ZEFSAII (Michael W. Deem and Ramdas Pophale) SiO2 
 PCOD8222656
Probable space group: P C C A
;
_chemical_formula_sum "Si O2"
_cell_formula_units_Z 60
_cell_length_a 30.885208
_cell_length_b 11.129796
_cell_length_c 8.859699
_cell_angle_alpha 90.000000
_cell_angle_beta 90.000000
_cell_angle_gamma 90.000000
_cell_volume 3045.486664
_symmetry_space_group_name_H-M "P C C A"
_symmetry_group_IT_number 54
_symmetry_cell_setting 'orthorhombic'
loop_
_space_group_symop_operation_xyz
x,y,z
1/2-x,-y,z
1/2+x,-y,1/2-z
-x,y,1/2-z
-x,-y,-z
1/2+x,y,-z
1/2-x,y,1/2+z
x,-y,1/2+z
loop_
_atom_site_type_symbol
_atom_site_label
_atom_site_fract_x
_atom_site_fract_y
_atom_site_fract_z
Si Si1 0.912675 0.960959 0.714266
Si Si2 0.373946 0.851445 0.991039
Si Si3 0.698742 0.295131 0.898535
Si Si4 0.591692 0.382413 0.168330
Si Si5 0.532365 0.898779 0.945238
Si Si6 0.226206 0.379718 0.395772
Si Si7 0.000000 0.305230 0.750000
Si Si8 0.357291 0.474939 0.054984
O O1 0.935910 0.877307 0.588113
O O2 0.875929 0.034696 0.621263
O O3 0.944486 0.057666 0.791517
O O4 0.894498 0.876276 0.844715
O O5 0.399700 0.743737 0.912619
O O6 0.324002 0.820158 0.026179
O O7 0.716653 0.279073 0.730142
O O8 0.663721 0.401992 0.885632
O O9 0.741043 0.321292 0.991159
O O10 0.541314 0.389726 0.215370
O O11 0.623326 0.392938 0.312630
O O12 0.603257 0.493054 0.058164
O O13 0.509114 0.774998 0.899868
O O14 0.500000 0.000000 0.000000
O O15 0.250000 0.500000 0.328428
O O16 0.180634 0.402266 0.475181
#
# Coordination Sequence:
#
# PCOD8222656 Si02
#       8
#     8   8   8   8   8   8   4   8
#     4  10  20  38  62  86 121 161 210 261 314 361
#     4  10  22  40  61  93 122 163 207 253 312 379
#     4  10  21  35  61  96 123 149 202 251 310 363
#     4  11  23  40  60  88 125 166 208 253 304 377
#     4  11  18  34  59  88 115 157 214 279 306 340
#     4  10  19  35  63  95 120 154 199 261 305 355
#     4  12  22  36  58  88 124 164 214 252 310 368
#     4  10  21  39  61  86 127 162 200 250 308 371
#
# _framework density 19.701284999999999
#
# number of rings (size 3 to 8) (size 9 to 14) (size 15 to 20)
#    0.000    1.600    4.000    2.000    3.733    1.600 
#    0.000    0.000    0.000    2.400    0.000    0.000 
#    0.000    0.000    0.000    0.000    0.000    0.000 
#
# Total GULP energy -743644.441920 kJ/mol
# GULP energy per Si atom -12394.074032 kJ/mol
# Density = 1.965644 g / cm^3
# Si number density = 19.701285 Si / 1000 Ang^3
#
#
#
# Elastic Constant Matrix: (Units=GPa)
#
#
# Indices 1 2 3 4 5 6 
#
# 1 115.7273 52.9859 63.8345 0.0000 0.0000 0.0000
# 2 52.9859 51.2551 46.4823 0.0000 0.0000 0.0000
# 3 63.8345 46.4823 142.4437 0.0000 0.0000 0.0000
# 4 0.0000 0.0000 0.0000 31.5376 0.0000 0.0000
# 5 0.0000 0.0000 0.0000 0.0000 15.4629 0.0000
# 6 0.0000 0.0000 0.0000 0.0000 0.0000 106.4195
#
#
#
# Elastic Compliance Matrix: (Units=1/GPa)
#
#
# Indices 1 2 3 4 5 6 
#
# 1 0.017103 -0.015240 -0.002692 0.000000 0.000000 0.000000
# 2 -0.015240 0.041290 -0.006644 0.000000 0.000000 0.000000
# 3 -0.002692 -0.006644 0.010395 0.000000 0.000000 0.000000
# 4 0.000000 0.000000 0.000000 0.031708 0.000000 0.000000
# 5 0.000000 0.000000 0.000000 0.000000 0.064671 0.000000
# 6 0.000000 0.000000 0.000000 0.000000 0.000000 0.009397
#
#
# Mechanical properties :
#
#
# Convention : Reuss Voigt Hill
#
# Bulk Modulus (GPa) = 50.92479 70.67019 60.79749
# Shear Modulus (GPa) = 21.71447 40.42557 31.07002
#
# Velocity S-wave (km/s) = 3.32352 4.53473 3.97552
# Velocity P-wave (km/s) = 6.37435 7.96035 7.21108
#
# Compressibility (1/GPa) = 0.01963680
#
# Stress axis : x y z
#
# Youngs Moduli (GPa) = 58.46853 24.21877 96.20316
#
# Poissons Ratio (x) = 0.36909 0.25893
# Poissons Ratio (y) = 0.89105 0.63920
# Poissons Ratio (z) = 0.15737 0.16092
#
# Static dielectric constant tensor:
#      x y z
#    x 3.795990 0.000000 0.000000 
#    y 0.000000 3.334100 0.000000 
#    z 0.000000 0.000000 3.882100 
# 
# 
# High freq. dielectric constant tensor:
#      x y z
#    x 1.770040 0.000000 0.000000 
#    y 0.000000 1.721640 0.000000 
#    z 0.000000 0.000000 1.789130 
# 
# From -- ./inp_files/5954.got.cif
#   From: 2010.03.12/outbox.cif.g09.slc.cpg/sg54_3_cif.got.tgz:5954.got - 2010.04.16 15:00:50.
