data_PCOD8222390
_publ_section_title
;
Structure prediction by ZEFSAII (Michael W. Deem and Ramdas Pophale) SiO2 
 PCOD8222390
Probable space group: P C C A
;
_chemical_formula_sum "Si O2"
_cell_formula_units_Z 32
_cell_length_a 18.295204
_cell_length_b 7.611519
_cell_length_c 13.024705
_cell_angle_alpha 90.000000
_cell_angle_beta 90.000000
_cell_angle_gamma 90.000000
_cell_volume 1813.746084
_symmetry_space_group_name_H-M "P C C A"
_symmetry_group_IT_number 54
_symmetry_cell_setting 'orthorhombic'
loop_
_space_group_symop_operation_xyz
x,y,z
1/2-x,-y,z
1/2+x,-y,1/2-z
-x,y,1/2-z
-x,-y,-z
1/2+x,y,-z
1/2-x,y,1/2+z
x,-y,1/2+z
loop_
_atom_site_type_symbol
_atom_site_label
_atom_site_fract_x
_atom_site_fract_y
_atom_site_fract_z
Si Si1 0.921475 0.683547 0.538338
Si Si2 0.088894 0.306436 0.029133
Si Si3 0.163784 0.994956 0.415055
Si Si4 0.581286 0.821989 0.246782
O O1 0.889041 0.510330 0.485043
O O2 0.871438 0.853629 0.510561
O O3 0.921908 0.661473 0.663202
O O4 0.003978 0.720516 0.500316
O O5 0.108767 0.249599 0.144719
O O6 0.136895 0.194861 0.950559
O O7 0.136858 0.029645 0.297458
O O8 0.250000 0.000000 0.421231
O O9 0.500000 0.905974 0.250000
#
# Coordination Sequence:
#
# PCOD8222390 Si02
#       4
#     8   8   8   8
#     4   8  19  35  56  84 105 144 190 227 271 324
#     4  10  17  37  60  76 114 145 184 234 271 327
#     4  10  21  35  55  84 118 143 181 231 285 330
#     4   8  18  35  54  82 108 138 191 227 263 340
#
# _framework density 17.643042000000001
#
# number of rings (size 3 to 8) (size 9 to 14) (size 15 to 20)
#    1.500    1.500    0.000    0.750    0.000    2.000 
#    4.500    1.250    5.500    0.000    0.000    0.000 
#    0.000    0.000    0.000    0.000    0.000    0.000 
#
# Total GULP energy -396429.085054 kJ/mol
# GULP energy per Si atom -12388.408908 kJ/mol
# Density = 1.760289 g / cm^3
# Si number density = 17.643042 Si / 1000 Ang^3
#
#
#
# Elastic Constant Matrix: (Units=GPa)
#
#
# Indices 1 2 3 4 5 6 
#
# 1 100.0463 44.0661 21.6672 0.0000 0.0000 0.0000
# 2 44.0661 75.2291 18.4802 0.0000 0.0000 0.0000
# 3 21.6672 18.4802 66.8010 0.0000 0.0000 0.0000
# 4 0.0000 0.0000 0.0000 27.2197 0.0000 0.0000
# 5 0.0000 0.0000 0.0000 0.0000 18.6202 0.0000
# 6 0.0000 0.0000 0.0000 0.0000 0.0000 17.0710
#
#
#
# Elastic Compliance Matrix: (Units=1/GPa)
#
#
# Indices 1 2 3 4 5 6 
#
# 1 0.013822 -0.007505 -0.002407 0.000000 0.000000 0.000000
# 2 -0.007505 0.018337 -0.002639 0.000000 0.000000 0.000000
# 3 -0.002407 -0.002639 0.016480 0.000000 0.000000 0.000000
# 4 0.000000 0.000000 0.000000 0.036738 0.000000 0.000000
# 5 0.000000 0.000000 0.000000 0.000000 0.053705 0.000000
# 6 0.000000 0.000000 0.000000 0.000000 0.000000 0.058579
#
#
# Mechanical properties :
#
#
# Convention : Reuss Voigt Hill
#
# Bulk Modulus (GPa) = 42.48384 45.61148 44.04766
# Shear Modulus (GPa) = 21.68160 23.10636 22.39398
#
# Velocity S-wave (km/s) = 3.50937 3.62285 3.56656
# Velocity P-wave (km/s) = 6.36811 6.58852 6.47925
#
# Compressibility (1/GPa) = 0.02353836
#
# Stress axis : x y z
#
# Youngs Moduli (GPa) = 72.34605 54.53395 60.67778
#
# Poissons Ratio (x) = 0.40930 0.14606
# Poissons Ratio (y) = 0.54298 0.16010
# Poissons Ratio (z) = 0.17414 0.14389
#
# Static dielectric constant tensor:
#      x y z
#    x 3.057150 0.000000 0.000000 
#    y 0.000000 3.081610 0.000000 
#    z 0.000000 0.000000 3.141060 
# 
# 
# High freq. dielectric constant tensor:
#      x y z
#    x 1.668130 0.000000 0.000000 
#    y 0.000000 1.664890 0.000000 
#    z 0.000000 0.000000 1.666570 
# 
# From -- ./inp_files/9317.got.cif
#   From: 2010.03.12/outbox.cif.g09.slc.cpg/sg54_5_cif.got.tgz:9317.got - 2010.04.16 15:00:50.
