data_PCOD8222477
_publ_section_title
;
Structure prediction by ZEFSAII (Michael W. Deem and Ramdas Pophale) SiO2 
 PCOD8222477
Probable space group: P C C A
;
_chemical_formula_sum "Si O2"
_cell_formula_units_Z 40
_cell_length_a 28.170448
_cell_length_b 7.428478
_cell_length_c 8.888150
_cell_angle_alpha 90.000000
_cell_angle_beta 90.000000
_cell_angle_gamma 90.000000
_cell_volume 1859.965851
_symmetry_space_group_name_H-M "P C C A"
_symmetry_group_IT_number 54
_symmetry_cell_setting 'orthorhombic'
loop_
_space_group_symop_operation_xyz
x,y,z
1/2-x,-y,z
1/2+x,-y,1/2-z
-x,y,1/2-z
-x,-y,-z
1/2+x,y,-z
1/2-x,y,1/2+z
x,-y,1/2+z
loop_
_atom_site_type_symbol
_atom_site_label
_atom_site_fract_x
_atom_site_fract_y
_atom_site_fract_z
Si Si1 0.082750 0.554419 0.426609
Si Si2 0.852541 0.600571 0.331929
Si Si3 0.950305 0.731770 0.782928
Si Si4 0.301994 0.921099 0.534938
Si Si5 0.153109 0.808388 0.734180
O O1 0.118202 0.665760 0.315813
O O2 0.113541 0.407845 0.521290
O O3 0.055091 0.687325 0.539366
O O4 0.045801 0.449278 0.319293
O O5 0.809804 0.739491 0.364998
O O6 0.833724 0.398607 0.300936
O O7 0.902993 0.834919 0.728025
O O8 0.000000 0.837822 0.750000
O O9 0.311956 0.880177 0.361835
O O10 0.250000 0.000000 0.557555
O O11 0.338506 0.074401 0.585742
#
# Coordination Sequence:
#
# PCOD8222477 Si02
#       5
#     8   8   8   8   8
#     4   8  17  33  63  94 127 175 206 274 313 382
#     4  10  19  42  66  94 129 174 210 268 339 368
#     4  10  18  35  62  97 132 175 219 263 329 392
#     4  12  25  44  69  94 127 175 225 269 332 392
#     4  10  25  42  65  98 133 172 211 283 318 391
#
# _framework density 21.505769000000001
#
# number of rings (size 3 to 8) (size 9 to 14) (size 15 to 20)
#    0.000    2.400    4.000    1.200    5.600    0.800 
#    0.000    3.000    0.000    0.000    0.000    0.000 
#    0.000    0.000    0.000    0.000    0.000    0.000 
#
# Total GULP energy -495591.777235 kJ/mol
# GULP energy per Si atom -12389.794431 kJ/mol
# Density = 2.145682 g / cm^3
# Si number density = 21.505769 Si / 1000 Ang^3
#
#
#
# Elastic Constant Matrix: (Units=GPa)
#
#
# Indices 1 2 3 4 5 6 
#
# 1 129.3005 45.3415 27.6101 0.0000 0.0000 0.0000
# 2 45.3415 85.6658 23.6052 0.0000 0.0000 0.0000
# 3 27.6101 23.6052 122.8087 0.0000 0.0000 0.0000
# 4 0.0000 0.0000 0.0000 26.0187 0.0000 0.0000
# 5 0.0000 0.0000 0.0000 0.0000 27.7832 0.0000
# 6 0.0000 0.0000 0.0000 0.0000 0.0000 22.9538
#
#
#
# Elastic Compliance Matrix: (Units=1/GPa)
#
#
# Indices 1 2 3 4 5 6 
#
# 1 0.009677 -0.004775 -0.001258 0.000000 0.000000 0.000000
# 2 -0.004775 0.014683 -0.001749 0.000000 0.000000 0.000000
# 3 -0.001258 -0.001749 0.008762 0.000000 0.000000 0.000000
# 4 0.000000 0.000000 0.000000 0.038434 0.000000 0.000000
# 5 0.000000 0.000000 0.000000 0.000000 0.035993 0.000000
# 6 0.000000 0.000000 0.000000 0.000000 0.000000 0.043566
#
#
# Mechanical properties :
#
#
# Convention : Reuss Voigt Hill
#
# Bulk Modulus (GPa) = 56.95413 58.98760 57.97087
# Shear Modulus (GPa) = 28.98051 31.43236 30.20644
#
# Velocity S-wave (km/s) = 3.67491 3.82721 3.75183
# Velocity P-wave (km/s) = 6.67437 6.85699 6.76630
#
# Compressibility (1/GPa) = 0.01755799
#
# Stress axis : x y z
#
# Youngs Moduli (GPa) = 103.33731 68.10786 114.13430
#
# Poissons Ratio (x) = 0.32524 0.14355
# Poissons Ratio (y) = 0.49347 0.19957
# Poissons Ratio (z) = 0.12997 0.11909
#
# Static dielectric constant tensor:
#      x y z
#    x 3.652680 0.000000 0.000000 
#    y 0.000000 3.583240 0.000000 
#    z 0.000000 0.000000 4.201290 
# 
# 
# High freq. dielectric constant tensor:
#      x y z
#    x 1.826100 0.000000 0.000000 
#    y 0.000000 1.807560 0.000000 
#    z 0.000000 0.000000 1.869800 
# 
# From -- ./inp_files/5738.got.cif
#   From: 2010.03.12/outbox.cif.g09.slc.cpg/sg54_3_cif.got.tgz:5738.got - 2010.04.16 15:00:50.
