data_PCOD8222044
_publ_section_title
;
Structure prediction by ZEFSAII (Michael W. Deem and Ramdas Pophale) SiO2 
 PCOD8222044
Probable space group: P M N A
;
_chemical_formula_sum "Si O2"
_cell_formula_units_Z 40
_cell_length_a 8.613095
_cell_length_b 25.972312
_cell_length_c 9.115424
_cell_angle_alpha 90.000000
_cell_angle_beta 90.000000
_cell_angle_gamma 90.000000
_cell_volume 2039.138494
_symmetry_space_group_name_H-M "P M N A"
_symmetry_group_IT_number 53
_symmetry_cell_setting 'orthorhombic'
loop_
_space_group_symop_operation_xyz
x,y,z
1/2-x,-y,1/2+z
x,-y,-z
1/2-x,y,1/2-z
-x,-y,-z
1/2+x,y,1/2-z
-x,y,z
1/2+x,-y,1/2+z
loop_
_atom_site_type_symbol
_atom_site_label
_atom_site_fract_x
_atom_site_fract_y
_atom_site_fract_z
Si Si1 0.679306 0.051549 0.908319
Si Si2 0.318396 0.547063 0.409484
Si Si3 0.182960 0.856607 0.910301
Si Si4 0.681854 0.658911 0.410621
Si Si5 0.182918 0.762654 0.413667
O O1 0.750000 0.040910 0.750000
O O2 0.500000 0.068248 0.895642
O O3 0.775303 0.096433 0.984618
O O4 0.698999 0.000000 0.000000
O O5 0.242702 0.500000 0.500000
O O6 0.250000 0.545133 0.250000
O O7 0.500000 0.538501 0.393918
O O8 0.285416 0.603090 0.486519
O O9 0.250000 0.867364 0.750000
O O10 0.000000 0.850951 0.899021
O O11 0.252730 0.804849 0.976391
O O12 0.750000 0.654042 0.250000
O O13 0.500000 0.671347 0.403807
O O14 0.768289 0.707402 0.485276
O O15 0.250000 0.769821 0.250000
O O16 0.000000 0.767461 0.404170
#
# Coordination Sequence:
#
# PCOD8222044 Si02
#       5
#     8   8   8   8   8
#     4  11  24  42  65  93 124 158 196 237 282 331
#     4   9  18  32  50  74 104 138 177 223 273 327
#     4  12  25  42  62  86 118 153 191 234 283 336
#     4   9  16  29  50  75 104 138 179 226 275 327
#     4  11  21  36  58  84 112 144 186 232 281 334
#
# _framework density 19.616126000000001
#
# number of rings (size 3 to 8) (size 9 to 14) (size 15 to 20)
#    0.000    1.600    0.000    7.200    0.000    4.400 
#    0.000    1.000    0.000    2.400    0.000    0.000 
#    0.000    0.000    0.000    0.000    0.000    0.000 
#
# Total GULP energy -495838.312016 kJ/mol
# GULP energy per Si atom -12395.957800 kJ/mol
# Density = 1.957148 g / cm^3
# Si number density = 19.616126 Si / 1000 Ang^3
#
#
#
# Elastic Constant Matrix: (Units=GPa)
#
#
# Indices 1 2 3 4 5 6 
#
# 1 140.1274 53.2825 37.6551 0.0000 0.0000 0.0000
# 2 53.2825 138.3052 41.7978 0.0000 0.0000 0.0000
# 3 37.6551 41.7978 86.8047 0.0000 0.0000 0.0000
# 4 0.0000 0.0000 0.0000 -65.3007 0.0000 0.0000
# 5 0.0000 0.0000 0.0000 0.0000 24.6925 0.0000
# 6 0.0000 0.0000 0.0000 0.0000 0.0000 72.4523
#
#
#
# Elastic Compliance Matrix: (Units=1/GPa)
#
#
# Indices 1 2 3 4 5 6 
#
# 1 0.008823 -0.002624 -0.002564 0.000000 0.000000 0.000000
# 2 -0.002624 0.009242 -0.003312 0.000000 0.000000 0.000000
# 3 -0.002564 -0.003312 0.014227 0.000000 0.000000 0.000000
# 4 0.000000 0.000000 0.000000 -0.015314 0.000000 0.000000
# 5 0.000000 0.000000 0.000000 0.000000 0.040498 0.000000
# 6 0.000000 0.000000 0.000000 0.000000 0.000000 0.013802
#
#
# Mechanical properties :
#
#
# Convention : Reuss Voigt Hill
#
# Bulk Modulus (GPa) = 65.39162 70.07867 67.73515
# Shear Modulus (GPa) = 53.54659 21.86893 37.70776
#
# Velocity S-wave (km/s) = 5.23034 3.34255 4.38914
# Velocity P-wave (km/s) = 8.35963 7.12035 7.76475
#
# Compressibility (1/GPa) = 0.01529248
#
# Stress axis : x y z
#
# Youngs Moduli (GPa) = 113.33770 108.19780 70.28901
#
# Poissons Ratio (x) = 0.28395 0.18020
# Poissons Ratio (y) = 0.29744 0.23279
# Poissons Ratio (z) = 0.29057 0.35834
#
# Static dielectric constant tensor:
#      x y z
#    x 3.760950 0.000000 0.000000 
#    y 0.000000 4.541660 0.000000 
#    z 0.000000 0.000000 3.518470 
# 
# 
# High freq. dielectric constant tensor:
#      x y z
#    x 1.779100 0.000000 0.000000 
#    y 0.000000 1.794600 0.000000 
#    z 0.000000 0.000000 1.733790 
# 
# From -- ./inp_files/6290.got.cif
#   From: 2010.03.12/outbox.cif.g09.slc.cpg/sg53_4_cif.got.tgz:6290.got - 2010.04.16 14:36:59.
