data_PCOD8222267
_publ_section_title
;
Structure prediction by ZEFSAII (Michael W. Deem and Ramdas Pophale) SiO2 
 PCOD8222267
Probable space group: P M N A
;
_chemical_formula_sum "Si O2"
_cell_formula_units_Z 48
_cell_length_a 9.000000
_cell_length_b 15.000000
_cell_length_c 18.000000
_cell_angle_alpha 90.000000
_cell_angle_beta 90.000000
_cell_angle_gamma 90.000000
_cell_volume 2430.000000
_symmetry_space_group_name_H-M "P M N A"
_symmetry_group_IT_number 53
_symmetry_cell_setting 'orthorhombic'
loop_
_space_group_symop_operation_xyz
x,y,z
1/2-x,-y,1/2+z
x,-y,-z
1/2-x,y,1/2-z
-x,-y,-z
1/2+x,y,1/2-z
-x,y,z
1/2+x,-y,1/2+z
loop_
_atom_site_type_symbol
_atom_site_label
_atom_site_fract_x
_atom_site_fract_y
_atom_site_fract_z
Si Si1 0.328185 0.780338 0.821515
Si Si2 0.175884 0.065229 0.103973
Si Si3 0.324677 0.877819 0.441730
Si Si4 0.328439 0.680418 0.426006
Si Si5 0.829049 0.480511 0.827348
Si Si6 0.672998 0.621663 0.929445
O O1 0.250000 0.736622 0.750000
O O2 0.500000 0.791166 0.804670
O O3 0.259263 0.878269 0.833656
O O4 0.295529 0.715633 0.890017
O O5 0.000000 0.075063 0.114684
O O6 0.228416 0.961267 0.109355
O O7 0.230048 0.105788 0.025441
O O8 0.500000 0.880758 0.441783
O O9 0.268141 0.781535 0.412031
O O10 0.500000 0.683183 0.452592
O O11 0.311634 0.623274 0.350771
O O12 0.231471 0.630434 0.487378
O O13 0.750000 0.497361 0.750000
O O14 0.759053 0.542089 0.890190
O O15 0.000000 0.507165 0.818045
O O16 0.500000 0.597362 0.930104
#
# Coordination Sequence:
#
# PCOD8222267 Si02
#       6
#     8   8   8   8   8   8
#     4  11  23  36  52  79 113 150 188 231 286 337
#     4   9  16  31  56  81 108 145 184 223 269 325
#     4   8  15  30  56  85 109 141 182 222 269 325
#     4  10  20  37  61  87 114 147 189 232 277 336
#     4  11  24  40  59  82 111 150 189 231 283 338
#     4  11  23  38  58  85 114 146 187 236 286 337
#
# _framework density 19.753086
#
# number of rings (size 3 to 8) (size 9 to 14) (size 15 to 20)
#    0.000    2.000    1.667    3.500    0.000    6.667 
#    0.000    3.333    0.000    2.000    0.000    0.000 
#    0.000    0.000    0.000    0.000    0.000    0.000 
#
# Total GULP energy -595109.924496 kJ/mol
# GULP energy per Si atom -12398.123427 kJ/mol
# Density = 1.970813 g / cm^3
# Si number density = 19.753086 Si / 1000 Ang^3
#
#
#
# Elastic Constant Matrix: (Units=GPa)
#
#
# Indices 1 2 3 4 5 6 
#
# 1 78.5283 39.2591 22.5161 0.0000 0.0000 0.0000
# 2 39.2591 120.6379 12.9187 0.0000 0.0000 0.0000
# 3 22.5161 12.9187 38.6390 0.0000 0.0000 0.0000
# 4 0.0000 0.0000 0.0000 9.7221 0.0000 0.0000
# 5 0.0000 0.0000 0.0000 0.0000 28.0896 0.0000
# 6 0.0000 0.0000 0.0000 0.0000 0.0000 11.7515
#
#
#
# Elastic Compliance Matrix: (Units=1/GPa)
#
#
# Indices 1 2 3 4 5 6 
#
# 1 0.017621 -0.004807 -0.008661 0.000000 0.000000 0.000000
# 2 -0.004807 0.009908 -0.000512 0.000000 0.000000 0.000000
# 3 -0.008661 -0.000512 0.031099 0.000000 0.000000 0.000000
# 4 0.000000 0.000000 0.000000 0.102858 0.000000 0.000000
# 5 0.000000 0.000000 0.000000 0.000000 0.035600 0.000000
# 6 0.000000 0.000000 0.000000 0.000000 0.000000 0.085096
#
#
# Mechanical properties :
#
#
# Convention : Reuss Voigt Hill
#
# Bulk Modulus (GPa) = 32.60653 43.02145 37.81399
# Shear Modulus (GPa) = 15.60724 20.78673 18.19698
#
# Velocity S-wave (km/s) = 2.81395 3.24748 3.03846
# Velocity P-wave (km/s) = 5.20583 5.99069 5.61200
#
# Compressibility (1/GPa) = 0.03066871
#
# Stress axis : x y z
#
# Youngs Moduli (GPa) = 56.75153 100.92504 32.15571
#
# Poissons Ratio (x) = 0.48513 0.27850
# Poissons Ratio (y) = 0.27279 0.01645
# Poissons Ratio (z) = 0.49152 0.05165
#
# Static dielectric constant tensor:
#      x y z
#    x 3.385710 0.000000 0.000000 
#    y 0.000000 4.211190 0.000000 
#    z 0.000000 0.000000 3.314350 
# 
# 
# High freq. dielectric constant tensor:
#      x y z
#    x 1.752850 0.000000 0.000000 
#    y 0.000000 1.788680 0.000000 
#    z 0.000000 0.000000 1.743440 
# 
# From -- ./inp_files/26158.got.cif
#   From: 2010.03.12/outbox.ucp.g09.slc.cvg/sg53_14_cif.got.tgz:26158.got - 2010.05.04 19:20:06.
