data_PCOD8222412
_publ_section_title
;
Structure prediction by ZEFSAII (Michael W. Deem and Ramdas Pophale) SiO2 
 PCOD8222412
Probable space group: P C C A
;
_chemical_formula_sum "Si O2"
_cell_formula_units_Z 48
_cell_length_a 12.060152
_cell_length_b 10.689138
_cell_length_c 18.625424
_cell_angle_alpha 90.000000
_cell_angle_beta 90.000000
_cell_angle_gamma 90.000000
_cell_volume 2401.052375
_symmetry_space_group_name_H-M "P C C A"
_symmetry_group_IT_number 54
_symmetry_cell_setting 'orthorhombic'
loop_
_space_group_symop_operation_xyz
x,y,z
1/2-x,-y,z
1/2+x,-y,1/2-z
-x,y,1/2-z
-x,-y,-z
1/2+x,y,-z
1/2-x,y,1/2+z
x,-y,1/2+z
loop_
_atom_site_type_symbol
_atom_site_label
_atom_site_fract_x
_atom_site_fract_y
_atom_site_fract_z
Si Si1 0.609745 0.846648 0.404339
Si Si2 0.141601 0.799345 0.901672
Si Si3 0.750000 0.000000 0.001771
Si Si4 0.855083 0.580415 0.946440
Si Si5 0.628913 0.740945 0.255683
Si Si6 0.750000 0.500000 0.719074
Si Si7 0.090069 0.478637 0.404288
O O1 0.479961 0.849550 0.418247
O O2 0.670909 0.725499 0.436690
O O3 0.640426 0.841982 0.319515
O O4 0.651177 0.968246 0.446638
O O5 0.226083 0.881283 0.947849
O O6 0.167018 0.811270 0.816738
O O7 0.150125 0.653417 0.923079
O O8 0.750000 0.500000 0.923052
O O9 0.957967 0.541687 0.894175
O O10 0.888386 0.568705 0.029344
O O11 0.500000 0.695693 0.250000
O O12 0.709066 0.618423 0.267196
O O13 0.855066 0.463815 0.667519
#
# Coordination Sequence:
#
# PCOD8222412 Si02
#       7
#     8   8   4   8   8   4   8
#     4  10  22  36  55  83 114 147 193 239 288 346
#     4   9  20  39  57  81 108 154 195 231 291 346
#     4  12  22  34  62  84 108 148 200 250 284 330
#     4  10  18  31  54  83 120 151 185 229 302 343
#     4   9  20  39  59  81 117 157 187 230 297 354
#     4  10  18  34  60  80 116 146 198 222 288 364
#     4   9  18  32  55  86 115 149 187 242 281 351
#
# _framework density 19.991233999999999
#
# number of rings (size 3 to 8) (size 9 to 14) (size 15 to 20)
#    0.000    2.333    0.833    2.500    3.500    0.667 
#    0.000    0.000    0.000    0.000    0.000    0.000 
#    0.000    0.000    0.000    0.000    0.000    0.000 
#
# Total GULP energy -594897.514573 kJ/mol
# GULP energy per Si atom -12393.698220 kJ/mol
# Density = 1.994573 g / cm^3
# Si number density = 19.991234 Si / 1000 Ang^3
#
#
#
# Elastic Constant Matrix: (Units=GPa)
#
#
# Indices 1 2 3 4 5 6 
#
# 1 62.5819 14.0612 3.5999 0.0000 0.0000 0.0000
# 2 14.0612 47.4069 22.8796 0.0000 0.0000 0.0000
# 3 3.5999 22.8796 83.1982 0.0000 0.0000 0.0000
# 4 0.0000 0.0000 0.0000 26.4403 0.0000 0.0000
# 5 0.0000 0.0000 0.0000 0.0000 30.1072 0.0000
# 6 0.0000 0.0000 0.0000 0.0000 0.0000 29.4903
#
#
#
# Elastic Compliance Matrix: (Units=1/GPa)
#
#
# Indices 1 2 3 4 5 6 
#
# 1 0.017161 -0.005456 0.000758 0.000000 0.000000 0.000000
# 2 -0.005456 0.026057 -0.006930 0.000000 0.000000 0.000000
# 3 0.000758 -0.006930 0.013892 0.000000 0.000000 0.000000
# 4 0.000000 0.000000 0.000000 0.037821 0.000000 0.000000
# 5 0.000000 0.000000 0.000000 0.000000 0.033215 0.000000
# 6 0.000000 0.000000 0.000000 0.000000 0.000000 0.033909
#
#
# Mechanical properties :
#
#
# Convention : Reuss Voigt Hill
#
# Bulk Modulus (GPa) = 29.53770 30.47427 30.00598
# Shear Modulus (GPa) = 25.43293 27.38399 26.40846
#
# Velocity S-wave (km/s) = 3.57067 3.70510 3.63850
# Velocity P-wave (km/s) = 5.63977 5.79487 5.71785
#
# Compressibility (1/GPa) = 0.03385504
#
# Stress axis : x y z
#
# Youngs Moduli (GPa) = 58.27052 38.37804 71.98221
#
# Poissons Ratio (x) = 0.20939 -0.05455
# Poissons Ratio (y) = 0.31792 0.49880
# Poissons Ratio (z) = -0.04416 0.26594
#
# Static dielectric constant tensor:
#      x y z
#    x 3.727260 0.000000 0.000000 
#    y 0.000000 3.349950 0.000000 
#    z 0.000000 0.000000 3.767100 
# 
# 
# High freq. dielectric constant tensor:
#      x y z
#    x 1.775400 0.000000 0.000000 
#    y 0.000000 1.745410 0.000000 
#    z 0.000000 0.000000 1.789220 
# 
# From -- ./inp_files/21131.got.cif
#   From: 2010.03.12/outbox.cif.g09.slc.cpg/sg54_11_cif.got.tgz:21131.got - 2010.04.16 15:00:50.
