data_PCOD8222385
_publ_section_title
;
Structure prediction by ZEFSAII (Michael W. Deem and Ramdas Pophale) SiO2 
 PCOD8222385
Probable space group: P C C A
;
_chemical_formula_sum "Si O2"
_cell_formula_units_Z 64
_cell_length_a 15.048018
_cell_length_b 12.353731
_cell_length_c 17.422655
_cell_angle_alpha 90.000000
_cell_angle_beta 90.000000
_cell_angle_gamma 90.000000
_cell_volume 3238.857042
_symmetry_space_group_name_H-M "P C C A"
_symmetry_group_IT_number 54
_symmetry_cell_setting 'orthorhombic'
loop_
_space_group_symop_operation_xyz
x,y,z
1/2-x,-y,z
1/2+x,-y,1/2-z
-x,y,1/2-z
-x,-y,-z
1/2+x,y,-z
1/2-x,y,1/2+z
x,-y,1/2+z
loop_
_atom_site_type_symbol
_atom_site_label
_atom_site_fract_x
_atom_site_fract_y
_atom_site_fract_z
Si Si1 0.747699 0.710452 0.816205
Si Si2 0.277992 0.122390 0.573264
Si Si3 0.667493 0.427473 0.946112
Si Si4 0.470608 0.877893 0.013432
Si Si5 0.139539 0.747607 0.975281
Si Si6 0.083308 0.381317 0.623453
Si Si7 0.267529 0.370936 0.843004
Si Si8 0.093369 0.302087 0.910406
O O1 0.750141 0.837317 0.840063
O O2 0.791359 0.665288 0.894089
O O3 0.646699 0.665429 0.809399
O O4 0.800270 0.672674 0.740366
O O5 0.384820 0.130459 0.567854
O O6 0.226689 0.185941 0.503792
O O7 0.250000 0.000000 0.565385
O O8 0.750000 0.500000 0.978514
O O9 0.601592 0.492225 0.889934
O O10 0.612867 0.375317 0.014852
O O11 0.557602 0.823059 0.051960
O O12 0.441965 0.817340 0.933933
O O13 0.500000 0.000000 0.000000
O O14 0.161274 0.664285 0.906448
O O15 0.102637 0.676374 0.043372
O O16 0.980514 0.361475 0.642667
O O17 0.250000 0.500000 0.842899
O O18 0.179910 0.298918 0.857973
#
# Coordination Sequence:
#
# PCOD8222385 Si02
#       8
#     8   8   8   8   8   8   8   8
#     4  10  22  39  56  82 126 165 204 242 304 375
#     4  11  20  40  66  88 118 162 207 264 317 353
#     4  10  17  33  56  81 115 158 199 248 308 362
#     4  11  21  37  64  97 118 149 203 270 318 356
#     4  10  21  36  61  96 119 150 207 255 307 369
#     4   9  19  33  56  84 113 154 203 253 295 359
#     4  12  23  39  60  88 128 170 198 242 309 380
#     4  11  20  33  59  89 117 150 205 261 299 361
#
# _framework density 19.760055999999999
#
# number of rings (size 3 to 8) (size 9 to 14) (size 15 to 20)
#    0.000    1.500    3.750    4.125    0.000    1.500 
#    0.000    2.500    0.000    0.000    0.000    0.000 
#    0.000    0.000    0.000    0.000    0.000    0.000 
#
# Total GULP energy -793040.187938 kJ/mol
# GULP energy per Si atom -12391.252937 kJ/mol
# Density = 1.971508 g / cm^3
# Si number density = 19.760056 Si / 1000 Ang^3
#
#
#
# Elastic Constant Matrix: (Units=GPa)
#
#
# Indices 1 2 3 4 5 6 
#
# 1 98.3475 26.8654 4.8685 0.0000 0.0000 0.0000
# 2 26.8654 87.9433 26.3803 0.0000 0.0000 0.0000
# 3 4.8685 26.3803 59.2929 0.0000 0.0000 0.0000
# 4 0.0000 0.0000 0.0000 20.0960 0.0000 0.0000
# 5 0.0000 0.0000 0.0000 0.0000 14.1151 0.0000
# 6 0.0000 0.0000 0.0000 0.0000 0.0000 34.8429
#
#
#
# Elastic Compliance Matrix: (Units=1/GPa)
#
#
# Indices 1 2 3 4 5 6 
#
# 1 0.011118 -0.003604 0.000690 0.000000 0.000000 0.000000
# 2 -0.003604 0.014290 -0.006062 0.000000 0.000000 0.000000
# 3 0.000690 -0.006062 0.019506 0.000000 0.000000 0.000000
# 4 0.000000 0.000000 0.000000 0.049761 0.000000 0.000000
# 5 0.000000 0.000000 0.000000 0.000000 0.070846 0.000000
# 6 0.000000 0.000000 0.000000 0.000000 0.000000 0.028700
#
#
# Mechanical properties :
#
#
# Convention : Reuss Voigt Hill
#
# Bulk Modulus (GPa) = 37.08674 40.20135 38.64404
# Shear Modulus (GPa) = 22.60803 26.30877 24.45840
#
# Velocity S-wave (km/s) = 3.38617 3.65281 3.52201
# Velocity P-wave (km/s) = 5.83930 6.17897 6.01153
#
# Compressibility (1/GPa) = 0.02696382
#
# Stress axis : x y z
#
# Youngs Moduli (GPa) = 89.94239 69.97795 51.26669
#
# Poissons Ratio (x) = 0.25217 -0.03539
# Poissons Ratio (y) = 0.32411 0.31078
# Poissons Ratio (z) = -0.06209 0.42421
#
# Static dielectric constant tensor:
#      x y z
#    x 4.222630 0.000000 0.000000 
#    y 0.000000 4.002860 0.000000 
#    z 0.000000 0.000000 3.251900 
# 
# 
# High freq. dielectric constant tensor:
#      x y z
#    x 1.780750 0.000000 0.000000 
#    y 0.000000 1.773590 0.000000 
#    z 0.000000 0.000000 1.730670 
# 
# From -- ./inp_files/18235.got.cif
#   From: 2010.03.12/outbox.cif.g09.slc.cpg/sg54_10_cif.got.tgz:18235.got - 2010.04.16 15:00:50.
