data_PCOD8222311
_publ_section_title
;
Structure prediction by ZEFSAII (Michael W. Deem and Ramdas Pophale) SiO2 
 PCOD8222311
Probable space group: P C C A
;
_chemical_formula_sum "Si O2"
_cell_formula_units_Z 64
_cell_length_a 17.601047
_cell_length_b 38.311797
_cell_length_c 5.129788
_cell_angle_alpha 90.000000
_cell_angle_beta 90.000000
_cell_angle_gamma 90.000000
_cell_volume 3459.158347
_symmetry_space_group_name_H-M "P C C A"
_symmetry_group_IT_number 54
_symmetry_cell_setting 'orthorhombic'
loop_
_space_group_symop_operation_xyz
x,y,z
1/2-x,-y,z
1/2+x,-y,1/2-z
-x,y,1/2-z
-x,-y,-z
1/2+x,y,-z
1/2-x,y,1/2+z
x,-y,1/2+z
loop_
_atom_site_type_symbol
_atom_site_label
_atom_site_fract_x
_atom_site_fract_y
_atom_site_fract_z
Si Si1 0.166028 0.484641 0.207238
Si Si2 0.411276 0.978001 0.741756
Si Si3 0.588562 0.701298 0.759232
Si Si4 0.796808 0.160395 0.793529
Si Si5 0.700597 0.405342 0.772444
Si Si6 0.301059 0.914594 0.801684
Si Si7 0.198972 0.235334 0.802560
Si Si8 0.088574 0.657206 0.740842
O O1 0.250000 0.500000 0.149434
O O2 0.122967 0.505187 0.439592
O O3 0.165669 0.443658 0.259763
O O4 0.500000 0.969228 0.750000
O O5 0.368053 0.941812 0.766006
O O6 0.387402 0.996091 0.472808
O O7 0.500000 0.710360 0.750000
O O8 0.632267 0.737324 0.733071
O O9 0.611966 0.675051 0.529617
O O10 0.611872 0.683498 0.029783
O O11 0.723326 0.160413 0.600247
O O12 0.839908 0.124060 0.727162
O O13 0.839992 0.196706 0.726873
O O14 0.765920 0.399602 0.559325
O O15 0.632791 0.378677 0.724232
O O16 0.235654 0.919548 0.585623
O O17 0.264482 0.240228 0.586800
O O18 0.000000 0.647952 0.750000
#
# Coordination Sequence:
#
# PCOD8222311 Si02
#       8
#     8   8   8   8   8   8   8   8
#     4  10  16  30  48  73 102 127 154 199 252 289
#     4  10  21  35  49  69 100 134 166 207 262 307
#     4  10  21  38  54  72 102 141 170 201 249 300
#     4   8  16  30  47  73 102 129 157 199 260 299
#     4  12  21  32  55  83  99 129 171 213 239 289
#     4  10  19  32  52  74  99 129 168 210 245 301
#     4  10  19  32  55  79 103 131 166 211 251 293
#     4  10  23  39  52  71 108 142 164 200 257 301
#
# _framework density 18.501611
#
# number of rings (size 3 to 8) (size 9 to 14) (size 15 to 20)
#    0.000    2.000    2.500    2.250    0.000    4.500 
#    0.000    0.625    0.000    0.750    0.000   15.750 
#    0.000    0.000    0.000    0.000    0.000    0.000 
#
# Total GULP energy -793332.448107 kJ/mol
# GULP energy per Si atom -12395.819502 kJ/mol
# Density = 1.845950 g / cm^3
# Si number density = 18.501611 Si / 1000 Ang^3
#
#
#
# Elastic Constant Matrix: (Units=GPa)
#
#
# Indices 1 2 3 4 5 6 
#
# 1 37.0439 57.5225 14.4633 0.0000 0.0000 0.0000
# 2 57.5225 143.9646 3.4572 0.0000 0.0000 0.0000
# 3 14.4633 3.4572 91.1877 0.0000 0.0000 0.0000
# 4 0.0000 0.0000 0.0000 24.4750 0.0000 0.0000
# 5 0.0000 0.0000 0.0000 0.0000 12.3492 0.0000
# 6 0.0000 0.0000 0.0000 0.0000 0.0000 3.5141
#
#
#
# Elastic Compliance Matrix: (Units=1/GPa)
#
#
# Indices 1 2 3 4 5 6 
#
# 1 0.082090 -0.032517 -0.011787 0.000000 0.000000 0.000000
# 2 -0.032517 0.019833 0.004406 0.000000 0.000000 0.000000
# 3 -0.011787 0.004406 0.012669 0.000000 0.000000 0.000000
# 4 0.000000 0.000000 0.000000 0.040858 0.000000 0.000000
# 5 0.000000 0.000000 0.000000 0.000000 0.080977 0.000000
# 6 0.000000 0.000000 0.000000 0.000000 0.000000 0.284565
#
#
# Mechanical properties :
#
#
# Convention : Reuss Voigt Hill
#
# Bulk Modulus (GPa) = 28.74032 47.00911 37.87472
# Shear Modulus (GPa) = 8.16478 21.18457 14.67467
#
# Velocity S-wave (km/s) = 2.10300 3.38747 2.81936
# Velocity P-wave (km/s) = 4.63298 6.38461 5.57798
#
# Compressibility (1/GPa) = 0.03479433
#
# Stress axis : x y z
#
# Youngs Moduli (GPa) = 12.18175 50.42161 78.93304
#
# Poissons Ratio (x) = 1.63955 0.93042
# Poissons Ratio (y) = 0.39611 -0.34774
# Poissons Ratio (z) = 0.14359 -0.22214
#
# Static dielectric constant tensor:
#      x y z
#    x 2.929900 0.000000 0.000000 
#    y 0.000000 3.616110 0.000000 
#    z 0.000000 0.000000 3.996900 
# 
# 
# High freq. dielectric constant tensor:
#      x y z
#    x 1.658040 0.000000 0.000000 
#    y 0.000000 1.736770 0.000000 
#    z 0.000000 0.000000 1.750140 
# 
# From -- ./inp_files/1097.got.cif
#   From: 2010.03.12/outbox.cif.g09.slc.cpg/sg54_1_cif.got.tgz:1097.got - 2010.04.16 15:00:50.
