data_PCOD8222843
_publ_section_title
;
Structure prediction by ZEFSAII (Michael W. Deem and Ramdas Pophale) SiO2 
 PCOD8222843
Probable space group: P C C A
;
_chemical_formula_sum "Si O2"
_cell_formula_units_Z 32
_cell_length_a 5.124937
_cell_length_b 10.350064
_cell_length_c 28.487540
_cell_angle_alpha 90.000000
_cell_angle_beta 90.000000
_cell_angle_gamma 90.000000
_cell_volume 1511.076718
_symmetry_space_group_name_H-M "P C C A"
_symmetry_group_IT_number 54
_symmetry_cell_setting 'orthorhombic'
loop_
_space_group_symop_operation_xyz
x,y,z
1/2-x,-y,z
1/2+x,-y,1/2-z
-x,y,1/2-z
-x,-y,-z
1/2+x,y,-z
1/2-x,y,1/2+z
x,-y,1/2+z
loop_
_atom_site_type_symbol
_atom_site_label
_atom_site_fract_x
_atom_site_fract_y
_atom_site_fract_z
Si Si1 0.821670 0.752915 0.371343
Si Si2 0.750000 0.500000 0.823887
Si Si3 0.500000 0.322781 0.750000
Si Si4 0.267912 0.648617 0.030282
Si Si5 0.302992 0.145642 0.821538
O O1 0.890071 0.605969 0.356059
O O2 0.760902 0.748026 0.426529
O O3 0.589090 0.824536 0.343221
O O4 0.088947 0.827027 0.361355
O O5 0.558382 0.418087 0.792183
O O6 0.276231 0.230253 0.773129
O O7 0.250000 0.500000 0.047380
O O8 0.548408 0.677845 0.008149
O O9 0.250000 0.000000 0.805613
#
# Coordination Sequence:
#
# PCOD8222843 Si02
#       5
#     8   4   4   8   8
#     4  11  22  40  64  90 127 159 199 258 307 374
#     4  10  20  36  58  94 118 156 192 248 326 364
#     4  10  22  38  62  88 124 158 204 262 300 368
#     4  10  20  36  61  96 128 156 193 247 314 382
#     4  11  25  41  62  87 120 171 214 252 295 355
#
# _framework density 21.176953999999999
#
# number of rings (size 3 to 8) (size 9 to 14) (size 15 to 20)
#    0.000    1.500    1.250    3.750    0.000   10.000 
#    0.000    0.000    0.000   15.000    0.000    0.000 
#    0.000    0.000    0.000    0.000    0.000    0.000 
#
# Total GULP energy -396482.510857 kJ/mol
# GULP energy per Si atom -12390.078464 kJ/mol
# Density = 2.112875 g / cm^3
# Si number density = 21.176954 Si / 1000 Ang^3
#
#
#
# Elastic Constant Matrix: (Units=GPa)
#
#
# Indices 1 2 3 4 5 6 
#
# 1 92.5803 25.4445 11.9160 0.0000 0.0000 0.0000
# 2 25.4445 118.0364 24.0340 0.0000 0.0000 0.0000
# 3 11.9160 24.0340 80.3516 0.0000 0.0000 0.0000
# 4 0.0000 0.0000 0.0000 -20.6555 0.0000 0.0000
# 5 0.0000 0.0000 0.0000 0.0000 19.3619 0.0000
# 6 0.0000 0.0000 0.0000 0.0000 0.0000 25.2553
#
#
#
# Elastic Compliance Matrix: (Units=1/GPa)
#
#
# Indices 1 2 3 4 5 6 
#
# 1 0.011561 -0.002282 -0.001032 0.000000 0.000000 0.000000
# 2 -0.002282 0.009472 -0.002495 0.000000 0.000000 0.000000
# 3 -0.001032 -0.002495 0.013345 0.000000 0.000000 0.000000
# 4 0.000000 0.000000 0.000000 -0.048413 0.000000 0.000000
# 5 0.000000 0.000000 0.000000 0.000000 0.051648 0.000000
# 6 0.000000 0.000000 0.000000 0.000000 0.000000 0.039596
#
#
# Mechanical properties :
#
#
# Convention : Reuss Voigt Hill
#
# Bulk Modulus (GPa) = 43.93606 45.97301 44.95454
# Shear Modulus (GPa) = 51.86051 20.09726 35.97888
#
# Velocity S-wave (km/s) = 4.95402 3.08395 4.12632
# Velocity P-wave (km/s) = 7.31541 5.86831 6.63145
#
# Compressibility (1/GPa) = 0.02276035
#
# Stress axis : x y z
#
# Youngs Moduli (GPa) = 86.49425 105.57583 74.93708
#
# Poissons Ratio (x) = 0.24094 0.07733
# Poissons Ratio (y) = 0.19739 0.18695
# Poissons Ratio (z) = 0.08926 0.26338
#
# Static dielectric constant tensor:
#      x y z
#    x 4.074770 0.000000 0.000000 
#    y 0.000000 4.083580 0.000000 
#    z 0.000000 0.000000 4.071610 
# 
# 
# High freq. dielectric constant tensor:
#      x y z
#    x 1.820570 0.000000 0.000000 
#    y 0.000000 1.823540 0.000000 
#    z 0.000000 0.000000 1.833510 
# 
# From -- ./inp_files/26882.got.cif
#   From: 2010.03.12/outbox.cif.g09.slc.cpg/sg54_14_cif.got.tgz:26882.got - 2010.04.16 15:00:50.
