data_PCOD8222058
_publ_section_title
;
Structure prediction by ZEFSAII (Michael W. Deem and Ramdas Pophale) SiO2 
 PCOD8222058
Probable space group: P M N A
;
_chemical_formula_sum "Si O2"
_cell_formula_units_Z 40
_cell_length_a 14.867469
_cell_length_b 9.858789
_cell_length_c 13.221359
_cell_angle_alpha 90.000000
_cell_angle_beta 90.000000
_cell_angle_gamma 90.000000
_cell_volume 1937.923866
_symmetry_space_group_name_H-M "P M N A"
_symmetry_group_IT_number 53
_symmetry_cell_setting 'orthorhombic'
loop_
_space_group_symop_operation_xyz
x,y,z
1/2-x,-y,1/2+z
x,-y,-z
1/2-x,y,1/2-z
-x,-y,-z
1/2+x,y,1/2-z
-x,y,z
1/2+x,-y,1/2+z
loop_
_atom_site_type_symbol
_atom_site_label
_atom_site_fract_x
_atom_site_fract_y
_atom_site_fract_z
Si Si1 0.649599 0.239002 0.232041
Si Si2 0.601821 0.494001 0.112308
Si Si3 0.500000 0.164078 0.618999
Si Si4 0.500000 0.156397 0.379991
Si Si5 0.102169 0.006642 0.611057
Si Si6 0.351698 0.254371 0.766196
O O1 0.750000 0.293696 0.250000
O O2 0.603679 0.341584 0.153777
O O3 0.589296 0.226351 0.333463
O O4 0.659452 0.091015 0.182619
O O5 0.500000 0.545938 0.103662
O O6 0.651002 0.592240 0.192353
O O7 0.646469 0.500000 0.000000
O O8 0.500000 0.184657 0.499000
O O9 0.410918 0.236882 0.664109
O O10 0.500000 0.004108 0.646937
O O11 0.000000 0.952092 0.609864
O O12 0.145079 0.000000 0.500000
O O13 0.104493 0.160607 0.648183
O O14 0.250000 0.206061 0.750000
#
# Coordination Sequence:
#
# PCOD8222058 Si02
#       6
#     8   8   4   4   8   8
#     4  12  23  42  64  95 128 169 212 263 316 382
#     4  11  23  42  68  91 124 162 206 266 330 378
#     4  11  24  43  64  93 133 175 211 257 318 381
#     4  11  24  43  64  93 133 175 211 257 318 381
#     4  11  21  38  66  95 126 160 212 268 320 372
#     4  12  23  42  64  95 128 169 212 263 316 382
#
# _framework density 20.640646
#
# number of rings (size 3 to 8) (size 9 to 14) (size 15 to 20)
#    0.000    0.600    6.000    2.400    0.000    6.400 
#    0.000    2.000    0.000    0.000    0.000    0.000 
#    0.000    0.000    0.000    0.000    0.000    0.000 
#
# Total GULP energy -496156.164075 kJ/mol
# GULP energy per Si atom -12403.904102 kJ/mol
# Density = 2.059367 g / cm^3
# Si number density = 20.640646 Si / 1000 Ang^3
#
#
#
# Elastic Constant Matrix: (Units=GPa)
#
#
# Indices 1 2 3 4 5 6 
#
# 1 116.0609 18.7491 52.6372 0.0000 0.0000 0.0000
# 2 18.7491 83.7323 38.4890 0.0000 0.0000 0.0000
# 3 52.6372 38.4890 146.0744 0.0000 0.0000 0.0000
# 4 0.0000 0.0000 0.0000 34.2947 0.0000 0.0000
# 5 0.0000 0.0000 0.0000 0.0000 12.4833 0.0000
# 6 0.0000 0.0000 0.0000 0.0000 0.0000 25.3544
#
#
#
# Elastic Compliance Matrix: (Units=1/GPa)
#
#
# Indices 1 2 3 4 5 6 
#
# 1 0.010334 -0.000685 -0.003543 0.000000 0.000000 0.000000
# 2 -0.000685 0.013634 -0.003346 0.000000 0.000000 0.000000
# 3 -0.003543 -0.003346 0.009004 0.000000 0.000000 0.000000
# 4 0.000000 0.000000 0.000000 0.029159 0.000000 0.000000
# 5 0.000000 0.000000 0.000000 0.000000 0.080107 0.000000
# 6 0.000000 0.000000 0.000000 0.000000 0.000000 0.039441
#
#
# Mechanical properties :
#
#
# Convention : Reuss Voigt Hill
#
# Bulk Modulus (GPa) = 56.10373 62.84647 59.47510
# Shear Modulus (GPa) = 24.65872 30.15930 27.40901
#
# Velocity S-wave (km/s) = 3.46015 3.82666 3.64801
# Velocity P-wave (km/s) = 6.57295 7.07379 6.82796
#
# Compressibility (1/GPa) = 0.01782413
#
# Stress axis : x y z
#
# Youngs Moduli (GPa) = 96.76970 73.34567 111.06050
#
# Poissons Ratio (x) = 0.05026 0.39351
# Poissons Ratio (y) = 0.06631 0.37155
# Poissons Ratio (z) = 0.34287 0.24538
#
# Static dielectric constant tensor:
#      x y z
#    x 3.547280 0.000000 0.000000 
#    y 0.000000 3.540520 0.000000 
#    z 0.000000 0.000000 3.772130 
# 
# 
# High freq. dielectric constant tensor:
#      x y z
#    x 1.798340 0.000000 0.000000 
#    y 0.000000 1.809160 0.000000 
#    z 0.000000 0.000000 1.810730 
# 
# From -- ./inp_files/22487.got.cif
#   From: 2010.03.12/outbox.cif.g09.slc.cpg/sg53_12_cif.got.tgz:22487.got - 2010.04.16 14:36:59.
