data_PCOD8222966
_publ_section_title
;
Structure prediction by ZEFSAII (Michael W. Deem and Ramdas Pophale) SiO2 
 PCOD8222966
Probable space group: P C C A
;
_chemical_formula_sum "Si O2"
_cell_formula_units_Z 64
_cell_length_a 14.312463
_cell_length_b 8.709278
_cell_length_c 22.240954
_cell_angle_alpha 90.000000
_cell_angle_beta 90.000000
_cell_angle_gamma 90.000000
_cell_volume 2772.362031
_symmetry_space_group_name_H-M "P C C A"
_symmetry_group_IT_number 54
_symmetry_cell_setting 'orthorhombic'
loop_
_space_group_symop_operation_xyz
x,y,z
1/2-x,-y,z
1/2+x,-y,1/2-z
-x,y,1/2-z
-x,-y,-z
1/2+x,y,-z
1/2-x,y,1/2+z
x,-y,1/2+z
loop_
_atom_site_type_symbol
_atom_site_label
_atom_site_fract_x
_atom_site_fract_y
_atom_site_fract_z
Si Si1 0.166077 0.594317 0.908994
Si Si2 0.405021 0.031091 0.468207
Si Si3 0.245998 0.682138 0.154895
Si Si4 0.948051 0.813564 0.310155
Si Si5 0.157697 0.909003 0.852195
Si Si6 0.905933 0.139536 0.275412
Si Si7 0.968822 0.676291 0.074259
Si Si8 0.171031 0.245715 0.528910
O O1 0.250000 0.500000 0.879858
O O2 0.154015 0.725652 0.859434
O O3 0.071249 0.495375 0.918640
O O4 0.205958 0.659073 0.971869
O O5 0.393683 0.217258 0.463348
O O6 0.500000 0.000000 0.500000
O O7 0.417864 0.968542 0.400146
O O8 0.329893 0.934299 0.507612
O O9 0.250000 0.500000 0.156472
O O10 0.154388 0.737726 0.189658
O O11 0.338587 0.748009 0.187491
O O12 0.240955 0.739483 0.085453
O O13 0.000000 0.765872 0.250000
O O14 0.016761 0.750979 0.360793
O O15 0.936462 0.997892 0.317912
O O16 0.141643 0.943341 0.782175
O O17 0.250000 0.000000 0.873022
O O18 0.000000 0.225588 0.250000
O O19 0.069844 0.679272 0.042881
#
# Coordination Sequence:
#
# PCOD8222966 Si02
#       8
#     8   8   8   8   8   8   8   8
#     4  11  23  38  60  91 128 170 213 270 339 407
#     4   9  18  37  63  92 124 166 220 270 330 411
#     4  11  24  42  66  97 133 174 225 289 353 420
#     4  10  22  42  66  94 131 177 227 286 346 415
#     4  11  23  41  63  91 128 172 221 274 336 409
#     4  11  25  45  69  95 129 178 233 289 350 418
#     4  10  20  38  63  92 126 169 220 278 341 405
#     4   9  21  41  61  88 127 170 214 270 342 413
#
# _framework density 23.08501
#
# number of rings (size 3 to 8) (size 9 to 14) (size 15 to 20)
#    0.000    1.750    0.000    4.125    0.000    5.000 
#    0.000   32.500    0.000    0.000    0.000    0.000 
#    0.000    0.000    0.000    0.000    0.000    0.000 
#
# Total GULP energy -792865.661179 kJ/mol
# GULP energy per Si atom -12388.525956 kJ/mol
# Density = 2.303247 g / cm^3
# Si number density = 23.085010 Si / 1000 Ang^3
#
#
#
# Elastic Constant Matrix: (Units=GPa)
#
#
# Indices 1 2 3 4 5 6 
#
# 1 96.1089 48.0716 33.9514 0.0000 0.0000 0.0000
# 2 48.0716 123.0783 34.5448 0.0000 0.0000 0.0000
# 3 33.9514 34.5448 106.6070 0.0000 0.0000 0.0000
# 4 0.0000 0.0000 0.0000 25.8243 0.0000 0.0000
# 5 0.0000 0.0000 0.0000 0.0000 36.1842 0.0000
# 6 0.0000 0.0000 0.0000 0.0000 0.0000 34.4846
#
#
#
# Elastic Compliance Matrix: (Units=1/GPa)
#
#
# Indices 1 2 3 4 5 6 
#
# 1 0.013696 -0.004538 -0.002891 0.000000 0.000000 0.000000
# 2 -0.004538 0.010441 -0.001938 0.000000 0.000000 0.000000
# 3 -0.002891 -0.001938 0.010929 0.000000 0.000000 0.000000
# 4 0.000000 0.000000 0.000000 0.038723 0.000000 0.000000
# 5 0.000000 0.000000 0.000000 0.000000 0.027636 0.000000
# 6 0.000000 0.000000 0.000000 0.000000 0.000000 0.028998
#
#
# Mechanical properties :
#
#
# Convention : Reuss Voigt Hill
#
# Bulk Modulus (GPa) = 61.23094 62.10328 61.66711
# Shear Modulus (GPa) = 32.34090 33.24706 32.79398
#
# Velocity S-wave (km/s) = 3.74698 3.79912 3.77314
# Velocity P-wave (km/s) = 6.73064 6.79741 6.76411
#
# Compressibility (1/GPa) = 0.01633161
#
# Stress axis : x y z
#
# Youngs Moduli (GPa) = 73.01417 95.77372 91.49867
#
# Poissons Ratio (x) = 0.43460 0.26456
# Poissons Ratio (y) = 0.33132 0.17734
# Poissons Ratio (z) = 0.21111 0.18563
#
# Static dielectric constant tensor:
#      x y z
#    x 4.311850 0.000000 0.000000 
#    y 0.000000 4.812400 0.000000 
#    z 0.000000 0.000000 4.452310 
# 
# 
# High freq. dielectric constant tensor:
#      x y z
#    x 1.911820 0.000000 0.000000 
#    y 0.000000 1.910000 0.000000 
#    z 0.000000 0.000000 1.917940 
# 
# From -- ./inp_files/24546.got.cif
#   From: 2010.03.12/outbox.cif.g09.slc.cpg/sg54_13_cif.got.tgz:24546.got - 2010.04.16 15:00:50.
