data_PCOD8222163
_publ_section_title
;
Structure prediction by ZEFSAII (Michael W. Deem and Ramdas Pophale) SiO2 
 PCOD8222163
Probable space group: P M N A
;
_chemical_formula_sum "Si O2"
_cell_formula_units_Z 40
_cell_length_a 8.461273
_cell_length_b 12.145685
_cell_length_c 18.653056
_cell_angle_alpha 90.000000
_cell_angle_beta 90.000000
_cell_angle_gamma 90.000000
_cell_volume 1916.936449
_symmetry_space_group_name_H-M "P M N A"
_symmetry_group_IT_number 53
_symmetry_cell_setting 'orthorhombic'
loop_
_space_group_symop_operation_xyz
x,y,z
1/2-x,-y,1/2+z
x,-y,-z
1/2-x,y,1/2-z
-x,-y,-z
1/2+x,y,1/2-z
-x,y,z
1/2+x,-y,1/2+z
loop_
_atom_site_type_symbol
_atom_site_label
_atom_site_fract_x
_atom_site_fract_y
_atom_site_fract_z
Si Si1 0.685802 0.975948 0.326661
Si Si2 0.815984 0.177802 0.407494
Si Si3 0.684394 0.384194 0.329269
Si Si4 0.316334 0.556881 0.073233
Si Si5 0.816700 0.794319 0.057458
O O1 0.750000 0.937276 0.250000
O O2 0.500000 0.996184 0.323870
O O3 0.732771 0.882266 0.382935
O O4 0.769240 0.089815 0.347468
O O5 0.775575 0.298904 0.379698
O O6 0.720232 0.152897 0.480187
O O7 0.000000 0.171150 0.424971
O O8 0.750000 0.376098 0.250000
O O9 0.500000 0.356938 0.329172
O O10 0.717462 0.505357 0.361043
O O11 0.500000 0.534235 0.086857
O O12 0.286828 0.686402 0.070204
O O13 0.258224 0.500000 0.000000
O O14 0.000000 0.763154 0.062527
#
# Coordination Sequence:
#
# PCOD8222163 Si02
#       5
#     8   8   8   8   8
#     4  11  25  44  65  93 129 169 214 263 320 382
#     4  12  24  41  66  96 129 167 214 266 322 381
#     4  12  25  42  66  95 131 170 214 266 323 382
#     4  11  23  41  66  96 130 168 213 263 317 380
#     4  11  24  42  67  96 128 170 217 265 319 382
#
# _framework density 20.866627999999999
#
# number of rings (size 3 to 8) (size 9 to 14) (size 15 to 20)
#    0.000    0.600    2.000    6.600    0.000    7.200 
#    0.000    2.000    0.000    0.000    0.000    0.000 
#    0.000    0.000    0.000    0.000    0.000    0.000 
#
# Total GULP energy -496411.485318 kJ/mol
# GULP energy per Si atom -12410.287133 kJ/mol
# Density = 2.081913 g / cm^3
# Si number density = 20.866628 Si / 1000 Ang^3
#
#
#
# Elastic Constant Matrix: (Units=GPa)
#
#
# Indices 1 2 3 4 5 6 
#
# 1 74.8362 23.2196 29.1594 0.0000 0.0000 0.0000
# 2 23.2196 82.3335 31.3642 0.0000 0.0000 0.0000
# 3 29.1594 31.3642 138.5045 0.0000 0.0000 0.0000
# 4 0.0000 0.0000 0.0000 27.1774 0.0000 0.0000
# 5 0.0000 0.0000 0.0000 0.0000 36.8238 0.0000
# 6 0.0000 0.0000 0.0000 0.0000 0.0000 18.8254
#
#
#
# Elastic Compliance Matrix: (Units=1/GPa)
#
#
# Indices 1 2 3 4 5 6 
#
# 1 0.015378 -0.003397 -0.002468 0.000000 0.000000 0.000000
# 2 -0.003397 0.014043 -0.002465 0.000000 0.000000 0.000000
# 3 -0.002468 -0.002465 0.008298 0.000000 0.000000 0.000000
# 4 0.000000 0.000000 0.000000 0.036795 0.000000 0.000000
# 5 0.000000 0.000000 0.000000 0.000000 0.027156 0.000000
# 6 0.000000 0.000000 0.000000 0.000000 0.000000 0.053120
#
#
# Mechanical properties :
#
#
# Convention : Reuss Voigt Hill
#
# Bulk Modulus (GPa) = 47.48596 51.46230 49.47413
# Shear Modulus (GPa) = 28.01602 30.69406 29.35504
#
# Velocity S-wave (km/s) = 3.66816 3.83948 3.75479
# Velocity P-wave (km/s) = 6.38332 6.66119 6.52374
#
# Compressibility (1/GPa) = 0.02105885
#
# Stress axis : x y z
#
# Youngs Moduli (GPa) = 65.02710 71.21188 120.51365
#
# Poissons Ratio (x) = 0.24188 0.29748
# Poissons Ratio (y) = 0.22087 0.29705
# Poissons Ratio (z) = 0.16051 0.17553
#
# Static dielectric constant tensor:
#      x y z
#    x 3.780280 0.000000 0.000000 
#    y 0.000000 3.737790 0.000000 
#    z 0.000000 0.000000 3.857420 
# 
# 
# High freq. dielectric constant tensor:
#      x y z
#    x 1.829800 0.000000 0.000000 
#    y 0.000000 1.821960 0.000000 
#    z 0.000000 0.000000 1.826770 
# 
# From -- ./inp_files/25824.got.cif
#   From: 2010.03.12/outbox.cif.g09.slc.cpg/sg53_13_cif.got.tgz:25824.got - 2010.04.16 14:36:59.
