data_PCOD8222346
_publ_section_title
;
Structure prediction by ZEFSAII (Michael W. Deem and Ramdas Pophale) SiO2 
 PCOD8222346
Probable space group: P C C A
;
_chemical_formula_sum "Si O2"
_cell_formula_units_Z 48
_cell_length_a 18.693485
_cell_length_b 10.662567
_cell_length_c 12.532724
_cell_angle_alpha 90.000000
_cell_angle_beta 90.000000
_cell_angle_gamma 90.000000
_cell_volume 2498.029269
_symmetry_space_group_name_H-M "P C C A"
_symmetry_group_IT_number 54
_symmetry_cell_setting 'orthorhombic'
loop_
_space_group_symop_operation_xyz
x,y,z
1/2-x,-y,z
1/2+x,-y,1/2-z
-x,y,1/2-z
-x,-y,-z
1/2+x,y,-z
1/2-x,y,1/2+z
x,-y,1/2+z
loop_
_atom_site_type_symbol
_atom_site_label
_atom_site_fract_x
_atom_site_fract_y
_atom_site_fract_z
Si Si1 0.155707 0.186885 0.306824
Si Si2 0.000000 0.512720 0.250000
Si Si3 0.750000 0.000000 0.820375
Si Si4 0.891798 0.398569 0.901739
Si Si5 0.632482 0.316058 0.901991
Si Si6 0.525272 0.708793 0.094628
Si Si7 0.725081 0.776853 0.966915
O O1 0.187044 0.060196 0.253145
O O2 0.160838 0.299663 0.220137
O O3 0.072036 0.183819 0.344116
O O4 0.201078 0.217717 0.411238
O O5 0.933835 0.599478 0.288719
O O6 0.971863 0.424126 0.155624
O O7 0.711282 0.902144 0.898911
O O8 0.877723 0.541057 0.937289
O O9 0.815064 0.331222 0.898857
O O10 0.942109 0.319063 0.979848
O O11 0.556545 0.243272 0.914801
O O12 0.690717 0.252312 0.977929
#
# Coordination Sequence:
#
# PCOD8222346 Si02
#       7
#     8   4   4   8   8   8   8
#     4  10  19  37  63  80 106 161 191 235 297 342
#     4  10  16  32  56  82 122 150 174 230 282 354
#     4  10  22  40  58  78 112 152 202 248 290 334
#     4  10  20  34  55  89 120 148 183 232 286 354
#     4  10  18  36  57  90 115 146 187 232 291 359
#     4  10  18  34  60  86 113 155 188 225 286 354
#     4  10  22  37  58  82 116 148 197 245 288 343
#
# _framework density 19.215147999999999
#
# number of rings (size 3 to 8) (size 9 to 14) (size 15 to 20)
#    0.000    2.000    3.333    3.000    0.000    0.000 
#   12.000    3.333    7.333   14.000    0.000    0.000 
#    0.000    0.000    0.000    0.000    0.000    0.000 
#
# Total GULP energy -594672.274915 kJ/mol
# GULP energy per Si atom -12389.005727 kJ/mol
# Density = 1.917141 g / cm^3
# Si number density = 19.215148 Si / 1000 Ang^3
#
#
#
# Elastic Constant Matrix: (Units=GPa)
#
#
# Indices 1 2 3 4 5 6 
#
# 1 144.4170 43.6819 48.3450 0.0000 0.0000 0.0000
# 2 43.6819 61.3201 12.1652 0.0000 0.0000 0.0000
# 3 48.3450 12.1652 57.2723 0.0000 0.0000 0.0000
# 4 0.0000 0.0000 0.0000 29.4314 0.0000 0.0000
# 5 0.0000 0.0000 0.0000 0.0000 29.2518 0.0000
# 6 0.0000 0.0000 0.0000 0.0000 0.0000 26.2836
#
#
#
# Elastic Compliance Matrix: (Units=1/GPa)
#
#
# Indices 1 2 3 4 5 6 
#
# 1 0.011820 -0.006724 -0.008550 0.000000 0.000000 0.000000
# 2 -0.006724 0.020850 0.001247 0.000000 0.000000 0.000000
# 3 -0.008550 0.001247 0.024412 0.000000 0.000000 0.000000
# 4 0.000000 0.000000 0.000000 0.033977 0.000000 0.000000
# 5 0.000000 0.000000 0.000000 0.000000 0.034186 0.000000
# 6 0.000000 0.000000 0.000000 0.000000 0.000000 0.038047
#
#
# Mechanical properties :
#
#
# Convention : Reuss Voigt Hill
#
# Bulk Modulus (GPa) = 34.44696 52.37709 43.41203
# Shear Modulus (GPa) = 24.87282 27.58118 26.22700
#
# Velocity S-wave (km/s) = 3.60173 3.79276 3.69848
# Velocity P-wave (km/s) = 5.93823 6.81890 6.39375
#
# Compressibility (1/GPa) = 0.02903014
#
# Stress axis : x y z
#
# Youngs Moduli (GPa) = 84.60030 47.96061 40.96278
#
# Poissons Ratio (x) = 0.32249 0.35021
# Poissons Ratio (y) = 0.56887 -0.05109
# Poissons Ratio (z) = 0.72329 -0.05982
#
# Static dielectric constant tensor:
#      x y z
#    x 3.964610 0.000000 0.000000 
#    y 0.000000 3.276270 0.000000 
#    z 0.000000 0.000000 3.545130 
# 
# 
# High freq. dielectric constant tensor:
#      x y z
#    x 1.761450 0.000000 0.000000 
#    y 0.000000 1.709030 0.000000 
#    z 0.000000 0.000000 1.748660 
# 
# From -- ./inp_files/8982.got.cif
#   From: 2010.03.12/outbox.cif.g09.slc.cpg/sg54_5_cif.got.tgz:8982.got - 2010.04.16 15:00:50.
