data_PCOD8222539
_publ_section_title
;
Structure prediction by ZEFSAII (Michael W. Deem and Ramdas Pophale) SiO2 
 PCOD8222539
Probable space group: P C C A
;
_chemical_formula_sum "Si O2"
_cell_formula_units_Z 56
_cell_length_a 18.569644
_cell_length_b 16.089024
_cell_length_c 9.696466
_cell_angle_alpha 90.000000
_cell_angle_beta 90.000000
_cell_angle_gamma 90.000000
_cell_volume 2896.988401
_symmetry_space_group_name_H-M "P C C A"
_symmetry_group_IT_number 54
_symmetry_cell_setting 'orthorhombic'
loop_
_space_group_symop_operation_xyz
x,y,z
1/2-x,-y,z
1/2+x,-y,1/2-z
-x,y,1/2-z
-x,-y,-z
1/2+x,y,-z
1/2-x,y,1/2+z
x,-y,1/2+z
loop_
_atom_site_type_symbol
_atom_site_label
_atom_site_fract_x
_atom_site_fract_y
_atom_site_fract_z
Si Si1 0.358564 0.904292 0.177685
Si Si2 0.167020 0.026480 0.899610
Si Si3 0.828647 0.538645 0.509618
Si Si4 0.282444 0.820225 0.761339
Si Si5 0.913829 0.553529 0.779774
Si Si6 0.185338 0.731187 0.983995
Si Si7 0.082280 0.737650 0.749027
O O1 0.275936 0.877996 0.186925
O O2 0.403152 0.819135 0.157267
O O3 0.378119 0.957321 0.314792
O O4 0.370133 0.965327 0.048509
O O5 0.160037 0.117033 0.827952
O O6 0.250000 0.000000 0.916417
O O7 0.750000 0.500000 0.497044
O O8 0.866522 0.520050 0.653773
O O9 0.888242 0.503698 0.404347
O O10 0.812587 0.634626 0.485874
O O11 0.317717 0.770166 0.635952
O O12 0.250618 0.761177 0.883086
O O13 0.887950 0.649554 0.809785
O O14 0.000000 0.544690 0.750000
O O15 0.112381 0.755003 0.902693
O O16 0.000000 0.721047 0.750000
#
# Coordination Sequence:
#
# PCOD8222539 Si02
#       7
#     8   8   8   8   8   8   8
#     4  10  20  32  55  83 109 150 189 239 290 348
#     4  10  19  31  53  84 117 145 187 238 293 362
#     4  11  24  36  60  96 125 151 201 268 313 352
#     4  10  19  34  55  84 118 148 189 233 303 359
#     4  10  22  43  64  84 120 172 211 243 306 387
#     4  10  22  35  59  86 119 153 188 245 304 362
#     4   9  21  41  61  79 112 162 202 236 293 365
#
# _framework density 19.33042
#
# number of rings (size 3 to 8) (size 9 to 14) (size 15 to 20)
#    0.000    2.000    1.429    2.143   12.000    0.000 
#    0.000    0.714    0.000    0.000    0.000    0.000 
#    0.000    0.000    0.000    0.000    0.000    0.000 
#
# Total GULP energy -693770.673373 kJ/mol
# GULP energy per Si atom -12388.762025 kJ/mol
# Density = 1.928642 g / cm^3
# Si number density = 19.330420 Si / 1000 Ang^3
#
#
#
# Elastic Constant Matrix: (Units=GPa)
#
#
# Indices 1 2 3 4 5 6 
#
# 1 52.6270 23.2413 11.1730 0.0000 0.0000 0.0000
# 2 23.2413 117.1408 50.3075 0.0000 0.0000 0.0000
# 3 11.1730 50.3075 93.2568 0.0000 0.0000 0.0000
# 4 0.0000 0.0000 0.0000 40.2676 0.0000 0.0000
# 5 0.0000 0.0000 0.0000 0.0000 18.1905 0.0000
# 6 0.0000 0.0000 0.0000 0.0000 0.0000 18.3407
#
#
#
# Elastic Compliance Matrix: (Units=1/GPa)
#
#
# Indices 1 2 3 4 5 6 
#
# 1 0.020835 -0.003985 -0.000347 0.000000 0.000000 0.000000
# 2 -0.003985 0.011873 -0.005927 0.000000 0.000000 0.000000
# 3 -0.000347 -0.005927 0.013962 0.000000 0.000000 0.000000
# 4 0.000000 0.000000 0.000000 0.024834 0.000000 0.000000
# 5 0.000000 0.000000 0.000000 0.000000 0.054974 0.000000
# 6 0.000000 0.000000 0.000000 0.000000 0.000000 0.054523
#
#
# Mechanical properties :
#
#
# Convention : Reuss Voigt Hill
#
# Bulk Modulus (GPa) = 38.23752 48.05202 43.14477
# Shear Modulus (GPa) = 23.78273 27.24663 25.51468
#
# Velocity S-wave (km/s) = 3.51141 3.75843 3.63702
# Velocity P-wave (km/s) = 6.02195 6.61412 6.32497
#
# Compressibility (1/GPa) = 0.02615233
#
# Stress axis : x y z
#
# Youngs Moduli (GPa) = 47.99601 84.22479 71.62206
#
# Poissons Ratio (x) = 0.33563 0.02482
# Poissons Ratio (y) = 0.19126 0.42454
# Poissons Ratio (z) = 0.01663 0.49924
#
# Static dielectric constant tensor:
#      x y z
#    x 3.199930 0.000000 0.000000 
#    y 0.000000 4.042210 0.000000 
#    z 0.000000 0.000000 3.594020 
# 
# 
# High freq. dielectric constant tensor:
#      x y z
#    x 1.708190 0.000000 0.000000 
#    y 0.000000 1.774370 0.000000 
#    z 0.000000 0.000000 1.753980 
# 
# From -- ./inp_files/4803.got.cif
#   From: 2010.03.12/outbox.cif.g09.slc.cpg/sg54_3_cif.got.tgz:4803.got - 2010.04.16 15:00:50.
