data_PCOD8222201
_publ_section_title
;
Structure prediction by ZEFSAII (Michael W. Deem and Ramdas Pophale) SiO2 
 PCOD8222201
Probable space group: P M N A
;
_chemical_formula_sum "Si O2"
_cell_formula_units_Z 32
_cell_length_a 9.991627
_cell_length_b 12.814093
_cell_length_c 11.950216
_cell_angle_alpha 90.000000
_cell_angle_beta 90.000000
_cell_angle_gamma 90.000000
_cell_volume 1530.029625
_symmetry_space_group_name_H-M "P M N A"
_symmetry_group_IT_number 53
_symmetry_cell_setting 'orthorhombic'
loop_
_space_group_symop_operation_xyz
x,y,z
1/2-x,-y,1/2+z
x,-y,-z
1/2-x,y,1/2-z
-x,-y,-z
1/2+x,y,1/2-z
-x,y,z
1/2+x,-y,1/2+z
loop_
_atom_site_type_symbol
_atom_site_label
_atom_site_fract_x
_atom_site_fract_y
_atom_site_fract_z
Si Si1 0.000000 0.879813 0.486681
Si Si2 0.500000 0.941726 0.384464
Si Si3 0.750000 0.281435 0.250000
Si Si4 0.344513 0.380448 0.028515
Si Si5 0.500000 0.148870 0.246837
Si Si6 0.245868 0.212777 0.875447
O O1 0.000000 0.832643 0.612387
O O2 0.125753 0.850857 0.412647
O O3 0.000000 0.000000 0.500000
O O4 0.374142 0.867161 0.382862
O O5 0.500000 0.000000 0.500000
O O6 0.500000 0.026941 0.283494
O O7 0.808315 0.358535 0.343414
O O8 0.632177 0.205575 0.296114
O O9 0.500000 0.348347 0.003151
O O10 0.321019 0.500000 0.000000
O O11 0.239789 0.314834 0.953659
O O12 0.250000 0.255920 0.750000
#
# Coordination Sequence:
#
# PCOD8222201 Si02
#       6
#     4   4   4   8   4   8
#     4  12  24  44  66  95 136 197 232 267 350 427
#     4  12  28  40  64 106 145 180 228 294 339 410
#     4  12  22  48  72 108 134 184 238 290 342 422
#     4  11  25  48  75 101 138 188 233 291 360 419
#     4  12  26  44  72  99 146 187 234 285 350 426
#     4  12  24  45  65 102 138 180 230 285 346 411
#
# _framework density 20.914628
#
# number of rings (size 3 to 8) (size 9 to 14) (size 15 to 20)
#    0.000    0.250    5.000    4.500    7.000    0.000 
#    0.000    2.500    0.000    0.000    0.000    0.000 
#    0.000    0.000    0.000    0.000    0.000    0.000 
#
# Total GULP energy -396769.191793 kJ/mol
# GULP energy per Si atom -12399.037244 kJ/mol
# Density = 2.086703 g / cm^3
# Si number density = 20.914628 Si / 1000 Ang^3
#
#
#
# Elastic Constant Matrix: (Units=GPa)
#
#
# Indices 1 2 3 4 5 6 
#
# 1 142.3307 69.3501 33.0087 0.0000 0.0000 0.0000
# 2 69.3501 157.9716 56.9313 0.0000 0.0000 0.0000
# 3 33.0087 56.9313 126.2218 0.0000 0.0000 0.0000
# 4 0.0000 0.0000 0.0000 41.6776 0.0000 0.0000
# 5 0.0000 0.0000 0.0000 0.0000 37.6418 0.0000
# 6 0.0000 0.0000 0.0000 0.0000 0.0000 36.2655
#
#
#
# Elastic Compliance Matrix: (Units=1/GPa)
#
#
# Indices 1 2 3 4 5 6 
#
# 1 0.008987 -0.003700 -0.000681 0.000000 0.000000 0.000000
# 2 -0.003700 0.009082 -0.003129 0.000000 0.000000 0.000000
# 3 -0.000681 -0.003129 0.009512 0.000000 0.000000 0.000000
# 4 0.000000 0.000000 0.000000 0.023994 0.000000 0.000000
# 5 0.000000 0.000000 0.000000 0.000000 0.026566 0.000000
# 6 0.000000 0.000000 0.000000 0.000000 0.000000 0.027574
#
#
# Mechanical properties :
#
#
# Convention : Reuss Voigt Hill
#
# Bulk Modulus (GPa) = 79.61273 82.78936 81.20104
# Shear Modulus (GPa) = 40.02515 40.93258 40.47886
#
# Velocity S-wave (km/s) = 4.37938 4.42874 4.40413
# Velocity P-wave (km/s) = 7.98249 8.11308 8.04805
#
# Compressibility (1/GPa) = 0.01256081
#
# Stress axis : x y z
#
# Youngs Moduli (GPa) = 111.27800 110.10827 105.13004
#
# Poissons Ratio (x) = 0.40735 0.07164
# Poissons Ratio (y) = 0.41167 0.32894
# Poissons Ratio (z) = 0.07583 0.34452
#
# Static dielectric constant tensor:
#      x y z
#    x 3.950290 0.000000 0.000000 
#    y 0.000000 4.026970 0.000000 
#    z 0.000000 0.000000 3.804830 
# 
# 
# High freq. dielectric constant tensor:
#      x y z
#    x 1.823510 0.000000 0.000000 
#    y 0.000000 1.831200 0.000000 
#    z 0.000000 0.000000 1.829300 
# 
# From -- ./inp_files/13830.got.cif
#   From: 2010.03.12/outbox.cif.g09.slc.cpg/sg53_7_cif.got.tgz:13830.got - 2010.04.16 14:36:59.
