data_PCOD8222992
_publ_section_title
;
Structure prediction by ZEFSAII (Michael W. Deem and Ramdas Pophale) SiO2 
 PCOD8222992
Probable space group: P C C A
;
_chemical_formula_sum "Si O2"
_cell_formula_units_Z 40
_cell_length_a 14.875379
_cell_length_b 7.603254
_cell_length_c 15.137036
_cell_angle_alpha 90.000000
_cell_angle_beta 90.000000
_cell_angle_gamma 90.000000
_cell_volume 1712.018221
_symmetry_space_group_name_H-M "P C C A"
_symmetry_group_IT_number 54
_symmetry_cell_setting 'orthorhombic'
loop_
_space_group_symop_operation_xyz
x,y,z
1/2-x,-y,z
1/2+x,-y,1/2-z
-x,y,1/2-z
-x,-y,-z
1/2+x,y,-z
1/2-x,y,1/2+z
x,-y,1/2+z
loop_
_atom_site_type_symbol
_atom_site_label
_atom_site_fract_x
_atom_site_fract_y
_atom_site_fract_z
Si Si1 0.980501 0.792055 0.000547
Si Si2 0.243329 0.209521 0.738822
Si Si3 0.569297 0.151180 0.178678
Si Si4 0.219202 0.691222 0.543272
Si Si5 0.149290 0.807083 0.903334
O O1 0.061945 0.703988 0.943811
O O2 0.982723 0.732803 0.104167
O O3 0.886337 0.733145 0.959324
O O4 0.000000 0.000000 0.000000
O O5 0.143707 0.266069 0.770886
O O6 0.255936 0.299036 0.645475
O O7 0.313495 0.282270 0.812978
O O8 0.250000 0.000000 0.727296
O O9 0.500000 0.070774 0.250000
O O10 0.622259 0.003824 0.123620
O O11 0.250000 0.500000 0.508274
O O12 0.274323 0.823113 0.479446
#
# Coordination Sequence:
#
# PCOD8222992 Si02
#       5
#     8   8   8   8   8
#     4  10  23  39  72  99 134 177 241 294 357 425
#     4  10  23  38  70  99 135 177 241 300 360 427
#     4  10  20  38  67 110 130 171 236 303 354 420
#     4  12  27  45  67 101 146 194 234 295 376 446
#     4  10  23  41  67  97 139 180 233 297 364 425
#
# _framework density 23.364239000000001
#
# number of rings (size 3 to 8) (size 9 to 14) (size 15 to 20)
#    0.000    1.600    2.000    1.200   19.600    1.600 
#    0.000    0.000    4.400    0.000    0.000    0.000 
#    0.000    0.000    0.000    0.000    0.000    0.000 
#
# Total GULP energy -495528.392753 kJ/mol
# GULP energy per Si atom -12388.209819 kJ/mol
# Density = 2.331106 g / cm^3
# Si number density = 23.364239 Si / 1000 Ang^3
#
#
#
# Elastic Constant Matrix: (Units=GPa)
#
#
# Indices 1 2 3 4 5 6 
#
# 1 171.9247 32.9206 78.0828 0.0000 0.0000 0.0000
# 2 32.9206 45.4503 17.7759 0.0000 0.0000 0.0000
# 3 78.0828 17.7759 201.2177 0.0000 0.0000 0.0000
# 4 0.0000 0.0000 0.0000 9.2309 0.0000 0.0000
# 5 0.0000 0.0000 0.0000 0.0000 63.6422 0.0000
# 6 0.0000 0.0000 0.0000 0.0000 0.0000 15.1769
#
#
#
# Elastic Compliance Matrix: (Units=1/GPa)
#
#
# Indices 1 2 3 4 5 6 
#
# 1 0.007924 -0.004700 -0.002660 0.000000 0.000000 0.000000
# 2 -0.004700 0.025577 -0.000436 0.000000 0.000000 0.000000
# 3 -0.002660 -0.000436 0.006040 0.000000 0.000000 0.000000
# 4 0.000000 0.000000 0.000000 0.108332 0.000000 0.000000
# 5 0.000000 0.000000 0.000000 0.000000 0.015713 0.000000
# 6 0.000000 0.000000 0.000000 0.000000 0.000000 0.065890
#
#
# Mechanical properties :
#
#
# Convention : Reuss Voigt Hill
#
# Bulk Modulus (GPa) = 41.75220 75.12793 58.44006
# Shear Modulus (GPa) = 19.75897 36.93090 28.34493
#
# Velocity S-wave (km/s) = 2.91123 3.98006 3.48685
# Velocity P-wave (km/s) = 5.40456 7.30384 6.42477
#
# Compressibility (1/GPa) = 0.02395083
#
# Stress axis : x y z
#
# Youngs Moduli (GPa) = 126.19198 39.09839 165.55119
#
# Poissons Ratio (x) = 0.18374 0.44035
# Poissons Ratio (y) = 0.59304 0.07215
# Poissons Ratio (z) = 0.33566 0.01704
#
# Static dielectric constant tensor:
#      x y z
#    x 5.176600 0.000000 0.000000 
#    y 0.000000 3.578470 0.000000 
#    z 0.000000 0.000000 4.963840 
# 
# 
# High freq. dielectric constant tensor:
#      x y z
#    x 1.943820 0.000000 0.000000 
#    y 0.000000 1.858670 0.000000 
#    z 0.000000 0.000000 1.952410 
# 
# From -- ./inp_files/13247.got.cif
#   From: 2010.03.12/outbox.cif.g09.slc.cpg/sg54_7_cif.got.tgz:13247.got - 2010.04.16 15:00:50.
