data_PCOD8222533
_publ_section_title
;
Structure prediction by ZEFSAII (Michael W. Deem and Ramdas Pophale) SiO2 
 PCOD8222533
Probable space group: P C C A
;
_chemical_formula_sum "Si O2"
_cell_formula_units_Z 48
_cell_length_a 5.111230
_cell_length_b 30.656925
_cell_length_c 16.074973
_cell_angle_alpha 90.000000
_cell_angle_beta 90.000000
_cell_angle_gamma 90.000000
_cell_volume 2518.861380
_symmetry_space_group_name_H-M "P C C A"
_symmetry_group_IT_number 54
_symmetry_cell_setting 'orthorhombic'
loop_
_space_group_symop_operation_xyz
x,y,z
1/2-x,-y,z
1/2+x,-y,1/2-z
-x,y,1/2-z
-x,-y,-z
1/2+x,y,-z
1/2-x,y,1/2+z
x,-y,1/2+z
loop_
_atom_site_type_symbol
_atom_site_label
_atom_site_fract_x
_atom_site_fract_y
_atom_site_fract_z
Si Si1 0.750220 0.953979 0.807572
Si Si2 0.697714 0.209886 0.948032
Si Si3 0.741899 0.449438 0.946779
Si Si4 0.249853 0.859814 0.692452
Si Si5 0.238763 0.690399 0.554439
Si Si6 0.250619 0.619837 0.193093
O O1 0.500000 0.953857 0.750000
O O2 0.754652 0.907375 0.855878
O O3 0.000000 0.954964 0.750000
O O4 0.750000 0.000000 0.861295
O O5 0.764077 0.178262 0.873414
O O6 0.726022 0.259435 0.916643
O O7 0.403724 0.200819 0.978314
O O8 0.750000 0.500000 0.921875
O O9 0.791746 0.422687 0.863276
O O10 0.462638 0.437176 0.985874
O O11 0.500000 0.855854 0.750000
O O12 0.000000 0.853735 0.750000
O O13 0.514747 0.679164 0.512187
O O14 0.202201 0.662211 0.636796
O O15 0.500000 0.611834 0.250000
O O16 0.000000 0.627628 0.250000
#
# Coordination Sequence:
#
# PCOD8222533 Si02
#       6
#     8   8   8   8   8   8
#     4   8  14  25  42  66  94 124 161 202 244 294
#     4  10  21  36  54  75 102 137 171 209 258 309
#     4  10  21  39  61  81 107 148 187 212 247 311
#     4  10  19  31  51  76 100 129 167 213 256 298
#     4  10  21  39  58  74 101 143 181 207 247 316
#     4  12  24  36  56  86 114 137 169 223 274 300
#
# _framework density 19.056228999999998
#
# number of rings (size 3 to 8) (size 9 to 14) (size 15 to 20)
#    0.000    2.000    0.000    4.000    0.000    2.000 
#    0.000    0.000    0.000    1.000    0.000    0.000 
#    0.000    0.000    0.000    0.000    0.000    0.000 
#
# Total GULP energy -594946.658200 kJ/mol
# GULP energy per Si atom -12394.722046 kJ/mol
# Density = 1.901286 g / cm^3
# Si number density = 19.056229 Si / 1000 Ang^3
#
#
#
# Elastic Constant Matrix: (Units=GPa)
#
#
# Indices 1 2 3 4 5 6 
#
# 1 100.0249 22.1133 8.5286 0.0000 0.0000 0.0000
# 2 22.1133 132.5486 63.3498 0.0000 0.0000 0.0000
# 3 8.5286 63.3498 69.2765 0.0000 0.0000 0.0000
# 4 0.0000 0.0000 0.0000 -14.3632 0.0000 0.0000
# 5 0.0000 0.0000 0.0000 0.0000 19.1549 0.0000
# 6 0.0000 0.0000 0.0000 0.0000 0.0000 22.7325
#
#
#
# Elastic Compliance Matrix: (Units=1/GPa)
#
#
# Indices 1 2 3 4 5 6 
#
# 1 0.010392 -0.001994 0.000544 0.000000 0.000000 0.000000
# 2 -0.001994 0.013784 -0.012359 0.000000 0.000000 0.000000
# 3 0.000544 -0.012359 0.025670 0.000000 0.000000 0.000000
# 4 0.000000 0.000000 0.000000 -0.069622 0.000000 0.000000
# 5 0.000000 0.000000 0.000000 0.000000 0.052206 0.000000
# 6 0.000000 0.000000 0.000000 0.000000 0.000000 0.043990
#
#
# Mechanical properties :
#
#
# Convention : Reuss Voigt Hill
#
# Bulk Modulus (GPa) = 44.98953 54.42592 49.70773
# Shear Modulus (GPa) = 44.86447 19.36205 32.11326
#
# Velocity S-wave (km/s) = 4.85740 3.19101 4.10955
# Velocity P-wave (km/s) = 7.42423 6.49611 6.97562
#
# Compressibility (1/GPa) = 0.02222739
#
# Stress axis : x y z
#
# Youngs Moduli (GPa) = 96.22895 72.54826 38.95617
#
# Poissons Ratio (x) = 0.14463 -0.02118
# Poissons Ratio (y) = 0.19183 0.48147
# Poissons Ratio (z) = -0.05231 0.89664
#
# Static dielectric constant tensor:
#      x y z
#    x 3.784520 0.000000 0.000000 
#    y 0.000000 4.113140 0.000000 
#    z 0.000000 0.000000 3.051200 
# 
# 
# High freq. dielectric constant tensor:
#      x y z
#    x 1.770140 0.000000 0.000000 
#    y 0.000000 1.768180 0.000000 
#    z 0.000000 0.000000 1.695440 
# 
# From -- ./inp_files/10906.got.cif
#   From: 2010.03.12/outbox.cif.g09.slc.cpg/sg54_6_cif.got.tgz:10906.got - 2010.04.16 15:00:50.
