data_PCOD8222168
_publ_section_title
;
Structure prediction by ZEFSAII (Michael W. Deem and Ramdas Pophale) SiO2 
 PCOD8222168
Probable space group: P M N A
;
_chemical_formula_sum "Si O2"
_cell_formula_units_Z 40
_cell_length_a 22.368786
_cell_length_b 8.523760
_cell_length_c 9.593597
_cell_angle_alpha 90.000000
_cell_angle_beta 90.000000
_cell_angle_gamma 90.000000
_cell_volume 1829.174333
_symmetry_space_group_name_H-M "P M N A"
_symmetry_group_IT_number 53
_symmetry_cell_setting 'orthorhombic'
loop_
_space_group_symop_operation_xyz
x,y,z
1/2-x,-y,1/2+z
x,-y,-z
1/2-x,y,1/2-z
-x,-y,-z
1/2+x,y,1/2-z
-x,y,z
1/2+x,-y,1/2+z
loop_
_atom_site_type_symbol
_atom_site_label
_atom_site_fract_x
_atom_site_fract_y
_atom_site_fract_z
Si Si1 0.636132 0.819389 0.526226
Si Si2 0.256876 0.342647 0.083003
Si Si3 0.070046 0.680199 0.225443
Si Si4 0.567407 0.319747 0.238335
Si Si5 0.625310 0.182916 0.989565
O O1 0.697343 0.724469 0.512906
O O2 0.585865 0.747813 0.425373
O O3 0.610103 0.800785 0.680938
O O4 0.649562 0.000000 0.500000
O O5 0.250000 0.369202 0.250000
O O6 0.273529 0.500000 0.000000
O O7 0.309124 0.219329 0.049737
O O8 0.085967 0.497102 0.227917
O O9 0.114799 0.766923 0.330783
O O10 0.000000 0.710278 0.258078
O O11 0.500000 0.288587 0.283672
O O12 0.576232 0.282456 0.075788
O O13 0.612626 0.000000 0.000000
#
# Coordination Sequence:
#
# PCOD8222168 Si02
#       5
#     8   8   8   8   8
#     4  12  26  44  69 102 140 177 224 286 344 400
#     4  12  27  48  74 102 134 179 230 280 336 409
#     4  11  25  44  71 102 137 183 231 275 334 407
#     4  11  23  44  69  98 137 183 231 279 332 405
#     4  12  26  44  69 102 140 177 224 286 344 400
#
# _framework density 21.867788000000001
#
# number of rings (size 3 to 8) (size 9 to 14) (size 15 to 20)
#    0.000    0.400    2.000    6.600    2.800    8.000 
#    0.000    0.000    0.000    0.000    0.000    0.000 
#    0.000    0.000    0.000    0.000    0.000    0.000 
#
# Total GULP energy -496253.964792 kJ/mol
# GULP energy per Si atom -12406.349120 kJ/mol
# Density = 2.181802 g / cm^3
# Si number density = 21.867788 Si / 1000 Ang^3
#
#
#
# Elastic Constant Matrix: (Units=GPa)
#
#
# Indices 1 2 3 4 5 6 
#
# 1 93.5474 32.0421 31.8301 0.0000 0.0000 0.0000
# 2 32.0421 86.9647 20.0973 0.0000 0.0000 0.0000
# 3 31.8301 20.0973 83.7687 0.0000 0.0000 0.0000
# 4 0.0000 0.0000 0.0000 37.8033 0.0000 0.0000
# 5 0.0000 0.0000 0.0000 0.0000 41.3799 0.0000
# 6 0.0000 0.0000 0.0000 0.0000 0.0000 2.6465
#
#
#
# Elastic Compliance Matrix: (Units=1/GPa)
#
#
# Indices 1 2 3 4 5 6 
#
# 1 0.013477 -0.004004 -0.004160 0.000000 0.000000 0.000000
# 2 -0.004004 0.013364 -0.001685 0.000000 0.000000 0.000000
# 3 -0.004160 -0.001685 0.013923 0.000000 0.000000 0.000000
# 4 0.000000 0.000000 0.000000 0.026453 0.000000 0.000000
# 5 0.000000 0.000000 0.000000 0.000000 0.024166 0.000000
# 6 0.000000 0.000000 0.000000 0.000000 0.000000 0.377854
#
#
# Mechanical properties :
#
#
# Convention : Reuss Voigt Hill
#
# Bulk Modulus (GPa) = 47.47210 48.02442 47.74826
# Shear Modulus (GPa) = 10.08154 28.38669 19.23412
#
# Velocity S-wave (km/s) = 2.14947 3.60683 2.96896
# Velocity P-wave (km/s) = 5.28357 6.27332 5.79960
#
# Compressibility (1/GPa) = 0.02106500
#
# Stress axis : x y z
#
# Youngs Moduli (GPa) = 74.20165 74.83043 71.82576
#
# Poissons Ratio (x) = 0.29963 0.29881
# Poissons Ratio (y) = 0.29711 0.12100
# Poissons Ratio (z) = 0.30869 0.12606
#
# Static dielectric constant tensor:
#      x y z
#    x 3.911800 0.000000 0.000000 
#    y 0.000000 3.878810 0.000000 
#    z 0.000000 0.000000 4.027440 
# 
# 
# High freq. dielectric constant tensor:
#      x y z
#    x 1.869950 0.000000 0.000000 
#    y 0.000000 1.864650 0.000000 
#    z 0.000000 0.000000 1.872890 
# 
# From -- ./inp_files/11583.got.cif
#   From: 2010.03.12/outbox.cif.g09.slc.cpg/sg53_6_cif.got.tgz:11583.got - 2010.04.16 14:36:59.
