data_PCOD8222061
_publ_section_title
;
Structure prediction by ZEFSAII (Michael W. Deem and Ramdas Pophale) SiO2 
 PCOD8222061
Probable space group: P M N A
;
_chemical_formula_sum "Si O2"
_cell_formula_units_Z 56
_cell_length_a 20.247492
_cell_length_b 13.766593
_cell_length_c 9.451335
_cell_angle_alpha 90.000000
_cell_angle_beta 90.000000
_cell_angle_gamma 90.000000
_cell_volume 2634.455493
_symmetry_space_group_name_H-M "P M N A"
_symmetry_group_IT_number 53
_symmetry_cell_setting 'orthorhombic'
loop_
_space_group_symop_operation_xyz
x,y,z
1/2-x,-y,1/2+z
x,-y,-z
1/2-x,y,1/2-z
-x,-y,-z
1/2+x,y,1/2-z
-x,y,z
1/2+x,-y,1/2+z
loop_
_atom_site_type_symbol
_atom_site_label
_atom_site_fract_x
_atom_site_fract_y
_atom_site_fract_z
Si Si1 0.217194 0.594148 0.906093
Si Si2 0.073737 0.013152 0.654705
Si Si3 0.713256 0.886662 0.484059
Si Si4 0.873279 0.826971 0.776651
Si Si5 0.681418 0.249249 0.999201
Si Si6 0.383609 0.209835 0.727827
Si Si7 0.073099 0.321176 0.037360
O O1 0.250000 0.580132 0.750000
O O2 0.257475 0.677737 0.986188
O O3 0.137264 0.616142 0.908615
O O4 0.229375 0.500000 0.000000
O O5 0.070911 0.123228 0.711850
O O6 0.000000 0.972547 0.646004
O O7 0.106276 0.000000 0.500000
O O8 0.111690 0.940094 0.757522
O O9 0.692007 0.828167 0.626101
O O10 0.790137 0.859497 0.467617
O O11 0.676129 0.845274 0.348213
O O12 0.702547 0.000000 0.500000
O O13 0.863224 0.759807 0.638628
O O14 0.931205 0.774832 0.865030
O O15 0.639027 0.276640 0.860795
O O16 0.420201 0.285339 0.624866
O O17 0.000000 0.373488 0.050410
#
# Coordination Sequence:
#
# PCOD8222061 Si02
#       7
#     8   8   8   8   8   8   8
#     4  12  27  48  79 107 131 169 218 279 347 419
#     4  11  22  36  53  87 132 185 239 277 324 386
#     4  11  22  32  56  91 129 170 220 277 334 382
#     4  11  21  39  61  89 130 179 226 275 323 389
#     4  12  23  41  63  95 133 167 227 274 333 400
#     4  11  23  37  61  93 132 179 229 280 324 388
#     4  11  25  46  69  98 136 179 223 275 339 405
#
# _framework density 21.256764
#
# number of rings (size 3 to 8) (size 9 to 14) (size 15 to 20)
#    0.000    0.714    7.143    1.714    4.000    1.429 
#    0.000    2.143    0.000    0.429    0.000    0.000 
#    0.000    0.000    0.000    0.000    0.000    0.000 
#
# Total GULP energy -693811.149001 kJ/mol
# GULP energy per Si atom -12389.484804 kJ/mol
# Density = 2.120838 g / cm^3
# Si number density = 21.256764 Si / 1000 Ang^3
#
#
#
# Elastic Constant Matrix: (Units=GPa)
#
#
# Indices 1 2 3 4 5 6 
#
# 1 104.1607 31.1486 47.2615 0.0000 0.0000 0.0000
# 2 31.1486 71.9584 34.5362 0.0000 0.0000 0.0000
# 3 47.2615 34.5362 147.1323 0.0000 0.0000 0.0000
# 4 0.0000 0.0000 0.0000 32.6116 0.0000 0.0000
# 5 0.0000 0.0000 0.0000 0.0000 19.4462 0.0000
# 6 0.0000 0.0000 0.0000 0.0000 0.0000 12.2080
#
#
#
# Elastic Compliance Matrix: (Units=1/GPa)
#
#
# Indices 1 2 3 4 5 6 
#
# 1 0.012095 -0.003799 -0.002993 0.000000 0.000000 0.000000
# 2 -0.003799 0.016854 -0.002736 0.000000 0.000000 0.000000
# 3 -0.002993 -0.002736 0.008400 0.000000 0.000000 0.000000
# 4 0.000000 0.000000 0.000000 0.030664 0.000000 0.000000
# 5 0.000000 0.000000 0.000000 0.000000 0.051424 0.000000
# 6 0.000000 0.000000 0.000000 0.000000 0.000000 0.081913
#
#
# Mechanical properties :
#
#
# Convention : Reuss Voigt Hill
#
# Bulk Modulus (GPa) = 54.66500 61.01601 57.84051
# Shear Modulus (GPa) = 22.07460 26.87349 24.47405
#
# Velocity S-wave (km/s) = 3.22603 3.55946 3.39684
# Velocity P-wave (km/s) = 6.29672 6.75719 6.53102
#
# Compressibility (1/GPa) = 0.01829324
#
# Stress axis : x y z
#
# Youngs Moduli (GPa) = 82.68042 59.33154 119.04276
#
# Poissons Ratio (x) = 0.22539 0.35634
# Poissons Ratio (y) = 0.31409 0.32570
# Poissons Ratio (z) = 0.24749 0.16233
#
# Static dielectric constant tensor:
#      x y z
#    x 3.697310 0.000000 0.000000 
#    y 0.000000 3.621680 0.000000 
#    z 0.000000 0.000000 4.088020 
# 
# 
# High freq. dielectric constant tensor:
#      x y z
#    x 1.825710 0.000000 0.000000 
#    y 0.000000 1.803900 0.000000 
#    z 0.000000 0.000000 1.851160 
# 
# From -- ./inp_files/11079.got.cif
#   From: 2010.03.12/outbox.cif.g09.slc.cpg/sg53_6_cif.got.tgz:11079.got - 2010.04.16 14:36:59.
