data_PCOD8222356
_publ_section_title
;
Structure prediction by ZEFSAII (Michael W. Deem and Ramdas Pophale) SiO2 
 PCOD8222356
Probable space group: P C C A
;
_chemical_formula_sum "Si O2"
_cell_formula_units_Z 48
_cell_length_a 13.188602
_cell_length_b 10.457929
_cell_length_c 17.389345
_cell_angle_alpha 90.000000
_cell_angle_beta 90.000000
_cell_angle_gamma 90.000000
_cell_volume 2398.433466
_symmetry_space_group_name_H-M "P C C A"
_symmetry_group_IT_number 54
_symmetry_cell_setting 'orthorhombic'
loop_
_space_group_symop_operation_xyz
x,y,z
1/2-x,-y,z
1/2+x,-y,1/2-z
-x,y,1/2-z
-x,-y,-z
1/2+x,y,-z
1/2-x,y,1/2+z
x,-y,1/2+z
loop_
_atom_site_type_symbol
_atom_site_label
_atom_site_fract_x
_atom_site_fract_y
_atom_site_fract_z
Si Si1 0.247625 0.258279 0.470373
Si Si2 0.000000 0.746952 0.750000
Si Si3 0.657575 0.584431 0.169434
Si Si4 0.750000 0.000000 0.604206
Si Si5 0.565082 0.828691 0.948842
Si Si6 0.062437 0.408248 0.945921
Si Si7 0.969791 0.933613 0.618219
O O1 0.187409 0.314857 0.396986
O O2 0.178349 0.232110 0.546029
O O3 0.335681 0.360073 0.490292
O O4 0.289479 0.118319 0.447679
O O5 0.900327 0.659479 0.737102
O O6 0.977348 0.835777 0.823579
O O7 0.750000 0.500000 0.203801
O O8 0.582121 0.482426 0.132318
O O9 0.645462 0.034192 0.649843
O O10 0.495400 0.716337 0.918386
O O11 0.546182 0.945041 0.889436
O O12 0.538401 0.868507 0.035553
O O13 0.000000 0.500000 0.000000
#
# Coordination Sequence:
#
# PCOD8222356 Si02
#       7
#     8   4   8   4   8   8   8
#     4  10  19  34  59  91 119 159 205 248 308 377
#     4  12  20  42  66  82 122 170 214 260 310 382
#     4  10  22  37  62  89 116 170 216 247 305 386
#     4  10  16  34  58  90 110 158 206 256 286 382
#     4  10  19  36  58  95 119 154 202 262 311 370
#     4  11  19  33  61  89 122 154 202 259 302 374
#     4  10  21  34  65  89 121 156 209 256 317 365
#
# _framework density 20.013062000000001
#
# number of rings (size 3 to 8) (size 9 to 14) (size 15 to 20)
#    0.000    1.667    6.667    0.000    0.000    0.000 
#    0.000    0.833   14.667    0.000    0.000    0.000 
#    0.000    0.000    0.000    0.000    0.000    0.000 
#
# Total GULP energy -594653.936556 kJ/mol
# GULP energy per Si atom -12388.623678 kJ/mol
# Density = 1.996751 g / cm^3
# Si number density = 20.013062 Si / 1000 Ang^3
#
#
#
# Elastic Constant Matrix: (Units=GPa)
#
#
# Indices 1 2 3 4 5 6 
#
# 1 124.9255 67.4186 45.4074 0.0000 0.0000 0.0000
# 2 67.4186 143.9629 46.0725 0.0000 0.0000 0.0000
# 3 45.4074 46.0725 55.2547 0.0000 0.0000 0.0000
# 4 0.0000 0.0000 0.0000 39.1258 0.0000 0.0000
# 5 0.0000 0.0000 0.0000 0.0000 25.1083 0.0000
# 6 0.0000 0.0000 0.0000 0.0000 0.0000 51.5237
#
#
#
# Elastic Compliance Matrix: (Units=1/GPa)
#
#
# Indices 1 2 3 4 5 6 
#
# 1 0.012605 -0.003530 -0.007415 0.000000 0.000000 0.000000
# 2 -0.003530 0.010463 -0.005823 0.000000 0.000000 0.000000
# 3 -0.007415 -0.005823 0.029047 0.000000 0.000000 0.000000
# 4 0.000000 0.000000 0.000000 0.025559 0.000000 0.000000
# 5 0.000000 0.000000 0.000000 0.000000 0.039827 0.000000
# 6 0.000000 0.000000 0.000000 0.000000 0.000000 0.019409
#
#
# Mechanical properties :
#
#
# Convention : Reuss Voigt Hill
#
# Bulk Modulus (GPa) = 53.82650 71.32670 62.57660
# Shear Modulus (GPa) = 28.30615 34.16787 31.23701
#
# Velocity S-wave (km/s) = 3.76491 4.13641 3.95502
# Velocity P-wave (km/s) = 6.77152 7.65053 7.22440
#
# Compressibility (1/GPa) = 0.01857821
#
# Stress axis : x y z
#
# Youngs Moduli (GPa) = 79.33342 95.57513 34.42637
#
# Poissons Ratio (x) = 0.33737 0.25528
# Poissons Ratio (y) = 0.28004 0.20048
# Poissons Ratio (z) = 0.58828 0.55658
#
# Static dielectric constant tensor:
#      x y z
#    x 4.008330 0.000000 0.000000 
#    y 0.000000 4.208250 0.000000 
#    z 0.000000 0.000000 3.049920 
# 
# 
# High freq. dielectric constant tensor:
#      x y z
#    x 1.785300 0.000000 0.000000 
#    y 0.000000 1.818520 0.000000 
#    z 0.000000 0.000000 1.707100 
# 
# From -- ./inp_files/17346.got.cif
#   From: 2010.03.12/outbox.cif.g09.slc.cpg/sg54_9_cif.got.tgz:17346.got - 2010.04.16 15:00:50.
