data_PCOD8222591
_publ_section_title
;
Structure prediction by ZEFSAII (Michael W. Deem and Ramdas Pophale) SiO2 
 PCOD8222591
Probable space group: P C C A
;
_chemical_formula_sum "Si O2"
_cell_formula_units_Z 64
_cell_length_a 17.823767
_cell_length_b 11.479753
_cell_length_c 16.416034
_cell_angle_alpha 90.000000
_cell_angle_beta 90.000000
_cell_angle_gamma 90.000000
_cell_volume 3358.924816
_symmetry_space_group_name_H-M "P C C A"
_symmetry_group_IT_number 54
_symmetry_cell_setting 'orthorhombic'
loop_
_space_group_symop_operation_xyz
x,y,z
1/2-x,-y,z
1/2+x,-y,1/2-z
-x,y,1/2-z
-x,-y,-z
1/2+x,y,-z
1/2-x,y,1/2+z
x,-y,1/2+z
loop_
_atom_site_type_symbol
_atom_site_label
_atom_site_fract_x
_atom_site_fract_y
_atom_site_fract_z
Si Si1 0.825091 0.727288 0.734982
Si Si2 0.545624 0.058419 0.170977
Si Si3 0.918128 0.823135 0.589164
Si Si4 0.543277 0.694804 0.333223
Si Si5 0.010144 0.472534 0.907857
Si Si6 0.933573 0.227978 0.906647
Si Si7 0.840134 0.237194 0.749776
Si Si8 0.169083 0.514119 0.332934
O O1 0.858167 0.760690 0.646890
O O2 0.875625 0.752881 0.815204
O O3 0.747695 0.796236 0.747540
O O4 0.822815 0.586470 0.735230
O O5 0.500000 0.010077 0.250000
O O6 0.487040 0.120535 0.112329
O O7 0.611869 0.145021 0.198279
O O8 0.581892 0.957501 0.116299
O O9 0.897062 0.796688 0.495245
O O10 0.001852 0.769738 0.597649
O O11 0.500000 0.709918 0.250000
O O12 0.543961 0.558031 0.356207
O O13 0.097469 0.502481 0.890826
O O14 0.985558 0.340932 0.892550
O O15 0.000000 0.500000 0.000000
O O16 0.865318 0.237479 0.843466
O O17 0.846533 0.364013 0.710761
O O18 0.250000 0.500000 0.380881
#
# Coordination Sequence:
#
# PCOD8222591 Si02
#       8
#     8   8   8   8   8   8   8   8
#     4  10  20  37  59  84 116 156 196 234 289 358
#     4  10  21  37  61  85 111 155 201 243 288 350
#     4  11  21  38  57  84 117 153 196 251 297 335
#     4  10  19  33  58  82 111 154 196 237 282 352
#     4  12  20  35  58  91 118 153 199 241 299 354
#     4  11  22  36  59  89 120 148 194 255 293 348
#     4  10  22  37  59  88 115 155 198 236 294 359
#     4  10  19  35  58  86 118 155 191 234 294 358
#
# _framework density 19.053716000000001
#
# number of rings (size 3 to 8) (size 9 to 14) (size 15 to 20)
#    0.000    1.500    5.000    2.250    0.000    0.500 
#    0.000    5.000    0.000    8.250    0.000    0.000 
#    0.000    0.000    0.000    0.000    0.000    0.000 
#
# Total GULP energy -793041.572607 kJ/mol
# GULP energy per Si atom -12391.274572 kJ/mol
# Density = 1.901035 g / cm^3
# Si number density = 19.053716 Si / 1000 Ang^3
#
#
#
# Elastic Constant Matrix: (Units=GPa)
#
#
# Indices 1 2 3 4 5 6 
#
# 1 131.8335 24.6871 61.1062 0.0000 0.0000 0.0000
# 2 24.6871 92.3145 27.7700 0.0000 0.0000 0.0000
# 3 61.1062 27.7700 94.0545 0.0000 0.0000 0.0000
# 4 0.0000 0.0000 0.0000 27.3991 0.0000 0.0000
# 5 0.0000 0.0000 0.0000 0.0000 22.4770 0.0000
# 6 0.0000 0.0000 0.0000 0.0000 0.0000 12.7773
#
#
#
# Elastic Compliance Matrix: (Units=1/GPa)
#
#
# Indices 1 2 3 4 5 6 
#
# 1 0.010916 -0.000862 -0.006837 0.000000 0.000000 0.000000
# 2 -0.000862 0.011957 -0.002970 0.000000 0.000000 0.000000
# 3 -0.006837 -0.002970 0.015951 0.000000 0.000000 0.000000
# 4 0.000000 0.000000 0.000000 0.036498 0.000000 0.000000
# 5 0.000000 0.000000 0.000000 0.000000 0.044490 0.000000
# 6 0.000000 0.000000 0.000000 0.000000 0.000000 0.078264
#
#
# Mechanical properties :
#
#
# Convention : Reuss Voigt Hill
#
# Bulk Modulus (GPa) = 57.19403 60.59213 58.89308
# Shear Modulus (GPa) = 22.19831 26.17331 24.18581
#
# Velocity S-wave (km/s) = 3.41697 3.71031 3.56666
# Velocity P-wave (km/s) = 6.75648 7.08696 6.92369
#
# Compressibility (1/GPa) = 0.01748434
#
# Stress axis : x y z
#
# Youngs Moduli (GPa) = 91.60843 83.63604 62.69118
#
# Poissons Ratio (x) = 0.07213 0.42864
# Poissons Ratio (y) = 0.07900 0.18619
# Poissons Ratio (z) = 0.62636 0.24839
#
# Static dielectric constant tensor:
#      x y z
#    x 4.076980 0.000000 0.000000 
#    y 0.000000 3.788530 0.000000 
#    z 0.000000 0.000000 3.413670 
# 
# 
# High freq. dielectric constant tensor:
#      x y z
#    x 1.736410 0.000000 0.000000 
#    y 0.000000 1.749080 0.000000 
#    z 0.000000 0.000000 1.726090 
# 
# From -- ./inp_files/14353.got.cif
#   From: 2010.03.12/outbox.cif.g09.slc.cpg/sg54_8_cif.got.tgz:14353.got - 2010.04.16 15:00:50.
