data_PCOD8222863
_publ_section_title
;
Structure prediction by ZEFSAII (Michael W. Deem and Ramdas Pophale) SiO2 
 PCOD8222863
Probable space group: P C C A
;
_chemical_formula_sum "Si O2"
_cell_formula_units_Z 48
_cell_length_a 9.201626
_cell_length_b 12.405049
_cell_length_c 20.306411
_cell_angle_alpha 90.000000
_cell_angle_beta 90.000000
_cell_angle_gamma 90.000000
_cell_volume 2317.908209
_symmetry_space_group_name_H-M "P C C A"
_symmetry_group_IT_number 54
_symmetry_cell_setting 'orthorhombic'
loop_
_space_group_symop_operation_xyz
x,y,z
1/2-x,-y,z
1/2+x,-y,1/2-z
-x,y,1/2-z
-x,-y,-z
1/2+x,y,-z
1/2-x,y,1/2+z
x,-y,1/2+z
loop_
_atom_site_type_symbol
_atom_site_label
_atom_site_fract_x
_atom_site_fract_y
_atom_site_fract_z
Si Si1 0.095814 0.247765 0.812603
Si Si2 0.478487 0.276806 0.977042
Si Si3 0.811557 0.381314 0.565833
Si Si4 0.326047 0.107827 0.747922
Si Si5 0.947291 0.106546 0.918216
Si Si6 0.867031 0.124377 0.399090
O O1 0.127795 0.345597 0.862857
O O2 0.253702 0.205046 0.788948
O O3 0.000000 0.288007 0.750000
O O4 0.002557 0.155110 0.848881
O O5 0.312236 0.303205 0.963388
O O6 0.547938 0.237789 0.907731
O O7 0.558349 0.378496 0.011679
O O8 0.522628 0.172357 0.022510
O O9 0.750000 0.500000 0.574019
O O10 0.500000 0.106935 0.750000
O O11 0.290572 0.119012 0.671740
O O12 0.250000 0.000000 0.775786
O O13 0.780354 0.124102 0.940664
O O14 0.974587 0.977373 0.914606
#
# Coordination Sequence:
#
# PCOD8222863 Si02
#       6
#     8   8   8   8   8   8
#     4  11  22  42  62  84 122 166 202 254 315 361
#     4  11  22  41  63  90 123 158 202 252 315 370
#     4  11  25  43  65  89 116 157 213 267 315 364
#     4  12  22  35  58  90 128 166 205 242 293 371
#     4  10  20  36  60  88 127 164 190 239 298 373
#     4  11  19  35  59  92 126 157 199 236 293 372
#
# _framework density 20.708327000000001
#
# number of rings (size 3 to 8) (size 9 to 14) (size 15 to 20)
#    0.000    1.000    5.000    3.500    0.000    0.000 
#    0.000    2.500    0.000    0.000    0.000    0.000 
#    0.000    0.000    0.000    0.000    0.000    0.000 
#
# Total GULP energy -594670.724119 kJ/mol
# GULP energy per Si atom -12388.973419 kJ/mol
# Density = 2.066119 g / cm^3
# Si number density = 20.708327 Si / 1000 Ang^3
#
#
#
# Elastic Constant Matrix: (Units=GPa)
#
#
# Indices 1 2 3 4 5 6 
#
# 1 116.0964 28.8336 29.6498 0.0000 0.0000 0.0000
# 2 28.8336 88.4196 42.6384 0.0000 0.0000 0.0000
# 3 29.6498 42.6384 69.6438 0.0000 0.0000 0.0000
# 4 0.0000 0.0000 0.0000 21.4139 0.0000 0.0000
# 5 0.0000 0.0000 0.0000 0.0000 22.9706 0.0000
# 6 0.0000 0.0000 0.0000 0.0000 0.0000 32.7168
#
#
#
# Elastic Compliance Matrix: (Units=1/GPa)
#
#
# Indices 1 2 3 4 5 6 
#
# 1 0.009838 -0.001686 -0.003156 0.000000 0.000000 0.000000
# 2 -0.001686 0.016337 -0.009284 0.000000 0.000000 0.000000
# 3 -0.003156 -0.009284 0.021386 0.000000 0.000000 0.000000
# 4 0.000000 0.000000 0.000000 0.046699 0.000000 0.000000
# 5 0.000000 0.000000 0.000000 0.000000 0.043534 0.000000
# 6 0.000000 0.000000 0.000000 0.000000 0.000000 0.030565
#
#
# Mechanical properties :
#
#
# Convention : Reuss Voigt Hill
#
# Bulk Modulus (GPa) = 51.79026 52.93372 52.36199
# Shear Modulus (GPa) = 24.62471 26.95613 25.79042
#
# Velocity S-wave (km/s) = 3.45210 3.61183 3.53287
# Velocity P-wave (km/s) = 6.39946 6.55826 6.47935
#
# Compressibility (1/GPa) = 0.01930865
#
# Stress axis : x y z
#
# Youngs Moduli (GPa) = 101.64266 61.21234 46.75873
#
# Poissons Ratio (x) = 0.10322 0.14758
# Poissons Ratio (y) = 0.17140 0.43410
# Poissons Ratio (z) = 0.32080 0.56829
#
# Static dielectric constant tensor:
#      x y z
#    x 3.762600 0.000000 0.000000 
#    y 0.000000 3.415840 0.000000 
#    z 0.000000 0.000000 4.026980 
# 
# 
# High freq. dielectric constant tensor:
#      x y z
#    x 1.824760 0.000000 0.000000 
#    y 0.000000 1.774130 0.000000 
#    z 0.000000 0.000000 1.815900 
# 
# From -- ./inp_files/23516.got.cif
#   From: 2010.03.12/outbox.cif.g09.slc.cpg/sg54_12_cif.got.tgz:23516.got - 2010.04.16 15:00:50.
