data_PCOD8222146
_publ_section_title
;
Structure prediction by ZEFSAII (Michael W. Deem and Ramdas Pophale) SiO2 
 PCOD8222146
Probable space group: P M N A
;
_chemical_formula_sum "Si O2"
_cell_formula_units_Z 48
_cell_length_a 8.647623
_cell_length_b 31.391980
_cell_length_c 9.055495
_cell_angle_alpha 90.000000
_cell_angle_beta 90.000000
_cell_angle_gamma 90.000000
_cell_volume 2458.259081
_symmetry_space_group_name_H-M "P M N A"
_symmetry_group_IT_number 53
_symmetry_cell_setting 'orthorhombic'
loop_
_space_group_symop_operation_xyz
x,y,z
1/2-x,-y,1/2+z
x,-y,-z
1/2-x,y,1/2-z
-x,-y,-z
1/2+x,y,1/2-z
-x,y,z
1/2+x,-y,1/2+z
loop_
_atom_site_type_symbol
_atom_site_label
_atom_site_fract_x
_atom_site_fract_y
_atom_site_fract_z
Si Si1 0.316774 0.695968 0.411508
Si Si2 0.817100 0.960315 0.911551
Si Si3 0.178108 0.542768 0.091917
Si Si4 0.817266 0.222825 0.087431
Si Si5 0.182641 0.618552 0.589251
Si Si6 0.818741 0.130837 0.089906
O O1 0.250000 0.687678 0.250000
O O2 0.500000 0.693106 0.402594
O O3 0.258354 0.741673 0.472599
O O4 0.255711 0.661301 0.525410
O O5 0.750000 0.962512 0.750000
O O6 0.771859 0.914241 0.988860
O O7 0.000000 0.965091 0.902042
O O8 0.744225 0.000000 0.000000
O O9 0.250000 0.533286 0.250000
O O10 0.000000 0.557330 0.105597
O O11 0.193875 0.500000 0.000000
O O12 0.276524 0.579595 0.016330
O O13 0.750000 0.230791 0.250000
O O14 0.765489 0.176237 0.019420
O O15 0.000000 0.225979 0.104152
O O16 0.250000 0.609140 0.750000
O O17 0.000000 0.623870 0.599635
O O18 0.750000 0.128933 0.250000
O O19 0.000000 0.132029 0.107671
#
# Coordination Sequence:
#
# PCOD8222146 Si02
#       6
#     8   8   8   8   8   8
#     4  11  23  39  57  80 111 146 183 223 273 327
#     4   9  17  29  46  68  95 128 165 207 255 308
#     4  11  24  42  65  93 125 160 197 237 282 330
#     4   9  18  32  53  77 100 130 170 217 264 314
#     4  12  25  42  64  89 118 151 190 234 279 328
#     4   8  14  27  46  68  94 125 164 208 255 307
#
# _framework density 19.526012999999999
#
# number of rings (size 3 to 8) (size 9 to 14) (size 15 to 20)
#    0.000    2.000    0.000    4.000    0.000    5.667 
#    0.000    0.833    0.000    0.000    0.000    0.000 
#    0.000    0.000    0.000    0.000    0.000    0.000 
#
# Total GULP energy -594761.591104 kJ/mol
# GULP energy per Si atom -12390.866481 kJ/mol
# Density = 1.948157 g / cm^3
# Si number density = 19.526013 Si / 1000 Ang^3
#
#
#
# Elastic Constant Matrix: (Units=GPa)
#
#
# Indices 1 2 3 4 5 6 
#
# 1 56.6475 34.0183 25.2699 0.0000 0.0000 0.0000
# 2 34.0183 140.0125 35.3224 0.0000 0.0000 0.0000
# 3 25.2699 35.3224 86.6183 0.0000 0.0000 0.0000
# 4 0.0000 0.0000 0.0000 10.2154 0.0000 0.0000
# 5 0.0000 0.0000 0.0000 0.0000 25.7728 0.0000
# 6 0.0000 0.0000 0.0000 0.0000 0.0000 88.6960
#
#
#
# Elastic Compliance Matrix: (Units=1/GPa)
#
#
# Indices 1 2 3 4 5 6 
#
# 1 0.022322 -0.004214 -0.004794 0.000000 0.000000 0.000000
# 2 -0.004214 0.008757 -0.002342 0.000000 0.000000 0.000000
# 3 -0.004794 -0.002342 0.013898 0.000000 0.000000 0.000000
# 4 0.000000 0.000000 0.000000 0.097891 0.000000 0.000000
# 5 0.000000 0.000000 0.000000 0.000000 0.038801 0.000000
# 6 0.000000 0.000000 0.000000 0.000000 0.000000 0.011274
#
#
# Mechanical properties :
#
#
# Convention : Reuss Voigt Hill
#
# Bulk Modulus (GPa) = 44.88647 52.49995 48.69321
# Shear Modulus (GPa) = 22.41462 37.51468 29.96465
#
# Velocity S-wave (km/s) = 3.39180 4.38798 3.92165
# Velocity P-wave (km/s) = 6.19492 7.25383 6.74519
#
# Compressibility (1/GPa) = 0.02227843
#
# Stress axis : x y z
#
# Youngs Moduli (GPa) = 44.79844 114.19626 71.95134
#
# Poissons Ratio (x) = 0.48124 0.34491
# Poissons Ratio (y) = 0.18879 0.16848
# Poissons Ratio (z) = 0.21475 0.26740
#
# Static dielectric constant tensor:
#      x y z
#    x 3.701340 0.000000 0.000000 
#    y 0.000000 4.560050 0.000000 
#    z 0.000000 0.000000 3.409910 
# 
# 
# High freq. dielectric constant tensor:
#      x y z
#    x 1.761790 0.000000 0.000000 
#    y 0.000000 1.795030 0.000000 
#    z 0.000000 0.000000 1.734350 
# 
# From -- ./inp_files/6576.got.cif
#   From: 2010.03.12/outbox.cif.g09.slc.cpg/sg53_4_cif.got.tgz:6576.got - 2010.04.16 14:36:59.
