data_PCOD8222022
_publ_section_title
;
Structure prediction by ZEFSAII (Michael W. Deem and Ramdas Pophale) SiO2 
 PCOD8222022
Probable space group: P M N A
;
_chemical_formula_sum "Si O2"
_cell_formula_units_Z 56
_cell_length_a 8.824259
_cell_length_b 19.232443
_cell_length_c 18.392691
_cell_angle_alpha 90.000000
_cell_angle_beta 90.000000
_cell_angle_gamma 90.000000
_cell_volume 3121.461446
_symmetry_space_group_name_H-M "P M N A"
_symmetry_group_IT_number 53
_symmetry_cell_setting 'orthorhombic'
loop_
_space_group_symop_operation_xyz
x,y,z
1/2-x,-y,1/2+z
x,-y,-z
1/2-x,y,1/2-z
-x,-y,-z
1/2+x,y,1/2-z
-x,y,z
1/2+x,-y,1/2+z
loop_
_atom_site_type_symbol
_atom_site_label
_atom_site_fract_x
_atom_site_fract_y
_atom_site_fract_z
Si Si1 0.177799 0.932331 0.828728
Si Si2 0.820435 0.357404 0.826213
Si Si3 0.822567 0.915890 0.171624
Si Si4 0.820280 0.220320 0.903580
Si Si5 0.179351 0.572323 0.028446
Si Si6 0.678717 0.711257 0.549559
Si Si7 0.821084 0.204404 0.329456
O O1 0.250000 0.937202 0.750000
O O2 0.259221 0.867080 0.867982
O O3 0.000000 0.916448 0.823776
O O4 0.208816 0.008116 0.865269
O O5 0.750000 0.381109 0.750000
O O6 0.764908 0.279444 0.846916
O O7 0.762807 0.409314 0.890161
O O8 0.000000 0.360344 0.819441
O O9 0.750000 0.908855 0.250000
O O10 0.756333 0.855251 0.119767
O O11 0.000000 0.905334 0.183039
O O12 0.000000 0.221272 0.904384
O O13 0.765028 0.237878 0.984801
O O14 0.000000 0.566300 0.032113
O O15 0.251789 0.500000 0.000000
O O16 0.223691 0.632721 0.971703
O O17 0.500000 0.718550 0.563846
O O18 0.769860 0.730624 0.621969
O O19 0.750000 0.213331 0.250000
O O20 0.000000 0.201748 0.322673
#
# Coordination Sequence:
#
# PCOD8222022 Si02
#       7
#     8   8   8   8   8   8   8
#     4   9  16  27  44  65  89 119 155 193 234 276
#     4   9  16  27  46  71  97 126 159 193 228 271
#     4   9  16  26  42  65  92 122 157 195 231 272
#     4   8  15  28  45  66  93 125 158 188 225 276
#     4   8  15  30  52  74  97 129 163 191 228 281
#     4   9  17  32  53  72  92 121 157 194 230 275
#     4  11  21  34  52  71  92 118 153 197 241 284
#
# _framework density 17.940314999999998
#
# number of rings (size 3 to 8) (size 9 to 14) (size 15 to 20)
#    0.000    3.000    0.000    4.714    0.000    0.571 
#    0.000    5.000    0.000    7.714    0.000    0.000 
#    0.000    0.000    0.000    0.000    0.000    0.000 
#
# Total GULP energy -693877.742394 kJ/mol
# GULP energy per Si atom -12390.673971 kJ/mol
# Density = 1.789948 g / cm^3
# Si number density = 17.940315 Si / 1000 Ang^3
#
#
#
# Elastic Constant Matrix: (Units=GPa)
#
#
# Indices 1 2 3 4 5 6 
#
# 1 62.4754 39.0346 33.6466 0.0000 0.0000 0.0000
# 2 39.0346 145.5861 74.6183 0.0000 0.0000 0.0000
# 3 33.6466 74.6183 100.0252 0.0000 0.0000 0.0000
# 4 0.0000 0.0000 0.0000 26.8638 0.0000 0.0000
# 5 0.0000 0.0000 0.0000 0.0000 23.7196 0.0000
# 6 0.0000 0.0000 0.0000 0.0000 0.0000 15.6150
#
#
#
# Elastic Compliance Matrix: (Units=1/GPa)
#
#
# Indices 1 2 3 4 5 6 
#
# 1 0.020409 -0.003163 -0.004506 0.000000 0.000000 0.000000
# 2 -0.003163 0.011611 -0.007598 0.000000 0.000000 0.000000
# 3 -0.004506 -0.007598 0.017181 0.000000 0.000000 0.000000
# 4 0.000000 0.000000 0.000000 0.037225 0.000000 0.000000
# 5 0.000000 0.000000 0.000000 0.000000 0.042159 0.000000
# 6 0.000000 0.000000 0.000000 0.000000 0.000000 0.064041
#
#
# Mechanical properties :
#
#
# Convention : Reuss Voigt Hill
#
# Bulk Modulus (GPa) = 53.56670 66.96507 60.26588
# Shear Modulus (GPa) = 21.79774 23.95884 22.87829
#
# Velocity S-wave (km/s) = 3.48949 3.65838 3.57493
# Velocity P-wave (km/s) = 6.79400 7.43321 7.12078
#
# Compressibility (1/GPa) = 0.01866831
#
# Stress axis : x y z
#
# Youngs Moduli (GPa) = 48.99805 86.12578 58.20340
#
# Poissons Ratio (x) = 0.27238 0.26226
# Poissons Ratio (y) = 0.15496 0.44222
# Poissons Ratio (z) = 0.22078 0.65437
#
# Static dielectric constant tensor:
#      x y z
#    x 3.009100 0.000000 0.000000 
#    y 0.000000 4.008270 0.000000 
#    z 0.000000 0.000000 3.231110 
# 
# 
# High freq. dielectric constant tensor:
#      x y z
#    x 1.665460 0.000000 0.000000 
#    y 0.000000 1.699890 0.000000 
#    z 0.000000 0.000000 1.673090 
# 
# From -- ./inp_files/26704.got.cif
#   From: 2010.03.12/outbox.cif.g09.slc.cpg/sg53_14_cif.got.tgz:26704.got - 2010.04.16 14:36:59.
