data_PCOD8222018
_publ_section_title
;
Structure prediction by ZEFSAII (Michael W. Deem and Ramdas Pophale) SiO2 
 PCOD8222018
Probable space group: P M N A
;
_chemical_formula_sum "Si O2"
_cell_formula_units_Z 32
_cell_length_a 8.848980
_cell_length_b 10.228140
_cell_length_c 18.326756
_cell_angle_alpha 90.000000
_cell_angle_beta 90.000000
_cell_angle_gamma 90.000000
_cell_volume 1658.729144
_symmetry_space_group_name_H-M "P M N A"
_symmetry_group_IT_number 53
_symmetry_cell_setting 'orthorhombic'
loop_
_space_group_symop_operation_xyz
x,y,z
1/2-x,-y,1/2+z
x,-y,-z
1/2-x,y,1/2-z
-x,-y,-z
1/2+x,y,1/2-z
-x,y,z
1/2+x,-y,1/2+z
loop_
_atom_site_type_symbol
_atom_site_label
_atom_site_fract_x
_atom_site_fract_y
_atom_site_fract_z
Si Si1 0.677305 0.741734 0.908012
Si Si2 0.178500 0.510481 0.826045
Si Si3 0.166272 0.998217 0.086565
Si Si4 0.177895 0.716020 0.063793
O O1 0.500000 0.722083 0.902998
O O2 0.757147 0.650483 0.848922
O O3 0.717502 0.891512 0.886337
O O4 0.732586 0.703597 0.988455
O O5 0.250000 0.466222 0.750000
O O6 0.226965 0.403871 0.885952
O O7 0.000000 0.519247 0.817865
O O8 0.219710 0.850838 0.106888
O O9 0.000000 0.027888 0.119723
O O10 0.156009 0.000000 0.000000
O O11 0.000000 0.713890 0.044976
#
# Coordination Sequence:
#
# PCOD8222018 Si02
#       4
#     8   8   8   8
#     4  11  21  33  54  84 112 140 177 219 262 312
#     4  11  23  39  56  76 106 142 180 221 267 317
#     4   8  15  31  54  79 107 138 173 216 266 315
#     4   9  19  36  58  81 106 140 178 219 269 319
#
# _framework density 19.291876999999999
#
# number of rings (size 3 to 8) (size 9 to 14) (size 15 to 20)
#    0.000    2.250    0.000    5.250    0.000    9.500 
#    0.000    1.250    0.000    3.000    0.000    0.000 
#    0.000    0.000    0.000    0.000    0.000    0.000 
#
# Total GULP energy -396758.310123 kJ/mol
# GULP energy per Si atom -12398.697191 kJ/mol
# Density = 1.924797 g / cm^3
# Si number density = 19.291877 Si / 1000 Ang^3
#
#
#
# Elastic Constant Matrix: (Units=GPa)
#
#
# Indices 1 2 3 4 5 6 
#
# 1 91.9154 31.1805 28.4240 0.0000 0.0000 0.0000
# 2 31.1805 98.6643 15.2926 0.0000 0.0000 0.0000
# 3 28.4240 15.2926 42.7818 0.0000 0.0000 0.0000
# 4 0.0000 0.0000 0.0000 8.3764 0.0000 0.0000
# 5 0.0000 0.0000 0.0000 0.0000 27.8617 0.0000
# 6 0.0000 0.0000 0.0000 0.0000 0.0000 23.1844
#
#
#
# Elastic Compliance Matrix: (Units=1/GPa)
#
#
# Indices 1 2 3 4 5 6 
#
# 1 0.014643 -0.003303 -0.008548 0.000000 0.000000 0.000000
# 2 -0.003303 0.011475 -0.001907 0.000000 0.000000 0.000000
# 3 -0.008548 -0.001907 0.029736 0.000000 0.000000 0.000000
# 4 0.000000 0.000000 0.000000 0.119383 0.000000 0.000000
# 5 0.000000 0.000000 0.000000 0.000000 0.035892 0.000000
# 6 0.000000 0.000000 0.000000 0.000000 0.000000 0.043132
#
#
# Mechanical properties :
#
#
# Convention : Reuss Voigt Hill
#
# Bulk Modulus (GPa) = 35.28975 42.57287 38.93131
# Shear Modulus (GPa) = 17.16893 22.44880 19.80886
#
# Velocity S-wave (km/s) = 2.98645 3.41492 3.20785
# Velocity P-wave (km/s) = 5.49765 6.13715 5.82618
#
# Compressibility (1/GPa) = 0.02833684
#
# Stress axis : x y z
#
# Youngs Moduli (GPa) = 68.28974 87.14770 33.62946
#
# Poissons Ratio (x) = 0.28783 0.28748
# Poissons Ratio (y) = 0.22554 0.06415
# Poissons Ratio (z) = 0.58377 0.16623
#
# Static dielectric constant tensor:
#      x y z
#    x 3.433040 0.000000 0.000000 
#    y 0.000000 4.131440 0.000000 
#    z 0.000000 0.000000 3.181200 
# 
# 
# High freq. dielectric constant tensor:
#      x y z
#    x 1.746520 0.000000 0.000000 
#    y 0.000000 1.772290 0.000000 
#    z 0.000000 0.000000 1.711010 
# 
# From -- ./inp_files/19525.got.cif
#   From: 2010.03.12/outbox.cif.g09.slc.cpg/sg53_10_cif.got.tgz:19525.got - 2010.04.16 14:36:59.
