data_PCOD8222645
_publ_section_title
;
Structure prediction by ZEFSAII (Michael W. Deem and Ramdas Pophale) SiO2 
 PCOD8222645
Probable space group: P C C A
;
_chemical_formula_sum "Si O2"
_cell_formula_units_Z 44
_cell_length_a 23.746636
_cell_length_b 5.180952
_cell_length_c 16.694349
_cell_angle_alpha 90.000000
_cell_angle_beta 90.000000
_cell_angle_gamma 90.000000
_cell_volume 2053.908784
_symmetry_space_group_name_H-M "P C C A"
_symmetry_group_IT_number 54
_symmetry_cell_setting 'orthorhombic'
loop_
_space_group_symop_operation_xyz
x,y,z
1/2-x,-y,z
1/2+x,-y,1/2-z
-x,y,1/2-z
-x,-y,-z
1/2+x,y,-z
1/2-x,y,1/2+z
x,-y,1/2+z
loop_
_atom_site_type_symbol
_atom_site_label
_atom_site_fract_x
_atom_site_fract_y
_atom_site_fract_z
Si Si1 0.895004 0.213951 0.103365
Si Si2 0.250000 0.000000 0.144052
Si Si3 0.079087 0.282054 0.686217
Si Si4 0.217172 0.758837 0.990285
Si Si5 0.540651 0.707485 0.631824
Si Si6 0.642875 0.218356 0.784847
O O1 0.847075 0.242449 0.037055
O O2 0.937073 0.450937 0.089207
O O3 0.866003 0.223257 0.190026
O O4 0.930911 0.954714 0.090022
O O5 0.208787 0.168195 0.199833
O O6 0.283611 0.201407 0.086703
O O7 0.055944 0.300090 0.775481
O O8 0.122750 0.517108 0.673070
O O9 0.027156 0.291957 0.623740
O O10 0.108659 0.009583 0.672508
O O11 0.250000 0.500000 0.965304
O O12 0.250000 0.000000 0.948958
#
# Coordination Sequence:
#
# PCOD8222645 Si02
#       6
#     8   4   8   8   8   8
#     4  10  19  35  58  87 108 140 189 230 276 326
#     4  10  26  38  58  76 116 156 190 224 288 322
#     4   9  18  33  54  86 116 139 174 227 289 332
#     4  10  23  39  56  78 108 157 186 228 275 329
#     4   9  17  32  57  85 114 140 172 230 286 336
#     4  10  21  34  57  85 111 143 186 231 272 334
#
# _framework density 21.422566
#
# number of rings (size 3 to 8) (size 9 to 14) (size 15 to 20)
#    0.545    1.818    0.000    2.182    3.818    4.364 
#    0.000    0.000    0.000    6.545    0.000    0.000 
#    0.000    0.000    0.000    0.000    0.000    0.000 
#
# Total GULP energy -545509.220582 kJ/mol
# GULP energy per Si atom -12397.936831 kJ/mol
# Density = 2.137381 g / cm^3
# Si number density = 21.422566 Si / 1000 Ang^3
#
#
#
# Elastic Constant Matrix: (Units=GPa)
#
#
# Indices 1 2 3 4 5 6 
#
# 1 66.0487 12.1797 13.3167 0.0000 0.0000 0.0000
# 2 12.1797 144.9082 9.0292 0.0000 0.0000 0.0000
# 3 13.3167 9.0292 26.4992 0.0000 0.0000 0.0000
# 4 0.0000 0.0000 0.0000 6.3047 0.0000 0.0000
# 5 0.0000 0.0000 0.0000 0.0000 7.8411 0.0000
# 6 0.0000 0.0000 0.0000 0.0000 0.0000 39.3218
#
#
#
# Elastic Compliance Matrix: (Units=1/GPa)
#
#
# Indices 1 2 3 4 5 6 
#
# 1 0.016965 -0.000914 -0.008214 0.000000 0.000000 0.000000
# 2 -0.000914 0.007100 -0.001960 0.000000 0.000000 0.000000
# 3 -0.008214 -0.001960 0.042533 0.000000 0.000000 0.000000
# 4 0.000000 0.000000 0.000000 0.158611 0.000000 0.000000
# 5 0.000000 0.000000 0.000000 0.000000 0.127533 0.000000
# 6 0.000000 0.000000 0.000000 0.000000 0.000000 0.025431
#
#
# Mechanical properties :
#
#
# Convention : Reuss Voigt Hill
#
# Bulk Modulus (GPa) = 22.51158 34.05639 28.28398
# Shear Modulus (GPa) = 12.04368 24.22222 18.13295
#
# Velocity S-wave (km/s) = 2.37364 3.36622 2.91252
# Velocity P-wave (km/s) = 4.24775 5.57140 4.95398
#
# Compressibility (1/GPa) = 0.04442158
#
# Stress axis : x y z
#
# Youngs Moduli (GPa) = 58.94487 140.84763 23.51142
#
# Poissons Ratio (x) = 0.12875 0.19312
# Poissons Ratio (y) = 0.05388 0.04608
# Poissons Ratio (z) = 0.48417 0.27603
#
# Static dielectric constant tensor:
#      x y z
#    x 3.876660 0.000000 0.000000 
#    y 0.000000 4.038090 0.000000 
#    z 0.000000 0.000000 3.410700 
# 
# 
# High freq. dielectric constant tensor:
#      x y z
#    x 1.846520 0.000000 0.000000 
#    y 0.000000 1.854260 0.000000 
#    z 0.000000 0.000000 1.799310 
# 
# From -- ./inp_files/19013.got.cif
#   From: 2010.03.12/outbox.cif.g09.slc.cpg/sg54_10_cif.got.tgz:19013.got - 2010.04.16 15:00:50.
