data_PCOD8222279
_publ_section_title
;
Structure prediction by ZEFSAII (Michael W. Deem and Ramdas Pophale) SiO2 
 PCOD8222279
Probable space group: P C C A
;
_chemical_formula_sum "Si O2"
_cell_formula_units_Z 40
_cell_length_a 15.662324
_cell_length_b 22.870399
_cell_length_c 5.246501
_cell_angle_alpha 90.000000
_cell_angle_beta 90.000000
_cell_angle_gamma 90.000000
_cell_volume 1879.315541
_symmetry_space_group_name_H-M "P C C A"
_symmetry_group_IT_number 54
_symmetry_cell_setting 'orthorhombic'
loop_
_space_group_symop_operation_xyz
x,y,z
1/2-x,-y,z
1/2+x,-y,1/2-z
-x,y,1/2-z
-x,-y,-z
1/2+x,y,-z
1/2-x,y,1/2+z
x,-y,1/2+z
loop_
_atom_site_type_symbol
_atom_site_label
_atom_site_fract_x
_atom_site_fract_y
_atom_site_fract_z
Si Si1 0.152508 0.975237 0.415562
Si Si2 0.053681 0.623905 0.499094
Si Si3 0.801324 0.848857 0.139477
Si Si4 0.193536 0.719917 0.417626
Si Si5 0.285883 0.564924 0.130803
O O1 0.140862 0.905094 0.417776
O O2 0.250000 0.000000 0.411944
O O3 0.105354 0.000423 0.166052
O O4 0.111644 0.678506 0.422339
O O5 0.113254 0.567984 0.573987
O O6 0.000000 0.640099 0.750000
O O7 0.000000 0.605781 0.250000
O O8 0.723969 0.852853 0.936452
O O9 0.845263 0.785951 0.089464
O O10 0.248625 0.708410 0.670419
O O11 0.250000 0.500000 0.178685
O O12 0.263943 0.597441 0.398142
#
# Coordination Sequence:
#
# PCOD8222279 Si02
#       5
#     8   8   8   8   8
#     4  10  14  20  34  56  95 135 158 211 284 328
#     4  12  24  40  62  89 118 152 195 238 280 331
#     4  10  16  25  40  66  96 138 176 218 271 343
#     4  10  21  36  57  80 112 152 193 234 285 343
#     4  10  21  41  65  89 120 157 190 228 281 342
#
# _framework density 21.284347
#
# number of rings (size 3 to 8) (size 9 to 14) (size 15 to 20)
#    0.000    1.600    4.000    3.600    0.000    0.000 
#    0.000   12.000    0.000    0.000    0.000    0.000 
#    0.000    4.800    0.000    0.000    0.000    0.000 
#
# Total GULP energy -495526.637794 kJ/mol
# GULP energy per Si atom -12388.165945 kJ/mol
# Density = 2.123590 g / cm^3
# Si number density = 21.284347 Si / 1000 Ang^3
#
#
#
# Elastic Constant Matrix: (Units=GPa)
#
#
# Indices 1 2 3 4 5 6 
#
# 1 56.9393 18.1144 15.4706 0.0000 0.0000 0.0000
# 2 18.1144 83.8186 1.6115 0.0000 0.0000 0.0000
# 3 15.4706 1.6115 162.4167 0.0000 0.0000 0.0000
# 4 0.0000 0.0000 0.0000 17.5120 0.0000 0.0000
# 5 0.0000 0.0000 0.0000 0.0000 6.9001 0.0000
# 6 0.0000 0.0000 0.0000 0.0000 0.0000 7.2670
#
#
#
# Elastic Compliance Matrix: (Units=1/GPa)
#
#
# Indices 1 2 3 4 5 6 
#
# 1 0.019374 -0.004152 -0.001804 0.000000 0.000000 0.000000
# 2 -0.004152 0.012823 0.000268 0.000000 0.000000 0.000000
# 3 -0.001804 0.000268 0.006326 0.000000 0.000000 0.000000
# 4 0.000000 0.000000 0.000000 0.057104 0.000000 0.000000
# 5 0.000000 0.000000 0.000000 0.000000 0.144925 0.000000
# 6 0.000000 0.000000 0.000000 0.000000 0.000000 0.137608
#
#
# Mechanical properties :
#
#
# Convention : Reuss Voigt Hill
#
# Bulk Modulus (GPa) = 36.83738 41.50751 39.17244
# Shear Modulus (GPa) = 12.54440 24.20104 18.37272
#
# Velocity S-wave (km/s) = 2.43033 3.37565 2.94122
# Velocity P-wave (km/s) = 5.02197 5.89382 5.47528
#
# Compressibility (1/GPa) = 0.02714634
#
# Stress axis : x y z
#
# Youngs Moduli (GPa) = 51.61620 77.98647 158.07293
#
# Poissons Ratio (x) = 0.32382 0.28520
# Poissons Ratio (y) = 0.21432 -0.04241
# Poissons Ratio (z) = 0.09313 -0.02092
#
# Static dielectric constant tensor:
#      x y z
#    x 3.264970 0.000000 0.000000 
#    y 0.000000 4.334050 0.000000 
#    z 0.000000 0.000000 5.190140 
# 
# 
# High freq. dielectric constant tensor:
#      x y z
#    x 1.757540 0.000000 0.000000 
#    y 0.000000 1.850390 0.000000 
#    z 0.000000 0.000000 1.881180 
# 
# From -- ./inp_files/529.got.cif
#   From: 2010.03.12/outbox.cif.g09.slc.cpg/sg54_1_cif.got.tgz:529.got - 2010.04.16 15:00:50.
