data_PCOD8222280
_publ_section_title
;
Structure prediction by ZEFSAII (Michael W. Deem and Ramdas Pophale) SiO2 
 PCOD8222280
Probable space group: P C C A
;
_chemical_formula_sum "Si O2"
_cell_formula_units_Z 48
_cell_length_a 15.059959
_cell_length_b 29.315671
_cell_length_c 5.222188
_cell_angle_alpha 90.000000
_cell_angle_beta 90.000000
_cell_angle_gamma 90.000000
_cell_volume 2305.558420
_symmetry_space_group_name_H-M "P C C A"
_symmetry_group_IT_number 54
_symmetry_cell_setting 'orthorhombic'
loop_
_space_group_symop_operation_xyz
x,y,z
1/2-x,-y,z
1/2+x,-y,1/2-z
-x,y,1/2-z
-x,-y,-z
1/2+x,y,-z
1/2-x,y,1/2+z
x,-y,1/2+z
loop_
_atom_site_type_symbol
_atom_site_label
_atom_site_fract_x
_atom_site_fract_y
_atom_site_fract_z
Si Si1 0.056689 0.702410 0.498547
Si Si2 0.303901 0.117898 0.480663
Si Si3 0.191279 0.217961 0.914642
Si Si4 0.351316 0.019401 0.401080
Si Si5 0.193225 0.622939 0.517974
Si Si6 0.849038 0.519659 0.990019
O O1 0.110727 0.747557 0.431451
O O2 0.119077 0.660282 0.567807
O O3 0.000000 0.688945 0.250000
O O4 0.000000 0.713135 0.750000
O O5 0.277385 0.115137 0.778941
O O6 0.350598 0.166801 0.430632
O O7 0.363496 0.073921 0.422488
O O8 0.239112 0.226075 0.643418
O O9 0.250000 0.000000 0.385673
O O10 0.400280 0.996090 0.641841
O O11 0.267956 0.629283 0.734152
O O12 0.148916 0.573624 0.547900
O O13 0.750000 0.500000 0.029460
O O14 0.898652 0.504730 0.251819
#
# Coordination Sequence:
#
# PCOD8222280 Si02
#       6
#     8   8   8   8   8   8
#     4  12  26  43  59  82 119 154 187 234 295 344
#     4  10  16  25  42  69  99 138 170 215 267 327
#     4  10  21  38  60  83 110 142 193 244 279 328
#     4  10  14  20  34  58 100 142 155 191 271 348
#     4  12  21  36  65  92 114 146 199 236 274 329
#     4  10  16  30  52  91 113 141 176 237 262 318
#
# _framework density 20.819253
#
# number of rings (size 3 to 8) (size 9 to 14) (size 15 to 20)
#    0.000    1.333    6.667    3.000    0.000    0.000 
#    0.000    0.000    0.000    3.000    0.000    0.000 
#    0.000    4.000    0.000    0.000    0.000    0.000 
#
# Total GULP energy -594913.120858 kJ/mol
# GULP energy per Si atom -12394.023351 kJ/mol
# Density = 2.077187 g / cm^3
# Si number density = 20.819253 Si / 1000 Ang^3
#
#
#
# Elastic Constant Matrix: (Units=GPa)
#
#
# Indices 1 2 3 4 5 6 
#
# 1 24.4440 29.2802 9.1574 0.0000 0.0000 0.0000
# 2 29.2802 150.0436 9.5128 0.0000 0.0000 0.0000
# 3 9.1574 9.5128 138.4757 0.0000 0.0000 0.0000
# 4 0.0000 0.0000 0.0000 32.4007 0.0000 0.0000
# 5 0.0000 0.0000 0.0000 0.0000 12.8294 0.0000
# 6 0.0000 0.0000 0.0000 0.0000 0.0000 -3.6906
#
#
#
# Elastic Compliance Matrix: (Units=1/GPa)
#
#
# Indices 1 2 3 4 5 6 
#
# 1 0.054515 -0.010455 -0.002887 0.000000 0.000000 0.000000
# 2 -0.010455 0.008699 0.000094 0.000000 0.000000 0.000000
# 3 -0.002887 0.000094 0.007406 0.000000 0.000000 0.000000
# 4 0.000000 0.000000 0.000000 0.030864 0.000000 0.000000
# 5 0.000000 0.000000 0.000000 0.000000 0.077946 0.000000
# 6 0.000000 0.000000 0.000000 0.000000 0.000000 -0.270961
#
#
# Mechanical properties :
#
#
# Convention : Reuss Voigt Hill
#
# Bulk Modulus (GPa) = 22.66364 45.42932 34.04648
# Shear Modulus (GPa) = -99.35138 25.97544 -36.68797
#
# Velocity S-wave (km/s) = -6.91553 3.53606 -4.20243
# Velocity P-wave (km/s) = 7.27025 6.20805 2.67550
#
# Compressibility (1/GPa) = 0.04412354
#
# Stress axis : x y z
#
# Youngs Moduli (GPa) = 18.34351 114.95473 135.02665
#
# Poissons Ratio (x) = 1.20189 0.38980
# Poissons Ratio (y) = 0.19179 -0.01267
# Poissons Ratio (z) = 0.05295 -0.01078
#
# Static dielectric constant tensor:
#      x y z
#    x 3.038040 0.000000 0.000000 
#    y 0.000000 4.077140 0.000000 
#    z 0.000000 0.000000 5.015460 
# 
# 
# High freq. dielectric constant tensor:
#      x y z
#    x 1.736900 0.000000 0.000000 
#    y 0.000000 1.837700 0.000000 
#    z 0.000000 0.000000 1.855630 
# 
# From -- ./inp_files/625.got.cif
#   From: 2010.03.12/outbox.cif.g09.slc.cpg/sg54_1_cif.got.tgz:625.got - 2010.04.16 15:00:50.
