data_PCOD8222403
_publ_section_title
;
Structure prediction by ZEFSAII (Michael W. Deem and Ramdas Pophale) SiO2 
 PCOD8222403
Probable space group: P C C A
;
_chemical_formula_sum "Si O2"
_cell_formula_units_Z 56
_cell_length_a 14.328668
_cell_length_b 9.077008
_cell_length_c 21.424881
_cell_angle_alpha 90.000000
_cell_angle_beta 90.000000
_cell_angle_gamma 90.000000
_cell_volume 2786.550748
_symmetry_space_group_name_H-M "P C C A"
_symmetry_group_IT_number 54
_symmetry_cell_setting 'orthorhombic'
loop_
_space_group_symop_operation_xyz
x,y,z
1/2-x,-y,z
1/2+x,-y,1/2-z
-x,y,1/2-z
-x,-y,-z
1/2+x,y,-z
1/2-x,y,1/2+z
x,-y,1/2+z
loop_
_atom_site_type_symbol
_atom_site_label
_atom_site_fract_x
_atom_site_fract_y
_atom_site_fract_z
Si Si1 0.190663 0.360924 0.041678
Si Si2 0.956336 0.583896 0.857257
Si Si3 0.702519 0.355058 0.775532
Si Si4 0.343591 0.369641 0.865269
Si Si5 0.338532 0.296534 0.408613
Si Si6 0.993364 0.247477 0.824436
Si Si7 0.297020 0.155873 0.137910
O O1 0.250000 0.500000 0.016935
O O2 0.101795 0.420777 0.079282
O O3 0.259090 0.261070 0.083250
O O4 0.146503 0.271451 0.982744
O O5 0.900139 0.668628 0.803559
O O6 0.976625 0.420711 0.832211
O O7 0.049310 0.683261 0.867158
O O8 0.750000 0.500000 0.807059
O O9 0.697979 0.379372 0.703269
O O10 0.765080 0.215136 0.794103
O O11 0.271664 0.255351 0.898057
O O12 0.346002 0.530414 0.895256
O O13 0.411403 0.208394 0.363741
O O14 0.910061 0.154170 0.857701
O O15 0.000000 0.210269 0.750000
O O16 0.250000 0.000000 0.125147
#
# Coordination Sequence:
#
# PCOD8222403 Si02
#       7
#     8   8   8   8   8   8   8
#     4  11  20  39  57  88 120 151 202 253 296 357
#     4  10  19  29  54  87 117 153 182 242 305 358
#     4  11  17  34  57  86 113 143 190 249 298 358
#     4  10  18  30  51  91 121 137 179 243 313 348
#     4  10  20  31  55  91 121 147 187 250 302 357
#     4  11  20  35  60  90 119 152 200 245 310 369
#     4  11  24  40  59  82 118 166 204 243 301 359
#
# _framework density 20.096527999999999
#
# number of rings (size 3 to 8) (size 9 to 14) (size 15 to 20)
#    0.000    1.429    5.714    3.857    0.000    3.429 
#    0.000    3.571    0.000    3.429    0.000    0.000 
#    0.000    0.000    0.000    0.000    0.000    0.000 
#
# Total GULP energy -693741.174771 kJ/mol
# GULP energy per Si atom -12388.235264 kJ/mol
# Density = 2.005079 g / cm^3
# Si number density = 20.096528 Si / 1000 Ang^3
#
#
#
# Elastic Constant Matrix: (Units=GPa)
#
#
# Indices 1 2 3 4 5 6 
#
# 1 108.5229 28.0997 26.9950 0.0000 0.0000 0.0000
# 2 28.0997 41.7242 9.8682 0.0000 0.0000 0.0000
# 3 26.9950 9.8682 122.0397 0.0000 0.0000 0.0000
# 4 0.0000 0.0000 0.0000 1.1249 0.0000 0.0000
# 5 0.0000 0.0000 0.0000 0.0000 24.8797 0.0000
# 6 0.0000 0.0000 0.0000 0.0000 0.0000 18.1391
#
#
#
# Elastic Compliance Matrix: (Units=1/GPa)
#
#
# Indices 1 2 3 4 5 6 
#
# 1 0.011609 -0.007352 -0.001973 0.000000 0.000000 0.000000
# 2 -0.007352 0.029090 -0.000726 0.000000 0.000000 0.000000
# 3 -0.001973 -0.000726 0.008689 0.000000 0.000000 0.000000
# 4 0.000000 0.000000 0.000000 0.888964 0.000000 0.000000
# 5 0.000000 0.000000 0.000000 0.000000 0.040193 0.000000
# 6 0.000000 0.000000 0.000000 0.000000 0.000000 0.055130
#
#
# Mechanical properties :
#
#
# Convention : Reuss Voigt Hill
#
# Bulk Modulus (GPa) = 34.14613 44.69028 39.41820
# Shear Modulus (GPa) = 4.70128 22.65033 13.67581
#
# Velocity S-wave (km/s) = 1.53115 3.36084 2.61148
# Velocity P-wave (km/s) = 4.48930 6.11117 5.36191
#
# Compressibility (1/GPa) = 0.02928589
#
# Stress axis : x y z
#
# Youngs Moduli (GPa) = 86.13962 34.37650 115.08417
#
# Poissons Ratio (x) = 0.25272 0.22711
# Poissons Ratio (y) = 0.63326 0.08356
# Poissons Ratio (z) = 0.16999 0.02496
#
# Static dielectric constant tensor:
#      x y z
#    x 4.853490 0.000000 0.000000 
#    y 0.000000 3.126010 0.000000 
#    z 0.000000 0.000000 3.678630 
# 
# 
# High freq. dielectric constant tensor:
#      x y z
#    x 1.809830 0.000000 0.000000 
#    y 0.000000 1.703040 0.000000 
#    z 0.000000 0.000000 1.793010 
# 
# From -- ./inp_files/21629.got.cif
#   From: 2010.03.12/outbox.cif.g09.slc.cpg/sg54_11_cif.got.tgz:21629.got - 2010.04.16 15:00:50.
