data_PCOD8222619
_publ_section_title
;
Structure prediction by ZEFSAII (Michael W. Deem and Ramdas Pophale) SiO2 
 PCOD8222619
Probable space group: P C C A
;
_chemical_formula_sum "Si O2"
_cell_formula_units_Z 32
_cell_length_a 5.161674
_cell_length_b 8.725230
_cell_length_c 34.135254
_cell_angle_alpha 90.000000
_cell_angle_beta 90.000000
_cell_angle_gamma 90.000000
_cell_volume 1537.342363
_symmetry_space_group_name_H-M "P C C A"
_symmetry_group_IT_number 54
_symmetry_cell_setting 'orthorhombic'
loop_
_space_group_symop_operation_xyz
x,y,z
1/2-x,-y,z
1/2+x,-y,1/2-z
-x,y,1/2-z
-x,-y,-z
1/2+x,y,-z
1/2-x,y,1/2+z
x,-y,1/2+z
loop_
_atom_site_type_symbol
_atom_site_label
_atom_site_fract_x
_atom_site_fract_y
_atom_site_fract_z
Si Si1 0.570660 0.330028 0.984097
Si Si2 0.241616 0.672351 0.104496
Si Si3 0.261965 0.181093 0.861373
Si Si4 0.751970 0.817625 0.227762
O O1 0.682433 0.329184 0.940830
O O2 0.500000 0.500000 0.000000
O O3 0.291206 0.246483 0.988661
O O4 0.250000 0.500000 0.120934
O O5 0.448728 0.773948 0.127003
O O6 0.954629 0.740575 0.111121
O O7 0.226622 0.237841 0.816912
O O8 0.250000 0.000000 0.865605
O O9 0.500000 0.751812 0.250000
O O10 0.000000 0.750117 0.250000
O O11 0.750000 0.000000 0.229270
#
# Coordination Sequence:
#
# PCOD8222619 Si02
#       4
#     8   8   8   8
#     4  10  19  34  59  89 109 147 207 266 276 332
#     4  12  23  38  65  93 120 160 208 255 298 364
#     4  11  24  40  61  93 131 158 193 257 319 360
#     4   9  17  33  59  85 111 156 211 245 277 350
#
# _framework density 20.815141000000001
#
# number of rings (size 3 to 8) (size 9 to 14) (size 15 to 20)
#    0.000    1.500    2.500    4.500    3.500    4.000 
#    0.000    0.000    0.000   30.000    0.000    0.000 
#    0.000    0.000    0.000    0.000    0.000    0.000 
#
# Total GULP energy -396576.788751 kJ/mol
# GULP energy per Si atom -12393.024648 kJ/mol
# Density = 2.076776 g / cm^3
# Si number density = 20.815141 Si / 1000 Ang^3
#
#
#
# Elastic Constant Matrix: (Units=GPa)
#
#
# Indices 1 2 3 4 5 6 
#
# 1 159.5004 11.4949 37.3675 0.0000 0.0000 0.0000
# 2 11.4949 59.7425 15.9188 0.0000 0.0000 0.0000
# 3 37.3675 15.9188 125.7347 0.0000 0.0000 0.0000
# 4 0.0000 0.0000 0.0000 20.8825 0.0000 0.0000
# 5 0.0000 0.0000 0.0000 0.0000 22.9156 0.0000
# 6 0.0000 0.0000 0.0000 0.0000 0.0000 28.4774
#
#
#
# Elastic Compliance Matrix: (Units=1/GPa)
#
#
# Indices 1 2 3 4 5 6 
#
# 1 0.006775 -0.000794 -0.001913 0.000000 0.000000 0.000000
# 2 -0.000794 0.017416 -0.001969 0.000000 0.000000 0.000000
# 3 -0.001913 -0.001969 0.008771 0.000000 0.000000 0.000000
# 4 0.000000 0.000000 0.000000 0.047887 0.000000 0.000000
# 5 0.000000 0.000000 0.000000 0.000000 0.043638 0.000000
# 6 0.000000 0.000000 0.000000 0.000000 0.000000 0.035116
#
#
# Mechanical properties :
#
#
# Convention : Reuss Voigt Hill
#
# Bulk Modulus (GPa) = 42.35449 52.72666 47.54058
# Shear Modulus (GPa) = 28.27663 33.13489 30.70576
#
# Velocity S-wave (km/s) = 3.68973 3.99415 3.84495
# Velocity P-wave (km/s) = 6.20840 6.83058 6.52691
#
# Compressibility (1/GPa) = 0.02361025
#
# Stress axis : x y z
#
# Youngs Moduli (GPa) = 147.60251 57.41883 114.01123
#
# Poissons Ratio (x) = 0.04558 0.21810
# Poissons Ratio (y) = 0.11717 0.22449
# Poissons Ratio (z) = 0.28236 0.11306
#
# Static dielectric constant tensor:
#      x y z
#    x 2.997220 0.000000 0.000000 
#    y 0.000000 3.272230 0.000000 
#    z 0.000000 0.000000 3.990040 
# 
# 
# High freq. dielectric constant tensor:
#      x y z
#    x 1.851570 0.000000 0.000000 
#    y 0.000000 1.761650 0.000000 
#    z 0.000000 0.000000 1.824810 
# 
# From -- ./inp_files/26944.got.cif
#   From: 2010.03.12/outbox.cif.g09.slc.cpg/sg54_14_cif.got.tgz:26944.got - 2010.04.16 15:00:50.
