data_PCOD8222818
_publ_section_title
;
Structure prediction by ZEFSAII (Michael W. Deem and Ramdas Pophale) SiO2 
 PCOD8222818
Probable space group: P C C A
;
_chemical_formula_sum "Si O2"
_cell_formula_units_Z 36
_cell_length_a 5.084462
_cell_length_b 15.146138
_cell_length_c 23.802183
_cell_angle_alpha 90.000000
_cell_angle_beta 90.000000
_cell_angle_gamma 90.000000
_cell_volume 1833.005235
_symmetry_space_group_name_H-M "P C C A"
_symmetry_group_IT_number 54
_symmetry_cell_setting 'orthorhombic'
loop_
_space_group_symop_operation_xyz
x,y,z
1/2-x,-y,z
1/2+x,-y,1/2-z
-x,y,1/2-z
-x,-y,-z
1/2+x,y,-z
1/2-x,y,1/2+z
x,-y,1/2+z
loop_
_atom_site_type_symbol
_atom_site_label
_atom_site_fract_x
_atom_site_fract_y
_atom_site_fract_z
Si Si1 0.546933 0.848715 0.313800
Si Si2 0.250000 0.000000 0.111491
Si Si3 0.001148 0.557338 0.315375
Si Si4 0.535571 0.750678 0.644392
Si Si5 0.434813 0.852992 0.537399
O O1 0.500000 0.877477 0.250000
O O2 0.320559 0.785377 0.337401
O O3 0.819388 0.795550 0.315732
O O4 0.565661 0.937356 0.350683
O O5 0.048345 0.943445 0.073308
O O6 0.250000 0.500000 0.331804
O O7 0.015176 0.645980 0.351165
O O8 0.750000 0.500000 0.332328
O O9 0.000000 0.583310 0.250000
O O10 0.479784 0.771276 0.579109
O O11 0.641984 0.849177 0.487456
#
# Coordination Sequence:
#
# PCOD8222818 Si02
#       5
#     8   4   8   8   8
#     4  11  23  38  58  85 123 160 191 233 288 358
#     4  10  24  38  58  86 114 152 200 244 292 336
#     4  10  20  35  60  90 118 147 181 227 285 353
#     4  11  23  40  60  87 118 156 196 235 292 348
#     4  11  23  40  60  81 111 151 201 252 289 328
#
# _framework density 19.639879000000001
#
# number of rings (size 3 to 8) (size 9 to 14) (size 15 to 20)
#    0.000    1.333    0.000    6.667    0.000   12.444 
#    0.000    0.000    0.000    4.000    0.000    0.000 
#    0.000    0.000    0.000    0.000    0.000    0.000 
#
# Total GULP energy -446589.209319 kJ/mol
# GULP energy per Si atom -12405.255814 kJ/mol
# Density = 1.959518 g / cm^3
# Si number density = 19.639879 Si / 1000 Ang^3
#
#
#
# Elastic Constant Matrix: (Units=GPa)
#
#
# Indices 1 2 3 4 5 6 
#
# 1 104.5563 43.9791 23.9345 0.0000 0.0000 0.0000
# 2 43.9791 164.2118 57.8533 0.0000 0.0000 0.0000
# 3 23.9345 57.8533 106.5822 0.0000 0.0000 0.0000
# 4 0.0000 0.0000 0.0000 24.1328 0.0000 0.0000
# 5 0.0000 0.0000 0.0000 0.0000 31.5098 0.0000
# 6 0.0000 0.0000 0.0000 0.0000 0.0000 -16.6470
#
#
#
# Elastic Compliance Matrix: (Units=1/GPa)
#
#
# Indices 1 2 3 4 5 6 
#
# 1 0.010875 -0.002537 -0.001065 0.000000 0.000000 0.000000
# 2 -0.002537 0.008122 -0.003839 0.000000 0.000000 0.000000
# 3 -0.001065 -0.003839 0.011705 0.000000 0.000000 0.000000
# 4 0.000000 0.000000 0.000000 0.041437 0.000000 0.000000
# 5 0.000000 0.000000 0.000000 0.000000 0.031736 0.000000
# 6 0.000000 0.000000 0.000000 0.000000 0.000000 -0.060071
#
#
# Mechanical properties :
#
#
# Convention : Reuss Voigt Hill
#
# Bulk Modulus (GPa) = 63.21020 69.65379 66.43200
# Shear Modulus (GPa) = 78.17392 24.43803 51.30598
#
# Velocity S-wave (km/s) = 6.31586 3.53130 5.11665
# Velocity P-wave (km/s) = 9.24344 7.22283 8.29489
#
# Compressibility (1/GPa) = 0.01582023
#
# Stress axis : x y z
#
# Youngs Moduli (GPa) = 91.95142 123.12731 85.43213
#
# Poissons Ratio (x) = 0.31243 0.09097
# Poissons Ratio (y) = 0.23332 0.32794
# Poissons Ratio (z) = 0.09791 0.47264
#
# Static dielectric constant tensor:
#      x y z
#    x 3.680900 0.000000 0.000000 
#    y 0.000000 3.526230 0.000000 
#    z 0.000000 0.000000 3.611110 
# 
# 
# High freq. dielectric constant tensor:
#      x y z
#    x 1.782890 0.000000 0.000000 
#    y 0.000000 1.759510 0.000000 
#    z 0.000000 0.000000 1.760880 
# 
# From -- ./inp_files/19613.got.cif
#   From: 2010.03.12/outbox.cif.g09.slc.cpg/sg54_10_cif.got.tgz:19613.got - 2010.04.16 15:00:50.
