data_PCOD8222208
_publ_section_title
;
Structure prediction by ZEFSAII (Michael W. Deem and Ramdas Pophale) SiO2 
 PCOD8222208
Probable space group: P M N A
;
_chemical_formula_sum "Si O2"
_cell_formula_units_Z 32
_cell_length_a 10.389697
_cell_length_b 5.277226
_cell_length_c 24.587494
_cell_angle_alpha 90.000000
_cell_angle_beta 90.000000
_cell_angle_gamma 90.000000
_cell_volume 1348.102278
_symmetry_space_group_name_H-M "P M N A"
_symmetry_group_IT_number 53
_symmetry_cell_setting 'orthorhombic'
loop_
_space_group_symop_operation_xyz
x,y,z
1/2-x,-y,1/2+z
x,-y,-z
1/2-x,y,1/2-z
-x,-y,-z
1/2+x,y,1/2-z
-x,y,z
1/2+x,-y,1/2+z
loop_
_atom_site_type_symbol
_atom_site_label
_atom_site_fract_x
_atom_site_fract_y
_atom_site_fract_z
Si Si1 0.356376 0.750008 0.703663
Si Si2 0.000000 0.749999 0.375519
Si Si3 0.230132 0.749990 0.147694
Si Si4 0.500000 0.249999 0.050260
Si Si5 0.237533 0.750001 0.019296
O O1 0.250000 0.749991 0.750000
O O2 0.500000 0.750000 0.728813
O O3 0.342947 0.500244 0.666885
O O4 0.342951 0.999794 0.666892
O O5 0.120727 0.749993 0.333217
O O6 0.000000 0.496838 0.411992
O O7 0.000000 0.003170 0.411989
O O8 0.248472 0.750006 0.083322
O O9 0.376117 0.249997 0.011205
O O10 0.160499 0.500000 0.000000
O O11 0.160498 0.000000 0.000000
#
# Coordination Sequence:
#
# PCOD8222208 Si02
#       5
#     8   4   8   4   8
#     4  12  30  55  79 103 139 185 244 312 370 438
#     4  12  23  36  70 116 152 198 234 302 344 419
#     4  12  25  43  75 108 150 187 239 296 369 421
#     4  12  19  36  54 112 164 194 240 294 336 385
#     4  12  20  35  59 104 153 195 233 288 343 408
#
# _framework density 23.737071
#
# number of rings (size 3 to 8) (size 9 to 14) (size 15 to 20)
#    0.000    0.000    5.000    6.000    3.500    0.000 
#    0.000    0.000    0.000   15.000    0.000    0.000 
#    0.000    0.000    0.000    0.000    0.000    0.000 
#
# Total GULP energy -396581.956843 kJ/mol
# GULP energy per Si atom -12393.186151 kJ/mol
# Density = 2.368304 g / cm^3
# Si number density = 23.737071 Si / 1000 Ang^3
#
#
#
# Elastic Constant Matrix: (Units=GPa)
#
#
# Indices 1 2 3 4 5 6 
#
# 1 140.9154 42.3059 43.7646 0.0000 0.0000 0.0000
# 2 42.3059 254.7958 48.2362 0.0000 0.0000 0.0000
# 3 43.7646 48.2362 67.6854 0.0000 0.0000 0.0000
# 4 0.0000 0.0000 0.0000 26.1837 0.0000 0.0000
# 5 0.0000 0.0000 0.0000 0.0000 39.3348 0.0000
# 6 0.0000 0.0000 0.0000 0.0000 0.0000 -467.6969
#
#
#
# Elastic Compliance Matrix: (Units=1/GPa)
#
#
# Indices 1 2 3 4 5 6 
#
# 1 0.008924 -0.000450 -0.005449 0.000000 0.000000 0.000000
# 2 -0.000450 0.004559 -0.002958 0.000000 0.000000 0.000000
# 3 -0.005449 -0.002958 0.020406 0.000000 0.000000 0.000000
# 4 0.000000 0.000000 0.000000 0.038192 0.000000 0.000000
# 5 0.000000 0.000000 0.000000 0.000000 0.025423 0.000000
# 6 0.000000 0.000000 0.000000 0.000000 0.000000 -0.002138
#
#
# Mechanical properties :
#
#
# Convention : Reuss Voigt Hill
#
# Bulk Modulus (GPa) = 61.82801 81.33443 71.58122
# Shear Modulus (GPa) = 42.20377 -58.49636 -8.14629
#
# Velocity S-wave (km/s) = 4.22117 -4.96960 -1.85454
# Velocity P-wave (km/s) = 7.06125 1.18737 5.06316
#
# Compressibility (1/GPa) = 0.01617390
#
# Stress axis : x y z
#
# Youngs Moduli (GPa) = 112.05698 219.32276 49.00514
#
# Poissons Ratio (x) = 0.09871 0.26705
# Poissons Ratio (y) = 0.05044 0.14497
# Poissons Ratio (z) = 0.61065 0.64883
#
# Static dielectric constant tensor:
#      x y z
#    x 4.609700 0.000000 0.000000 
#    y 0.000000 5.525630 0.000000 
#    z 0.000000 0.000000 4.059510 
# 
# 
# High freq. dielectric constant tensor:
#      x y z
#    x 1.918940 0.000000 0.000000 
#    y 0.000000 1.987180 0.000000 
#    z 0.000000 0.000000 1.927600 
# 
# From -- ./inp_files/34654.got.cif
#   From: 2010.03.12/outbox.cif.g09.slc.cpg/sg53_18_cif.got.tgz:34654.got - 2010.04.16 14:36:59.
