data_PCOD8222399
_publ_section_title
;
Structure prediction by ZEFSAII (Michael W. Deem and Ramdas Pophale) SiO2 
 PCOD8222399
Probable space group: P C C A
;
_chemical_formula_sum "Si O2"
_cell_formula_units_Z 64
_cell_length_a 15.549034
_cell_length_b 9.295177
_cell_length_c 25.392231
_cell_angle_alpha 90.000000
_cell_angle_beta 90.000000
_cell_angle_gamma 90.000000
_cell_volume 3669.965128
_symmetry_space_group_name_H-M "P C C A"
_symmetry_group_IT_number 54
_symmetry_cell_setting 'orthorhombic'
loop_
_space_group_symop_operation_xyz
x,y,z
1/2-x,-y,z
1/2+x,-y,1/2-z
-x,y,1/2-z
-x,-y,-z
1/2+x,y,-z
1/2-x,y,1/2+z
x,-y,1/2+z
loop_
_atom_site_type_symbol
_atom_site_label
_atom_site_fract_x
_atom_site_fract_y
_atom_site_fract_z
Si Si1 0.333010 0.088053 0.656970
Si Si2 0.963884 0.657770 0.495754
Si Si3 0.459490 0.167215 0.404931
Si Si4 0.820357 0.117065 0.523606
Si Si5 0.719461 0.339850 0.456571
Si Si6 0.219410 0.335444 0.665409
Si Si7 0.942710 0.829465 0.301776
Si Si8 0.050919 0.111146 0.060992
O O1 0.295991 0.230045 0.687289
O O2 0.381707 0.150492 0.606458
O O3 0.250000 0.000000 0.636999
O O4 0.395062 0.985141 0.692066
O O5 0.861513 0.665889 0.495386
O O6 0.000000 0.500000 0.500000
O O7 0.991235 0.717581 0.439547
O O8 0.999089 0.745747 0.545645
O O9 0.357610 0.176285 0.420432
O O10 0.483382 0.199884 0.345113
O O11 0.486025 0.005111 0.417376
O O12 0.790693 0.244419 0.485393
O O13 0.899679 0.046467 0.490528
O O14 0.750000 0.000000 0.536655
O O15 0.750000 0.500000 0.453400
O O16 0.702558 0.292435 0.396054
O O17 0.250000 0.500000 0.674649
O O18 0.130065 0.296985 0.695897
O O19 0.000000 0.824799 0.250000
#
# Coordination Sequence:
#
# PCOD8222399 Si02
#       8
#     8   8   8   8   8   8   8   8
#     4   9  18  33  56  82 106 134 182 236 278 321
#     4  11  21  31  47  75 114 146 175 213 266 334
#     4  10  20  34  49  76 105 141 184 217 269 328
#     4  11  19  28  48  73 108 144 172 208 263 329
#     4  11  20  31  47  76 110 144 176 214 265 323
#     4  10  20  34  58  86 109 135 181 233 285 331
#     4  10  21  39  60  78 107 147 191 239 283 318
#     4  10  18  30  47  72 106 141 173 217 263 321
#
# _framework density 17.438858
#
# number of rings (size 3 to 8) (size 9 to 14) (size 15 to 20)
#    0.000    1.750    2.500    4.875    3.500    0.000 
#    0.000    2.500    0.000    2.250    0.000    0.000 
#    0.000    0.000    0.000    0.000    0.000    0.000 
#
# Total GULP energy -793028.570706 kJ/mol
# GULP energy per Si atom -12391.071417 kJ/mol
# Density = 1.739917 g / cm^3
# Si number density = 17.438858 Si / 1000 Ang^3
#
#
#
# Elastic Constant Matrix: (Units=GPa)
#
#
# Indices 1 2 3 4 5 6 
#
# 1 87.7927 24.4060 46.4915 0.0000 0.0000 0.0000
# 2 24.4060 93.3517 33.7897 0.0000 0.0000 0.0000
# 3 46.4915 33.7897 89.0511 0.0000 0.0000 0.0000
# 4 0.0000 0.0000 0.0000 9.1757 0.0000 0.0000
# 5 0.0000 0.0000 0.0000 0.0000 32.3586 0.0000
# 6 0.0000 0.0000 0.0000 0.0000 0.0000 19.6560
#
#
#
# Elastic Compliance Matrix: (Units=1/GPa)
#
#
# Indices 1 2 3 4 5 6 
#
# 1 0.015885 -0.001334 -0.007787 0.000000 0.000000 0.000000
# 2 -0.001334 0.012530 -0.004058 0.000000 0.000000 0.000000
# 3 -0.007787 -0.004058 0.016834 0.000000 0.000000 0.000000
# 4 0.000000 0.000000 0.000000 0.108983 0.000000 0.000000
# 5 0.000000 0.000000 0.000000 0.000000 0.030904 0.000000
# 6 0.000000 0.000000 0.000000 0.000000 0.000000 0.050875
#
#
# Mechanical properties :
#
#
# Convention : Reuss Voigt Hill
#
# Bulk Modulus (GPa) = 52.93414 53.28553 53.10984
# Shear Modulus (GPa) = 18.61044 23.27196 20.94120
#
# Velocity S-wave (km/s) = 3.27032 3.65703 3.46907
# Velocity P-wave (km/s) = 6.68431 6.96087 6.82399
#
# Compressibility (1/GPa) = 0.01889140
#
# Stress axis : x y z
#
# Youngs Moduli (GPa) = 62.95228 79.80999 59.40190
#
# Poissons Ratio (x) = 0.10650 0.46255
# Poissons Ratio (y) = 0.08401 0.24103
# Poissons Ratio (z) = 0.49020 0.32384
#
# Static dielectric constant tensor:
#      x y z
#    x 3.541920 0.000000 0.000000 
#    y 0.000000 3.289270 0.000000 
#    z 0.000000 0.000000 2.929760 
# 
# 
# High freq. dielectric constant tensor:
#      x y z
#    x 1.685830 0.000000 0.000000 
#    y 0.000000 1.677620 0.000000 
#    z 0.000000 0.000000 1.626890 
# 
# From -- ./inp_files/24497.got.cif
#   From: 2010.03.12/outbox.cif.g09.slc.cpg/sg54_13_cif.got.tgz:24497.got - 2010.04.16 15:00:50.
