data_PCOD8222994
_publ_section_title
;
Structure prediction by ZEFSAII (Michael W. Deem and Ramdas Pophale) SiO2 
 PCOD8222994
Probable space group: P C C A
;
_chemical_formula_sum "Si O2"
_cell_formula_units_Z 40
_cell_length_a 18.383330
_cell_length_b 10.245007
_cell_length_c 8.688818
_cell_angle_alpha 90.000000
_cell_angle_beta 90.000000
_cell_angle_gamma 90.000000
_cell_volume 1636.428909
_symmetry_space_group_name_H-M "P C C A"
_symmetry_group_IT_number 54
_symmetry_cell_setting 'orthorhombic'
loop_
_space_group_symop_operation_xyz
x,y,z
1/2-x,-y,z
1/2+x,-y,1/2-z
-x,y,1/2-z
-x,-y,-z
1/2+x,y,-z
1/2-x,y,1/2+z
x,-y,1/2+z
loop_
_atom_site_type_symbol
_atom_site_label
_atom_site_fract_x
_atom_site_fract_y
_atom_site_fract_z
Si Si1 0.500000 0.712289 0.750000
Si Si2 0.617586 0.147693 0.684885
Si Si3 0.592961 0.883164 0.528792
Si Si4 0.129157 0.346657 0.559777
Si Si5 0.250000 0.500000 0.434639
Si Si6 0.223533 0.222919 0.795505
O O1 0.531764 0.802393 0.616762
O O2 0.437894 0.620339 0.673900
O O3 0.601308 0.286251 0.601948
O O4 0.704423 0.135002 0.718467
O O5 0.587347 0.034842 0.573543
O O6 0.576950 0.136693 0.848143
O O7 0.673498 0.833562 0.569793
O O8 0.176669 0.478470 0.537265
O O9 0.179632 0.230125 0.633581
O O10 0.257857 0.372986 0.331151
#
# Coordination Sequence:
#
# PCOD8222994 Si02
#       6
#     4   8   8   8   4   8
#     4  10  24  44  62  94 134 172 212 258 320 388
#     4  11  22  37  62  92 124 168 214 262 318 376
#     4  11  23  38  60  91 131 170 210 260 317 384
#     4  10  22  41  65  93 128 166 213 264 319 380
#     4  10  20  38  68  94 120 164 214 270 320 370
#     4  10  21  38  61  92 123 160 214 269 321 376
#
# _framework density 24.443470000000001
#
# number of rings (size 3 to 8) (size 9 to 14) (size 15 to 20)
#    0.000    1.600    0.000    6.000    0.000    7.200 
#    0.000    4.000    0.000    0.000    0.000    0.000 
#    0.000    0.000    0.000    0.000    0.000    0.000 
#
# Total GULP energy -496000.439402 kJ/mol
# GULP energy per Si atom -12400.010985 kJ/mol
# Density = 2.438784 g / cm^3
# Si number density = 24.443470 Si / 1000 Ang^3
#
#
#
# Elastic Constant Matrix: (Units=GPa)
#
#
# Indices 1 2 3 4 5 6 
#
# 1 98.2094 19.0361 41.1235 0.0000 0.0000 0.0000
# 2 19.0361 73.4162 35.0314 0.0000 0.0000 0.0000
# 3 41.1235 35.0314 155.9990 0.0000 0.0000 0.0000
# 4 0.0000 0.0000 0.0000 22.2686 0.0000 0.0000
# 5 0.0000 0.0000 0.0000 0.0000 34.8432 0.0000
# 6 0.0000 0.0000 0.0000 0.0000 0.0000 36.5394
#
#
#
# Elastic Compliance Matrix: (Units=1/GPa)
#
#
# Indices 1 2 3 4 5 6 
#
# 1 0.011641 -0.001741 -0.002678 0.000000 0.000000 0.000000
# 2 -0.001741 0.015516 -0.003025 0.000000 0.000000 0.000000
# 3 -0.002678 -0.003025 0.007796 0.000000 0.000000 0.000000
# 4 0.000000 0.000000 0.000000 0.044906 0.000000 0.000000
# 5 0.000000 0.000000 0.000000 0.000000 0.028700 0.000000
# 6 0.000000 0.000000 0.000000 0.000000 0.000000 0.027368
#
#
# Mechanical properties :
#
#
# Convention : Reuss Voigt Hill
#
# Bulk Modulus (GPa) = 49.83874 57.55630 53.69752
# Shear Modulus (GPa) = 31.74553 34.22583 32.98568
#
# Velocity S-wave (km/s) = 3.60770 3.74599 3.67750
# Velocity P-wave (km/s) = 6.14717 6.50444 6.32833
#
# Compressibility (1/GPa) = 0.02006471
#
# Stress axis : x y z
#
# Youngs Moduli (GPa) = 85.90315 64.44997 128.27728
#
# Poissons Ratio (x) = 0.11218 0.34351
# Poissons Ratio (y) = 0.14953 0.38809
# Poissons Ratio (z) = 0.23004 0.19499
#
# Static dielectric constant tensor:
#      x y z
#    x 4.620740 0.000000 0.000000 
#    y 0.000000 3.963430 0.000000 
#    z 0.000000 0.000000 4.484750 
# 
# 
# High freq. dielectric constant tensor:
#      x y z
#    x 1.977750 0.000000 0.000000 
#    y 0.000000 1.936830 0.000000 
#    z 0.000000 0.000000 1.983970 
# 
# From -- ./inp_files/4010.got.cif
#   From: 2010.03.12/outbox.cif.g09.slc.cpg/sg54_3_cif.got.tgz:4010.got - 2010.04.16 15:00:50.
