data_PCOD8222502
_publ_section_title
;
Structure prediction by ZEFSAII (Michael W. Deem and Ramdas Pophale) SiO2 
 PCOD8222502
Probable space group: P C C A
;
_chemical_formula_sum "Si O2"
_cell_formula_units_Z 60
_cell_length_a 23.488574
_cell_length_b 8.168831
_cell_length_c 15.851670
_cell_angle_alpha 90.000000
_cell_angle_beta 90.000000
_cell_angle_gamma 90.000000
_cell_volume 3041.526364
_symmetry_space_group_name_H-M "P C C A"
_symmetry_group_IT_number 54
_symmetry_cell_setting 'orthorhombic'
loop_
_space_group_symop_operation_xyz
x,y,z
1/2-x,-y,z
1/2+x,-y,1/2-z
-x,y,1/2-z
-x,-y,-z
1/2+x,y,-z
1/2-x,y,1/2+z
x,-y,1/2+z
loop_
_atom_site_type_symbol
_atom_site_label
_atom_site_fract_x
_atom_site_fract_y
_atom_site_fract_z
Si Si1 0.940459 0.295993 0.883347
Si Si2 0.361753 0.604801 0.478475
Si Si3 0.942405 0.581173 0.767215
Si Si4 0.845548 0.780902 0.696189
Si Si5 0.250000 0.500000 0.571521
Si Si6 0.063508 0.350816 0.887505
Si Si7 0.120967 0.137874 0.764245
Si Si8 0.241432 0.812995 0.190499
O O1 0.936613 0.487259 0.855771
O O2 0.927723 0.169774 0.806545
O O3 0.004516 0.265903 0.920222
O O4 0.892338 0.273113 0.955272
O O5 0.345350 0.717345 0.399100
O O6 0.305461 0.517645 0.513452
O O7 0.407552 0.463795 0.457695
O O8 0.882038 0.665118 0.756545
O O9 0.954152 0.448487 0.695174
O O10 0.000000 0.692944 0.750000
O O11 0.781172 0.788601 0.728053
O O12 0.876084 0.951851 0.709219
O O13 0.244177 0.669094 0.624378
O O14 0.109205 0.219372 0.854974
O O15 0.178083 0.212537 0.724106
O O16 0.250000 0.000000 0.153548
#
# Coordination Sequence:
#
# PCOD8222502 Si02
#       8
#     8   8   8   8   4   8   8   8
#     4  10  18  38  61  86 120 157 208 256 303 375
#     4  11  23  37  57  96 122 156 206 263 324 376
#     4   8  16  32  56  83 110 153 203 242 284 360
#     4  10  22  37  58  86 124 156 199 259 312 363
#     4  12  24  40  68  92 124 172 216 256 312 392
#     4   9  20  35  59  86 120 160 199 252 313 368
#     4  10  20  39  59  85 117 166 210 247 304 380
#     4  10  23  42  62  89 120 165 215 260 299 372
#
# _framework density 19.726937
#
# number of rings (size 3 to 8) (size 9 to 14) (size 15 to 20)
#    0.000    2.133    1.333    2.400    5.600    1.067 
#    2.400    2.000    0.000    0.000    0.000    0.000 
#    0.000    0.000    0.000    0.000    0.000    0.000 
#
# Total GULP energy -743367.951462 kJ/mol
# GULP energy per Si atom -12389.465858 kJ/mol
# Density = 1.968204 g / cm^3
# Si number density = 19.726937 Si / 1000 Ang^3
#
#
#
# Elastic Constant Matrix: (Units=GPa)
#
#
# Indices 1 2 3 4 5 6 
#
# 1 115.2933 39.3316 36.5410 0.0000 0.0000 0.0000
# 2 39.3316 93.1624 47.2992 0.0000 0.0000 0.0000
# 3 36.5410 47.2992 86.3385 0.0000 0.0000 0.0000
# 4 0.0000 0.0000 0.0000 -16.2573 0.0000 0.0000
# 5 0.0000 0.0000 0.0000 0.0000 30.7312 0.0000
# 6 0.0000 0.0000 0.0000 0.0000 0.0000 2.2204
#
#
#
# Elastic Compliance Matrix: (Units=1/GPa)
#
#
# Indices 1 2 3 4 5 6 
#
# 1 0.010607 -0.003046 -0.002820 0.000000 0.000000 0.000000
# 2 -0.003046 0.015745 -0.007336 0.000000 0.000000 0.000000
# 3 -0.002820 -0.007336 0.016795 0.000000 0.000000 0.000000
# 4 0.000000 0.000000 0.000000 -0.061511 0.000000 0.000000
# 5 0.000000 0.000000 0.000000 0.000000 0.032540 0.000000
# 6 0.000000 0.000000 0.000000 0.000000 0.000000 0.450362
#
#
# Mechanical properties :
#
#
# Convention : Reuss Voigt Hill
#
# Bulk Modulus (GPa) = 59.73362 60.12642 59.93002
# Shear Modulus (GPa) = 10.07003 14.78036 12.42520
#
# Velocity S-wave (km/s) = 2.26181 2.74021 2.51242
# Velocity P-wave (km/s) = 6.09648 6.36845 6.23395
#
# Compressibility (1/GPa) = 0.01674099
#
# Stress axis : x y z
#
# Youngs Moduli (GPa) = 94.28165 63.51385 59.54145
#
# Poissons Ratio (x) = 0.19346 0.16792
# Poissons Ratio (y) = 0.28718 0.43681
# Poissons Ratio (z) = 0.26590 0.46596
#
# Static dielectric constant tensor:
#      x y z
#    x 3.902030 0.000000 0.000000 
#    y 0.000000 3.513780 0.000000 
#    z 0.000000 0.000000 3.653740 
# 
# 
# High freq. dielectric constant tensor:
#      x y z
#    x 1.794620 0.000000 0.000000 
#    y 0.000000 1.746460 0.000000 
#    z 0.000000 0.000000 1.754000 
# 
# From -- ./inp_files/14948.got.cif
#   From: 2010.03.12/outbox.cif.g09.slc.cpg/sg54_8_cif.got.tgz:14948.got - 2010.04.16 15:00:50.
