data_PCOD8222939
_publ_section_title
;
Structure prediction by ZEFSAII (Michael W. Deem and Ramdas Pophale) SiO2 
 PCOD8222939
Probable space group: P C C A
;
_chemical_formula_sum "Si O2"
_cell_formula_units_Z 48
_cell_length_a 13.106752
_cell_length_b 19.891636
_cell_length_c 8.677223
_cell_angle_alpha 90.000000
_cell_angle_beta 90.000000
_cell_angle_gamma 90.000000
_cell_volume 2262.279938
_symmetry_space_group_name_H-M "P C C A"
_symmetry_group_IT_number 54
_symmetry_cell_setting 'orthorhombic'
loop_
_space_group_symop_operation_xyz
x,y,z
1/2-x,-y,z
1/2+x,-y,1/2-z
-x,y,1/2-z
-x,-y,-z
1/2+x,y,-z
1/2-x,y,1/2+z
x,-y,1/2+z
loop_
_atom_site_type_symbol
_atom_site_label
_atom_site_fract_x
_atom_site_fract_y
_atom_site_fract_z
Si Si1 0.509280 0.310273 0.074885
Si Si2 0.847494 0.412496 0.933549
Si Si3 0.290510 0.713547 0.081242
Si Si4 0.864477 0.220536 0.114333
Si Si5 0.884516 0.931492 0.709871
Si Si6 0.250000 0.000000 0.042689
Si Si7 0.750000 0.500000 0.689817
O O1 0.500000 0.286160 0.250000
O O2 0.463100 0.385495 0.047924
O O3 0.627464 0.316642 0.035957
O O4 0.463172 0.251621 0.967859
O O5 0.788960 0.345100 0.886528
O O6 0.836551 0.465922 0.796130
O O7 0.808927 0.444216 0.092115
O O8 0.341285 0.733116 0.240385
O O9 0.231984 0.776884 0.002550
O O10 0.889271 0.146585 0.170721
O O11 0.000000 0.956482 0.750000
O O12 0.840445 0.968494 0.559272
O O13 0.806888 0.944546 0.851495
#
# Coordination Sequence:
#
# PCOD8222939 Si02
#       7
#     8   8   8   8   8   4   4
#     4  11  22  38  59  87 117 152 193 245 306 364
#     4  10  21  38  57  80 113 153 193 244 300 357
#     4  11  21  39  60  87 119 151 192 249 311 366
#     4  11  23  38  64  92 119 155 197 249 307 364
#     4  11  22  42  64  94 130 170 217 262 310 374
#     4  10  24  40  64  92 130 178 216 258 312 362
#     4  10  20  38  58  78 112 154 200 246 292 358
#
# _framework density 21.217534000000001
#
# number of rings (size 3 to 8) (size 9 to 14) (size 15 to 20)
#    0.000    1.333    0.000    8.000    0.000    0.000 
#    0.000   11.667    0.000    0.000    0.000    0.000 
#    0.000    0.000    0.000    0.000    0.000    0.000 
#
# Total GULP energy -595229.811215 kJ/mol
# GULP energy per Si atom -12400.621067 kJ/mol
# Density = 2.116924 g / cm^3
# Si number density = 21.217534 Si / 1000 Ang^3
#
#
#
# Elastic Constant Matrix: (Units=GPa)
#
#
# Indices 1 2 3 4 5 6 
#
# 1 93.9985 15.0729 19.5009 0.0000 0.0000 0.0000
# 2 15.0729 95.1290 25.3671 0.0000 0.0000 0.0000
# 3 19.5009 25.3671 104.3245 0.0000 0.0000 0.0000
# 4 0.0000 0.0000 0.0000 33.5813 0.0000 0.0000
# 5 0.0000 0.0000 0.0000 0.0000 38.7374 0.0000
# 6 0.0000 0.0000 0.0000 0.0000 0.0000 32.7837
#
#
#
# Elastic Compliance Matrix: (Units=1/GPa)
#
#
# Indices 1 2 3 4 5 6 
#
# 1 0.011217 -0.001303 -0.001780 0.000000 0.000000 0.000000
# 2 -0.001303 0.011392 -0.002527 0.000000 0.000000 0.000000
# 3 -0.001780 -0.002527 0.010533 0.000000 0.000000 0.000000
# 4 0.000000 0.000000 0.000000 0.029778 0.000000 0.000000
# 5 0.000000 0.000000 0.000000 0.000000 0.025815 0.000000
# 6 0.000000 0.000000 0.000000 0.000000 0.000000 0.030503
#
#
# Mechanical properties :
#
#
# Convention : Reuss Voigt Hill
#
# Bulk Modulus (GPa) = 45.61399 45.92596 45.76997
# Shear Modulus (GPa) = 36.29407 36.58789 36.44098
#
# Velocity S-wave (km/s) = 4.14039 4.15712 4.14876
# Velocity P-wave (km/s) = 6.66349 6.68838 6.67594
#
# Compressibility (1/GPa) = 0.02192310
#
# Stress axis : x y z
#
# Youngs Moduli (GPa) = 89.15354 87.77959 94.94384
#
# Poissons Ratio (x) = 0.11434 0.16899
# Poissons Ratio (y) = 0.11613 0.23988
# Poissons Ratio (z) = 0.15869 0.22178
#
# Static dielectric constant tensor:
#      x y z
#    x 4.166420 0.000000 0.000000 
#    y 0.000000 3.679260 0.000000 
#    z 0.000000 0.000000 4.035360 
# 
# 
# High freq. dielectric constant tensor:
#      x y z
#    x 1.838220 0.000000 0.000000 
#    y 0.000000 1.818090 0.000000 
#    z 0.000000 0.000000 1.853060 
# 
# From -- ./inp_files/3621.got.cif
#   From: 2010.03.12/outbox.cif.g09.slc.cpg/sg54_2_cif.got.tgz:3621.got - 2010.04.16 15:00:50.
