data_PCOD8222421
_publ_section_title
;
Structure prediction by ZEFSAII (Michael W. Deem and Ramdas Pophale) SiO2 
 PCOD8222421
Probable space group: P C C A
;
_chemical_formula_sum "Si O2"
_cell_formula_units_Z 52
_cell_length_a 8.856602
_cell_length_b 11.334757
_cell_length_c 24.679136
_cell_angle_alpha 90.000000
_cell_angle_beta 90.000000
_cell_angle_gamma 90.000000
_cell_volume 2477.475075
_symmetry_space_group_name_H-M "P C C A"
_symmetry_group_IT_number 54
_symmetry_cell_setting 'orthorhombic'
loop_
_space_group_symop_operation_xyz
x,y,z
1/2-x,-y,z
1/2+x,-y,1/2-z
-x,y,1/2-z
-x,-y,-z
1/2+x,y,-z
1/2-x,y,1/2+z
x,-y,1/2+z
loop_
_atom_site_type_symbol
_atom_site_label
_atom_site_fract_x
_atom_site_fract_y
_atom_site_fract_z
Si Si1 0.047785 0.548196 0.627205
Si Si2 0.899554 0.317956 0.928807
Si Si3 0.229986 0.137496 0.145815
Si Si4 0.696324 0.751114 0.522057
Si Si5 0.337514 0.315962 0.726784
Si Si6 0.250000 0.500000 0.810002
Si Si7 0.008761 0.213389 0.429104
O O1 0.894369 0.498846 0.652396
O O2 0.139129 0.436570 0.603389
O O3 0.150299 0.601594 0.674252
O O4 0.012743 0.645048 0.580505
O O5 0.846180 0.200860 0.895988
O O6 0.080177 0.318169 0.939190
O O7 0.808555 0.328766 0.985441
O O8 0.244166 0.196573 0.205562
O O9 0.056995 0.150085 0.124004
O O10 0.250000 0.000000 0.151899
O O11 0.590729 0.828436 0.481614
O O12 0.815103 0.821907 0.560947
O O13 0.500000 0.282168 0.750000
O O14 0.240133 0.382695 0.772427
#
# Coordination Sequence:
#
# PCOD8222421 Si02
#       7
#     8   8   8   8   8   4   8
#     4  10  19  30  52  79 110 143 172 213 264 321
#     4  10  20  34  52  80 111 144 181 217 262 317
#     4  10  21  39  58  76 104 141 182 231 277 315
#     4   9  19  33  51  80 113 145 179 216 261 313
#     4   9  19  35  55  79 107 139 175 217 272 329
#     4  10  18  32  54  82 108 138 174 214 262 328
#     4   9  19  34  52  78 111 145 179 216 264 316
#
# _framework density 20.989108999999999
#
# number of rings (size 3 to 8) (size 9 to 14) (size 15 to 20)
#    0.000    2.462    0.000    1.846    0.000    8.615 
#    0.000   14.615    0.000    0.000    0.000    0.000 
#    0.000    0.000    0.000    0.000    0.000    0.000 
#
# Total GULP energy -644262.330040 kJ/mol
# GULP energy per Si atom -12389.660193 kJ/mol
# Density = 2.094134 g / cm^3
# Si number density = 20.989109 Si / 1000 Ang^3
#
#
#
# Elastic Constant Matrix: (Units=GPa)
#
#
# Indices 1 2 3 4 5 6 
#
# 1 107.8706 30.8518 19.9898 0.0000 0.0000 0.0000
# 2 30.8518 126.8872 35.2691 0.0000 0.0000 0.0000
# 3 19.9898 35.2691 66.8750 0.0000 0.0000 0.0000
# 4 0.0000 0.0000 0.0000 8.7090 0.0000 0.0000
# 5 0.0000 0.0000 0.0000 0.0000 35.0435 0.0000
# 6 0.0000 0.0000 0.0000 0.0000 0.0000 14.7333
#
#
#
# Elastic Compliance Matrix: (Units=1/GPa)
#
#
# Indices 1 2 3 4 5 6 
#
# 1 0.010195 -0.001912 -0.002039 0.000000 0.000000 0.000000
# 2 -0.001912 0.009593 -0.004488 0.000000 0.000000 0.000000
# 3 -0.002039 -0.004488 0.017930 0.000000 0.000000 0.000000
# 4 0.000000 0.000000 0.000000 0.114824 0.000000 0.000000
# 5 0.000000 0.000000 0.000000 0.000000 0.028536 0.000000
# 6 0.000000 0.000000 0.000000 0.000000 0.000000 0.067873
#
#
# Mechanical properties :
#
#
# Convention : Reuss Voigt Hill
#
# Bulk Modulus (GPa) = 47.98450 52.65048 50.31749
# Shear Modulus (GPa) = 18.33004 26.06529 22.19766
#
# Velocity S-wave (km/s) = 2.95839 3.52781 3.25557
# Velocity P-wave (km/s) = 5.88053 6.46011 6.17712
#
# Compressibility (1/GPa) = 0.02084006
#
# Stress axis : x y z
#
# Youngs Moduli (GPa) = 98.08629 104.23871 55.77361
#
# Poissons Ratio (x) = 0.19932 0.11372
# Poissons Ratio (y) = 0.18755 0.25030
# Poissons Ratio (z) = 0.20000 0.46781
#
# Static dielectric constant tensor:
#      x y z
#    x 4.016140 0.000000 0.000000 
#    y 0.000000 3.375110 0.000000 
#    z 0.000000 0.000000 4.088690 
# 
# 
# High freq. dielectric constant tensor:
#      x y z
#    x 1.832700 0.000000 0.000000 
#    y 0.000000 1.767840 0.000000 
#    z 0.000000 0.000000 1.829150 
# 
# From -- ./inp_files/25899.got.cif
#   From: 2010.03.12/outbox.cif.g09.slc.cpg/sg54_13_cif.got.tgz:25899.got - 2010.04.16 15:00:50.
