data_PCOD8222213
_publ_section_title
;
Structure prediction by ZEFSAII (Michael W. Deem and Ramdas Pophale) SiO2 
 PCOD8222213
Probable space group: P M N A
;
_chemical_formula_sum "Si O2"
_cell_formula_units_Z 64
_cell_length_a 18.599764
_cell_length_b 16.431201
_cell_length_c 11.197584
_cell_angle_alpha 90.000000
_cell_angle_beta 90.000000
_cell_angle_gamma 90.000000
_cell_volume 3422.165992
_symmetry_space_group_name_H-M "P M N A"
_symmetry_group_IT_number 53
_symmetry_cell_setting 'orthorhombic'
loop_
_space_group_symop_operation_xyz
x,y,z
1/2-x,-y,1/2+z
x,-y,-z
1/2-x,y,1/2-z
-x,-y,-z
1/2+x,y,1/2-z
-x,y,z
1/2+x,-y,1/2+z
loop_
_atom_site_type_symbol
_atom_site_label
_atom_site_fract_x
_atom_site_fract_y
_atom_site_fract_z
Si Si1 0.848724 0.650002 0.575899
Si Si2 0.416230 0.376778 0.831410
Si Si3 0.917691 0.106388 0.881300
Si Si4 0.332165 0.522042 0.724396
Si Si5 0.682008 0.344160 0.455747
Si Si6 0.169646 0.742303 0.197634
Si Si7 0.418863 0.074484 0.342004
Si Si8 0.334849 0.219787 0.253736
O O1 0.900048 0.615689 0.472184
O O2 0.858780 0.586811 0.681069
O O3 0.767430 0.655471 0.533371
O O4 0.867360 0.738345 0.633511
O O5 0.500000 0.380461 0.807624
O O6 0.380512 0.442978 0.743277
O O7 0.383598 0.288904 0.800077
O O8 0.857341 0.168267 0.836071
O O9 0.000000 0.135584 0.856514
O O10 0.903103 0.020334 0.815629
O O11 0.905449 0.094438 0.020698
O O12 0.250000 0.496541 0.750000
O O13 0.340861 0.565487 0.593282
O O14 0.657682 0.322086 0.589132
O O15 0.648435 0.275901 0.368766
O O16 0.250000 0.746910 0.250000
O O17 0.500000 0.095689 0.306488
O O18 0.368149 0.130418 0.261368
O O19 0.250000 0.210480 0.250000
#
# Coordination Sequence:
#
# PCOD8222213 Si02
#       8
#     8   8   8   8   8   8   8   8
#     4   9  19  36  57  82 109 142 184 228 279 326
#     4  12  25  38  52  82 119 150 182 223 278 344
#     4   9  19  35  54  81 113 144 183 237 283 329
#     4   9  20  38  61  80 102 143 188 234 280 320
#     4   9  18  37  57  82 106 136 190 242 273 323
#     4  12  22  36  60  80 109 149 192 226 281 341
#     4   9  17  32  56  82 110 145 186 228 284 339
#     4   9  17  32  59  84 111 140 180 241 284 318
#
# _framework density 18.701606999999999
#
# number of rings (size 3 to 8) (size 9 to 14) (size 15 to 20)
#    0.000    2.250    2.500    3.375    0.000    2.500 
#    0.000    3.750    0.000    0.750    0.000    2.625 
#    0.000    0.000    0.000    0.000    0.000    0.000 
#
# Total GULP energy -793037.679793 kJ/mol
# GULP energy per Si atom -12391.213747 kJ/mol
# Density = 1.865904 g / cm^3
# Si number density = 18.701607 Si / 1000 Ang^3
#
#
#
# Elastic Constant Matrix: (Units=GPa)
#
#
# Indices 1 2 3 4 5 6 
#
# 1 92.9333 60.7619 40.2532 0.0000 0.0000 0.0000
# 2 60.7619 93.1335 34.8640 0.0000 0.0000 0.0000
# 3 40.2532 34.8640 62.0232 0.0000 0.0000 0.0000
# 4 0.0000 0.0000 0.0000 16.2892 0.0000 0.0000
# 5 0.0000 0.0000 0.0000 0.0000 19.0328 0.0000
# 6 0.0000 0.0000 0.0000 0.0000 0.0000 24.1453
#
#
#
# Elastic Compliance Matrix: (Units=1/GPa)
#
#
# Indices 1 2 3 4 5 6 
#
# 1 0.021262 -0.011026 -0.007601 0.000000 0.000000 0.000000
# 2 -0.011026 0.019317 -0.003702 0.000000 0.000000 0.000000
# 3 -0.007601 -0.003702 0.023137 0.000000 0.000000 0.000000
# 4 0.000000 0.000000 0.000000 0.061390 0.000000 0.000000
# 5 0.000000 0.000000 0.000000 0.000000 0.052541 0.000000
# 6 0.000000 0.000000 0.000000 0.000000 0.000000 0.041416
#
#
# Mechanical properties :
#
#
# Convention : Reuss Voigt Hill
#
# Bulk Modulus (GPa) = 52.47421 57.76090 55.11755
# Shear Modulus (GPa) = 18.51342 19.37419 18.94381
#
# Velocity S-wave (km/s) = 3.14974 3.22213 3.18614
# Velocity P-wave (km/s) = 6.43019 6.69294 6.56288
#
# Compressibility (1/GPa) = 0.01905698
#
# Stress axis : x y z
#
# Youngs Moduli (GPa) = 47.03235 51.76817 43.22051
#
# Poissons Ratio (x) = 0.57081 0.32852
# Poissons Ratio (y) = 0.51859 0.16001
# Poissons Ratio (z) = 0.35750 0.19166
#
# Static dielectric constant tensor:
#      x y z
#    x 3.195790 0.000000 0.000000 
#    y 0.000000 3.656900 0.000000 
#    z 0.000000 0.000000 3.498230 
# 
# 
# High freq. dielectric constant tensor:
#      x y z
#    x 1.704790 0.000000 0.000000 
#    y 0.000000 1.729120 0.000000 
#    z 0.000000 0.000000 1.718310 
# 
# From -- ./inp_files/16229.got.cif
#   From: 2010.03.12/outbox.cif.g09.slc.cpg/sg53_9_cif.got.tgz:16229.got - 2010.04.16 14:36:59.
