data_PCOD8222936
_publ_section_title
;
Structure prediction by ZEFSAII (Michael W. Deem and Ramdas Pophale) SiO2 
 PCOD8222936
Probable space group: P C C A
;
_chemical_formula_sum "Si O2"
_cell_formula_units_Z 40
_cell_length_a 18.231576
_cell_length_b 4.908988
_cell_length_c 21.605004
_cell_angle_alpha 90.000000
_cell_angle_beta 90.000000
_cell_angle_gamma 90.000000
_cell_volume 1933.617348
_symmetry_space_group_name_H-M "P C C A"
_symmetry_group_IT_number 54
_symmetry_cell_setting 'orthorhombic'
loop_
_space_group_symop_operation_xyz
x,y,z
1/2-x,-y,z
1/2+x,-y,1/2-z
-x,y,1/2-z
-x,-y,-z
1/2+x,y,-z
1/2-x,y,1/2+z
x,-y,1/2+z
loop_
_atom_site_type_symbol
_atom_site_label
_atom_site_fract_x
_atom_site_fract_y
_atom_site_fract_z
Si Si1 0.798448 0.254597 0.368097
Si Si2 0.929090 0.213814 0.452659
Si Si3 0.427959 0.039154 0.292185
Si Si4 0.981309 0.709753 0.079710
Si Si5 0.835644 0.543999 0.738767
O O1 0.750000 0.500000 0.392125
O O2 0.848847 0.187931 0.425556
O O3 0.843792 0.339250 0.307581
O O4 0.750000 0.000000 0.348399
O O5 0.921557 0.313838 0.524115
O O6 0.980424 0.415526 0.411166
O O7 0.957878 0.908351 0.448289
O O8 0.500000 0.985554 0.250000
O O9 0.447798 0.172762 0.357747
O O10 0.374318 0.251610 0.258849
O O11 0.381823 0.758581 0.303661
O O12 0.750000 0.500000 0.718606
#
# Coordination Sequence:
#
# PCOD8222936 Si02
#       5
#     8   8   8   8   8
#     4  11  21  36  58  81 108 146 190 229 275 335
#     4  10  20  38  57  82 113 143 185 237 283 327
#     4  12  22  37  61  89 115 150 199 237 279 346
#     4  10  21  36  59  83 112 147 183 234 288 327
#     4  11  23  39  57  83 120 154 185 234 295 342
#
# _framework density 20.686619
#
# number of rings (size 3 to 8) (size 9 to 14) (size 15 to 20)
#    0.000    1.200    0.000    8.400    0.000    0.000 
#    0.000    3.000    0.000    0.000    0.000    0.000 
#    0.000    0.000    0.000    0.000    0.000    0.000 
#
# Total GULP energy -495896.487632 kJ/mol
# GULP energy per Si atom -12397.412191 kJ/mol
# Density = 2.063954 g / cm^3
# Si number density = 20.686619 Si / 1000 Ang^3
#
#
#
# Elastic Constant Matrix: (Units=GPa)
#
#
# Indices 1 2 3 4 5 6 
#
# 1 86.9910 18.1545 32.5557 0.0000 0.0000 0.0000
# 2 18.1545 85.7277 -4.2191 0.0000 0.0000 0.0000
# 3 32.5557 -4.2191 94.7405 0.0000 0.0000 0.0000
# 4 0.0000 0.0000 0.0000 25.2251 0.0000 0.0000
# 5 0.0000 0.0000 0.0000 0.0000 31.7830 0.0000
# 6 0.0000 0.0000 0.0000 0.0000 0.0000 38.7430
#
#
#
# Elastic Compliance Matrix: (Units=1/GPa)
#
#
# Indices 1 2 3 4 5 6 
#
# 1 0.014023 -0.003214 -0.004962 0.000000 0.000000 0.000000
# 2 -0.003214 0.012427 0.001658 0.000000 0.000000 0.000000
# 3 -0.004962 0.001658 0.012334 0.000000 0.000000 0.000000
# 4 0.000000 0.000000 0.000000 0.039643 0.000000 0.000000
# 5 0.000000 0.000000 0.000000 0.000000 0.031463 0.000000
# 6 0.000000 0.000000 0.000000 0.000000 0.000000 0.025811
#
#
# Mechanical properties :
#
#
# Convention : Reuss Voigt Hill
#
# Bulk Modulus (GPa) = 38.83759 40.04905 39.44332
# Shear Modulus (GPa) = 31.78229 33.88144 32.83186
#
# Velocity S-wave (km/s) = 3.92391 4.05142 3.98817
# Velocity P-wave (km/s) = 6.27251 6.42551 6.34947
#
# Compressibility (1/GPa) = 0.02574825
#
# Stress axis : x y z
#
# Youngs Moduli (GPa) = 71.31087 80.46978 81.07652
#
# Poissons Ratio (x) = 0.25862 0.40229
# Poissons Ratio (y) = 0.22918 -0.13441
# Poissons Ratio (z) = 0.35384 -0.13340
#
# Static dielectric constant tensor:
#      x y z
#    x 3.714250 0.000000 0.000000 
#    y 0.000000 4.132460 0.000000 
#    z 0.000000 0.000000 3.696530 
# 
# 
# High freq. dielectric constant tensor:
#      x y z
#    x 1.798420 0.000000 0.000000 
#    y 0.000000 1.836890 0.000000 
#    z 0.000000 0.000000 1.797790 
# 
# From -- ./inp_files/21763.got.cif
#   From: 2010.03.12/outbox.cif.g09.slc.cpg/sg54_11_cif.got.tgz:21763.got - 2010.04.16 15:00:50.
