data_PCOD8222716
_publ_section_title
;
Structure prediction by ZEFSAII (Michael W. Deem and Ramdas Pophale) SiO2 
 PCOD8222716
Probable space group: P C C A
;
_chemical_formula_sum "Si O2"
_cell_formula_units_Z 56
_cell_length_a 13.964565
_cell_length_b 14.003403
_cell_length_c 13.675464
_cell_angle_alpha 90.000000
_cell_angle_beta 90.000000
_cell_angle_gamma 90.000000
_cell_volume 2674.256560
_symmetry_space_group_name_H-M "P C C A"
_symmetry_group_IT_number 54
_symmetry_cell_setting 'orthorhombic'
loop_
_space_group_symop_operation_xyz
x,y,z
1/2-x,-y,z
1/2+x,-y,1/2-z
-x,y,1/2-z
-x,-y,-z
1/2+x,y,-z
1/2-x,y,1/2+z
x,-y,1/2+z
loop_
_atom_site_type_symbol
_atom_site_label
_atom_site_fract_x
_atom_site_fract_y
_atom_site_fract_z
Si Si1 0.038931 0.921428 0.859959
Si Si2 0.405466 0.546572 0.694210
Si Si3 0.289994 0.597996 0.876202
Si Si4 0.583448 0.879129 0.547435
Si Si5 0.292077 0.791890 0.424675
Si Si6 0.938984 0.588046 0.964150
Si Si7 0.058126 0.276331 0.556533
O O1 0.132713 0.853824 0.862132
O O2 0.000000 0.922031 0.750000
O O3 0.075601 0.025195 0.890606
O O4 0.954470 0.890048 0.935289
O O5 0.500000 0.514678 0.750000
O O6 0.320334 0.569267 0.767325
O O7 0.380721 0.450631 0.630226
O O8 0.425454 0.641909 0.634784
O O9 0.250000 0.500000 0.924169
O O10 0.220763 0.689555 0.869860
O O11 0.373254 0.629145 0.949343
O O12 0.693835 0.846814 0.552534
O O13 0.514611 0.802040 0.600626
O O14 0.340567 0.771634 0.530245
O O15 0.000000 0.500000 0.000000
O O16 0.012554 0.677528 0.954820
#
# Coordination Sequence:
#
# PCOD8222716 Si02
#       7
#     8   8   8   8   8   8   8
#     4  10  24  45  71 103 135 173 220 279 351 407
#     4  11  21  36  60  87 122 175 228 266 326 388
#     4  12  24  39  58  93 129 173 224 274 323 389
#     4  10  21  45  71  97 134 175 216 274 342 411
#     4  11  23  42  68  95 138 173 224 275 334 400
#     4  10  19  39  59  80 127 173 214 272 321 383
#     4  10  21  40  65  90 127 179 213 271 333 390
#
# _framework density 20.940401000000001
#
# number of rings (size 3 to 8) (size 9 to 14) (size 15 to 20)
#    0.000    1.429    4.286    2.143    0.000    4.571 
#    5.143    7.143    0.000    0.000    0.000    0.000 
#    0.000    0.000    0.000    0.000    0.000    0.000 
#
# Total GULP energy -693759.790543 kJ/mol
# GULP energy per Si atom -12388.567688 kJ/mol
# Density = 2.089274 g / cm^3
# Si number density = 20.940401 Si / 1000 Ang^3
#
#
#
# Elastic Constant Matrix: (Units=GPa)
#
#
# Indices 1 2 3 4 5 6 
#
# 1 129.6348 59.2629 46.0798 0.0000 0.0000 0.0000
# 2 59.2629 132.5775 31.0645 0.0000 0.0000 0.0000
# 3 46.0798 31.0645 99.0553 0.0000 0.0000 0.0000
# 4 0.0000 0.0000 0.0000 9.8627 0.0000 0.0000
# 5 0.0000 0.0000 0.0000 0.0000 24.5243 0.0000
# 6 0.0000 0.0000 0.0000 0.0000 0.0000 41.0399
#
#
#
# Elastic Compliance Matrix: (Units=1/GPa)
#
#
# Indices 1 2 3 4 5 6 
#
# 1 0.010887 -0.003972 -0.003819 0.000000 0.000000 0.000000
# 2 -0.003972 0.009590 -0.001160 0.000000 0.000000 0.000000
# 3 -0.003819 -0.001160 0.012236 0.000000 0.000000 0.000000
# 4 0.000000 0.000000 0.000000 0.101392 0.000000 0.000000
# 5 0.000000 0.000000 0.000000 0.000000 0.040776 0.000000
# 6 0.000000 0.000000 0.000000 0.000000 0.000000 0.024367
#
#
# Mechanical properties :
#
#
# Convention : Reuss Voigt Hill
#
# Bulk Modulus (GPa) = 67.51523 70.45357 68.98440
# Shear Modulus (GPa) = 22.51378 30.07606 26.29492
#
# Velocity S-wave (km/s) = 3.28248 3.79393 3.54743
# Velocity P-wave (km/s) = 6.83212 7.27390 7.05647
#
# Compressibility (1/GPa) = 0.01481147
#
# Stress axis : x y z
#
# Youngs Moduli (GPa) = 91.85081 104.27603 81.72796
#
# Poissons Ratio (x) = 0.41416 0.31213
# Poissons Ratio (y) = 0.36481 0.09479
# Poissons Ratio (z) = 0.35079 0.12094
#
# Static dielectric constant tensor:
#      x y z
#    x 4.095670 0.000000 0.000000 
#    y 0.000000 4.079940 0.000000 
#    z 0.000000 0.000000 3.824870 
# 
# 
# High freq. dielectric constant tensor:
#      x y z
#    x 1.829120 0.000000 0.000000 
#    y 0.000000 1.840360 0.000000 
#    z 0.000000 0.000000 1.790810 
# 
# From -- ./inp_files/8412.got.cif
#   From: 2010.03.12/outbox.cif.g09.slc.cpg/sg54_5_cif.got.tgz:8412.got - 2010.04.16 15:00:50.
