data_PCOD8222040
_publ_section_title
;
Structure prediction by ZEFSAII (Michael W. Deem and Ramdas Pophale) SiO2 
 PCOD8222040
Probable space group: P M N A
;
_chemical_formula_sum "Si O2"
_cell_formula_units_Z 56
_cell_length_a 16.100236
_cell_length_b 32.397045
_cell_length_c 5.131288
_cell_angle_alpha 90.000000
_cell_angle_beta 90.000000
_cell_angle_gamma 90.000000
_cell_volume 2676.480181
_symmetry_space_group_name_H-M "P M N A"
_symmetry_group_IT_number 53
_symmetry_cell_setting 'orthorhombic'
loop_
_space_group_symop_operation_xyz
x,y,z
1/2-x,-y,1/2+z
x,-y,-z
1/2-x,y,1/2-z
-x,-y,-z
1/2+x,y,1/2-z
-x,y,z
1/2+x,-y,1/2+z
loop_
_atom_site_type_symbol
_atom_site_label
_atom_site_fract_x
_atom_site_fract_y
_atom_site_fract_z
Si Si1 0.904880 0.672889 0.862769
Si Si2 0.099085 0.905109 0.481691
Si Si3 0.401126 0.763981 0.518622
Si Si4 0.400849 0.812010 0.019298
Si Si5 0.343238 0.369629 0.855460
Si Si6 0.099101 0.046454 0.018036
Si Si7 0.193015 0.455698 0.501897
O O1 0.869269 0.717026 0.957007
O O2 0.853419 0.659331 0.608067
O O3 0.000000 0.676111 0.771060
O O4 0.900758 0.642265 0.110853
O O5 0.133967 0.858563 0.477277
O O6 0.134032 0.930409 0.727775
O O7 0.000000 0.904333 0.489007
O O8 0.132609 0.928175 0.227507
O O9 0.500000 0.764211 0.510097
O O10 0.365019 0.785595 0.260427
O O11 0.367411 0.790243 0.760451
O O12 0.500000 0.812634 0.028461
O O13 0.250000 0.366763 0.750000
O O14 0.366639 0.416154 0.952946
O O15 0.000000 0.045536 0.023221
O O16 0.134131 0.000000 0.000000
O O17 0.143867 0.500000 0.500000
O O18 0.250000 0.459999 0.750000
O O19 0.250000 0.447402 0.250000
#
# Coordination Sequence:
#
# PCOD8222040 Si02
#       7
#     8   8   8   8   8   8   8
#     4  11  22  36  54  77 108 143 175 211 266 326
#     4   9  15  21  30  43  59  84 120 168 224 274
#     4   9  17  28  42  60  83 114 149 187 236 295
#     4   9  15  24  37  53  73  98 137 186 233 282
#     4  11  21  36  57  82 108 137 177 221 260 304
#     4   9  15  21  27  37  56  83 117 160 218 284
#     4   9  17  31  53  80 106 134 173 219 260 301
#
# _framework density 20.922999999999998
#
# number of rings (size 3 to 8) (size 9 to 14) (size 15 to 20)
#    0.000    2.429    0.000    4.714    0.000    7.429 
#    0.000    0.000    0.000    2.571    0.000    0.000 
#    0.000    0.000    0.000    0.000    0.000    0.000 
#
# Total GULP energy -694120.577920 kJ/mol
# GULP energy per Si atom -12395.010320 kJ/mol
# Density = 2.087538 g / cm^3
# Si number density = 20.923000 Si / 1000 Ang^3
#
#
#
# Elastic Constant Matrix: (Units=GPa)
#
#
# Indices 1 2 3 4 5 6 
#
# 1 12.0805 17.6594 5.6446 0.0000 0.0000 0.0000
# 2 17.6594 176.8245 62.5835 0.0000 0.0000 0.0000
# 3 5.6446 62.5835 163.6730 0.0000 0.0000 0.0000
# 4 0.0000 0.0000 0.0000 46.0669 0.0000 0.0000
# 5 0.0000 0.0000 0.0000 0.0000 15.6863 0.0000
# 6 0.0000 0.0000 0.0000 0.0000 0.0000 0.7870
#
#
#
# Elastic Compliance Matrix: (Units=1/GPa)
#
#
# Indices 1 2 3 4 5 6 
#
# 1 0.096953 -0.009829 0.000415 0.000000 0.000000 0.000000
# 2 -0.009829 0.007537 -0.002543 0.000000 0.000000 0.000000
# 3 0.000415 -0.002543 0.007068 0.000000 0.000000 0.000000
# 4 0.000000 0.000000 0.000000 0.021708 0.000000 0.000000
# 5 0.000000 0.000000 0.000000 0.000000 0.063750 0.000000
# 6 0.000000 0.000000 0.000000 0.000000 0.000000 1.270711
#
#
# Mechanical properties :
#
#
# Convention : Reuss Voigt Hill
#
# Bulk Modulus (GPa) = 11.40997 58.26141 34.83569
# Shear Modulus (GPa) = 3.28762 30.28741 16.78752
#
# Velocity S-wave (km/s) = 1.25487 3.80882 2.83565
# Velocity P-wave (km/s) = 2.75041 6.87378 5.23515
#
# Compressibility (1/GPa) = 0.08764269
#
# Stress axis : x y z
#
# Youngs Moduli (GPa) = 10.31428 132.67870 141.48727
#
# Poissons Ratio (x) = 1.30416 -0.05870
# Poissons Ratio (y) = 0.10138 0.35979
# Poissons Ratio (z) = -0.00428 0.33739
#
# Static dielectric constant tensor:
#      x y z
#    x 2.930520 0.000000 0.000000 
#    y 0.000000 4.436480 0.000000 
#    z 0.000000 0.000000 4.003530 
# 
# 
# High freq. dielectric constant tensor:
#      x y z
#    x 1.734660 0.000000 0.000000 
#    y 0.000000 1.842450 0.000000 
#    z 0.000000 0.000000 1.842770 
# 
# From -- ./inp_files/1474.got.cif
#   From: 2010.03.12/outbox.cif.g09.slc.cpg/sg53_1_cif.got.tgz:1474.got - 2010.04.16 14:36:59.
