data_PCOD8222037
_publ_section_title
;
Structure prediction by ZEFSAII (Michael W. Deem and Ramdas Pophale) SiO2 
 PCOD8222037
Probable space group: P M N A
;
_chemical_formula_sum "Si O2"
_cell_formula_units_Z 32
_cell_length_a 8.394769
_cell_length_b 9.892881
_cell_length_c 19.721287
_cell_angle_alpha 90.000000
_cell_angle_beta 90.000000
_cell_angle_gamma 90.000000
_cell_volume 1637.822332
_symmetry_space_group_name_H-M "P M N A"
_symmetry_group_IT_number 53
_symmetry_cell_setting 'orthorhombic'
loop_
_space_group_symop_operation_xyz
x,y,z
1/2-x,-y,1/2+z
x,-y,-z
1/2-x,y,1/2-z
-x,-y,-z
1/2+x,y,1/2-z
-x,y,z
1/2+x,-y,1/2+z
loop_
_atom_site_type_symbol
_atom_site_label
_atom_site_fract_x
_atom_site_fract_y
_atom_site_fract_z
Si Si1 0.186417 0.817107 0.050647
Si Si2 0.184941 0.908279 0.589936
Si Si3 0.814839 0.320527 0.177155
Si Si4 0.814255 0.537524 0.423278
O O1 0.261525 0.691393 0.090931
O O2 0.000000 0.795921 0.038971
O O3 0.216502 0.952416 0.094167
O O4 0.271750 0.826532 0.977937
O O5 0.225221 0.815690 0.654067
O O6 0.000000 0.944813 0.589185
O O7 0.750000 0.364453 0.250000
O O8 0.785438 0.443064 0.126121
O O9 0.000000 0.288248 0.180625
O O10 0.770326 0.500000 0.500000
O O11 0.000000 0.517351 0.407992
#
# Coordination Sequence:
#
# PCOD8222037 Si02
#       4
#     8   8   8   8
#     4  11  21  35  59  91 122 155 199 251 303 354
#     4  11  21  37  59  87 121 158 199 248 302 358
#     4  12  25  42  63  89 123 163 206 251 307 370
#     4  11  22  38  62  91 124 161 204 253 307 361
#
# _framework density 19.538136999999999
#
# number of rings (size 3 to 8) (size 9 to 14) (size 15 to 20)
#    0.000    0.750    2.500    9.000    0.000    1.000 
#    0.000    1.250    0.000    0.000    0.000    0.000 
#    0.000    0.000    0.000    0.000    0.000    0.000 
#
# Total GULP energy -397043.597950 kJ/mol
# GULP energy per Si atom -12407.612436 kJ/mol
# Density = 1.949367 g / cm^3
# Si number density = 19.538137 Si / 1000 Ang^3
#
#
#
# Elastic Constant Matrix: (Units=GPa)
#
#
# Indices 1 2 3 4 5 6 
#
# 1 96.5646 4.9800 21.8395 0.0000 0.0000 0.0000
# 2 4.9800 106.8310 35.1457 0.0000 0.0000 0.0000
# 3 21.8395 35.1457 82.3330 0.0000 0.0000 0.0000
# 4 0.0000 0.0000 0.0000 13.4993 0.0000 0.0000
# 5 0.0000 0.0000 0.0000 0.0000 28.1820 0.0000
# 6 0.0000 0.0000 0.0000 0.0000 0.0000 32.2957
#
#
#
# Elastic Compliance Matrix: (Units=1/GPa)
#
#
# Indices 1 2 3 4 5 6 
#
# 1 0.011042 0.000522 -0.003152 0.000000 0.000000 0.000000
# 2 0.000522 0.010915 -0.004798 0.000000 0.000000 0.000000
# 3 -0.003152 -0.004798 0.015030 0.000000 0.000000 0.000000
# 4 0.000000 0.000000 0.000000 0.074078 0.000000 0.000000
# 5 0.000000 0.000000 0.000000 0.000000 0.035484 0.000000
# 6 0.000000 0.000000 0.000000 0.000000 0.000000 0.030964
#
#
# Mechanical properties :
#
#
# Convention : Reuss Voigt Hill
#
# Bulk Modulus (GPa) = 45.18438 45.51765 45.35102
# Shear Modulus (GPa) = 25.03213 29.71297 27.37255
#
# Velocity S-wave (km/s) = 3.58326 3.90393 3.74703
# Velocity P-wave (km/s) = 6.34792 6.60820 6.47937
#
# Compressibility (1/GPa) = 0.02213154
#
# Stress axis : x y z
#
# Youngs Moduli (GPa) = 90.56614 91.62051 66.53439
#
# Poissons Ratio (x) = -0.04784 0.20970
# Poissons Ratio (y) = -0.04729 0.31921
# Poissons Ratio (z) = 0.28545 0.43956
#
# Static dielectric constant tensor:
#      x y z
#    x 3.674190 0.000000 0.000000 
#    y 0.000000 3.770460 0.000000 
#    z 0.000000 0.000000 3.387630 
# 
# 
# High freq. dielectric constant tensor:
#      x y z
#    x 1.781760 0.000000 0.000000 
#    y 0.000000 1.775900 0.000000 
#    z 0.000000 0.000000 1.727640 
# 
# From -- ./inp_files/30018.got.cif
#   From: 2010.03.12/outbox.cif.g09.slc.cpg/sg53_16_cif.got.tgz:30018.got - 2010.04.16 14:36:59.
