data_PCOD8222206
_publ_section_title
;
Structure prediction by ZEFSAII (Michael W. Deem and Ramdas Pophale) SiO2 
 PCOD8222206
Probable space group: P M N A
;
_chemical_formula_sum "Si O2"
_cell_formula_units_Z 48
_cell_length_a 29.358479
_cell_length_b 8.685283
_cell_length_c 8.466469
_cell_angle_alpha 90.000000
_cell_angle_beta 90.000000
_cell_angle_gamma 90.000000
_cell_volume 2158.836979
_symmetry_space_group_name_H-M "P M N A"
_symmetry_group_IT_number 53
_symmetry_cell_setting 'orthorhombic'
loop_
_space_group_symop_operation_xyz
x,y,z
1/2-x,-y,1/2+z
x,-y,-z
1/2-x,y,1/2-z
-x,-y,-z
1/2+x,y,1/2-z
-x,y,z
1/2+x,-y,1/2+z
loop_
_atom_site_type_symbol
_atom_site_label
_atom_site_fract_x
_atom_site_fract_y
_atom_site_fract_z
Si Si1 0.872576 0.634419 0.598939
Si Si2 0.949103 0.343141 0.187615
Si Si3 0.796386 0.581171 0.829900
Si Si4 0.797173 0.053399 0.175423
Si Si5 0.875549 0.112143 0.627889
Si Si6 0.551538 0.705576 0.333370
O O1 0.897401 0.500000 0.500000
O O2 0.911443 0.727945 0.695574
O O3 0.837205 0.542085 0.710615
O O4 0.849809 0.755548 0.476612
O O5 0.938963 0.525181 0.186028
O O6 0.000000 0.311349 0.250564
O O7 0.942419 0.261048 0.019423
O O8 0.750000 0.520073 0.750000
O O9 0.798145 0.763977 0.838112
O O10 0.803761 0.500000 0.000000
O O11 0.750000 0.994424 0.250000
O O12 0.838254 0.983187 0.275645
O O13 0.802440 0.000000 0.000000
O O14 0.913690 0.187266 0.738960
O O15 0.899413 0.000000 0.500000
O O16 0.500000 0.745743 0.280125
#
# Coordination Sequence:
#
# PCOD8222206 Si02
#       6
#     8   8   8   8   8   8
#     4  12  25  40  69 104 137 180 231 291 340 399
#     4   9  20  40  66  99 135 181 239 290 342 403
#     4  11  27  48  72 104 135 175 228 288 345 399
#     4  11  27  47  73  98 136 186 227 274 342 420
#     4  12  25  44  66 103 146 180 228 280 343 416
#     4   9  20  40  68  98 137 186 234 286 344 405
#
# _framework density 22.234193999999999
#
# number of rings (size 3 to 8) (size 9 to 14) (size 15 to 20)
#    0.000    1.333    3.333    2.000    9.333    2.000 
#    0.000    0.000    0.000    2.500    0.000    0.000 
#    0.000    0.000    0.000    0.000    0.000    0.000 
#
# Total GULP energy -594839.286202 kJ/mol
# GULP energy per Si atom -12392.485129 kJ/mol
# Density = 2.218359 g / cm^3
# Si number density = 22.234194 Si / 1000 Ang^3
#
#
#
# Elastic Constant Matrix: (Units=GPa)
#
#
# Indices 1 2 3 4 5 6 
#
# 1 154.3917 39.3721 83.0765 0.0000 0.0000 0.0000
# 2 39.3721 78.1326 54.0451 0.0000 0.0000 0.0000
# 3 83.0765 54.0451 147.9997 0.0000 0.0000 0.0000
# 4 0.0000 0.0000 0.0000 59.8897 0.0000 0.0000
# 5 0.0000 0.0000 0.0000 0.0000 35.5692 0.0000
# 6 0.0000 0.0000 0.0000 0.0000 0.0000 35.6795
#
#
#
# Elastic Compliance Matrix: (Units=1/GPa)
#
#
# Indices 1 2 3 4 5 6 
#
# 1 0.009402 -0.001455 -0.004746 0.000000 0.000000 0.000000
# 2 -0.001455 0.017349 -0.005519 0.000000 0.000000 0.000000
# 3 -0.004746 -0.005519 0.011436 0.000000 0.000000 0.000000
# 4 0.000000 0.000000 0.000000 0.016697 0.000000 0.000000
# 5 0.000000 0.000000 0.000000 0.000000 0.028114 0.000000
# 6 0.000000 0.000000 0.000000 0.000000 0.000000 0.028027
#
#
# Mechanical properties :
#
#
# Convention : Reuss Voigt Hill
#
# Bulk Modulus (GPa) = 67.80704 81.50128 74.65416
# Shear Modulus (GPa) = 35.87255 39.82970 37.85112
#
# Velocity S-wave (km/s) = 4.02107 4.23705 4.13047
# Velocity P-wave (km/s) = 7.21953 7.78924 7.50979
#
# Compressibility (1/GPa) = 0.01474773
#
# Stress axis : x y z
#
# Youngs Moduli (GPa) = 106.36059 57.63934 87.44005
#
# Poissons Ratio (x) = 0.08384 0.41503
# Poissons Ratio (y) = 0.15472 0.48257
# Poissons Ratio (z) = 0.50483 0.31811
#
# Static dielectric constant tensor:
#      x y z
#    x 4.038590 0.000000 0.000000 
#    y 0.000000 3.939280 0.000000 
#    z 0.000000 0.000000 4.331710 
# 
# 
# High freq. dielectric constant tensor:
#      x y z
#    x 1.871960 0.000000 0.000000 
#    y 0.000000 1.867390 0.000000 
#    z 0.000000 0.000000 1.895640 
# 
# From -- ./inp_files/13005.got.cif
#   From: 2010.03.12/outbox.cif.g09.slc.cpg/sg53_7_cif.got.tgz:13005.got - 2010.04.16 14:36:59.
