data_PCOD8222008
_publ_section_title
;
Structure prediction by ZEFSAII (Michael W. Deem and Ramdas Pophale) SiO2 
 PCOD8222008
Probable space group: P M N A
;
_chemical_formula_sum "Si O2"
_cell_formula_units_Z 48
_cell_length_a 8.827799
_cell_length_b 15.177953
_cell_length_c 20.528698
_cell_angle_alpha 90.000000
_cell_angle_beta 90.000000
_cell_angle_gamma 90.000000
_cell_volume 2750.597511
_symmetry_space_group_name_H-M "P M N A"
_symmetry_group_IT_number 53
_symmetry_cell_setting 'orthorhombic'
loop_
_space_group_symop_operation_xyz
x,y,z
1/2-x,-y,1/2+z
x,-y,-z
1/2-x,y,1/2-z
-x,-y,-z
1/2+x,y,1/2-z
-x,y,z
1/2+x,-y,1/2+z
loop_
_atom_site_type_symbol
_atom_site_label
_atom_site_fract_x
_atom_site_fract_y
_atom_site_fract_z
Si Si1 0.677652 0.931134 0.555627
Si Si2 0.328222 0.772195 0.007145
Si Si3 0.819644 0.380427 0.684957
Si Si4 0.180607 0.001011 0.684698
Si Si5 0.829408 0.809654 0.344502
Si Si6 0.180453 0.419817 0.542627
O O1 0.500000 0.939916 0.567513
O O2 0.718545 0.830849 0.537108
O O3 0.764578 0.948000 0.622352
O O4 0.731815 0.000000 0.500000
O O5 0.500000 0.773867 0.979472
O O6 0.325087 0.814472 0.078057
O O7 0.264488 0.672060 0.010657
O O8 0.750000 0.425773 0.750000
O O9 0.752706 0.280356 0.681367
O O10 0.766494 0.429285 0.618315
O O11 0.000000 0.381949 0.689044
O O12 0.250000 0.957390 0.750000
O O13 0.000000 0.998803 0.686331
O O14 0.248217 0.101124 0.681441
O O15 0.000000 0.808044 0.319016
O O16 0.247947 0.500000 0.500000
O O17 0.000000 0.419640 0.541611
#
# Coordination Sequence:
#
# PCOD8222008 Si02
#       6
#     8   8   8   8   8   8
#     4  11  22  34  49  72 101 132 171 211 248 292
#     4   9  16  30  52  74  95 126 168 206 248 297
#     4   9  16  27  44  68  98 127 156 191 238 293
#     4  11  21  33  49  69  99 134 170 209 253 299
#     4   8  15  27  44  67  95 127 158 192 236 295
#     4   8  15  29  51  76  99 125 163 208 248 295
#
# _framework density 17.450752999999999
#
# number of rings (size 3 to 8) (size 9 to 14) (size 15 to 20)
#    0.000    2.667    1.667    3.500    0.000    0.667 
#    0.000    4.167    0.000    3.000    0.000    2.333 
#    0.000    0.000    0.000    0.000    0.000    0.000 
#
# Total GULP energy -594807.936685 kJ/mol
# GULP energy per Si atom -12391.832014 kJ/mol
# Density = 1.741103 g / cm^3
# Si number density = 17.450753 Si / 1000 Ang^3
#
#
#
# Elastic Constant Matrix: (Units=GPa)
#
#
# Indices 1 2 3 4 5 6 
#
# 1 43.3997 21.2895 34.5144 0.0000 0.0000 0.0000
# 2 21.2895 89.0143 62.9472 0.0000 0.0000 0.0000
# 3 34.5144 62.9472 132.3539 0.0000 0.0000 0.0000
# 4 0.0000 0.0000 0.0000 19.6363 0.0000 0.0000
# 5 0.0000 0.0000 0.0000 0.0000 27.0851 0.0000
# 6 0.0000 0.0000 0.0000 0.0000 0.0000 12.8989
#
#
#
# Elastic Compliance Matrix: (Units=1/GPa)
#
#
# Indices 1 2 3 4 5 6 
#
# 1 0.029414 -0.002427 -0.006516 0.000000 0.000000 0.000000
# 2 -0.002427 0.017127 -0.007513 0.000000 0.000000 0.000000
# 3 -0.006516 -0.007513 0.012828 0.000000 0.000000 0.000000
# 4 0.000000 0.000000 0.000000 0.050926 0.000000 0.000000
# 5 0.000000 0.000000 0.000000 0.000000 0.036921 0.000000
# 6 0.000000 0.000000 0.000000 0.000000 0.000000 0.077526
#
#
# Mechanical properties :
#
#
# Convention : Reuss Voigt Hill
#
# Bulk Modulus (GPa) = 37.79658 55.80780 46.80219
# Shear Modulus (GPa) = 18.76359 21.65851 20.21105
#
# Velocity S-wave (km/s) = 3.28263 3.52678 3.40689
# Velocity P-wave (km/s) = 6.00613 6.97379 6.50797
#
# Compressibility (1/GPa) = 0.02645742
#
# Stress axis : x y z
#
# Youngs Moduli (GPa) = 33.99706 58.38601 77.95547
#
# Poissons Ratio (x) = 0.14171 0.50797
# Poissons Ratio (y) = 0.08251 0.58567
# Poissons Ratio (z) = 0.22153 0.43864
#
# Static dielectric constant tensor:
#      x y z
#    x 2.895920 0.000000 0.000000 
#    y 0.000000 3.263680 0.000000 
#    z 0.000000 0.000000 3.338630 
# 
# 
# High freq. dielectric constant tensor:
#      x y z
#    x 1.643900 0.000000 0.000000 
#    y 0.000000 1.647110 0.000000 
#    z 0.000000 0.000000 1.675640 
# 
# From -- ./inp_files/30519.got.cif
#   From: 2010.03.12/outbox.cif.g09.slc.cpg/sg53_16_cif.got.tgz:30519.got - 2010.04.16 14:36:59.
