data_PCOD8222799
_publ_section_title
;
Structure prediction by ZEFSAII (Michael W. Deem and Ramdas Pophale) SiO2 
 PCOD8222799
Probable space group: P C C A
;
_chemical_formula_sum "Si O2"
_cell_formula_units_Z 56
_cell_length_a 14.421571
_cell_length_b 23.604269
_cell_length_c 9.040562
_cell_angle_alpha 90.000000
_cell_angle_beta 90.000000
_cell_angle_gamma 90.000000
_cell_volume 3077.503508
_symmetry_space_group_name_H-M "P C C A"
_symmetry_group_IT_number 54
_symmetry_cell_setting 'orthorhombic'
loop_
_space_group_symop_operation_xyz
x,y,z
1/2-x,-y,z
1/2+x,-y,1/2-z
-x,y,1/2-z
-x,-y,-z
1/2+x,y,-z
1/2-x,y,1/2+z
x,-y,1/2+z
loop_
_atom_site_type_symbol
_atom_site_label
_atom_site_fract_x
_atom_site_fract_y
_atom_site_fract_z
Si Si1 0.496652 0.762840 0.924736
Si Si2 0.352989 0.447709 0.577705
Si Si3 0.497665 0.059901 0.423182
Si Si4 0.662018 0.439278 0.575163
Si Si5 0.006013 0.645591 0.918307
Si Si6 0.653740 0.149163 0.081557
Si Si7 0.648087 0.849518 0.930177
O O1 0.500000 0.763308 0.750000
O O2 0.404529 0.796520 0.976307
O O3 0.589837 0.794149 0.982534
O O4 0.490636 0.699108 0.979252
O O5 0.332901 0.454490 0.751532
O O6 0.384932 0.508325 0.512467
O O7 0.262924 0.427094 0.489541
O O8 0.430789 0.401873 0.545497
O O9 0.500000 0.049826 0.250000
O O10 0.403256 0.093056 0.465627
O O11 0.587716 0.095478 0.473601
O O12 0.500000 0.000000 0.500000
O O13 0.605416 0.381899 0.548246
O O14 0.000000 0.666290 0.750000
O O15 0.666330 0.152050 0.256470
O O16 0.754449 0.148563 0.011143
#
# Coordination Sequence:
#
# PCOD8222799 Si02
#       7
#     8   8   8   8   8   8   8
#     4   9  20  37  54  73 101 135 171 210 254 301
#     4  10  20  35  53  75 102 132 166 206 252 304
#     4   9  19  35  53  77 110 139 170 210 252 299
#     4  10  20  35  53  75 102 132 166 206 252 304
#     4  10  22  36  52  76 104 132 167 210 255 302
#     4   9  19  36  55  76 103 137 173 211 253 299
#     4   9  19  36  55  76 103 137 173 211 253 299
#
# _framework density 18.196567999999999
#
# number of rings (size 3 to 8) (size 9 to 14) (size 15 to 20)
#    0.000    2.571    0.000    3.857    0.000    6.286 
#    0.000   11.429    0.000    0.000    0.000    0.000 
#    0.000    0.000    0.000    0.000    0.000    0.000 
#
# Total GULP energy -694262.413723 kJ/mol
# GULP energy per Si atom -12397.543102 kJ/mol
# Density = 1.815515 g / cm^3
# Si number density = 18.196568 Si / 1000 Ang^3
#
#
#
# Elastic Constant Matrix: (Units=GPa)
#
#
# Indices 1 2 3 4 5 6 
#
# 1 106.1295 16.6712 32.1501 0.0000 0.0000 0.0000
# 2 16.6712 58.6147 19.6951 0.0000 0.0000 0.0000
# 3 32.1501 19.6951 55.7711 0.0000 0.0000 0.0000
# 4 0.0000 0.0000 0.0000 33.9140 0.0000 0.0000
# 5 0.0000 0.0000 0.0000 0.0000 31.6345 0.0000
# 6 0.0000 0.0000 0.0000 0.0000 0.0000 16.8788
#
#
#
# Elastic Compliance Matrix: (Units=1/GPa)
#
#
# Indices 1 2 3 4 5 6 
#
# 1 0.011488 -0.001183 -0.006205 0.000000 0.000000 0.000000
# 2 -0.001183 0.019479 -0.006197 0.000000 0.000000 0.000000
# 3 -0.006205 -0.006197 0.023696 0.000000 0.000000 0.000000
# 4 0.000000 0.000000 0.000000 0.029486 0.000000 0.000000
# 5 0.000000 0.000000 0.000000 0.000000 0.031611 0.000000
# 6 0.000000 0.000000 0.000000 0.000000 0.000000 0.059246
#
#
# Mechanical properties :
#
#
# Convention : Reuss Voigt Hill
#
# Bulk Modulus (GPa) = 36.37184 39.72757 38.04971
# Shear Modulus (GPa) = 23.65859 26.61873 25.13866
#
# Velocity S-wave (km/s) = 3.60970 3.82886 3.72089
# Velocity P-wave (km/s) = 6.11595 6.43636 6.27820
#
# Compressibility (1/GPa) = 0.02749380
#
# Stress axis : x y z
#
# Youngs Moduli (GPa) = 87.04876 51.33667 42.20167
#
# Poissons Ratio (x) = 0.06071 0.26185
# Poissons Ratio (y) = 0.10294 0.26153
# Poissons Ratio (z) = 0.54011 0.31815
#
# Static dielectric constant tensor:
#      x y z
#    x 3.556740 0.000000 0.000000 
#    y 0.000000 3.902730 0.000000 
#    z 0.000000 0.000000 3.296970 
# 
# 
# High freq. dielectric constant tensor:
#      x y z
#    x 1.713720 0.000000 0.000000 
#    y 0.000000 1.705500 0.000000 
#    z 0.000000 0.000000 1.702390 
# 
# From -- ./inp_files/3676.got.cif
#   From: 2010.03.12/outbox.cif.g09.slc.cpg/sg54_2_cif.got.tgz:3676.got - 2010.04.16 15:00:50.
