data_PCOD8222756
_publ_section_title
;
Structure prediction by ZEFSAII (Michael W. Deem and Ramdas Pophale) SiO2 
 PCOD8222756
Probable space group: P C C A
;
_chemical_formula_sum "Si O2"
_cell_formula_units_Z 48
_cell_length_a 16.013307
_cell_length_b 5.065271
_cell_length_c 30.431052
_cell_angle_alpha 90.000000
_cell_angle_beta 90.000000
_cell_angle_gamma 90.000000
_cell_volume 2468.315564
_symmetry_space_group_name_H-M "P C C A"
_symmetry_group_IT_number 54
_symmetry_cell_setting 'orthorhombic'
loop_
_space_group_symop_operation_xyz
x,y,z
1/2-x,-y,z
1/2+x,-y,1/2-z
-x,y,1/2-z
-x,-y,-z
1/2+x,y,-z
1/2-x,y,1/2+z
x,-y,1/2+z
loop_
_atom_site_type_symbol
_atom_site_label
_atom_site_fract_x
_atom_site_fract_y
_atom_site_fract_z
Si Si1 0.305208 0.255636 0.519726
Si Si2 0.805147 0.252171 0.581207
Si Si3 0.929576 0.377972 0.406657
Si Si4 0.155721 0.398870 0.185501
Si Si5 0.978771 0.882178 0.116444
Si Si6 0.059638 0.102510 0.709319
O O1 0.250000 0.500000 0.533865
O O2 0.334600 0.275016 0.469316
O O3 0.387053 0.271896 0.549258
O O4 0.250000 0.000000 0.529611
O O5 0.750000 0.500000 0.596194
O O6 0.884782 0.219745 0.612158
O O7 0.750000 0.000000 0.588451
O O8 0.865288 0.368238 0.366027
O O9 0.962448 0.676897 0.410258
O O10 0.007906 0.178028 0.401639
O O11 0.250000 0.500000 0.190502
O O12 0.100045 0.609079 0.211852
O O13 0.134394 0.114775 0.207066
O O14 0.999771 0.896599 0.167430
O O15 0.000000 0.044060 0.750000
#
# Coordination Sequence:
#
# PCOD8222756 Si02
#       6
#     8   8   8   8   8   8
#     4  10  20  33  51  77 109 143 175 213 262 308
#     4  10  21  37  54  74 105 142 181 221 257 306
#     4  10  20  33  54  81 108 137 172 217 265 321
#     4  10  20  35  57  83 110 139 173 215 265 319
#     4  10  21  36  55  78 103 140 180 217 271 317
#     4  10  21  38  57  79 111 142 173 220 270 316
#
# _framework density 19.446460999999999
#
# number of rings (size 3 to 8) (size 9 to 14) (size 15 to 20)
#    0.000    2.000    0.000    3.500    0.000    4.000 
#    0.000    2.500    0.000    0.000    0.000    0.000 
#    0.000    0.000    0.000    0.000    0.000    0.000 
#
# Total GULP energy -595111.905054 kJ/mol
# GULP energy per Si atom -12398.164689 kJ/mol
# Density = 1.940220 g / cm^3
# Si number density = 19.446461 Si / 1000 Ang^3
#
#
#
# Elastic Constant Matrix: (Units=GPa)
#
#
# Indices 1 2 3 4 5 6 
#
# 1 102.1415 19.7604 51.1374 0.0000 0.0000 0.0000
# 2 19.7604 108.3464 29.4628 0.0000 0.0000 0.0000
# 3 51.1374 29.4628 54.5926 0.0000 0.0000 0.0000
# 4 0.0000 0.0000 0.0000 19.8389 0.0000 0.0000
# 5 0.0000 0.0000 0.0000 0.0000 25.1986 0.0000
# 6 0.0000 0.0000 0.0000 0.0000 0.0000 5.8264
#
#
#
# Elastic Compliance Matrix: (Units=1/GPa)
#
#
# Indices 1 2 3 4 5 6 
#
# 1 0.018665 0.001582 -0.018338 0.000000 0.000000 0.000000
# 2 0.001582 0.010951 -0.007393 0.000000 0.000000 0.000000
# 3 -0.018338 -0.007393 0.039484 0.000000 0.000000 0.000000
# 4 0.000000 0.000000 0.000000 0.050406 0.000000 0.000000
# 5 0.000000 0.000000 0.000000 0.000000 0.039685 0.000000
# 6 0.000000 0.000000 0.000000 0.000000 0.000000 0.171634
#
#
# Mechanical properties :
#
#
# Convention : Reuss Voigt Hill
#
# Bulk Modulus (GPa) = 48.06550 51.75575 49.91062
# Shear Modulus (GPa) = 12.95150 21.15409 17.05280
#
# Velocity S-wave (km/s) = 2.58351 3.30178 2.96448
# Velocity P-wave (km/s) = 5.80258 6.41934 6.11873
#
# Compressibility (1/GPa) = 0.02080494
#
# Stress axis : x y z
#
# Youngs Moduli (GPa) = 53.57619 91.31325 25.32659
#
# Poissons Ratio (x) = -0.14450 0.46443
# Poissons Ratio (y) = -0.08478 0.18723
# Poissons Ratio (z) = 0.98246 0.67504
#
# Static dielectric constant tensor:
#      x y z
#    x 3.308950 0.000000 0.000000 
#    y 0.000000 3.897510 0.000000 
#    z 0.000000 0.000000 2.587680 
# 
# 
# High freq. dielectric constant tensor:
#      x y z
#    x 1.749460 0.000000 0.000000 
#    y 0.000000 1.783500 0.000000 
#    z 0.000000 0.000000 1.735580 
# 
# From -- ./inp_files/28182.got.cif
#   From: 2010.03.12/outbox.cif.g09.slc.cpg/sg54_15_cif.got.tgz:28182.got - 2010.04.16 15:00:50.
