data_PCOD8222575
_publ_section_title
;
Structure prediction by ZEFSAII (Michael W. Deem and Ramdas Pophale) SiO2 
 PCOD8222575
Probable space group: P C C A
;
_chemical_formula_sum "Si O2"
_cell_formula_units_Z 40
_cell_length_a 9.651047
_cell_length_b 9.621620
_cell_length_c 21.463633
_cell_angle_alpha 90.000000
_cell_angle_beta 90.000000
_cell_angle_gamma 90.000000
_cell_volume 1993.085204
_symmetry_space_group_name_H-M "P C C A"
_symmetry_group_IT_number 54
_symmetry_cell_setting 'orthorhombic'
loop_
_space_group_symop_operation_xyz
x,y,z
1/2-x,-y,z
1/2+x,-y,1/2-z
-x,y,1/2-z
-x,-y,-z
1/2+x,y,-z
1/2-x,y,1/2+z
x,-y,1/2+z
loop_
_atom_site_type_symbol
_atom_site_label
_atom_site_fract_x
_atom_site_fract_y
_atom_site_fract_z
Si Si1 0.972975 0.741236 0.865509
Si Si2 0.881435 0.600360 0.523285
Si Si3 0.912970 0.023856 0.809693
Si Si4 0.100039 0.519754 0.201510
Si Si5 0.838183 0.738115 0.398967
O O1 0.969245 0.629027 0.810528
O O2 0.825554 0.756034 0.898344
O O3 0.088122 0.689343 0.914552
O O4 0.000021 0.890083 0.833536
O O5 0.750000 0.500000 0.533468
O O6 0.869874 0.721037 0.471461
O O7 0.000000 0.500000 0.500000
O O8 0.917445 0.134104 0.866408
O O9 0.000000 0.079691 0.750000
O O10 0.750000 0.000000 0.791831
O O11 0.250000 0.500000 0.233208
O O12 0.115133 0.598587 0.136356
O O13 0.000000 0.600397 0.250000
#
# Coordination Sequence:
#
# PCOD8222575 Si02
#       5
#     8   8   8   8   8
#     4  10  21  38  59  85 118 157 194 248 307 353
#     4  12  21  39  63  90 120 153 200 253 301 362
#     4  10  22  42  62  85 123 162 201 249 302 364
#     4  10  19  33  53  80 111 147 195 243 295 353
#     4  10  20  38  60  82 118 159 192 245 309 354
#
# _framework density 20.069388
#
# number of rings (size 3 to 8) (size 9 to 14) (size 15 to 20)
#    0.000    1.600    4.000    1.800    0.000    1.600 
#    3.600    0.000    0.000    0.000    0.000    0.000 
#    0.000    0.000    0.000    0.000    0.000    0.000 
#
# Total GULP energy -495698.970427 kJ/mol
# GULP energy per Si atom -12392.474261 kJ/mol
# Density = 2.002371 g / cm^3
# Si number density = 20.069388 Si / 1000 Ang^3
#
#
#
# Elastic Constant Matrix: (Units=GPa)
#
#
# Indices 1 2 3 4 5 6 
#
# 1 87.1100 27.6973 56.0122 0.0000 0.0000 0.0000
# 2 27.6973 108.6977 35.8517 0.0000 0.0000 0.0000
# 3 56.0122 35.8517 108.8003 0.0000 0.0000 0.0000
# 4 0.0000 0.0000 0.0000 83.4087 0.0000 0.0000
# 5 0.0000 0.0000 0.0000 0.0000 23.0918 0.0000
# 6 0.0000 0.0000 0.0000 0.0000 0.0000 23.1251
#
#
#
# Elastic Compliance Matrix: (Units=1/GPa)
#
#
# Indices 1 2 3 4 5 6 
#
# 1 0.017424 -0.001662 -0.008422 0.000000 0.000000 0.000000
# 2 -0.001662 0.010480 -0.002598 0.000000 0.000000 0.000000
# 3 -0.008422 -0.002598 0.014383 0.000000 0.000000 0.000000
# 4 0.000000 0.000000 0.000000 0.011989 0.000000 0.000000
# 5 0.000000 0.000000 0.000000 0.000000 0.043305 0.000000
# 6 0.000000 0.000000 0.000000 0.000000 0.000000 0.043243
#
#
# Mechanical properties :
#
#
# Convention : Reuss Voigt Hill
#
# Bulk Modulus (GPa) = 59.09160 60.41449 59.75304
# Shear Modulus (GPa) = 29.09851 38.26157 33.68004
#
# Velocity S-wave (km/s) = 3.81188 4.37104 4.10100
# Velocity P-wave (km/s) = 6.99153 7.45941 7.22926
#
# Compressibility (1/GPa) = 0.01692288
#
# Stress axis : x y z
#
# Youngs Moduli (GPa) = 57.39268 95.41877 69.52532
#
# Poissons Ratio (x) = 0.15857 0.58558
# Poissons Ratio (y) = 0.09537 0.18062
# Poissons Ratio (z) = 0.48339 0.24789
#
# Static dielectric constant tensor:
#      x y z
#    x 3.635060 0.000000 0.000000 
#    y 0.000000 3.641040 0.000000 
#    z 0.000000 0.000000 3.853520 
# 
# 
# High freq. dielectric constant tensor:
#      x y z
#    x 1.773320 0.000000 0.000000 
#    y 0.000000 1.782420 0.000000 
#    z 0.000000 0.000000 1.781610 
# 
# From -- ./inp_files/23216.got.cif
#   From: 2010.03.12/outbox.cif.g09.slc.cpg/sg54_12_cif.got.tgz:23216.got - 2010.04.16 15:00:50.
