data_PCOD8222130
_publ_section_title
;
Structure prediction by ZEFSAII (Michael W. Deem and Ramdas Pophale) SiO2 
 PCOD8222130
Probable space group: P M N A
;
_chemical_formula_sum "Si O2"
_cell_formula_units_Z 56
_cell_length_a 8.381624
_cell_length_b 21.204990
_cell_length_c 15.467002
_cell_angle_alpha 90.000000
_cell_angle_beta 90.000000
_cell_angle_gamma 90.000000
_cell_volume 2748.985114
_symmetry_space_group_name_H-M "P M N A"
_symmetry_group_IT_number 53
_symmetry_cell_setting 'orthorhombic'
loop_
_space_group_symop_operation_xyz
x,y,z
1/2-x,-y,1/2+z
x,-y,-z
1/2-x,y,1/2-z
-x,-y,-z
1/2+x,y,1/2-z
-x,y,z
1/2+x,-y,1/2+z
loop_
_atom_site_type_symbol
_atom_site_label
_atom_site_fract_x
_atom_site_fract_y
_atom_site_fract_z
Si Si1 0.310967 0.069698 0.841228
Si Si2 0.314561 0.367649 0.657313
Si Si3 0.688935 0.072615 0.158807
Si Si4 0.314588 0.504317 0.099365
Si Si5 0.313835 0.374199 0.339983
Si Si6 0.313316 0.294883 0.004885
Si Si7 0.189839 0.151832 0.501476
O O1 0.250000 0.096396 0.750000
O O2 0.500000 0.070279 0.842570
O O3 0.246884 0.998533 0.856295
O O4 0.241043 0.114821 0.915617
O O5 0.250000 0.344939 0.750000
O O6 0.500000 0.351388 0.649446
O O7 0.288306 0.442321 0.646641
O O8 0.217598 0.331138 0.583918
O O9 0.750000 0.099432 0.250000
O O10 0.500000 0.073034 0.157867
O O11 0.757539 0.117765 0.084131
O O12 0.500000 0.522329 0.106886
O O13 0.282836 0.438389 0.145324
O O14 0.260225 0.500000 0.000000
O O15 0.250000 0.344675 0.250000
O O16 0.500000 0.389227 0.335020
O O17 0.282959 0.325490 0.416750
O O18 0.500000 0.298109 0.026716
O O19 0.250514 0.223567 0.995622
O O20 0.000000 0.149086 0.502346
#
# Coordination Sequence:
#
# PCOD8222130 Si02
#       7
#     8   8   8   8   8   8   8
#     4   9  17  32  55  83 113 146 186 232 283 338
#     4  12  25  42  64  89 119 155 197 241 293 349
#     4   9  17  32  55  83 113 146 186 232 283 338
#     4  11  22  39  66  94 123 153 187 237 296 348
#     4  12  25  42  64  89 119 155 197 241 293 349
#     4  11  23  41  60  84 118 155 199 246 293 345
#     4   9  19  35  57  81 110 151 192 232 281 342
#
# _framework density 20.371155000000002
#
# number of rings (size 3 to 8) (size 9 to 14) (size 15 to 20)
#    0.000    1.571    1.429    4.286    0.000    3.429 
#    0.000    6.429    0.000    3.429    0.000    0.000 
#    0.000    0.000    0.000    0.000    0.000    0.000 
#
# Total GULP energy -694662.751392 kJ/mol
# GULP energy per Si atom -12404.691989 kJ/mol
# Density = 2.032479 g / cm^3
# Si number density = 20.371155 Si / 1000 Ang^3
#
#
#
# Elastic Constant Matrix: (Units=GPa)
#
#
# Indices 1 2 3 4 5 6 
#
# 1 45.3274 5.8437 11.5408 0.0000 0.0000 0.0000
# 2 5.8437 120.1811 66.2385 0.0000 0.0000 0.0000
# 3 11.5408 66.2385 167.6393 0.0000 0.0000 0.0000
# 4 0.0000 0.0000 0.0000 4.7890 0.0000 0.0000
# 5 0.0000 0.0000 0.0000 0.0000 33.4410 0.0000
# 6 0.0000 0.0000 0.0000 0.0000 0.0000 11.0920
#
#
#
# Elastic Compliance Matrix: (Units=1/GPa)
#
#
# Indices 1 2 3 4 5 6 
#
# 1 0.022464 -0.000307 -0.001425 0.000000 0.000000 0.000000
# 2 -0.000307 0.010642 -0.004184 0.000000 0.000000 0.000000
# 3 -0.001425 -0.004184 0.007716 0.000000 0.000000 0.000000
# 4 0.000000 0.000000 0.000000 0.208813 0.000000 0.000000
# 5 0.000000 0.000000 0.000000 0.000000 0.029903 0.000000
# 6 0.000000 0.000000 0.000000 0.000000 0.000000 0.090155
#
#
# Mechanical properties :
#
#
# Convention : Reuss Voigt Hill
#
# Bulk Modulus (GPa) = 34.49379 55.59930 45.04655
# Shear Modulus (GPa) = 12.78156 26.49938 19.64047
#
# Velocity S-wave (km/s) = 2.50758 3.61061 3.10841
# Velocity P-wave (km/s) = 5.03521 6.68838 5.91979
#
# Compressibility (1/GPa) = 0.02899073
#
# Stress axis : x y z
#
# Youngs Moduli (GPa) = 44.51536 93.97168 129.59481
#
# Poissons Ratio (x) = 0.02882 0.18471
# Poissons Ratio (y) = 0.01365 0.54217
# Poissons Ratio (z) = 0.06345 0.39314
#
# Static dielectric constant tensor:
#      x y z
#    x 3.480070 0.000000 0.000000 
#    y 0.000000 3.764190 0.000000 
#    z 0.000000 0.000000 3.998600 
# 
# 
# High freq. dielectric constant tensor:
#      x y z
#    x 1.781230 0.000000 0.000000 
#    y 0.000000 1.788560 0.000000 
#    z 0.000000 0.000000 1.813570 
# 
# From -- ./inp_files/20541.got.cif
#   From: 2010.03.12/outbox.cif.g09.slc.cpg/sg53_11_cif.got.tgz:20541.got - 2010.04.16 14:36:59.
