data_PCOD8222558
_publ_section_title
;
Structure prediction by ZEFSAII (Michael W. Deem and Ramdas Pophale) SiO2 
 PCOD8222558
Probable space group: P C C A
;
_chemical_formula_sum "Si O2"
_cell_formula_units_Z 48
_cell_length_a 14.000978
_cell_length_b 29.791829
_cell_length_c 5.194139
_cell_angle_alpha 90.000000
_cell_angle_beta 90.000000
_cell_angle_gamma 90.000000
_cell_volume 2166.551951
_symmetry_space_group_name_H-M "P C C A"
_symmetry_group_IT_number 54
_symmetry_cell_setting 'orthorhombic'
loop_
_space_group_symop_operation_xyz
x,y,z
1/2-x,-y,z
1/2+x,-y,1/2-z
-x,y,1/2-z
-x,-y,-z
1/2+x,y,-z
1/2-x,y,1/2+z
x,-y,1/2+z
loop_
_atom_site_type_symbol
_atom_site_label
_atom_site_fract_x
_atom_site_fract_y
_atom_site_fract_z
Si Si1 0.437848 0.889092 0.503915
Si Si2 0.643750 0.019165 0.589838
Si Si3 0.190740 0.707704 0.092804
Si Si4 0.187975 0.804074 0.005160
Si Si5 0.106484 0.519683 0.006544
Si Si6 0.686423 0.387033 0.516021
O O1 0.500000 0.902524 0.750000
O O2 0.357497 0.927598 0.464269
O O3 0.389557 0.841699 0.559629
O O4 0.500000 0.885136 0.250000
O O5 0.750000 0.000000 0.641254
O O6 0.590728 0.991893 0.360045
O O7 0.280802 0.707030 0.893806
O O8 0.136828 0.754944 0.036842
O O9 0.133477 0.661573 0.024792
O O10 0.228316 0.809097 0.716659
O O11 0.160671 0.499313 0.254802
O O12 0.107865 0.573808 0.014815
O O13 0.000000 0.500000 0.000000
O O14 0.768738 0.391102 0.300056
#
# Coordination Sequence:
#
# PCOD8222558 Si02
#       6
#     8   8   8   8   8   8
#     4  12  26  41  63  94 130 158 194 251 308 342
#     4  10  23  40  63  87 119 158 209 241 281 353
#     4   8  16  32  54  86 109 139 188 240 280 332
#     4  10  21  38  67  89 118 161 203 238 292 361
#     4  10  21  35  50  70 110 147 185 222 281 346
#     4  10  19  32  55  82 110 140 188 242 286 322
#
# _framework density 22.15502
#
# number of rings (size 3 to 8) (size 9 to 14) (size 15 to 20)
#    0.000    2.000    0.000    3.000    4.667    4.000 
#    0.000    0.000    7.333    0.000    0.000    0.000 
#    0.000    0.000    0.000    0.000    0.000    0.000 
#
# Total GULP energy -594653.828066 kJ/mol
# GULP energy per Si atom -12388.621418 kJ/mol
# Density = 2.210459 g / cm^3
# Si number density = 22.155020 Si / 1000 Ang^3
#
#
#
# Elastic Constant Matrix: (Units=GPa)
#
#
# Indices 1 2 3 4 5 6 
#
# 1 35.9932 37.4464 2.6039 0.0000 0.0000 0.0000
# 2 37.4464 213.8469 23.4269 0.0000 0.0000 0.0000
# 3 2.6039 23.4269 166.3777 0.0000 0.0000 0.0000
# 4 0.0000 0.0000 0.0000 34.0994 0.0000 0.0000
# 5 0.0000 0.0000 0.0000 0.0000 36.0310 0.0000
# 6 0.0000 0.0000 0.0000 0.0000 0.0000 30.0656
#
#
#
# Elastic Compliance Matrix: (Units=1/GPa)
#
#
# Indices 1 2 3 4 5 6 
#
# 1 0.033988 -0.005986 0.000311 0.000000 0.000000 0.000000
# 2 -0.005986 0.005804 -0.000724 0.000000 0.000000 0.000000
# 3 0.000311 -0.000724 0.006107 0.000000 0.000000 0.000000
# 4 0.000000 0.000000 0.000000 0.029326 0.000000 0.000000
# 5 0.000000 0.000000 0.000000 0.000000 0.027754 0.000000
# 6 0.000000 0.000000 0.000000 0.000000 0.000000 0.033261
#
#
# Mechanical properties :
#
#
# Convention : Reuss Voigt Hill
#
# Bulk Modulus (GPa) = 30.20929 60.35248 45.28089
# Shear Modulus (GPa) = 31.23634 43.55525 37.39579
#
# Velocity S-wave (km/s) = 3.75894 4.43869 4.11288
# Velocity P-wave (km/s) = 5.70127 7.31912 6.56026
#
# Compressibility (1/GPa) = 0.03310240
#
# Stress axis : x y z
#
# Youngs Moduli (GPa) = 29.42231 172.30577 163.73505
#
# Poissons Ratio (x) = 1.03136 -0.05090
# Poissons Ratio (y) = 0.17611 0.11846
# Poissons Ratio (z) = -0.00915 0.12466
#
# Static dielectric constant tensor:
#      x y z
#    x -16.613520 0.000000 0.000000 
#    y 0.000000 4.585100 0.000000 
#    z 0.000000 0.000000 2.607820 
# 
# 
# High freq. dielectric constant tensor:
#      x y z
#    x 1.796990 0.000000 0.000000 
#    y 0.000000 1.899630 0.000000 
#    z 0.000000 0.000000 1.914960 
# 
# From -- ./inp_files/612.got.cif
#   From: 2010.03.12/outbox.cif.g09.slc.cpg/sg54_1_cif.got.tgz:612.got - 2010.04.16 15:00:50.
