data_PCOD8222668
_publ_section_title
;
Structure prediction by ZEFSAII (Michael W. Deem and Ramdas Pophale) SiO2 
 PCOD8222668
Probable space group: P C C A
;
_chemical_formula_sum "Si O2"
_cell_formula_units_Z 48
_cell_length_a 15.447435
_cell_length_b 5.015444
_cell_length_c 31.627544
_cell_angle_alpha 90.000000
_cell_angle_beta 90.000000
_cell_angle_gamma 90.000000
_cell_volume 2450.367540
_symmetry_space_group_name_H-M "P C C A"
_symmetry_group_IT_number 54
_symmetry_cell_setting 'orthorhombic'
loop_
_space_group_symop_operation_xyz
x,y,z
1/2-x,-y,z
1/2+x,-y,1/2-z
-x,y,1/2-z
-x,-y,-z
1/2+x,y,-z
1/2-x,y,1/2+z
x,-y,1/2+z
loop_
_atom_site_type_symbol
_atom_site_label
_atom_site_fract_x
_atom_site_fract_y
_atom_site_fract_z
Si Si1 0.466251 0.096822 0.379436
Si Si2 0.691308 0.246676 0.070360
Si Si3 0.060913 0.255431 0.005598
Si Si4 0.065553 0.397699 0.096300
Si Si5 0.846350 0.397000 0.316855
Si Si6 0.552042 0.895347 0.792268
O O1 0.367895 0.181177 0.388856
O O2 0.530238 0.299611 0.404490
O O3 0.481442 0.095642 0.329473
O O4 0.483748 0.796662 0.395084
O O5 0.750000 0.500000 0.080856
O O6 0.750000 0.000000 0.059756
O O7 0.635352 0.282079 0.028522
O O8 0.105321 0.294552 0.051923
O O9 0.000000 0.500000 0.000000
O O10 0.000000 0.000000 0.000000
O O11 0.138262 0.378838 0.132650
O O12 0.750000 0.500000 0.308181
O O13 0.909053 0.600154 0.292601
O O14 0.868913 0.105956 0.297989
O O15 0.500000 0.955646 0.750000
#
# Coordination Sequence:
#
# PCOD8222668 Si02
#       6
#     8   8   8   8   8   8
#     4  10  20  38  59  80 112 155 195 234 289 359
#     4  12  24  37  55  85 119 150 196 249 291 332
#     4  12  21  37  60  82 114 160 202 239 288 353
#     4  10  19  36  60  83 108 157 198 229 289 365
#     4  10  21  37  61  91 123 150 190 254 303 336
#     4  10  21  39  64  89 116 158 201 233 291 374
#
# _framework density 19.588899999999999
#
# number of rings (size 3 to 8) (size 9 to 14) (size 15 to 20)
#    0.000    1.333    3.333    3.000    0.000    0.667 
#    0.000    5.833    0.000    0.000    0.000    0.000 
#    0.000    0.000    0.000    0.000    0.000    0.000 
#
# Total GULP energy -595040.856757 kJ/mol
# GULP energy per Si atom -12396.684516 kJ/mol
# Density = 1.954431 g / cm^3
# Si number density = 19.588900 Si / 1000 Ang^3
#
#
#
# Elastic Constant Matrix: (Units=GPa)
#
#
# Indices 1 2 3 4 5 6 
#
# 1 97.2930 25.5354 51.8971 0.0000 0.0000 0.0000
# 2 25.5354 110.0595 24.9260 0.0000 0.0000 0.0000
# 3 51.8971 24.9260 117.3795 0.0000 0.0000 0.0000
# 4 0.0000 0.0000 0.0000 22.8280 0.0000 0.0000
# 5 0.0000 0.0000 0.0000 0.0000 27.6286 0.0000
# 6 0.0000 0.0000 0.0000 0.0000 0.0000 33.3228
#
#
#
# Elastic Compliance Matrix: (Units=1/GPa)
#
#
# Indices 1 2 3 4 5 6 
#
# 1 0.013824 -0.001915 -0.005705 0.000000 0.000000 0.000000
# 2 -0.001915 0.009810 -0.001236 0.000000 0.000000 0.000000
# 3 -0.005705 -0.001236 0.011304 0.000000 0.000000 0.000000
# 4 0.000000 0.000000 0.000000 0.043806 0.000000 0.000000
# 5 0.000000 0.000000 0.000000 0.000000 0.036194 0.000000
# 6 0.000000 0.000000 0.000000 0.000000 0.000000 0.030009
#
#
# Mechanical properties :
#
#
# Convention : Reuss Voigt Hill
#
# Bulk Modulus (GPa) = 58.05582 58.82768 58.44175
# Shear Modulus (GPa) = 29.69039 31.58079 30.63559
#
# Velocity S-wave (km/s) = 3.89739 4.01955 3.95894
# Velocity P-wave (km/s) = 7.06784 7.18601 7.12717
#
# Compressibility (1/GPa) = 0.01722480
#
# Stress axis : x y z
#
# Youngs Moduli (GPa) = 72.33665 101.93263 88.46046
#
# Poissons Ratio (x) = 0.19523 0.50470
# Poissons Ratio (y) = 0.13854 0.10938
# Poissons Ratio (z) = 0.41271 0.12604
#
# Static dielectric constant tensor:
#      x y z
#    x 3.324020 0.000000 0.000000 
#    y 0.000000 3.799180 0.000000 
#    z 0.000000 0.000000 3.517110 
# 
# 
# High freq. dielectric constant tensor:
#      x y z
#    x 1.739200 0.000000 0.000000 
#    y 0.000000 1.790240 0.000000 
#    z 0.000000 0.000000 1.760220 
# 
# From -- ./inp_files/28188.got.cif
#   From: 2010.03.12/outbox.cif.g09.slc.cpg/sg54_15_cif.got.tgz:28188.got - 2010.04.16 15:00:50.
