data_PCOD8222020
_publ_section_title
;
Structure prediction by ZEFSAII (Michael W. Deem and Ramdas Pophale) SiO2 
 PCOD8222020
Probable space group: P M N A
;
_chemical_formula_sum "Si O2"
_cell_formula_units_Z 40
_cell_length_a 9.171872
_cell_length_b 12.536315
_cell_length_c 20.907499
_cell_angle_alpha 90.000000
_cell_angle_beta 90.000000
_cell_angle_gamma 90.000000
_cell_volume 2403.975106
_symmetry_space_group_name_H-M "P M N A"
_symmetry_group_IT_number 53
_symmetry_cell_setting 'orthorhombic'
loop_
_space_group_symop_operation_xyz
x,y,z
1/2-x,-y,1/2+z
x,-y,-z
1/2-x,y,1/2-z
-x,-y,-z
1/2+x,y,1/2-z
-x,y,z
1/2+x,-y,1/2+z
loop_
_atom_site_type_symbol
_atom_site_label
_atom_site_fract_x
_atom_site_fract_y
_atom_site_fract_z
Si Si1 0.672017 0.145867 0.052992
Si Si2 0.168215 0.648142 0.949012
Si Si3 0.169793 0.583653 0.091169
Si Si4 0.826253 0.260407 0.682262
Si Si5 0.327859 0.082104 0.913991
O O1 0.500000 0.161488 0.054669
O O2 0.744039 0.252753 0.081221
O O3 0.719675 0.041870 0.094686
O O4 0.732139 0.128524 0.980872
O O5 0.199096 0.543217 0.906827
O O6 0.000000 0.677959 0.946853
O O7 0.216789 0.627987 0.022055
O O8 0.271630 0.635532 0.144722
O O9 0.000000 0.608179 0.104911
O O10 0.750000 0.256159 0.750000
O O11 0.772901 0.154250 0.644645
O O12 0.000000 0.265905 0.689865
O O13 0.500000 0.087090 0.918889
#
# Coordination Sequence:
#
# PCOD8222020 Si02
#       5
#     8   8   8   8   8
#     4   9  15  28  49  71  96 125 157 198 241 288
#     4   9  17  29  47  72 102 128 153 197 249 286
#     4   9  18  32  47  68 100 132 160 195 241 288
#     4  11  21  34  51  71  96 129 165 200 236 283
#     4   8  16  29  46  69  97 126 158 196 240 283
#
# _framework density 16.639106999999999
#
# number of rings (size 3 to 8) (size 9 to 14) (size 15 to 20)
#    0.000    2.800    2.000    3.000    0.000    0.800 
#    0.000    6.000    0.000    1.200    0.000    5.600 
#    0.000    0.000    0.000    0.000    0.000    0.000 
#
# Total GULP energy -495787.840040 kJ/mol
# GULP energy per Si atom -12394.696001 kJ/mol
# Density = 1.660124 g / cm^3
# Si number density = 16.639107 Si / 1000 Ang^3
#
#
#
# Elastic Constant Matrix: (Units=GPa)
#
#
# Indices 1 2 3 4 5 6 
#
# 1 55.3352 53.0388 37.2061 0.0000 0.0000 0.0000
# 2 53.0388 147.9448 50.1317 0.0000 0.0000 0.0000
# 3 37.2061 50.1317 85.2442 0.0000 0.0000 0.0000
# 4 0.0000 0.0000 0.0000 20.9412 0.0000 0.0000
# 5 0.0000 0.0000 0.0000 0.0000 15.2711 0.0000
# 6 0.0000 0.0000 0.0000 0.0000 0.0000 27.5180
#
#
#
# Elastic Compliance Matrix: (Units=1/GPa)
#
#
# Indices 1 2 3 4 5 6 
#
# 1 0.032362 -0.008512 -0.009119 0.000000 0.000000 0.000000
# 2 -0.008512 0.010680 -0.002566 0.000000 0.000000 0.000000
# 3 -0.009119 -0.002566 0.017220 0.000000 0.000000 0.000000
# 4 0.000000 0.000000 0.000000 0.047753 0.000000 0.000000
# 5 0.000000 0.000000 0.000000 0.000000 0.065483 0.000000
# 6 0.000000 0.000000 0.000000 0.000000 0.000000 0.036340
#
#
# Mechanical properties :
#
#
# Convention : Reuss Voigt Hill
#
# Bulk Modulus (GPa) = 50.33054 63.25305 56.79180
# Shear Modulus (GPa) = 19.46633 22.62258 21.04446
#
# Velocity S-wave (km/s) = 3.42411 3.69128 3.56020
# Velocity P-wave (km/s) = 6.77840 7.50097 7.14882
#
# Compressibility (1/GPa) = 0.01986865
#
# Stress axis : x y z
#
# Youngs Moduli (GPa) = 30.90085 93.63080 58.07156
#
# Poissons Ratio (x) = 0.79696 0.52955
# Poissons Ratio (y) = 0.26302 0.14901
# Poissons Ratio (z) = 0.28178 0.24025
#
# Static dielectric constant tensor:
#      x y z
#    x 2.904840 0.000000 0.000000 
#    y 0.000000 3.398000 0.000000 
#    z 0.000000 0.000000 2.896820 
# 
# 
# High freq. dielectric constant tensor:
#      x y z
#    x 1.625860 0.000000 0.000000 
#    y 0.000000 1.656890 0.000000 
#    z 0.000000 0.000000 1.597220 
# 
# From -- ./inp_files/30344.got.cif
#   From: 2010.03.12/outbox.cif.g09.slc.cpg/sg53_16_cif.got.tgz:30344.got - 2010.04.16 14:36:59.
