data_PCOD8222670
_publ_section_title
;
Structure prediction by ZEFSAII (Michael W. Deem and Ramdas Pophale) SiO2 
 PCOD8222670
Probable space group: P C C A
;
_chemical_formula_sum "Si O2"
_cell_formula_units_Z 60
_cell_length_a 15.387646
_cell_length_b 11.040164
_cell_length_c 17.968960
_cell_angle_alpha 90.000000
_cell_angle_beta 90.000000
_cell_angle_gamma 90.000000
_cell_volume 3052.605296
_symmetry_space_group_name_H-M "P C C A"
_symmetry_group_IT_number 54
_symmetry_cell_setting 'orthorhombic'
loop_
_space_group_symop_operation_xyz
x,y,z
1/2-x,-y,z
1/2+x,-y,1/2-z
-x,y,1/2-z
-x,-y,-z
1/2+x,y,-z
1/2-x,y,1/2+z
x,-y,1/2+z
loop_
_atom_site_type_symbol
_atom_site_label
_atom_site_fract_x
_atom_site_fract_y
_atom_site_fract_z
Si Si1 0.907018 0.916846 0.754687
Si Si2 0.917392 0.349379 0.294331
Si Si3 0.897123 0.627419 0.519910
Si Si4 0.257967 0.797384 0.530324
Si Si5 0.286858 0.125909 0.869880
Si Si6 0.795943 0.376263 0.165864
Si Si7 0.091833 0.634392 0.536994
Si Si8 0.250000 0.000000 0.152172
O O1 0.922054 0.795389 0.802926
O O2 0.880922 0.874875 0.670835
O O3 0.000000 0.986650 0.750000
O O4 0.835587 0.998019 0.796468
O O5 0.832211 0.391408 0.248832
O O6 0.910629 0.404167 0.376442
O O7 0.000000 0.402660 0.250000
O O8 0.832947 0.695689 0.462074
O O9 0.870752 0.653789 0.605260
O O10 0.884329 0.485307 0.508008
O O11 0.995765 0.675809 0.509708
O O12 0.285427 0.878549 0.459195
O O13 0.162929 0.737295 0.519040
O O14 0.257141 0.879387 0.603129
O O15 0.238226 0.250717 0.840303
O O16 0.250000 0.000000 0.838799
O O17 0.750000 0.500000 0.141936
#
# Coordination Sequence:
#
# PCOD8222670 Si02
#       8
#     8   8   8   8   8   8   8   4
#     4  10  22  40  64  86 118 167 210 249 302 370
#     4  10  19  36  60  87 115 153 211 249 296 370
#     4  10  22  39  60  86 123 162 203 248 309 378
#     4  11  23  38  60  94 122 157 205 258 307 368
#     4  10  20  39  61  86 122 160 203 245 303 365
#     4  10  20  35  60  88 116 158 203 250 304 366
#     4  11  21  39  63  87 124 163 198 256 313 367
#     4  12  22  40  62  92 126 154 208 264 302 370
#
# _framework density 19.655342000000001
#
# number of rings (size 3 to 8) (size 9 to 14) (size 15 to 20)
#    0.000    1.600    4.000    2.000    1.867    1.067 
#    2.400    1.333    0.000    1.600    0.000    0.000 
#    0.000    0.000    0.000    0.000    0.000    0.000 
#
# Total GULP energy -743393.438431 kJ/mol
# GULP energy per Si atom -12389.890641 kJ/mol
# Density = 1.961061 g / cm^3
# Si number density = 19.655342 Si / 1000 Ang^3
#
#
#
# Elastic Constant Matrix: (Units=GPa)
#
#
# Indices 1 2 3 4 5 6 
#
# 1 129.5664 54.6796 39.2921 0.0000 0.0000 0.0000
# 2 54.6796 108.1056 16.5124 0.0000 0.0000 0.0000
# 3 39.2921 16.5124 94.9017 0.0000 0.0000 0.0000
# 4 0.0000 0.0000 0.0000 18.7292 0.0000 0.0000
# 5 0.0000 0.0000 0.0000 0.0000 24.9469 0.0000
# 6 0.0000 0.0000 0.0000 0.0000 0.0000 21.5151
#
#
#
# Elastic Compliance Matrix: (Units=1/GPa)
#
#
# Indices 1 2 3 4 5 6 
#
# 1 0.010923 -0.004966 -0.003658 0.000000 0.000000 0.000000
# 2 -0.004966 0.011761 0.000010 0.000000 0.000000 0.000000
# 3 -0.003658 0.000010 0.012050 0.000000 0.000000 0.000000
# 4 0.000000 0.000000 0.000000 0.053393 0.000000 0.000000
# 5 0.000000 0.000000 0.000000 0.000000 0.040085 0.000000
# 6 0.000000 0.000000 0.000000 0.000000 0.000000 0.046479
#
#
# Mechanical properties :
#
#
# Convention : Reuss Voigt Hill
#
# Bulk Modulus (GPa) = 57.12808 61.50465 59.31637
# Shear Modulus (GPa) = 25.28376 27.84421 26.56398
#
# Velocity S-wave (km/s) = 3.59047 3.76789 3.68025
# Velocity P-wave (km/s) = 6.80563 7.09146 6.95002
#
# Compressibility (1/GPa) = 0.01750453
#
# Stress axis : x y z
#
# Youngs Moduli (GPa) = 91.54699 85.02966 82.98602
#
# Poissons Ratio (x) = 0.42227 0.30360
# Poissons Ratio (y) = 0.45464 -0.00082
# Poissons Ratio (z) = 0.33492 -0.00084
#
# Static dielectric constant tensor:
#      x y z
#    x 3.628370 0.000000 0.000000 
#    y 0.000000 3.624750 0.000000 
#    z 0.000000 0.000000 3.502190 
# 
# 
# High freq. dielectric constant tensor:
#      x y z
#    x 1.752500 0.000000 0.000000 
#    y 0.000000 1.756280 0.000000 
#    z 0.000000 0.000000 1.769220 
# 
# From -- ./inp_files/18210.got.cif
#   From: 2010.03.12/outbox.cif.g09.slc.cpg/sg54_10_cif.got.tgz:18210.got - 2010.04.16 15:00:50.
