data_PCOD8222320
_publ_section_title
;
Structure prediction by ZEFSAII (Michael W. Deem and Ramdas Pophale) SiO2 
 PCOD8222320
Probable space group: P C C A
;
_chemical_formula_sum "Si O2"
_cell_formula_units_Z 40
_cell_length_a 5.086489
_cell_length_b 13.979586
_cell_length_c 33.621017
_cell_angle_alpha 90.000000
_cell_angle_beta 90.000000
_cell_angle_gamma 90.000000
_cell_volume 2390.690006
_symmetry_space_group_name_H-M "P C C A"
_symmetry_group_IT_number 54
_symmetry_cell_setting 'orthorhombic'
loop_
_space_group_symop_operation_xyz
x,y,z
1/2-x,-y,z
1/2+x,-y,1/2-z
-x,y,1/2-z
-x,-y,-z
1/2+x,y,-z
1/2-x,y,1/2+z
x,-y,1/2+z
loop_
_atom_site_type_symbol
_atom_site_label
_atom_site_fract_x
_atom_site_fract_y
_atom_site_fract_z
Si Si1 0.955185 0.301407 0.679278
Si Si2 0.506636 0.563227 0.892957
Si Si3 0.973426 0.393576 0.982192
Si Si4 0.463653 0.194524 0.703362
Si Si5 0.500000 0.439332 0.250000
Si Si6 0.750000 0.000000 0.776076
O O1 0.940761 0.350732 0.636584
O O2 0.739913 0.215836 0.681336
O O3 0.248367 0.264319 0.685320
O O4 0.888433 0.377400 0.713557
O O5 0.250000 0.500000 0.898534
O O6 0.583395 0.607822 0.935370
O O7 0.750000 0.500000 0.876656
O O8 0.239219 0.338744 0.994625
O O9 0.000000 0.500000 0.000000
O O10 0.500000 0.213202 0.750000
O O11 0.364467 0.085558 0.696727
O O12 0.750000 0.500000 0.265134
O O13 0.500000 0.961638 0.750000
#
# Coordination Sequence:
#
# PCOD8222320 Si02
#       6
#     8   8   8   8   4   4
#     4  12  23  34  50  69 100 135 166 222 244 284
#     4  12  21  33  48  70  97 132 182 206 241 293
#     4  10  16  30  49  67  88 122 165 208 258 287
#     4  11  20  38  53  73  97 125 164 210 269 297
#     4  12  22  36  46  60  92 142 186 202 234 266
#     4  10  20  34  60  82  90 118 166 214 262 340
#
# _framework density 16.731572
#
# number of rings (size 3 to 8) (size 9 to 14) (size 15 to 20)
#    0.000    0.800    6.000    6.000    0.000    0.000 
#    0.000    0.000    0.000    0.000    0.000    0.000 
#    0.000    0.000    0.000   18.000    0.000    0.000 
#
# Total GULP energy -495896.902591 kJ/mol
# GULP energy per Si atom -12397.422565 kJ/mol
# Density = 1.669349 g / cm^3
# Si number density = 16.731572 Si / 1000 Ang^3
#
#
#
# Elastic Constant Matrix: (Units=GPa)
#
#
# Indices 1 2 3 4 5 6 
#
# 1 118.5675 19.1443 13.4113 0.0000 0.0000 0.0000
# 2 19.1443 58.9654 29.7607 0.0000 0.0000 0.0000
# 3 13.4113 29.7607 94.9581 0.0000 0.0000 0.0000
# 4 0.0000 0.0000 0.0000 -11.4179 0.0000 0.0000
# 5 0.0000 0.0000 0.0000 0.0000 15.3473 0.0000
# 6 0.0000 0.0000 0.0000 0.0000 0.0000 32.5908
#
#
#
# Elastic Compliance Matrix: (Units=1/GPa)
#
#
# Indices 1 2 3 4 5 6 
#
# 1 0.008915 -0.002683 -0.000418 0.000000 0.000000 0.000000
# 2 -0.002683 0.020953 -0.006188 0.000000 0.000000 0.000000
# 3 -0.000418 -0.006188 0.012529 0.000000 0.000000 0.000000
# 4 0.000000 0.000000 0.000000 -0.087582 0.000000 0.000000
# 5 0.000000 0.000000 0.000000 0.000000 0.065158 0.000000
# 6 0.000000 0.000000 0.000000 0.000000 0.000000 0.030684
#
#
# Mechanical properties :
#
#
# Convention : Reuss Voigt Hill
#
# Bulk Modulus (GPa) = 41.98393 44.12485 43.05439
# Shear Modulus (GPa) = 64.78772 21.31569 43.05170
#
# Velocity S-wave (km/s) = 6.22944 3.57316 5.07806
# Velocity P-wave (km/s) = 8.76860 6.59187 7.75697
#
# Compressibility (1/GPa) = 0.02381864
#
# Stress axis : x y z
#
# Youngs Moduli (GPa) = 112.17604 47.72474 79.81230
#
# Poissons Ratio (x) = 0.12806 0.03337
# Poissons Ratio (y) = 0.30100 0.49388
# Poissons Ratio (z) = 0.04690 0.29532
#
# Static dielectric constant tensor:
#      x y z
#    x 3.975770 0.000000 0.000000 
#    y 0.000000 2.912860 0.000000 
#    z 0.000000 0.000000 2.982840 
# 
# 
# High freq. dielectric constant tensor:
#      x y z
#    x 1.684280 0.000000 0.000000 
#    y 0.000000 1.596300 0.000000 
#    z 0.000000 0.000000 1.618150 
# 
# From -- ./inp_files/27095.got.cif
#   From: 2010.03.12/outbox.cif.g09.slc.cpg/sg54_14_cif.got.tgz:27095.got - 2010.04.16 15:00:50.
