data_PCOD8222662
_publ_section_title
;
Structure prediction by ZEFSAII (Michael W. Deem and Ramdas Pophale) SiO2 
 PCOD8222662
Probable space group: P C C A
;
_chemical_formula_sum "Si O2"
_cell_formula_units_Z 60
_cell_length_a 12.125429
_cell_length_b 12.258976
_cell_length_c 22.018740
_cell_angle_alpha 90.000000
_cell_angle_beta 90.000000
_cell_angle_gamma 90.000000
_cell_volume 3272.983162
_symmetry_space_group_name_H-M "P C C A"
_symmetry_group_IT_number 54
_symmetry_cell_setting 'orthorhombic'
loop_
_space_group_symop_operation_xyz
x,y,z
1/2-x,-y,z
1/2+x,-y,1/2-z
-x,y,1/2-z
-x,-y,-z
1/2+x,y,-z
1/2-x,y,1/2+z
x,-y,1/2+z
loop_
_atom_site_type_symbol
_atom_site_label
_atom_site_fract_x
_atom_site_fract_y
_atom_site_fract_z
Si Si1 0.387537 0.772857 0.365276
Si Si2 0.460960 0.355960 0.060616
Si Si3 0.725836 0.256988 0.936628
Si Si4 0.667959 0.201522 0.070711
Si Si5 0.000000 0.154080 0.250000
Si Si6 0.966409 0.992379 0.569496
Si Si7 0.646951 0.063752 0.851610
Si Si8 0.522513 0.403450 0.927664
O O1 0.257189 0.762684 0.378573
O O2 0.413167 0.782677 0.293423
O O3 0.431869 0.871355 0.408264
O O4 0.452450 0.662685 0.379135
O O5 0.349772 0.293074 0.079184
O O6 0.564103 0.280665 0.077079
O O7 0.473087 0.471432 0.095269
O O8 0.455436 0.387015 0.989964
O O9 0.680851 0.174043 0.886224
O O10 0.647874 0.362706 0.934918
O O11 0.721232 0.203379 0.003583
O O12 0.629765 0.077897 0.084746
O O13 0.074128 0.081644 0.207050
O O14 0.080221 0.018481 0.604221
O O15 0.000000 0.000000 0.500000
O O16 0.750000 0.000000 0.826317
#
# Coordination Sequence:
#
# PCOD8222662 Si02
#       8
#     8   8   8   8   4   8   8   8
#     4  11  22  40  60  84 116 165 208 243 296 366
#     4  10  21  33  56  91 125 148 192 252 317 365
#     4  11  19  36  56  89 123 157 196 245 313 373
#     4  11  22  33  57  90 127 155 191 252 314 367
#     4  10  24  44  58  80 118 172 224 234 282 368
#     4  11  20  34  55  89 126 152 194 245 312 372
#     4  11  23  36  61  85 121 164 205 254 299 356
#     4  10  19  36  57  85 119 164 193 241 306 379
#
# _framework density 18.331900000000001
#
# number of rings (size 3 to 8) (size 9 to 14) (size 15 to 20)
#    0.000    1.333    5.333    2.400    1.867    2.667 
#    0.000    0.000    0.000    3.200    0.000    0.000 
#    0.000    0.000    0.000    0.000    0.000    0.000 
#
# Total GULP energy -743768.583506 kJ/mol
# GULP energy per Si atom -12396.143058 kJ/mol
# Density = 1.829018 g / cm^3
# Si number density = 18.331900 Si / 1000 Ang^3
#
#
#
# Elastic Constant Matrix: (Units=GPa)
#
#
# Indices 1 2 3 4 5 6 
#
# 1 138.7122 46.0071 51.7254 0.0000 0.0000 0.0000
# 2 46.0071 100.0332 37.2347 0.0000 0.0000 0.0000
# 3 51.7254 37.2347 108.3998 0.0000 0.0000 0.0000
# 4 0.0000 0.0000 0.0000 15.6563 0.0000 0.0000
# 5 0.0000 0.0000 0.0000 0.0000 32.5799 0.0000
# 6 0.0000 0.0000 0.0000 0.0000 0.0000 26.5977
#
#
#
# Elastic Compliance Matrix: (Units=1/GPa)
#
#
# Indices 1 2 3 4 5 6 
#
# 1 0.009534 -0.003086 -0.003489 0.000000 0.000000 0.000000
# 2 -0.003086 0.012461 -0.002808 0.000000 0.000000 0.000000
# 3 -0.003489 -0.002808 0.011855 0.000000 0.000000 0.000000
# 4 0.000000 0.000000 0.000000 0.063872 0.000000 0.000000
# 5 0.000000 0.000000 0.000000 0.000000 0.030694 0.000000
# 6 0.000000 0.000000 0.000000 0.000000 0.000000 0.037597
#
#
# Mechanical properties :
#
#
# Convention : Reuss Voigt Hill
#
# Bulk Modulus (GPa) = 66.29790 68.56440 67.43115
# Shear Modulus (GPa) = 26.34260 29.11197 27.72729
#
# Velocity S-wave (km/s) = 3.79487 3.98936 3.89333
# Velocity P-wave (km/s) = 7.44615 7.66178 7.55473
#
# Compressibility (1/GPa) = 0.01508343
#
# Stress axis : x y z
#
# Youngs Moduli (GPa) = 104.88939 80.24965 84.35587
#
# Poissons Ratio (x) = 0.24765 0.29434
# Poissons Ratio (y) = 0.32369 0.23685
# Poissons Ratio (z) = 0.36599 0.22532
#
# Static dielectric constant tensor:
#      x y z
#    x 3.627650 0.000000 0.000000 
#    y 0.000000 3.462790 0.000000 
#    z 0.000000 0.000000 3.175470 
# 
# 
# High freq. dielectric constant tensor:
#      x y z
#    x 1.732000 0.000000 0.000000 
#    y 0.000000 1.707870 0.000000 
#    z 0.000000 0.000000 1.675150 
# 
# From -- ./inp_files/21219.got.cif
#   From: 2010.03.12/outbox.cif.g09.slc.cpg/sg54_11_cif.got.tgz:21219.got - 2010.04.16 15:00:50.
