data_PCOD8222359
_publ_section_title
;
Structure prediction by ZEFSAII (Michael W. Deem and Ramdas Pophale) SiO2 
 PCOD8222359
Probable space group: P C C A
;
_chemical_formula_sum "Si O2"
_cell_formula_units_Z 56
_cell_length_a 15.960555
_cell_length_b 11.506105
_cell_length_c 14.192610
_cell_angle_alpha 90.000000
_cell_angle_beta 90.000000
_cell_angle_gamma 90.000000
_cell_volume 2606.385140
_symmetry_space_group_name_H-M "P C C A"
_symmetry_group_IT_number 54
_symmetry_cell_setting 'orthorhombic'
loop_
_space_group_symop_operation_xyz
x,y,z
1/2-x,-y,z
1/2+x,-y,1/2-z
-x,y,1/2-z
-x,-y,-z
1/2+x,y,-z
1/2-x,y,1/2+z
x,-y,1/2+z
loop_
_atom_site_type_symbol
_atom_site_label
_atom_site_fract_x
_atom_site_fract_y
_atom_site_fract_z
Si Si1 0.054106 0.108521 0.529480
Si Si2 0.701415 0.207006 0.576169
Si Si3 0.087352 0.964789 0.695249
Si Si4 0.279738 0.374465 0.567174
Si Si5 0.500000 0.389862 0.750000
Si Si6 0.815188 0.592129 0.723065
Si Si7 0.750000 0.000000 0.678717
Si Si8 0.557131 0.743649 0.423414
O O1 0.126276 0.121640 0.452014
O O2 0.085554 0.086347 0.635838
O O3 0.996576 0.223782 0.516534
O O4 0.000000 0.000000 0.500000
O O5 0.725996 0.273672 0.481082
O O6 0.675901 0.297458 0.656604
O O7 0.770233 0.115638 0.616137
O O8 0.000000 0.949575 0.750000
O O9 0.167349 0.970774 0.761933
O O10 0.101195 0.856513 0.624072
O O11 0.250000 0.500000 0.529476
O O12 0.271242 0.366585 0.679975
O O13 0.376006 0.350528 0.539242
O O14 0.589970 0.459313 0.743820
O O15 0.501309 0.312588 0.656142
O O16 0.750000 0.500000 0.676904
#
# Coordination Sequence:
#
# PCOD8222359 Si02
#       8
#     8   8   8   8   4   8   4   8
#     4  10  23  38  64  97 133 172 221 276 333 409
#     4  12  25  42  67  95 138 176 226 274 350 405
#     4  11  24  40  64  99 142 172 228 276 333 416
#     4  10  24  41  67  98 131 170 231 283 331 394
#     4  10  16  36  70  96 120 170 222 264 330 400
#     4  10  22  43  73  96 131 177 228 283 334 398
#     4  12  26  38  66 100 130 188 218 268 352 414
#     4  10  19  39  66  90 130 176 220 272 334 398
#
# _framework density 21.485696999999998
#
# number of rings (size 3 to 8) (size 9 to 14) (size 15 to 20)
#    0.000    1.429    2.143    3.857   10.000    0.000 
#    0.000    0.714    7.857    0.000    0.000    0.000 
#    0.000    0.000    0.000    0.000    0.000    0.000 
#
# Total GULP energy -693804.881483 kJ/mol
# GULP energy per Si atom -12389.372884 kJ/mol
# Density = 2.143679 g / cm^3
# Si number density = 21.485697 Si / 1000 Ang^3
#
#
#
# Elastic Constant Matrix: (Units=GPa)
#
#
# Indices 1 2 3 4 5 6 
#
# 1 128.1243 61.5848 37.4542 0.0000 0.0000 0.0000
# 2 61.5848 93.7752 44.6413 0.0000 0.0000 0.0000
# 3 37.4542 44.6413 80.3736 0.0000 0.0000 0.0000
# 4 0.0000 0.0000 0.0000 29.8229 0.0000 0.0000
# 5 0.0000 0.0000 0.0000 0.0000 21.6250 0.0000
# 6 0.0000 0.0000 0.0000 0.0000 0.0000 40.7249
#
#
#
# Elastic Compliance Matrix: (Units=1/GPa)
#
#
# Indices 1 2 3 4 5 6 
#
# 1 0.011553 -0.006830 -0.001590 0.000000 0.000000 0.000000
# 2 -0.006830 0.018535 -0.007112 0.000000 0.000000 0.000000
# 3 -0.001590 -0.007112 0.017133 0.000000 0.000000 0.000000
# 4 0.000000 0.000000 0.000000 0.033531 0.000000 0.000000
# 5 0.000000 0.000000 0.000000 0.000000 0.046243 0.000000
# 6 0.000000 0.000000 0.000000 0.000000 0.000000 0.024555
#
#
# Mechanical properties :
#
#
# Convention : Reuss Voigt Hill
#
# Bulk Modulus (GPa) = 61.89407 65.51485 63.70446
# Shear Modulus (GPa) = 26.59589 29.00741 27.80165
#
# Velocity S-wave (km/s) = 3.52211 3.67833 3.60107
# Velocity P-wave (km/s) = 6.73870 6.97127 6.85597
#
# Compressibility (1/GPa) = 0.01615664
#
# Stress axis : x y z
#
# Youngs Moduli (GPa) = 86.55988 53.95232 58.36722
#
# Poissons Ratio (x) = 0.36850 0.09280
# Poissons Ratio (y) = 0.59121 0.41510
# Poissons Ratio (z) = 0.13763 0.38370
#
# Static dielectric constant tensor:
#      x y z
#    x 4.035600 0.000000 0.000000 
#    y 0.000000 4.013260 0.000000 
#    z 0.000000 0.000000 4.254210 
# 
# 
# High freq. dielectric constant tensor:
#      x y z
#    x 1.847260 0.000000 0.000000 
#    y 0.000000 1.822400 0.000000 
#    z 0.000000 0.000000 1.844130 
# 
# From -- ./inp_files/13545.got.cif
#   From: 2010.03.12/outbox.cif.g09.slc.cpg/sg54_7_cif.got.tgz:13545.got - 2010.04.16 15:00:50.
