data_PCOD8222370
_publ_section_title
;
Structure prediction by ZEFSAII (Michael W. Deem and Ramdas Pophale) SiO2 
 PCOD8222370
Probable space group: P C C A
;
_chemical_formula_sum "Si O2"
_cell_formula_units_Z 40
_cell_length_a 20.133283
_cell_length_b 9.001335
_cell_length_c 9.457838
_cell_angle_alpha 90.000000
_cell_angle_beta 90.000000
_cell_angle_gamma 90.000000
_cell_volume 1714.010168
_symmetry_space_group_name_H-M "P C C A"
_symmetry_group_IT_number 54
_symmetry_cell_setting 'orthorhombic'
loop_
_space_group_symop_operation_xyz
x,y,z
1/2-x,-y,z
1/2+x,-y,1/2-z
-x,y,1/2-z
-x,-y,-z
1/2+x,y,-z
1/2-x,y,1/2+z
x,-y,1/2+z
loop_
_atom_site_type_symbol
_atom_site_label
_atom_site_fract_x
_atom_site_fract_y
_atom_site_fract_z
Si Si1 0.475575 0.702349 0.398157
Si Si2 0.211208 0.855268 0.155811
Si Si3 0.734244 0.666396 0.584343
Si Si4 0.587003 0.595815 0.597746
Si Si5 0.062990 0.836313 0.175731
O O1 0.500000 0.774505 0.250000
O O2 0.538910 0.626428 0.468195
O O3 0.417304 0.580565 0.369609
O O4 0.449174 0.825987 0.507157
O O5 0.245008 0.787942 0.294350
O O6 0.135624 0.909935 0.187972
O O7 0.250000 0.000000 0.103156
O O8 0.217691 0.722927 0.040875
O O9 0.750000 0.500000 0.636490
O O10 0.657153 0.656425 0.541379
O O11 0.566763 0.676932 0.744457
O O12 0.000000 0.923063 0.250000
#
# Coordination Sequence:
#
# PCOD8222370 Si02
#       5
#     8   8   8   8   8
#     4  10  17  28  53  87 121 157 204 259 319 377
#     4  11  24  43  67  94 133 178 219 271 339 402
#     4  11  23  39  63  94 128 169 220 271 322 390
#     4   9  18  31  49  80 124 163 198 254 320 375
#     4   9  19  36  58  85 122 167 210 261 322 390
#
# _framework density 23.337083
#
# number of rings (size 3 to 8) (size 9 to 14) (size 15 to 20)
#    0.000    2.000    0.000    5.400    0.000    6.400 
#    0.000    0.000    0.000   25.200    0.000    1.400 
#    0.000    0.000    0.000    0.000    0.000    0.000 
#
# Total GULP energy -495607.275790 kJ/mol
# GULP energy per Si atom -12390.181895 kJ/mol
# Density = 2.328397 g / cm^3
# Si number density = 23.337083 Si / 1000 Ang^3
#
#
#
# Elastic Constant Matrix: (Units=GPa)
#
#
# Indices 1 2 3 4 5 6 
#
# 1 120.0459 23.6021 28.6600 0.0000 0.0000 0.0000
# 2 23.6021 65.3325 14.5548 0.0000 0.0000 0.0000
# 3 28.6600 14.5548 129.8177 0.0000 0.0000 0.0000
# 4 0.0000 0.0000 0.0000 12.6425 0.0000 0.0000
# 5 0.0000 0.0000 0.0000 0.0000 32.9644 0.0000
# 6 0.0000 0.0000 0.0000 0.0000 0.0000 24.0646
#
#
#
# Elastic Compliance Matrix: (Units=1/GPa)
#
#
# Indices 1 2 3 4 5 6 
#
# 1 0.009329 -0.002986 -0.001725 0.000000 0.000000 0.000000
# 2 -0.002986 0.016654 -0.001208 0.000000 0.000000 0.000000
# 3 -0.001725 -0.001208 0.008219 0.000000 0.000000 0.000000
# 4 0.000000 0.000000 0.000000 0.079098 0.000000 0.000000
# 5 0.000000 0.000000 0.000000 0.000000 0.030336 0.000000
# 6 0.000000 0.000000 0.000000 0.000000 0.000000 0.041555
#
#
# Mechanical properties :
#
#
# Convention : Reuss Voigt Hill
#
# Bulk Modulus (GPa) = 44.71279 49.86998 47.29139
# Shear Modulus (GPa) = 24.45184 30.49293 27.47238
#
# Velocity S-wave (km/s) = 3.24044 3.61865 3.43476
# Velocity P-wave (km/s) = 5.76209 6.23501 6.00321
#
# Compressibility (1/GPa) = 0.02236497
#
# Stress axis : x y z
#
# Youngs Moduli (GPa) = 107.19267 60.04514 121.66435
#
# Poissons Ratio (x) = 0.17929 0.20985
# Poissons Ratio (y) = 0.32007 0.14697
# Poissons Ratio (z) = 0.18489 0.07253
#
# Static dielectric constant tensor:
#      x y z
#    x 4.615190 0.000000 0.000000 
#    y 0.000000 3.667500 0.000000 
#    z 0.000000 0.000000 4.109570 
# 
# 
# High freq. dielectric constant tensor:
#      x y z
#    x 1.933500 0.000000 0.000000 
#    y 0.000000 1.883550 0.000000 
#    z 0.000000 0.000000 1.923550 
# 
# From -- ./inp_files/4645.got.cif
#   From: 2010.03.12/outbox.cif.g09.slc.cpg/sg54_3_cif.got.tgz:4645.got - 2010.04.16 15:00:50.
