data_PCOD8222620
_publ_section_title
;
Structure prediction by ZEFSAII (Michael W. Deem and Ramdas Pophale) SiO2 
 PCOD8222620
Probable space group: P C C A
;
_chemical_formula_sum "Si O2"
_cell_formula_units_Z 56
_cell_length_a 13.685386
_cell_length_b 20.287669
_cell_length_c 9.520248
_cell_angle_alpha 90.000000
_cell_angle_beta 90.000000
_cell_angle_gamma 90.000000
_cell_volume 2643.245270
_symmetry_space_group_name_H-M "P C C A"
_symmetry_group_IT_number 54
_symmetry_cell_setting 'orthorhombic'
loop_
_space_group_symop_operation_xyz
x,y,z
1/2-x,-y,z
1/2+x,-y,1/2-z
-x,y,1/2-z
-x,-y,-z
1/2+x,y,-z
1/2-x,y,1/2+z
x,-y,1/2+z
loop_
_atom_site_type_symbol
_atom_site_label
_atom_site_fract_x
_atom_site_fract_y
_atom_site_fract_z
Si Si1 0.682860 0.265147 0.656474
Si Si2 0.000000 0.028012 0.250000
Si Si3 0.782231 0.658310 0.381005
Si Si4 0.678669 0.946352 0.842802
Si Si5 0.408959 0.421574 0.550462
Si Si6 0.854196 0.467926 0.742930
Si Si7 0.500000 0.333389 0.750000
Si Si8 0.176418 0.888296 0.874169
O O1 0.674410 0.293634 0.499720
O O2 0.773209 0.296566 0.741258
O O3 0.591984 0.286760 0.749160
O O4 0.682263 0.187097 0.668080
O O5 0.925849 0.075564 0.165172
O O6 0.930061 0.977478 0.334545
O O7 0.685836 0.624504 0.442849
O O8 0.851176 0.598261 0.335676
O O9 0.727964 0.922824 0.696019
O O10 0.750000 0.000000 0.911533
O O11 0.680292 0.888115 0.956843
O O12 0.408307 0.479877 0.662403
O O13 0.419057 0.451986 0.395284
O O14 0.499438 0.377060 0.605523
O O15 0.750000 0.500000 0.696060
#
# Coordination Sequence:
#
# PCOD8222620 Si02
#       8
#     8   4   8   8   8   8   4   8
#     4  11  22  41  62  85 120 162 206 243 298 368
#     4  10  21  38  64  94 133 166 194 262 310 358
#     4  10  20  37  62  83 113 158 207 250 292 362
#     4  10  21  39  63  98 126 160 207 255 309 361
#     4  10  21  36  57  86 115 151 199 255 315 363
#     4  10  19  34  61  88 110 149 205 256 310 366
#     4  10  25  40  56  86 127 156 198 256 320 374
#     4  11  22  38  64  93 125 168 212 250 305 375
#
# _framework density 21.186078999999999
#
# number of rings (size 3 to 8) (size 9 to 14) (size 15 to 20)
#    0.000    1.714    1.429    4.286    4.000    1.714 
#    0.000    2.857    0.000    0.000    0.000    0.000 
#    0.000    0.000    0.000    0.000    0.000    0.000 
#
# Total GULP energy -693753.486068 kJ/mol
# GULP energy per Si atom -12388.455108 kJ/mol
# Density = 2.113786 g / cm^3
# Si number density = 21.186079 Si / 1000 Ang^3
#
#
#
# Elastic Constant Matrix: (Units=GPa)
#
#
# Indices 1 2 3 4 5 6 
#
# 1 63.6531 28.2166 6.4250 0.0000 0.0000 0.0000
# 2 28.2166 130.6593 32.6451 0.0000 0.0000 0.0000
# 3 6.4250 32.6451 100.1285 0.0000 0.0000 0.0000
# 4 0.0000 0.0000 0.0000 35.0063 0.0000 0.0000
# 5 0.0000 0.0000 0.0000 0.0000 6.6798 0.0000
# 6 0.0000 0.0000 0.0000 0.0000 0.0000 19.3390
#
#
#
# Elastic Compliance Matrix: (Units=1/GPa)
#
#
# Indices 1 2 3 4 5 6 
#
# 1 0.017375 -0.003782 0.000118 0.000000 0.000000 0.000000
# 2 -0.003782 0.009155 -0.002742 0.000000 0.000000 0.000000
# 3 0.000118 -0.002742 0.010874 0.000000 0.000000 0.000000
# 4 0.000000 0.000000 0.000000 0.028566 0.000000 0.000000
# 5 0.000000 0.000000 0.000000 0.000000 0.149705 0.000000
# 6 0.000000 0.000000 0.000000 0.000000 0.000000 0.051709
#
#
# Mechanical properties :
#
#
# Convention : Reuss Voigt Hill
#
# Bulk Modulus (GPa) = 40.66387 47.66826 44.16606
# Shear Modulus (GPa) = 17.33749 27.34864 22.34306
#
# Velocity S-wave (km/s) = 2.86377 3.59678 3.25100
# Velocity P-wave (km/s) = 5.49275 6.30854 5.91473
#
# Compressibility (1/GPa) = 0.02459185
#
# Stress axis : x y z
#
# Youngs Moduli (GPa) = 57.55530 109.22626 91.96542
#
# Poissons Ratio (x) = 0.41305 -0.01086
# Poissons Ratio (y) = 0.21765 0.25219
# Poissons Ratio (z) = -0.00679 0.29953
#
# Static dielectric constant tensor:
#      x y z
#    x 3.742710 0.000000 0.000000 
#    y 0.000000 3.847620 0.000000 
#    z 0.000000 0.000000 3.748050 
# 
# 
# High freq. dielectric constant tensor:
#      x y z
#    x 1.816730 0.000000 0.000000 
#    y 0.000000 1.835180 0.000000 
#    z 0.000000 0.000000 1.832750 
# 
# From -- ./inp_files/3719.got.cif
#   From: 2010.03.12/outbox.cif.g09.slc.cpg/sg54_2_cif.got.tgz:3719.got - 2010.04.16 15:00:50.
