data_PCOD8222604
_publ_section_title
;
Structure prediction by ZEFSAII (Michael W. Deem and Ramdas Pophale) SiO2 
 PCOD8222604
Probable space group: P C C A
;
_chemical_formula_sum "Si O2"
_cell_formula_units_Z 44
_cell_length_a 5.052726
_cell_length_b 15.314639
_cell_length_c 28.588924
_cell_angle_alpha 90.000000
_cell_angle_beta 90.000000
_cell_angle_gamma 90.000000
_cell_volume 2212.230227
_symmetry_space_group_name_H-M "P C C A"
_symmetry_group_IT_number 54
_symmetry_cell_setting 'orthorhombic'
loop_
_space_group_symop_operation_xyz
x,y,z
1/2-x,-y,z
1/2+x,-y,1/2-z
-x,y,1/2-z
-x,-y,-z
1/2+x,y,-z
1/2-x,y,1/2+z
x,-y,1/2+z
loop_
_atom_site_type_symbol
_atom_site_label
_atom_site_fract_x
_atom_site_fract_y
_atom_site_fract_z
Si Si1 0.773637 0.250861 0.895695
Si Si2 0.287972 0.776168 0.336717
Si Si3 0.111704 0.080786 0.201864
Si Si4 0.271549 0.400255 0.031147
Si Si5 0.239805 0.899853 0.031096
Si Si6 0.000000 0.789922 0.250000
O O1 0.553721 0.269381 0.855817
O O2 0.774909 0.340110 0.923895
O O3 0.699702 0.166041 0.926410
O O4 0.061363 0.232754 0.874909
O O5 0.371004 0.878189 0.328141
O O6 0.193750 0.736339 0.285699
O O7 0.326479 0.155412 0.212970
O O8 0.000000 0.040822 0.250000
O O9 0.250000 0.000000 0.174447
O O10 0.250000 0.500000 0.048481
O O11 0.533742 0.378018 0.002988
O O12 0.250000 0.000000 0.049190
O O13 0.452364 0.881243 0.990452
#
# Coordination Sequence:
#
# PCOD8222604 Si02
#       6
#     8   8   8   8   8   4
#     4  12  22  38  57  90 118 151 198 250 294 348
#     4  11  24  36  55  82 118 152 200 243 305 352
#     4  10  19  34  55  75 107 155 204 255 309 354
#     4  10  21  39  66  96 125 155 187 236 309 379
#     4  10  21  38  55  73 108 157 196 228 277 337
#     4  10  20  42  52  78 114 156 204 248 308 370
#
# _framework density 19.889431999999999
#
# number of rings (size 3 to 8) (size 9 to 14) (size 15 to 20)
#    0.000    1.455    2.727    3.273    0.000    0.727 
#    3.273    0.000    0.000    0.000    0.000    2.545 
#    2.727    0.000    0.000    0.000    0.000    0.000 
#
# Total GULP energy -545291.164260 kJ/mol
# GULP energy per Si atom -12392.981006 kJ/mol
# Density = 1.984416 g / cm^3
# Si number density = 19.889432 Si / 1000 Ang^3
#
#
#
# Elastic Constant Matrix: (Units=GPa)
#
#
# Indices 1 2 3 4 5 6 
#
# 1 143.0882 36.6586 52.7639 0.0000 0.0000 0.0000
# 2 36.6586 86.6529 58.5405 0.0000 0.0000 0.0000
# 3 52.7639 58.5405 89.5600 0.0000 0.0000 0.0000
# 4 0.0000 0.0000 0.0000 20.8042 0.0000 0.0000
# 5 0.0000 0.0000 0.0000 0.0000 56.6504 0.0000
# 6 0.0000 0.0000 0.0000 0.0000 0.0000 21.1676
#
#
#
# Elastic Compliance Matrix: (Units=1/GPa)
#
#
# Indices 1 2 3 4 5 6 
#
# 1 0.008936 -0.000401 -0.005003 0.000000 0.000000 0.000000
# 2 -0.000401 0.020684 -0.013284 0.000000 0.000000 0.000000
# 3 -0.005003 -0.013284 0.022796 0.000000 0.000000 0.000000
# 4 0.000000 0.000000 0.000000 0.048067 0.000000 0.000000
# 5 0.000000 0.000000 0.000000 0.000000 0.017652 0.000000
# 6 0.000000 0.000000 0.000000 0.000000 0.000000 0.047242
#
#
# Mechanical properties :
#
#
# Convention : Reuss Voigt Hill
#
# Bulk Modulus (GPa) = 66.48321 68.35857 67.42089
# Shear Modulus (GPa) = 24.06546 31.14697 27.60622
#
# Velocity S-wave (km/s) = 3.48222 3.96157 3.72961
# Velocity P-wave (km/s) = 7.04747 7.44106 7.24693
#
# Compressibility (1/GPa) = 0.01504139
#
# Stress axis : x y z
#
# Youngs Moduli (GPa) = 111.90525 48.34612 43.86709
#
# Poissons Ratio (x) = 0.01937 0.21946
# Poissons Ratio (y) = 0.04484 0.58273
# Poissons Ratio (z) = 0.55984 0.64223
#
# Static dielectric constant tensor:
#      x y z
#    x 4.069210 0.000000 0.000000 
#    y 0.000000 3.289320 0.000000 
#    z 0.000000 0.000000 3.650330 
# 
# 
# High freq. dielectric constant tensor:
#      x y z
#    x 1.810950 0.000000 0.000000 
#    y 0.000000 1.722220 0.000000 
#    z 0.000000 0.000000 1.770470 
# 
# From -- ./inp_files/25324.got.cif
#   From: 2010.03.12/outbox.cif.g09.slc.cpg/sg54_13_cif.got.tgz:25324.got - 2010.04.16 15:00:50.
