data_PCOD8222649
_publ_section_title
;
Structure prediction by ZEFSAII (Michael W. Deem and Ramdas Pophale) SiO2 
 PCOD8222649
Probable space group: P C C A
;
_chemical_formula_sum "Si O2"
_cell_formula_units_Z 48
_cell_length_a 23.309448
_cell_length_b 6.072735
_cell_length_c 16.331710
_cell_angle_alpha 90.000000
_cell_angle_beta 90.000000
_cell_angle_gamma 90.000000
_cell_volume 2311.787859
_symmetry_space_group_name_H-M "P C C A"
_symmetry_group_IT_number 54
_symmetry_cell_setting 'orthorhombic'
loop_
_space_group_symop_operation_xyz
x,y,z
1/2-x,-y,z
1/2+x,-y,1/2-z
-x,y,1/2-z
-x,-y,-z
1/2+x,y,-z
1/2-x,y,1/2+z
x,-y,1/2+z
loop_
_atom_site_type_symbol
_atom_site_label
_atom_site_fract_x
_atom_site_fract_y
_atom_site_fract_z
Si Si1 0.957602 0.188895 0.969868
Si Si2 0.250000 0.000000 0.808848
Si Si3 0.303599 0.624194 0.202362
Si Si4 0.000000 0.277219 0.250000
Si Si5 0.101606 0.942755 0.665774
Si Si6 0.948662 0.518003 0.107880
Si Si7 0.146298 0.245353 0.811757
O O1 0.905176 0.089253 0.916446
O O2 0.992224 0.367156 0.916870
O O3 0.930486 0.322234 0.046176
O O4 0.000000 0.000000 0.000000
O O5 0.226399 0.816287 0.749923
O O6 0.301969 0.885846 0.859077
O O7 0.250000 0.500000 0.154483
O O8 0.332796 0.466558 0.268527
O O9 0.353841 0.739699 0.147166
O O10 0.044517 0.423035 0.301023
O O11 0.037118 0.138018 0.185335
O O12 0.120799 0.086800 0.742529
O O13 0.898280 0.698916 0.115874
#
# Coordination Sequence:
#
# PCOD8222649 Si02
#       7
#     8   4   8   4   8   8   8
#     4  11  24  39  52  84 131 169 197 241 304 382
#     4   8  18  32  56  92 118 138 200 264 308 342
#     4   9  18  34  57  90 119 146 200 261 305 348
#     4  12  20  36  58  90 124 150 208 258 298 368
#     4  11  21  34  58  86 127 162 200 256 306 365
#     4  11  23  36  56  84 127 165 205 247 308 370
#     4  10  19  35  59  89 117 158 201 261 299 356
#
# _framework density 20.76315
#
# number of rings (size 3 to 8) (size 9 to 14) (size 15 to 20)
#    0.000    1.667    3.333    2.000    0.000    0.000 
#    0.000    0.000    0.000    0.000    0.000   92.167 
#    0.000    0.000    0.000    0.000    0.000    0.000 
#
# Total GULP energy -594754.926389 kJ/mol
# GULP energy per Si atom -12390.727633 kJ/mol
# Density = 2.071589 g / cm^3
# Si number density = 20.763150 Si / 1000 Ang^3
#
#
#
# Elastic Constant Matrix: (Units=GPa)
#
#
# Indices 1 2 3 4 5 6 
#
# 1 125.7091 50.6615 38.5793 0.0000 0.0000 0.0000
# 2 50.6615 101.4373 29.2249 0.0000 0.0000 0.0000
# 3 38.5793 29.2249 75.6835 0.0000 0.0000 0.0000
# 4 0.0000 0.0000 0.0000 31.2403 0.0000 0.0000
# 5 0.0000 0.0000 0.0000 0.0000 21.0756 0.0000
# 6 0.0000 0.0000 0.0000 0.0000 0.0000 53.7657
#
#
#
# Elastic Compliance Matrix: (Units=1/GPa)
#
#
# Indices 1 2 3 4 5 6 
#
# 1 0.010887 -0.004319 -0.003882 0.000000 0.000000 0.000000
# 2 -0.004319 0.012806 -0.002743 0.000000 0.000000 0.000000
# 3 -0.003882 -0.002743 0.016251 0.000000 0.000000 0.000000
# 4 0.000000 0.000000 0.000000 0.032010 0.000000 0.000000
# 5 0.000000 0.000000 0.000000 0.000000 0.047448 0.000000
# 6 0.000000 0.000000 0.000000 0.000000 0.000000 0.018599
#
#
# Mechanical properties :
#
#
# Convention : Reuss Voigt Hill
#
# Bulk Modulus (GPa) = 55.38495 59.97347 57.67921
# Shear Modulus (GPa) = 30.13739 33.50728 31.82234
#
# Velocity S-wave (km/s) = 3.81397 4.02155 3.91914
# Velocity P-wave (km/s) = 6.79174 7.10712 6.95122
#
# Compressibility (1/GPa) = 0.01805545
#
# Stress axis : x y z
#
# Youngs Moduli (GPa) = 91.85549 78.09038 61.53491
#
# Poissons Ratio (x) = 0.33726 0.23886
# Poissons Ratio (y) = 0.39671 0.16881
# Poissons Ratio (z) = 0.35656 0.21423
#
# Static dielectric constant tensor:
#      x y z
#    x 4.339070 0.000000 0.000000 
#    y 0.000000 4.032720 0.000000 
#    z 0.000000 0.000000 3.309080 
# 
# 
# High freq. dielectric constant tensor:
#      x y z
#    x 1.821170 0.000000 0.000000 
#    y 0.000000 1.842040 0.000000 
#    z 0.000000 0.000000 1.757110 
# 
# From -- ./inp_files/19087.got.cif
#   From: 2010.03.12/outbox.cif.g09.slc.cpg/sg54_10_cif.got.tgz:19087.got - 2010.04.16 15:00:50.
