data_PCOD8222544
_publ_section_title
;
Structure prediction by ZEFSAII (Michael W. Deem and Ramdas Pophale) SiO2 
 PCOD8222544
Probable space group: P C C A
;
_chemical_formula_sum "Si O2"
_cell_formula_units_Z 52
_cell_length_a 27.746116
_cell_length_b 8.214042
_cell_length_c 12.096108
_cell_angle_alpha 90.000000
_cell_angle_beta 90.000000
_cell_angle_gamma 90.000000
_cell_volume 2756.796905
_symmetry_space_group_name_H-M "P C C A"
_symmetry_group_IT_number 54
_symmetry_cell_setting 'orthorhombic'
loop_
_space_group_symop_operation_xyz
x,y,z
1/2-x,-y,z
1/2+x,-y,1/2-z
-x,y,1/2-z
-x,-y,-z
1/2+x,y,-z
1/2-x,y,1/2+z
x,-y,1/2+z
loop_
_atom_site_type_symbol
_atom_site_label
_atom_site_fract_x
_atom_site_fract_y
_atom_site_fract_z
Si Si1 0.669844 0.803387 0.620606
Si Si2 0.371789 0.499947 0.499984
Si Si3 0.446218 0.296158 0.624443
Si Si4 0.250000 0.000000 0.999961
Si Si5 0.907083 0.000010 0.000012
Si Si6 0.553764 0.703740 0.124394
Si Si7 0.830122 0.196645 0.879491
O O1 0.662293 0.636147 0.553459
O O2 0.673414 0.765608 0.750045
O O3 0.718945 0.884977 0.579556
O O4 0.625910 0.926427 0.597579
O O5 0.406374 0.430248 0.595406
O O6 0.406428 0.569512 0.404617
O O7 0.337727 0.636144 0.553367
O O8 0.438038 0.243224 0.750038
O O9 0.499984 0.368345 0.606764
O O10 0.441270 0.137431 0.549114
O O11 0.219019 0.884706 0.079463
O O12 0.873993 0.073380 0.902551
O O13 0.941247 0.137631 0.048987
#
# Coordination Sequence:
#
# PCOD8222544 Si02
#       7
#     8   8   8   4   8   8   8
#     4  10  20  37  57  77 105 135 168 212 260 308
#     4  10  21  35  52  78 106 138 172 207 255 312
#     4  10  19  32  51  76 107 141 176 213 251 293
#     4  10  22  38  58  82  98 126 172 216 260 314
#     4   9  19  33  53  78 104 138 179 213 249 297
#     4  10  19  32  51  76 107 141 176 213 251 293
#     4  10  20  37  57  77 105 135 168 212 260 308
#
# _framework density 18.862469999999998
#
# number of rings (size 3 to 8) (size 9 to 14) (size 15 to 20)
#    0.000    2.154    0.000    3.231    0.000    0.615 
#    0.000    6.154    0.000   14.769    0.000    0.000 
#    0.000    0.000    0.000    0.000    0.000    0.000 
#
# Total GULP energy -644924.282316 kJ/mol
# GULP energy per Si atom -12402.390045 kJ/mol
# Density = 1.881954 g / cm^3
# Si number density = 18.862470 Si / 1000 Ang^3
#
#
#
# Elastic Constant Matrix: (Units=GPa)
#
#
# Indices 1 2 3 4 5 6 
#
# 1 108.0451 49.8771 56.8651 0.0000 0.0000 0.0000
# 2 49.8771 98.8036 30.2734 0.0000 0.0000 0.0000
# 3 56.8651 30.2734 111.3037 0.0000 0.0000 0.0000
# 4 0.0000 0.0000 0.0000 19.9923 0.0000 0.0000
# 5 0.0000 0.0000 0.0000 0.0000 15.6522 0.0000
# 6 0.0000 0.0000 0.0000 0.0000 0.0000 16.2211
#
#
#
# Elastic Compliance Matrix: (Units=1/GPa)
#
#
# Indices 1 2 3 4 5 6 
#
# 1 0.015170 -0.005764 -0.006183 0.000000 0.000000 0.000000
# 2 -0.005764 0.013231 -0.000654 0.000000 0.000000 0.000000
# 3 -0.006183 -0.000654 0.012321 0.000000 0.000000 0.000000
# 4 0.000000 0.000000 0.000000 0.050019 0.000000 0.000000
# 5 0.000000 0.000000 0.000000 0.000000 0.063889 0.000000
# 6 0.000000 0.000000 0.000000 0.000000 0.000000 0.061648
#
#
# Mechanical properties :
#
#
# Convention : Reuss Voigt Hill
#
# Bulk Modulus (GPa) = 64.42748 65.79819 65.11284
# Shear Modulus (GPa) = 20.27139 22.44892 21.36015
#
# Velocity S-wave (km/s) = 3.28181 3.45358 3.36879
# Velocity P-wave (km/s) = 6.97072 7.13175 7.05169
#
# Compressibility (1/GPa) = 0.01552133
#
# Stress axis : x y z
#
# Youngs Moduli (GPa) = 65.91905 75.57992 81.16156
#
# Poissons Ratio (x) = 0.43561 0.50180
# Poissons Ratio (y) = 0.37993 0.05308
# Poissons Ratio (z) = 0.40756 0.04943
#
# Static dielectric constant tensor:
#      x y z
#    x 3.436110 0.000000 0.000000 
#    y 0.000000 3.466060 0.000000 
#    z 0.000000 0.000000 3.343820 
# 
# 
# High freq. dielectric constant tensor:
#      x y z
#    x 1.734800 0.000000 0.000000 
#    y 0.000000 1.735370 0.000000 
#    z 0.000000 0.000000 1.735200 
# 
# From -- ./inp_files/10306.got.cif
#   From: 2010.03.12/outbox.cif.g09.slc.cpg/sg54_6_cif.got.tgz:10306.got - 2010.04.16 15:00:50.
