data_PCOD8222762
_publ_section_title
;
Structure prediction by ZEFSAII (Michael W. Deem and Ramdas Pophale) SiO2 
 PCOD8222762
Probable space group: P C C A
;
_chemical_formula_sum "Si O2"
_cell_formula_units_Z 52
_cell_length_a 21.214188
_cell_length_b 6.386773
_cell_length_c 19.110950
_cell_angle_alpha 90.000000
_cell_angle_beta 90.000000
_cell_angle_gamma 90.000000
_cell_volume 2589.346498
_symmetry_space_group_name_H-M "P C C A"
_symmetry_group_IT_number 54
_symmetry_cell_setting 'orthorhombic'
loop_
_space_group_symop_operation_xyz
x,y,z
1/2-x,-y,z
1/2+x,-y,1/2-z
-x,y,1/2-z
-x,-y,-z
1/2+x,y,-z
1/2-x,y,1/2+z
x,-y,1/2+z
loop_
_atom_site_type_symbol
_atom_site_label
_atom_site_fract_x
_atom_site_fract_y
_atom_site_fract_z
Si Si1 0.580858 0.458141 0.144640
Si Si2 0.035985 0.154865 0.429592
Si Si3 0.808378 0.634172 0.896430
Si Si4 0.750000 0.000000 0.316984
Si Si5 0.977425 0.849342 0.321645
Si Si6 0.849031 0.319312 0.778903
Si Si7 0.584616 0.229884 0.003376
O O1 0.575275 0.702738 0.124283
O O2 0.513978 0.372464 0.172193
O O3 0.633159 0.419622 0.204184
O O4 0.602138 0.338151 0.075735
O O5 0.985870 0.290276 0.475265
O O6 0.083344 0.022460 0.480211
O O7 0.992041 0.994554 0.387023
O O8 0.750000 0.500000 0.930210
O O9 0.790326 0.861976 0.870033
O O10 0.831150 0.508471 0.828820
O O11 0.863493 0.679754 0.951198
O O12 0.792526 0.848037 0.268233
O O13 0.903720 0.808161 0.317844
O O14 0.000000 0.962224 0.250000
#
# Coordination Sequence:
#
# PCOD8222762 Si02
#       7
#     8   8   8   4   8   8   8
#     4  10  21  36  56  87 120 149 183 231 294 351
#     4  10  20  33  55  86 120 152 181 230 296 351
#     4  10  22  39  60  82 109 152 201 247 288 338
#     4  10  22  40  60  84 110 148 206 248 286 334
#     4   9  19  33  54  87 116 146 188 229 283 348
#     4  10  21  38  60  84 116 155 196 243 289 345
#     4  10  21  36  55  84 117 150 189 233 287 357
#
# _framework density 20.082287000000001
#
# number of rings (size 3 to 8) (size 9 to 14) (size 15 to 20)
#    0.000    2.154    0.000    2.308    0.000   11.692 
#    0.000    3.077    0.000    0.000    0.000    0.000 
#    0.000    0.000    0.000    0.000    0.000    0.000 
#
# Total GULP energy -644435.553440 kJ/mol
# GULP energy per Si atom -12392.991412 kJ/mol
# Density = 2.003658 g / cm^3
# Si number density = 20.082287 Si / 1000 Ang^3
#
#
#
# Elastic Constant Matrix: (Units=GPa)
#
#
# Indices 1 2 3 4 5 6 
#
# 1 101.0412 57.3121 56.5970 0.0000 0.0000 0.0000
# 2 57.3121 107.7859 63.2013 0.0000 0.0000 0.0000
# 3 56.5970 63.2013 119.1046 0.0000 0.0000 0.0000
# 4 0.0000 0.0000 0.0000 37.3367 0.0000 0.0000
# 5 0.0000 0.0000 0.0000 0.0000 31.5017 0.0000
# 6 0.0000 0.0000 0.0000 0.0000 0.0000 25.1043
#
#
#
# Elastic Compliance Matrix: (Units=1/GPa)
#
#
# Indices 1 2 3 4 5 6 
#
# 1 0.015595 -0.005730 -0.004370 0.000000 0.000000 0.000000
# 2 -0.005730 0.015573 -0.005541 0.000000 0.000000 0.000000
# 3 -0.004370 -0.005541 0.013413 0.000000 0.000000 0.000000
# 4 0.000000 0.000000 0.000000 0.026783 0.000000 0.000000
# 5 0.000000 0.000000 0.000000 0.000000 0.031744 0.000000
# 6 0.000000 0.000000 0.000000 0.000000 0.000000 0.039834
#
#
# Mechanical properties :
#
#
# Convention : Reuss Voigt Hill
#
# Bulk Modulus (GPa) = 75.19189 75.79472 75.49330
# Shear Modulus (GPa) = 27.98656 28.84328 28.41492
#
# Velocity S-wave (km/s) = 3.73714 3.79391 3.76563
# Velocity P-wave (km/s) = 7.49298 7.55087 7.52198
#
# Compressibility (1/GPa) = 0.01329931
#
# Stress axis : x y z
#
# Youngs Moduli (GPa) = 64.12419 64.21240 74.55503
#
# Poissons Ratio (x) = 0.36791 0.32581
# Poissons Ratio (y) = 0.36741 0.41312
# Poissons Ratio (z) = 0.28023 0.35581
#
# Static dielectric constant tensor:
#      x y z
#    x 1.844120 0.000000 0.000000 
#    y 0.000000 3.720790 0.000000 
#    z 0.000000 0.000000 3.770690 
# 
# 
# High freq. dielectric constant tensor:
#      x y z
#    x 1.766290 0.000000 0.000000 
#    y 0.000000 1.787270 0.000000 
#    z 0.000000 0.000000 1.789530 
# 
# From -- ./inp_files/22147.got.cif
#   From: 2010.03.12/outbox.cif.g09.slc.cpg/sg54_12_cif.got.tgz:22147.got - 2010.04.16 15:00:50.
