data_PCOD8222849
_publ_section_title
;
Structure prediction by ZEFSAII (Michael W. Deem and Ramdas Pophale) SiO2 
 PCOD8222849
Probable space group: P C C A
;
_chemical_formula_sum "Si O2"
_cell_formula_units_Z 40
_cell_length_a 5.040646
_cell_length_b 12.861620
_cell_length_c 31.154297
_cell_angle_alpha 90.000000
_cell_angle_beta 90.000000
_cell_angle_gamma 90.000000
_cell_volume 2019.760285
_symmetry_space_group_name_H-M "P C C A"
_symmetry_group_IT_number 54
_symmetry_cell_setting 'orthorhombic'
loop_
_space_group_symop_operation_xyz
x,y,z
1/2-x,-y,z
1/2+x,-y,1/2-z
-x,y,1/2-z
-x,-y,-z
1/2+x,y,-z
1/2-x,y,1/2+z
x,-y,1/2+z
loop_
_atom_site_type_symbol
_atom_site_label
_atom_site_fract_x
_atom_site_fract_y
_atom_site_fract_z
Si Si1 0.250000 0.500000 0.591302
Si Si2 0.167706 0.719186 0.633369
Si Si3 0.654568 0.798446 0.586739
Si Si4 0.751825 0.381598 0.279545
Si Si5 0.750000 0.000000 0.031498
Si Si6 0.596257 0.390990 0.028383
O O1 0.180897 0.601237 0.617881
O O2 0.516167 0.526117 0.564693
O O3 0.383348 0.799786 0.614164
O O4 0.219876 0.707290 0.684051
O O5 0.880886 0.761850 0.619815
O O6 0.737606 0.905072 0.564631
O O7 0.591381 0.724412 0.546616
O O8 0.750000 0.500000 0.298370
O O9 0.500000 0.358523 0.250000
O O10 0.000000 0.366702 0.250000
O O11 0.500000 0.000000 0.000000
O O12 0.391967 0.408652 0.989138
#
# Coordination Sequence:
#
# PCOD8222849 Si02
#       6
#     4   8   8   8   4   8
#     4  10  22  34  52  78 116 160 188 232 290 338
#     4  11  22  39  56  88 121 154 191 239 289 363
#     4  11  24  38  60  84 112 152 200 248 310 346
#     4  10  20  36  59  89 121 160 195 231 284 350
#     4  12  24  44  66  88 116 154 204 270 312 340
#     4  11  21  35  49  73 106 148 195 234 274 342
#
# _framework density 19.804331999999999
#
# number of rings (size 3 to 8) (size 9 to 14) (size 15 to 20)
#    0.000    1.200    1.000    6.600    0.000    6.400 
#    0.000    0.000    0.000    0.000    0.000   14.000 
#    0.000    0.000    0.000    0.000    0.000    0.000 
#
# Total GULP energy -495698.987656 kJ/mol
# GULP energy per Si atom -12392.474691 kJ/mol
# Density = 1.975926 g / cm^3
# Si number density = 19.804332 Si / 1000 Ang^3
#
#
#
# Elastic Constant Matrix: (Units=GPa)
#
#
# Indices 1 2 3 4 5 6 
#
# 1 129.3327 30.1162 38.8879 0.0000 0.0000 0.0000
# 2 30.1162 93.6948 41.6566 0.0000 0.0000 0.0000
# 3 38.8879 41.6566 96.5969 0.0000 0.0000 0.0000
# 4 0.0000 0.0000 0.0000 29.3942 0.0000 0.0000
# 5 0.0000 0.0000 0.0000 0.0000 28.3808 0.0000
# 6 0.0000 0.0000 0.0000 0.0000 0.0000 26.6217
#
#
#
# Elastic Compliance Matrix: (Units=1/GPa)
#
#
# Indices 1 2 3 4 5 6 
#
# 1 0.008983 -0.001583 -0.002934 0.000000 0.000000 0.000000
# 2 -0.001583 0.013484 -0.005177 0.000000 0.000000 0.000000
# 3 -0.002934 -0.005177 0.013766 0.000000 0.000000 0.000000
# 4 0.000000 0.000000 0.000000 0.034020 0.000000 0.000000
# 5 0.000000 0.000000 0.000000 0.000000 0.035235 0.000000
# 6 0.000000 0.000000 0.000000 0.000000 0.000000 0.037563
#
#
# Mechanical properties :
#
#
# Convention : Reuss Voigt Hill
#
# Bulk Modulus (GPa) = 59.36724 60.10511 59.73617
# Shear Modulus (GPa) = 29.75237 30.81027 30.28132
#
# Velocity S-wave (km/s) = 3.88018 3.94856 3.91452
# Velocity P-wave (km/s) = 7.07929 7.15566 7.11758
#
# Compressibility (1/GPa) = 0.01684431
#
# Stress axis : x y z
#
# Youngs Moduli (GPa) = 111.32524 74.16387 72.64264
#
# Poissons Ratio (x) = 0.11740 0.21310
# Poissons Ratio (y) = 0.17623 0.37610
# Poissons Ratio (z) = 0.32658 0.38398
#
# Static dielectric constant tensor:
#      x y z
#    x 3.805360 0.000000 0.000000 
#    y 0.000000 3.576470 0.000000 
#    z 0.000000 0.000000 3.646880 
# 
# 
# High freq. dielectric constant tensor:
#      x y z
#    x 1.798570 0.000000 0.000000 
#    y 0.000000 1.746040 0.000000 
#    z 0.000000 0.000000 1.771340 
# 
# From -- ./inp_files/27059.got.cif
#   From: 2010.03.12/outbox.cif.g09.slc.cpg/sg54_14_cif.got.tgz:27059.got - 2010.04.16 15:00:50.
