data_PCOD8222129
_publ_section_title
;
Structure prediction by ZEFSAII (Michael W. Deem and Ramdas Pophale) SiO2 
 PCOD8222129
Probable space group: P M N A
;
_chemical_formula_sum "Si O2"
_cell_formula_units_Z 40
_cell_length_a 8.779574
_cell_length_b 7.709698
_cell_length_c 28.567531
_cell_angle_alpha 90.000000
_cell_angle_beta 90.000000
_cell_angle_gamma 90.000000
_cell_volume 1933.675156
_symmetry_space_group_name_H-M "P M N A"
_symmetry_group_IT_number 53
_symmetry_cell_setting 'orthorhombic'
loop_
_space_group_symop_operation_xyz
x,y,z
1/2-x,-y,1/2+z
x,-y,-z
1/2-x,y,1/2-z
-x,-y,-z
1/2+x,y,1/2-z
-x,y,z
1/2+x,-y,1/2+z
loop_
_atom_site_type_symbol
_atom_site_label
_atom_site_fract_x
_atom_site_fract_y
_atom_site_fract_z
Si Si1 0.180232 0.215353 0.548154
Si Si2 0.820141 0.823481 0.554091
Si Si3 0.678509 0.663260 0.361219
Si Si4 0.679970 0.010791 0.700858
Si Si5 0.819262 0.314391 0.348093
O O1 0.226333 0.269391 0.494891
O O2 0.265749 0.337288 0.584988
O O3 0.000000 0.235077 0.556344
O O4 0.240282 0.019944 0.556041
O O5 0.758580 0.720361 0.598970
O O6 0.000000 0.834765 0.555683
O O7 0.500000 0.632701 0.358888
O O8 0.759608 0.504618 0.334011
O O9 0.727117 0.842572 0.336595
O O10 0.750000 0.069006 0.750000
O O11 0.500000 0.992489 0.705239
O O12 0.749597 0.826632 0.686585
O O13 0.000000 0.305986 0.344102
#
# Coordination Sequence:
#
# PCOD8222129 Si02
#       5
#     8   8   8   8   8
#     4   9  16  33  59  86 119 160 209 251 290 349
#     4   8  16  31  57  89 119 157 205 252 292 348
#     4  11  24  40  59  90 128 162 199 247 304 362
#     4  11  25  45  67  89 118 154 196 249 305 363
#     4  11  22  39  65  93 122 159 203 249 300 356
#
# _framework density 20.685997
#
# number of rings (size 3 to 8) (size 9 to 14) (size 15 to 20)
#    0.000    2.000    2.000    3.000    0.000    4.000 
#    0.000   10.000    0.000    0.000    0.000    0.000 
#    0.000    0.000    0.000    0.000    0.000    0.000 
#
# Total GULP energy -495975.308968 kJ/mol
# GULP energy per Si atom -12399.382724 kJ/mol
# Density = 2.063891 g / cm^3
# Si number density = 20.685997 Si / 1000 Ang^3
#
#
#
# Elastic Constant Matrix: (Units=GPa)
#
#
# Indices 1 2 3 4 5 6 
#
# 1 72.6843 30.1821 33.9557 0.0000 0.0000 0.0000
# 2 30.1821 77.3569 12.9497 0.0000 0.0000 0.0000
# 3 33.9557 12.9497 92.8615 0.0000 0.0000 0.0000
# 4 0.0000 0.0000 0.0000 18.5702 0.0000 0.0000
# 5 0.0000 0.0000 0.0000 0.0000 25.1949 0.0000
# 6 0.0000 0.0000 0.0000 0.0000 0.0000 30.7819
#
#
#
# Elastic Compliance Matrix: (Units=1/GPa)
#
#
# Indices 1 2 3 4 5 6 
#
# 1 0.019343 -0.006515 -0.006165 0.000000 0.000000 0.000000
# 2 -0.006515 0.015431 0.000231 0.000000 0.000000 0.000000
# 3 -0.006165 0.000231 0.012991 0.000000 0.000000 0.000000
# 4 0.000000 0.000000 0.000000 0.053850 0.000000 0.000000
# 5 0.000000 0.000000 0.000000 0.000000 0.039691 0.000000
# 6 0.000000 0.000000 0.000000 0.000000 0.000000 0.032487
#
#
# Mechanical properties :
#
#
# Convention : Reuss Voigt Hill
#
# Bulk Modulus (GPa) = 43.73265 44.11974 43.92620
# Shear Modulus (GPa) = 24.23513 25.96375 25.09944
#
# Velocity S-wave (km/s) = 3.42654 3.54663 3.48710
# Velocity P-wave (km/s) = 6.06976 6.17625 6.12324
#
# Compressibility (1/GPa) = 0.02286621
#
# Stress axis : x y z
#
# Youngs Moduli (GPa) = 51.69708 64.80658 76.97805
#
# Poissons Ratio (x) = 0.42223 0.47454
# Poissons Ratio (y) = 0.33682 -0.01775
# Poissons Ratio (z) = 0.31869 -0.01494
#
# Static dielectric constant tensor:
#      x y z
#    x 3.429600 0.000000 0.000000 
#    y 0.000000 3.755570 0.000000 
#    z 0.000000 0.000000 4.187770 
# 
# 
# High freq. dielectric constant tensor:
#      x y z
#    x 1.786030 0.000000 0.000000 
#    y 0.000000 1.809800 0.000000 
#    z 0.000000 0.000000 1.812220 
# 
# From -- ./inp_files/36036.got.cif
#   From: 2010.03.12/outbox.cif.g09.slc.cpg/sg53_19_cif.got.tgz:36036.got - 2010.04.16 14:36:59.
