data_PCOD8222913
_publ_section_title
;
Structure prediction by ZEFSAII (Michael W. Deem and Ramdas Pophale) SiO2 
 PCOD8222913
Probable space group: P C C A
;
_chemical_formula_sum "Si O2"
_cell_formula_units_Z 56
_cell_length_a 14.294650
_cell_length_b 14.162936
_cell_length_c 13.702963
_cell_angle_alpha 90.000000
_cell_angle_beta 90.000000
_cell_angle_gamma 90.000000
_cell_volume 2774.222591
_symmetry_space_group_name_H-M "P C C A"
_symmetry_group_IT_number 54
_symmetry_cell_setting 'orthorhombic'
loop_
_space_group_symop_operation_xyz
x,y,z
1/2-x,-y,z
1/2+x,-y,1/2-z
-x,y,1/2-z
-x,-y,-z
1/2+x,y,-z
1/2-x,y,1/2+z
x,-y,1/2+z
loop_
_atom_site_type_symbol
_atom_site_label
_atom_site_fract_x
_atom_site_fract_y
_atom_site_fract_z
Si Si1 0.399916 0.832378 0.549522
Si Si2 0.437514 0.892984 0.837630
Si Si3 0.332152 0.927709 0.355715
Si Si4 0.097919 0.380872 0.526966
Si Si5 0.728801 0.602836 0.352408
Si Si6 0.719098 0.799684 0.765329
Si Si7 0.975928 0.550092 0.861799
O O1 0.499744 0.883984 0.565038
O O2 0.353379 0.865702 0.450324
O O3 0.431503 0.724992 0.544481
O O4 0.325060 0.846557 0.637420
O O5 0.500000 0.855614 0.750000
O O6 0.347333 0.822488 0.829534
O O7 0.416736 0.004120 0.825144
O O8 0.312749 0.857911 0.263691
O O9 0.250000 0.000000 0.383460
O O10 0.209523 0.392829 0.547436
O O11 0.040102 0.442929 0.604626
O O12 0.066317 0.408563 0.417853
O O13 0.750000 0.500000 0.302002
O O14 0.758934 0.688347 0.279758
O O15 0.619268 0.610850 0.380878
O O16 0.000000 0.552215 0.750000
#
# Coordination Sequence:
#
# PCOD8222913 Si02
#       7
#     8   8   8   8   8   8   8
#     4  10  20  37  61  82 120 155 204 247 308 373
#     4   9  19  37  58  83 116 157 198 245 308 371
#     4  10  21  37  57  86 117 153 202 251 308 364
#     4   9  21  41  58  90 131 160 206 263 305 384
#     4   9  19  39  63  89 124 163 206 250 313 373
#     4   9  20  38  59  83 120 156 199 250 301 371
#     4  10  21  39  65  92 129 164 211 261 314 363
#
# _framework density 20.185835999999998
#
# number of rings (size 3 to 8) (size 9 to 14) (size 15 to 20)
#    0.000    2.571    0.000    0.429    2.000    6.857 
#   12.857   10.714    3.143    0.000    0.000    0.000 
#    0.000    0.000    0.000    0.000    0.000    0.000 
#
# Total GULP energy -693782.601632 kJ/mol
# GULP energy per Si atom -12388.975029 kJ/mol
# Density = 2.013989 g / cm^3
# Si number density = 20.185836 Si / 1000 Ang^3
#
#
#
# Elastic Constant Matrix: (Units=GPa)
#
#
# Indices 1 2 3 4 5 6 
#
# 1 75.4169 59.0799 54.1379 0.0000 0.0000 0.0000
# 2 59.0799 143.4217 53.6898 0.0000 0.0000 0.0000
# 3 54.1379 53.6898 116.1834 0.0000 0.0000 0.0000
# 4 0.0000 0.0000 0.0000 18.0101 0.0000 0.0000
# 5 0.0000 0.0000 0.0000 0.0000 24.5838 0.0000
# 6 0.0000 0.0000 0.0000 0.0000 0.0000 27.2526
#
#
#
# Elastic Compliance Matrix: (Units=1/GPa)
#
#
# Indices 1 2 3 4 5 6 
#
# 1 0.024747 -0.007107 -0.008247 0.000000 0.000000 0.000000
# 2 -0.007107 0.010472 -0.001528 0.000000 0.000000 0.000000
# 3 -0.008247 -0.001528 0.013156 0.000000 0.000000 0.000000
# 4 0.000000 0.000000 0.000000 0.055524 0.000000 0.000000
# 5 0.000000 0.000000 0.000000 0.000000 0.040677 0.000000
# 6 0.000000 0.000000 0.000000 0.000000 0.000000 0.036694
#
#
# Mechanical properties :
#
#
# Convention : Reuss Voigt Hill
#
# Bulk Modulus (GPa) = 68.43865 74.31525 71.37695
# Shear Modulus (GPa) = 22.73714 25.17691 23.95702
#
# Velocity S-wave (km/s) = 3.35982 3.53548 3.44877
# Velocity P-wave (km/s) = 7.00207 7.31858 7.16208
#
# Compressibility (1/GPa) = 0.01461163
#
# Stress axis : x y z
#
# Youngs Moduli (GPa) = 40.40847 95.49436 76.01081
#
# Poissons Ratio (x) = 0.67866 0.62689
# Poissons Ratio (y) = 0.28717 0.11611
# Poissons Ratio (z) = 0.33326 0.14588
#
# Static dielectric constant tensor:
#      x y z
#    x 4.033020 0.000000 0.000000 
#    y 0.000000 3.772750 0.000000 
#    z 0.000000 0.000000 3.445390 
# 
# 
# High freq. dielectric constant tensor:
#      x y z
#    x 1.792010 0.000000 0.000000 
#    y 0.000000 1.792870 0.000000 
#    z 0.000000 0.000000 1.760970 
# 
# From -- ./inp_files/13575.got.cif
#   From: 2010.03.12/outbox.cif.g09.slc.cpg/sg54_7_cif.got.tgz:13575.got - 2010.04.16 15:00:50.
