data_PCOD8222584
_publ_section_title
;
Structure prediction by ZEFSAII (Michael W. Deem and Ramdas Pophale) SiO2 
 PCOD8222584
Probable space group: P C C A
;
_chemical_formula_sum "Si O2"
_cell_formula_units_Z 40
_cell_length_a 5.248240
_cell_length_b 21.156982
_cell_length_c 17.272044
_cell_angle_alpha 90.000000
_cell_angle_beta 90.000000
_cell_angle_gamma 90.000000
_cell_volume 1917.834554
_symmetry_space_group_name_H-M "P C C A"
_symmetry_group_IT_number 54
_symmetry_cell_setting 'orthorhombic'
loop_
_space_group_symop_operation_xyz
x,y,z
1/2-x,-y,z
1/2+x,-y,1/2-z
-x,y,1/2-z
-x,-y,-z
1/2+x,y,-z
1/2-x,y,1/2+z
x,-y,1/2+z
loop_
_atom_site_type_symbol
_atom_site_label
_atom_site_fract_x
_atom_site_fract_y
_atom_site_fract_z
Si Si1 0.239649 0.702487 0.051005
Si Si2 0.750237 0.074232 0.547089
Si Si3 0.684622 0.435395 0.952152
Si Si4 0.249974 0.895777 0.780475
Si Si5 0.250311 0.244567 0.714002
O O1 0.258347 0.631748 0.088985
O O2 0.253041 0.751678 0.121171
O O3 0.473127 0.713727 0.992542
O O4 0.500472 0.094408 0.499887
O O5 0.749953 0.112164 0.627276
O O6 0.750000 0.000000 0.565834
O O7 0.750000 0.500000 0.902956
O O8 0.387822 0.437564 0.976256
O O9 0.500000 0.933157 0.750000
O O10 0.249886 0.828509 0.737678
O O11 0.000000 0.933183 0.750000
O O12 0.500000 0.278257 0.750000
O O13 0.000000 0.278163 0.750000
#
# Coordination Sequence:
#
# PCOD8222584 Si02
#       5
#     8   8   8   8   8
#     4  10  19  33  55  79 102 135 180 223 260 306
#     4  10  21  38  60  85 110 137 175 221 262 306
#     4   8  14  25  44  72 101 127 163 214 264 306
#     4  10  21  38  56  80 110 143 177 211 262 316
#     4  10  21  38  53  74 109 144 177 215 264 314
#
# _framework density 20.856857999999999
#
# number of rings (size 3 to 8) (size 9 to 14) (size 15 to 20)
#    0.000    2.400    0.000    2.400    0.000    0.800 
#    0.000   24.000    0.000    1.200    0.000    0.000 
#    0.000    0.000    0.000    0.000    0.000    0.000 
#
# Total GULP energy -495529.698389 kJ/mol
# GULP energy per Si atom -12388.242460 kJ/mol
# Density = 2.080939 g / cm^3
# Si number density = 20.856858 Si / 1000 Ang^3
#
#
#
# Elastic Constant Matrix: (Units=GPa)
#
#
# Indices 1 2 3 4 5 6 
#
# 1 201.1235 7.3662 48.7406 0.0000 0.0000 0.0000
# 2 7.3662 64.7302 38.8328 0.0000 0.0000 0.0000
# 3 48.7406 38.8328 120.0097 0.0000 0.0000 0.0000
# 4 0.0000 0.0000 0.0000 7.2392 0.0000 0.0000
# 5 0.0000 0.0000 0.0000 0.0000 35.8634 0.0000
# 6 0.0000 0.0000 0.0000 0.0000 0.0000 -52.2420
#
#
#
# Elastic Compliance Matrix: (Units=1/GPa)
#
#
# Indices 1 2 3 4 5 6 
#
# 1 0.005556 0.000895 -0.002546 0.000000 0.000000 0.000000
# 2 0.000895 0.019314 -0.006613 0.000000 0.000000 0.000000
# 3 -0.002546 -0.006613 0.011507 0.000000 0.000000 0.000000
# 4 0.000000 0.000000 0.000000 0.138136 0.000000 0.000000
# 5 0.000000 0.000000 0.000000 0.000000 0.027884 0.000000
# 6 0.000000 0.000000 0.000000 0.000000 0.000000 -0.019142
#
#
# Mechanical properties :
#
#
# Convention : Reuss Voigt Hill
#
# Bulk Modulus (GPa) = 50.38123 63.97139 57.17631
# Shear Modulus (GPa) = 24.22471 17.56703 20.89587
#
# Velocity S-wave (km/s) = 3.41174 2.90533 3.16867
# Velocity P-wave (km/s) = 6.30302 6.48019 6.39222
#
# Compressibility (1/GPa) = 0.01984866
#
# Stress axis : x y z
#
# Youngs Moduli (GPa) = 179.97367 51.77501 86.90520
#
# Poissons Ratio (x) = -0.04635 0.22129
# Poissons Ratio (y) = -0.16113 0.57474
# Poissons Ratio (z) = 0.45828 0.34241
#
# Static dielectric constant tensor:
#      x y z
#    x 17.142820 0.000000 0.000000 
#    y 0.000000 3.762540 0.000000 
#    z 0.000000 0.000000 3.338380 
# 
# 
# High freq. dielectric constant tensor:
#      x y z
#    x 1.859840 0.000000 0.000000 
#    y 0.000000 1.798230 0.000000 
#    z 0.000000 0.000000 1.772150 
# 
# From -- ./inp_files/6434.got.cif
#   From: 2010.03.12/outbox.cif.g09.slc.cpg/sg54_4_cif.got.tgz:6434.got - 2010.04.16 15:00:50.
