data_PCOD8222736
_publ_section_title
;
Structure prediction by ZEFSAII (Michael W. Deem and Ramdas Pophale) SiO2 
 PCOD8222736
Probable space group: P C C A
;
_chemical_formula_sum "Si O2"
_cell_formula_units_Z 40
_cell_length_a 8.947094
_cell_length_b 10.440505
_cell_length_c 20.682895
_cell_angle_alpha 90.000000
_cell_angle_beta 90.000000
_cell_angle_gamma 90.000000
_cell_volume 1932.034303
_symmetry_space_group_name_H-M "P C C A"
_symmetry_group_IT_number 54
_symmetry_cell_setting 'orthorhombic'
loop_
_space_group_symop_operation_xyz
x,y,z
1/2-x,-y,z
1/2+x,-y,1/2-z
-x,y,1/2-z
-x,-y,-z
1/2+x,y,-z
1/2-x,y,1/2+z
x,-y,1/2+z
loop_
_atom_site_type_symbol
_atom_site_label
_atom_site_fract_x
_atom_site_fract_y
_atom_site_fract_z
Si Si1 0.924314 0.335000 0.182642
Si Si2 0.005463 0.344852 0.946242
Si Si3 0.581354 0.636733 0.685807
Si Si4 0.250000 0.000000 0.999164
Si Si5 0.750000 0.500000 0.997554
Si Si6 0.501495 0.840611 0.059750
O O1 0.947049 0.486256 0.169613
O O2 0.749203 0.314917 0.191981
O O3 0.991879 0.245693 0.124975
O O4 0.000000 0.293290 0.250000
O O5 0.003743 0.288086 0.873827
O O6 0.883561 0.457325 0.950733
O O7 0.177500 0.392401 0.956239
O O8 0.957803 0.242804 0.997810
O O9 0.500000 0.680538 0.750000
O O10 0.163391 0.098006 0.047994
O O11 0.367209 0.055650 0.946454
#
# Coordination Sequence:
#
# PCOD8222736 Si02
#       6
#     8   8   8   4   4   8
#     4  10  21  38  58  83 120 157 185 225 283 347
#     4  11  20  34  56  84 118 155 188 228 282 342
#     4  10  21  34  53  88 126 154 184 219 270 354
#     4  10  24  40  60  84 106 142 204 264 292 320
#     4  10  20  30  52  88 116 144 192 226 266 352
#     4  11  22  40  61  83 113 150 197 248 294 331
#
# _framework density 20.703567
#
# number of rings (size 3 to 8) (size 9 to 14) (size 15 to 20)
#    0.000    1.600    0.000    7.200    0.000    6.400 
#    0.000    1.000    0.000    4.800    0.000    0.000 
#    0.000    0.000    0.000    0.000    0.000    0.000 
#
# Total GULP energy -495598.179201 kJ/mol
# GULP energy per Si atom -12389.954480 kJ/mol
# Density = 2.065644 g / cm^3
# Si number density = 20.703567 Si / 1000 Ang^3
#
#
#
# Elastic Constant Matrix: (Units=GPa)
#
#
# Indices 1 2 3 4 5 6 
#
# 1 106.9193 18.8586 52.5686 0.0000 0.0000 0.0000
# 2 18.8586 43.7282 33.4930 0.0000 0.0000 0.0000
# 3 52.5686 33.4930 188.0530 0.0000 0.0000 0.0000
# 4 0.0000 0.0000 0.0000 24.6751 0.0000 0.0000
# 5 0.0000 0.0000 0.0000 0.0000 27.8736 0.0000
# 6 0.0000 0.0000 0.0000 0.0000 0.0000 22.2236
#
#
#
# Elastic Compliance Matrix: (Units=1/GPa)
#
#
# Indices 1 2 3 4 5 6 
#
# 1 0.011131 -0.002799 -0.002613 0.000000 0.000000 0.000000
# 2 -0.002799 0.027185 -0.004059 0.000000 0.000000 0.000000
# 3 -0.002613 -0.004059 0.006771 0.000000 0.000000 0.000000
# 4 0.000000 0.000000 0.000000 0.040527 0.000000 0.000000
# 5 0.000000 0.000000 0.000000 0.000000 0.035876 0.000000
# 6 0.000000 0.000000 0.000000 0.000000 0.000000 0.044997
#
#
# Mechanical properties :
#
#
# Convention : Reuss Voigt Hill
#
# Bulk Modulus (GPa) = 38.24928 60.94899 49.59914
# Shear Modulus (GPa) = 25.75391 30.53981 28.14686
#
# Velocity S-wave (km/s) = 3.53077 3.84487 3.69116
# Velocity P-wave (km/s) = 5.92762 7.01523 6.49423
#
# Compressibility (1/GPa) = 0.02614429
#
# Stress axis : x y z
#
# Youngs Moduli (GPa) = 89.83633 36.78518 147.68646
#
# Poissons Ratio (x) = 0.10297 0.38593
# Poissons Ratio (y) = 0.25146 0.59950
# Poissons Ratio (z) = 0.23476 0.14932
#
# Static dielectric constant tensor:
#      x y z
#    x 3.924770 0.000000 0.000000 
#    y 0.000000 3.656240 0.000000 
#    z 0.000000 0.000000 3.828920 
# 
# 
# High freq. dielectric constant tensor:
#      x y z
#    x 1.831060 0.000000 0.000000 
#    y 0.000000 1.773360 0.000000 
#    z 0.000000 0.000000 1.808510 
# 
# From -- ./inp_files/20345.got.cif
#   From: 2010.03.12/outbox.cif.g09.slc.cpg/sg54_11_cif.got.tgz:20345.got - 2010.04.16 15:00:50.
