data_PCOD8222409
_publ_section_title
;
Structure prediction by ZEFSAII (Michael W. Deem and Ramdas Pophale) SiO2 
 PCOD8222409
Probable space group: P C C A
;
_chemical_formula_sum "Si O2"
_cell_formula_units_Z 44
_cell_length_a 20.886783
_cell_length_b 11.205465
_cell_length_c 9.637409
_cell_angle_alpha 90.000000
_cell_angle_beta 90.000000
_cell_angle_gamma 90.000000
_cell_volume 2255.598143
_symmetry_space_group_name_H-M "P C C A"
_symmetry_group_IT_number 54
_symmetry_cell_setting 'orthorhombic'
loop_
_space_group_symop_operation_xyz
x,y,z
1/2-x,-y,z
1/2+x,-y,1/2-z
-x,y,1/2-z
-x,-y,-z
1/2+x,y,-z
1/2-x,y,1/2+z
x,-y,1/2+z
loop_
_atom_site_type_symbol
_atom_site_label
_atom_site_fract_x
_atom_site_fract_y
_atom_site_fract_z
Si Si1 0.280579 0.127739 0.699433
Si Si2 0.504322 0.853853 0.602913
Si Si3 0.938789 0.640747 0.504738
Si Si4 0.500000 0.498638 0.250000
Si Si5 0.817176 0.208122 0.019936
Si Si6 0.605584 0.022533 0.955384
O O1 0.237999 0.204907 0.594492
O O2 0.283589 0.215006 0.830975
O O3 0.250000 0.000000 0.737854
O O4 0.352228 0.105700 0.643684
O O5 0.500000 0.785650 0.750000
O O6 0.481449 0.761033 0.486046
O O7 0.457353 0.968748 0.619716
O O8 0.577544 0.892359 0.576225
O O9 0.955887 0.571721 0.361673
O O10 0.864149 0.679595 0.495647
O O11 0.951883 0.572974 0.649812
O O12 0.852988 0.081332 0.022358
#
# Coordination Sequence:
#
# PCOD8222409 Si02
#       6
#     8   8   8   4   8   8
#     4  10  19  34  54  82 123 163 190 220 265 336
#     4  10  18  31  51  89 120 153 188 232 288 341
#     4  10  22  39  64  85 108 142 191 246 307 351
#     4  10  22  44  62  86 106 138 188 258 320 346
#     4  10  21  36  55  87 116 157 196 222 277 345
#     4   9  19  30  51  84 128 158 186 227 268 344
#
# _framework density 19.507020000000001
#
# number of rings (size 3 to 8) (size 9 to 14) (size 15 to 20)
#    0.000    2.182    0.909    2.727    2.545    2.909 
#    3.273    0.000    0.000    3.273    0.000    0.000 
#    0.000    0.000    0.000    0.000    0.000    0.000 
#
# Total GULP energy -545239.335813 kJ/mol
# GULP energy per Si atom -12391.803087 kJ/mol
# Density = 1.946262 g / cm^3
# Si number density = 19.507020 Si / 1000 Ang^3
#
#
#
# Elastic Constant Matrix: (Units=GPa)
#
#
# Indices 1 2 3 4 5 6 
#
# 1 114.6667 37.1470 62.6827 0.0000 0.0000 0.0000
# 2 37.1470 63.4310 46.4203 0.0000 0.0000 0.0000
# 3 62.6827 46.4203 149.8680 0.0000 0.0000 0.0000
# 4 0.0000 0.0000 0.0000 22.9921 0.0000 0.0000
# 5 0.0000 0.0000 0.0000 0.0000 26.1888 0.0000
# 6 0.0000 0.0000 0.0000 0.0000 0.0000 20.2670
#
#
#
# Elastic Compliance Matrix: (Units=1/GPa)
#
#
# Indices 1 2 3 4 5 6 
#
# 1 0.012189 -0.004406 -0.003733 0.000000 0.000000 0.000000
# 2 -0.004406 0.021979 -0.004965 0.000000 0.000000 0.000000
# 3 -0.003733 -0.004965 0.009772 0.000000 0.000000 0.000000
# 4 0.000000 0.000000 0.000000 0.043493 0.000000 0.000000
# 5 0.000000 0.000000 0.000000 0.000000 0.038184 0.000000
# 6 0.000000 0.000000 0.000000 0.000000 0.000000 0.049341
#
#
# Mechanical properties :
#
#
# Convention : Reuss Voigt Hill
#
# Bulk Modulus (GPa) = 56.39799 68.94062 62.66931
# Shear Modulus (GPa) = 24.14547 26.00395 25.07471
#
# Velocity S-wave (km/s) = 3.52203 3.65507 3.58916
# Velocity P-wave (km/s) = 6.74641 7.29595 7.02655
#
# Compressibility (1/GPa) = 0.01773113
#
# Stress axis : x y z
#
# Youngs Moduli (GPa) = 82.03987 45.49805 102.33456
#
# Poissons Ratio (x) = 0.20047 0.38206
# Poissons Ratio (y) = 0.36148 0.50808
# Poissons Ratio (z) = 0.30629 0.22589
#
# Static dielectric constant tensor:
#      x y z
#    x 3.586560 0.000000 0.000000 
#    y 0.000000 3.360090 0.000000 
#    z 0.000000 0.000000 3.595020 
# 
# 
# High freq. dielectric constant tensor:
#      x y z
#    x 1.758990 0.000000 0.000000 
#    y 0.000000 1.724730 0.000000 
#    z 0.000000 0.000000 1.768720 
# 
# From -- ./inp_files/5102.got.cif
#   From: 2010.03.12/outbox.cif.g09.slc.cpg/sg54_3_cif.got.tgz:5102.got - 2010.04.16 15:00:50.
