data_PCOD8222172
_publ_section_title
;
Structure prediction by ZEFSAII (Michael W. Deem and Ramdas Pophale) SiO2 
 PCOD8222172
Probable space group: P M N A
;
_chemical_formula_sum "Si O2"
_cell_formula_units_Z 28
_cell_length_a 15.723120
_cell_length_b 5.468160
_cell_length_c 13.981788
_cell_angle_alpha 90.000000
_cell_angle_beta 90.000000
_cell_angle_gamma 90.000000
_cell_volume 1202.105697
_symmetry_space_group_name_H-M "P M N A"
_symmetry_group_IT_number 53
_symmetry_cell_setting 'orthorhombic'
loop_
_space_group_symop_operation_xyz
x,y,z
1/2-x,-y,1/2+z
x,-y,-z
1/2-x,y,1/2-z
-x,-y,-z
1/2+x,y,1/2-z
-x,y,z
1/2+x,-y,1/2+z
loop_
_atom_site_type_symbol
_atom_site_label
_atom_site_fract_x
_atom_site_fract_y
_atom_site_fract_z
Si Si1 0.250000 0.736032 0.250000
Si Si2 0.905722 0.910270 0.750881
Si Si3 0.815353 0.619242 0.593525
Si Si4 0.137060 0.754686 0.948354
O O1 0.234184 0.580906 0.344180
O O2 0.165376 0.888578 0.229069
O O3 0.885618 0.761061 0.654211
O O4 0.904270 0.732560 0.842648
O O5 0.000000 0.024787 0.737615
O O6 0.860444 0.500000 0.500000
O O7 0.739224 0.793829 0.557973
O O8 0.112018 0.500000 0.000000
O O9 0.100485 0.000000 0.000000
#
# Coordination Sequence:
#
# PCOD8222172 Si02
#       4
#     4   8   8   8
#     4  12  22  50  68 102 142 192 236 300 368 428
#     4  12  26  43  70 107 143 187 244 302 363 437
#     4  11  24  43  73  99 139 194 242 292 362 435
#     4  11  23  44  76 106 141 192 240 304 368 430
#
# _framework density 23.292459999999998
#
# number of rings (size 3 to 8) (size 9 to 14) (size 15 to 20)
#    0.000    0.571    5.714    3.429    0.000    2.857 
#    0.000    1.429    0.000    0.857    0.000    0.000 
#    0.000    0.000    0.000    0.000    0.000    0.000 
#
# Total GULP energy -347119.382437 kJ/mol
# GULP energy per Si atom -12397.120801 kJ/mol
# Density = 2.323945 g / cm^3
# Si number density = 23.292460 Si / 1000 Ang^3
#
#
#
# Elastic Constant Matrix: (Units=GPa)
#
#
# Indices 1 2 3 4 5 6 
#
# 1 117.5885 29.2240 -5.3790 0.0000 0.0000 0.0000
# 2 29.2240 121.6787 39.1375 0.0000 0.0000 0.0000
# 3 -5.3790 39.1375 129.8205 0.0000 0.0000 0.0000
# 4 0.0000 0.0000 0.0000 34.0607 0.0000 0.0000
# 5 0.0000 0.0000 0.0000 0.0000 5.1022 0.0000
# 6 0.0000 0.0000 0.0000 0.0000 0.0000 12.1133
#
#
#
# Elastic Compliance Matrix: (Units=1/GPa)
#
#
# Indices 1 2 3 4 5 6 
#
# 1 0.009199 -0.002582 0.001160 0.000000 0.000000 0.000000
# 2 -0.002582 0.009826 -0.003069 0.000000 0.000000 0.000000
# 3 0.001160 -0.003069 0.008676 0.000000 0.000000 0.000000
# 4 0.000000 0.000000 0.000000 0.029359 0.000000 0.000000
# 5 0.000000 0.000000 0.000000 0.000000 0.195993 0.000000
# 6 0.000000 0.000000 0.000000 0.000000 0.000000 0.082554
#
#
# Mechanical properties :
#
#
# Convention : Reuss Voigt Hill
#
# Bulk Modulus (GPa) = 53.42650 55.00585 54.21618
# Shear Modulus (GPa) = 14.25189 30.66225 22.45707
#
# Velocity S-wave (km/s) = 2.47628 3.63216 3.10842
# Velocity P-wave (km/s) = 5.58238 6.42314 6.01746
#
# Compressibility (1/GPa) = 0.01871730
#
# Stress axis : x y z
#
# Youngs Moduli (GPa) = 108.70662 101.77304 115.25674
#
# Poissons Ratio (x) = 0.26282 -0.13366
# Poissons Ratio (y) = 0.28072 0.35375
# Poissons Ratio (z) = -0.12606 0.31236
#
# Static dielectric constant tensor:
#      x y z
#    x 3.944840 0.000000 0.000000 
#    y 0.000000 4.091300 0.000000 
#    z 0.000000 0.000000 4.893860 
# 
# 
# High freq. dielectric constant tensor:
#      x y z
#    x 1.892890 0.000000 0.000000 
#    y 0.000000 1.911020 0.000000 
#    z 0.000000 0.000000 1.947070 
# 
# From -- ./inp_files/23100.got.cif
#   From: 2010.03.12/outbox.cif.g09.slc.cpg/sg53_12_cif.got.tgz:23100.got - 2010.04.16 14:36:59.
