data_PCOD8222388
_publ_section_title
;
Structure prediction by ZEFSAII (Michael W. Deem and Ramdas Pophale) SiO2 
 PCOD8222388
Probable space group: P C C A
;
_chemical_formula_sum "Si O2"
_cell_formula_units_Z 48
_cell_length_a 16.148808
_cell_length_b 8.192856
_cell_length_c 20.659350
_cell_angle_alpha 90.000000
_cell_angle_beta 90.000000
_cell_angle_gamma 90.000000
_cell_volume 2733.332379
_symmetry_space_group_name_H-M "P C C A"
_symmetry_group_IT_number 54
_symmetry_cell_setting 'orthorhombic'
loop_
_space_group_symop_operation_xyz
x,y,z
1/2-x,-y,z
1/2+x,-y,1/2-z
-x,y,1/2-z
-x,-y,-z
1/2+x,y,-z
1/2-x,y,1/2+z
x,-y,1/2+z
loop_
_atom_site_type_symbol
_atom_site_label
_atom_site_fract_x
_atom_site_fract_y
_atom_site_fract_z
Si Si1 0.508080 0.737112 0.982803
Si Si2 0.250000 0.000000 0.645580
Si Si3 0.250000 0.500000 0.838225
Si Si4 0.467647 0.253537 0.682908
Si Si5 0.424840 0.528013 0.404036
Si Si6 0.085488 0.951693 0.574339
Si Si7 0.780002 0.328189 0.287449
O O1 0.472580 0.636029 0.923019
O O2 0.565165 0.872265 0.951597
O O3 0.568756 0.641035 0.031966
O O4 0.428951 0.814035 0.019673
O O5 0.178866 0.951873 0.596458
O O6 0.267528 0.837311 0.689077
O O7 0.169705 0.487295 0.884547
O O8 0.237098 0.657514 0.790488
O O9 0.500000 0.184079 0.750000
O O10 0.527090 0.397205 0.657297
O O11 0.471864 0.098782 0.635131
O O12 0.375553 0.319967 0.693011
O O13 0.750000 0.500000 0.320365
#
# Coordination Sequence:
#
# PCOD8222388 Si02
#       7
#     8   4   4   8   8   8   8
#     4   9  20  38  53  79 106 147 191 226 269 341
#     4  10  20  36  56  82 114 152 178 234 284 328
#     4  10  20  36  52  84 112 144 182 240 276 332
#     4  10  17  35  56  78 110 148 176 226 288 333
#     4  10  20  35  59  78 111 148 187 227 282 329
#     4   9  20  36  55  77 111 141 187 229 271 329
#     4   9  20  35  53  82 118 140 187 227 281 342
#
# _framework density 17.560981000000002
#
# number of rings (size 3 to 8) (size 9 to 14) (size 15 to 20)
#    0.500    2.000    1.667    0.000    2.333    1.333 
#    6.000    0.000    0.000    0.000    0.000    0.000 
#    0.000    0.000    0.000    0.000    0.000    0.000 
#
# Total GULP energy -594690.176724 kJ/mol
# GULP energy per Si atom -12389.378682 kJ/mol
# Density = 1.752101 g / cm^3
# Si number density = 17.560981 Si / 1000 Ang^3
#
#
#
# Elastic Constant Matrix: (Units=GPa)
#
#
# Indices 1 2 3 4 5 6 
#
# 1 75.3690 4.0248 19.3391 0.0000 0.0000 0.0000
# 2 4.0248 60.3048 9.6639 0.0000 0.0000 0.0000
# 3 19.3391 9.6639 71.4051 0.0000 0.0000 0.0000
# 4 0.0000 0.0000 0.0000 -31.8796 0.0000 0.0000
# 5 0.0000 0.0000 0.0000 0.0000 25.4939 0.0000
# 6 0.0000 0.0000 0.0000 0.0000 0.0000 4.7054
#
#
#
# Elastic Compliance Matrix: (Units=1/GPa)
#
#
# Indices 1 2 3 4 5 6 
#
# 1 0.014266 -0.000340 -0.003818 0.000000 0.000000 0.000000
# 2 -0.000340 0.016958 -0.002203 0.000000 0.000000 0.000000
# 3 -0.003818 -0.002203 0.015337 0.000000 0.000000 0.000000
# 4 0.000000 0.000000 0.000000 -0.031368 0.000000 0.000000
# 5 0.000000 0.000000 0.000000 0.000000 0.039225 0.000000
# 6 0.000000 0.000000 0.000000 0.000000 0.000000 0.212523
#
#
# Mechanical properties :
#
#
# Convention : Reuss Voigt Hill
#
# Bulk Modulus (GPa) = 29.55179 30.34826 29.95003
# Shear Modulus (GPa) = 17.18555 11.26734 14.22644
#
# Velocity S-wave (km/s) = 3.13169 2.53575 2.84934
# Velocity P-wave (km/s) = 5.47186 5.08847 5.28364
#
# Compressibility (1/GPa) = 0.03383889
#
# Stress axis : x y z
#
# Youngs Moduli (GPa) = 70.09765 58.96867 65.20303
#
# Poissons Ratio (x) = 0.02007 0.24892
# Poissons Ratio (y) = 0.02386 0.14364
# Poissons Ratio (z) = 0.26761 0.12990
#
# Static dielectric constant tensor:
#      x y z
#    x 3.151980 0.000000 0.000000 
#    y 0.000000 3.399950 0.000000 
#    z 0.000000 0.000000 3.390480 
# 
# 
# High freq. dielectric constant tensor:
#      x y z
#    x 1.670090 0.000000 0.000000 
#    y 0.000000 1.676190 0.000000 
#    z 0.000000 0.000000 1.683670 
# 
# From -- ./inp_files/21486.got.cif
#   From: 2010.03.12/outbox.cif.g09.slc.cpg/sg54_11_cif.got.tgz:21486.got - 2010.04.16 15:00:50.
