data_PCOD8222587
_publ_section_title
;
Structure prediction by ZEFSAII (Michael W. Deem and Ramdas Pophale) SiO2 
 PCOD8222587
Probable space group: P C C A
;
_chemical_formula_sum "Si O2"
_cell_formula_units_Z 48
_cell_length_a 15.855644
_cell_length_b 8.812361
_cell_length_c 18.453866
_cell_angle_alpha 90.000000
_cell_angle_beta 90.000000
_cell_angle_gamma 90.000000
_cell_volume 2578.478585
_symmetry_space_group_name_H-M "P C C A"
_symmetry_group_IT_number 54
_symmetry_cell_setting 'orthorhombic'
loop_
_space_group_symop_operation_xyz
x,y,z
1/2-x,-y,z
1/2+x,-y,1/2-z
-x,y,1/2-z
-x,-y,-z
1/2+x,y,-z
1/2-x,y,1/2+z
x,-y,1/2+z
loop_
_atom_site_type_symbol
_atom_site_label
_atom_site_fract_x
_atom_site_fract_y
_atom_site_fract_z
Si Si1 0.482588 0.084922 0.574845
Si Si2 0.081628 0.632027 0.202886
Si Si3 0.839852 0.558972 0.674070
Si Si4 0.584012 0.867301 0.208228
Si Si5 0.001637 0.438624 0.420458
Si Si6 0.655995 0.053771 0.331891
O O1 0.557435 0.052723 0.632622
O O2 0.473247 0.265347 0.571110
O O3 0.500000 0.000000 0.500000
O O4 0.395053 0.019106 0.602560
O O5 0.141380 0.537999 0.255058
O O6 0.059164 0.526618 0.134552
O O7 0.137948 0.767151 0.169916
O O8 0.000000 0.686685 0.250000
O O9 0.750000 0.500000 0.644950
O O10 0.846766 0.735623 0.696908
O O11 0.903924 0.537410 0.608127
O O12 0.500000 0.801399 0.250000
O O13 0.627352 0.997898 0.253405
O O14 0.000000 0.500000 0.500000
O O15 0.750000 0.000000 0.347309
#
# Coordination Sequence:
#
# PCOD8222587 Si02
#       6
#     8   8   8   8   8   8
#     4  10  20  37  57  75 106 147 181 215 265 330
#     4  10  19  33  56  81 108 142 179 218 268 328
#     4  10  19  34  55  81 107 135 177 229 269 309
#     4   9  18  35  56  77 106 145 179 211 264 326
#     4  10  21  37  56  77 106 146 184 215 263 329
#     4  11  21  34  54  83 109 135 177 228 270 312
#
# _framework density 18.615628000000001
#
# number of rings (size 3 to 8) (size 9 to 14) (size 15 to 20)
#    0.000    2.000    0.000    7.000    0.000    1.333 
#    0.000    6.667    0.000    0.000    0.000    0.000 
#    0.000    0.000    0.000    0.000    0.000    0.000 
#
# Total GULP energy -594956.414067 kJ/mol
# GULP energy per Si atom -12394.925293 kJ/mol
# Density = 1.857326 g / cm^3
# Si number density = 18.615628 Si / 1000 Ang^3
#
#
#
# Elastic Constant Matrix: (Units=GPa)
#
#
# Indices 1 2 3 4 5 6 
#
# 1 91.9680 67.9911 47.8259 0.0000 0.0000 0.0000
# 2 67.9911 129.4371 75.6852 0.0000 0.0000 0.0000
# 3 47.8259 75.6852 149.1219 0.0000 0.0000 0.0000
# 4 0.0000 0.0000 0.0000 32.5981 0.0000 0.0000
# 5 0.0000 0.0000 0.0000 0.0000 12.1593 0.0000
# 6 0.0000 0.0000 0.0000 0.0000 0.0000 23.7521
#
#
#
# Elastic Compliance Matrix: (Units=1/GPa)
#
#
# Indices 1 2 3 4 5 6 
#
# 1 0.017975 -0.008633 -0.001383 0.000000 0.000000 0.000000
# 2 -0.008633 0.015133 -0.004912 0.000000 0.000000 0.000000
# 3 -0.001383 -0.004912 0.009642 0.000000 0.000000 0.000000
# 4 0.000000 0.000000 0.000000 0.030677 0.000000 0.000000
# 5 0.000000 0.000000 0.000000 0.000000 0.082242 0.000000
# 6 0.000000 0.000000 0.000000 0.000000 0.000000 0.042102
#
#
# Mechanical properties :
#
#
# Convention : Reuss Voigt Hill
#
# Bulk Modulus (GPa) = 77.55522 83.72573 80.64047
# Shear Modulus (GPa) = 21.55878 25.63687 23.59783
#
# Velocity S-wave (km/s) = 3.40678 3.71505 3.56425
# Velocity P-wave (km/s) = 7.56483 7.96717 7.76861
#
# Compressibility (1/GPa) = 0.01289404
#
# Stress axis : x y z
#
# Youngs Moduli (GPa) = 55.63244 66.08274 103.70915
#
# Poissons Ratio (x) = 0.57051 0.14345
# Poissons Ratio (y) = 0.48029 0.50937
# Poissons Ratio (z) = 0.07695 0.32457
#
# Static dielectric constant tensor:
#      x y z
#    x 3.275490 0.000000 0.000000 
#    y 0.000000 3.428990 0.000000 
#    z 0.000000 0.000000 3.634030 
# 
# 
# High freq. dielectric constant tensor:
#      x y z
#    x 1.706240 0.000000 0.000000 
#    y 0.000000 1.734230 0.000000 
#    z 0.000000 0.000000 1.724790 
# 
# From -- ./inp_files/21461.got.cif
#   From: 2010.03.12/outbox.cif.g09.slc.cpg/sg54_11_cif.got.tgz:21461.got - 2010.04.16 15:00:50.
