data_PCOD8222637
_publ_section_title
;
Structure prediction by ZEFSAII (Michael W. Deem and Ramdas Pophale) SiO2 
 PCOD8222637
Probable space group: P C C A
;
_chemical_formula_sum "Si O2"
_cell_formula_units_Z 64
_cell_length_a 14.804484
_cell_length_b 11.323980
_cell_length_c 18.975155
_cell_angle_alpha 90.000000
_cell_angle_beta 90.000000
_cell_angle_gamma 90.000000
_cell_volume 3181.102777
_symmetry_space_group_name_H-M "P C C A"
_symmetry_group_IT_number 54
_symmetry_cell_setting 'orthorhombic'
loop_
_space_group_symop_operation_xyz
x,y,z
1/2-x,-y,z
1/2+x,-y,1/2-z
-x,y,1/2-z
-x,-y,-z
1/2+x,y,-z
1/2-x,y,1/2+z
x,-y,1/2+z
loop_
_atom_site_type_symbol
_atom_site_label
_atom_site_fract_x
_atom_site_fract_y
_atom_site_fract_z
Si Si1 0.436480 0.176991 0.398063
Si Si2 0.674184 0.090552 0.981785
Si Si3 0.736835 0.329528 0.787318
Si Si4 0.113002 0.061104 0.641602
Si Si5 0.905852 0.516981 0.289086
Si Si6 0.710538 0.277725 0.432696
Si Si7 0.460096 0.587698 0.558963
Si Si8 0.199033 0.110244 0.783894
O O1 0.409904 0.099232 0.466049
O O2 0.508599 0.093881 0.360053
O O3 0.470052 0.307898 0.420002
O O4 0.354697 0.184939 0.342461
O O5 0.717326 0.222852 0.986505
O O6 0.750000 0.000000 0.009383
O O7 0.638339 0.056469 0.903283
O O8 0.647256 0.399570 0.763403
O O9 0.836966 0.378665 0.766970
O O10 0.734054 0.345161 0.872183
O O11 0.730340 0.200183 0.753296
O O12 0.165259 0.168084 0.606468
O O13 0.139048 0.047956 0.723081
O O14 0.931609 0.515591 0.371681
O O15 0.000000 0.533148 0.250000
O O16 0.633453 0.355396 0.471464
O O17 0.500000 0.500000 0.500000
O O18 0.250000 0.000000 0.820862
#
# Coordination Sequence:
#
# PCOD8222637 Si02
#       8
#     8   8   8   8   8   8   8   8
#     4  11  22  35  58  89 123 158 199 263 313 362
#     4  10  19  35  57  85 120 161 193 241 307 376
#     4   9  19  36  62  85 113 163 207 249 310 377
#     4   9  18  35  59  85 113 160 206 234 291 379
#     4  10  20  38  63  85 117 159 213 265 305 366
#     4   8  17  34  57  79 109 152 204 244 291 370
#     4  10  22  39  57  88 117 162 212 261 310 372
#     4  11  21  38  60  90 124 153 204 250 314 379
#
# _framework density 20.118808999999999
#
# number of rings (size 3 to 8) (size 9 to 14) (size 15 to 20)
#    0.000    2.250    0.000    4.500    1.750    0.000 
#    2.250    2.500    0.000    0.000    0.000    0.000 
#    0.000    0.000    0.000    0.000    0.000    0.000 
#
# Total GULP energy -792881.451534 kJ/mol
# GULP energy per Si atom -12388.772680 kJ/mol
# Density = 2.007302 g / cm^3
# Si number density = 20.118809 Si / 1000 Ang^3
#
#
#
# Elastic Constant Matrix: (Units=GPa)
#
#
# Indices 1 2 3 4 5 6 
#
# 1 79.6566 42.3304 21.1528 0.0000 0.0000 0.0000
# 2 42.3304 98.9496 31.4178 0.0000 0.0000 0.0000
# 3 21.1528 31.4178 71.8259 0.0000 0.0000 0.0000
# 4 0.0000 0.0000 0.0000 28.4688 0.0000 0.0000
# 5 0.0000 0.0000 0.0000 0.0000 21.6550 0.0000
# 6 0.0000 0.0000 0.0000 0.0000 0.0000 32.5424
#
#
#
# Elastic Compliance Matrix: (Units=1/GPa)
#
#
# Indices 1 2 3 4 5 6 
#
# 1 0.016505 -0.006408 -0.002058 0.000000 0.000000 0.000000
# 2 -0.006408 0.014224 -0.004335 0.000000 0.000000 0.000000
# 3 -0.002058 -0.004335 0.016425 0.000000 0.000000 0.000000
# 4 0.000000 0.000000 0.000000 0.035126 0.000000 0.000000
# 5 0.000000 0.000000 0.000000 0.000000 0.046179 0.000000
# 6 0.000000 0.000000 0.000000 0.000000 0.000000 0.030729
#
#
# Mechanical properties :
#
#
# Convention : Reuss Voigt Hill
#
# Bulk Modulus (GPa) = 46.39672 48.91489 47.65581
# Shear Modulus (GPa) = 26.04538 26.90199 26.47369
#
# Velocity S-wave (km/s) = 3.60193 3.66068 3.63142
# Velocity P-wave (km/s) = 6.35688 6.49871 6.42819
#
# Compressibility (1/GPa) = 0.02155325
#
# Stress axis : x y z
#
# Youngs Moduli (GPa) = 60.58611 70.30587 60.88392
#
# Poissons Ratio (x) = 0.45049 0.12531
# Poissons Ratio (y) = 0.38821 0.26391
# Poissons Ratio (z) = 0.12469 0.30475
#
# Static dielectric constant tensor:
#      x y z
#    x 3.826910 0.000000 0.000000 
#    y 0.000000 3.708770 0.000000 
#    z 0.000000 0.000000 3.450040 
# 
# 
# High freq. dielectric constant tensor:
#      x y z
#    x 1.786240 0.000000 0.000000 
#    y 0.000000 1.779120 0.000000 
#    z 0.000000 0.000000 1.763080 
# 
# From -- ./inp_files/18227.got.cif
#   From: 2010.03.12/outbox.cif.g09.slc.cpg/sg54_10_cif.got.tgz:18227.got - 2010.04.16 15:00:50.
