data_PCOD8222348
_publ_section_title
;
Structure prediction by ZEFSAII (Michael W. Deem and Ramdas Pophale) SiO2 
 PCOD8222348
Probable space group: P C C A
;
_chemical_formula_sum "Si O2"
_cell_formula_units_Z 32
_cell_length_a 13.365448
_cell_length_b 18.886128
_cell_length_c 5.303953
_cell_angle_alpha 90.000000
_cell_angle_beta 90.000000
_cell_angle_gamma 90.000000
_cell_volume 1338.832099
_symmetry_space_group_name_H-M "P C C A"
_symmetry_group_IT_number 54
_symmetry_cell_setting 'orthorhombic'
loop_
_space_group_symop_operation_xyz
x,y,z
1/2-x,-y,z
1/2+x,-y,1/2-z
-x,y,1/2-z
-x,-y,-z
1/2+x,y,-z
1/2-x,y,1/2+z
x,-y,1/2+z
loop_
_atom_site_type_symbol
_atom_site_label
_atom_site_fract_x
_atom_site_fract_y
_atom_site_fract_z
Si Si1 0.362942 0.470627 0.107669
Si Si2 0.438135 0.175135 0.004209
Si Si3 0.687703 0.687403 0.908163
Si Si4 0.361036 0.029031 0.901602
O O1 0.250000 0.500000 0.144911
O O2 0.417311 0.490075 0.372465
O O3 0.368400 0.387030 0.061181
O O4 0.500000 0.152385 0.250000
O O5 0.389408 0.249907 0.060141
O O6 0.500000 0.183775 0.750000
O O7 0.357373 0.112836 0.958205
O O8 0.729899 0.693363 0.625969
O O9 0.250000 0.000000 0.848094
O O10 0.415728 0.013457 0.631815
#
# Coordination Sequence:
#
# PCOD8222348 Si02
#       4
#     8   8   8   8
#     4  10  16  32  56  98 124 153 218 288 315 346
#     4  12  28  46  65  97 142 176 205 265 342 401
#     4  12  23  38  70  98 126 177 226 271 317 386
#     4  10  23  42  70  98 125 164 223 270 309 381
#
# _framework density 23.901427999999999
#
# number of rings (size 3 to 8) (size 9 to 14) (size 15 to 20)
#    0.000    1.000    5.000    3.000    7.000    3.000 
#    0.000    0.000    0.000    4.500    0.000    0.000 
#    0.000    0.000    0.000    0.000    0.000    0.000 
#
# Total GULP energy -396771.025724 kJ/mol
# GULP energy per Si atom -12399.094554 kJ/mol
# Density = 2.384703 g / cm^3
# Si number density = 23.901428 Si / 1000 Ang^3
#
#
#
# Elastic Constant Matrix: (Units=GPa)
#
#
# Indices 1 2 3 4 5 6 
#
# 1 19.6908 34.6407 28.1616 0.0000 0.0000 0.0000
# 2 34.6407 201.7411 47.3325 0.0000 0.0000 0.0000
# 3 28.1616 47.3325 219.8472 0.0000 0.0000 0.0000
# 4 0.0000 0.0000 0.0000 43.9222 0.0000 0.0000
# 5 0.0000 0.0000 0.0000 0.0000 39.0165 0.0000
# 6 0.0000 0.0000 0.0000 0.0000 0.0000 34.8906
#
#
#
# Elastic Compliance Matrix: (Units=1/GPa)
#
#
# Indices 1 2 3 4 5 6 
#
# 1 0.084603 -0.012622 -0.008120 0.000000 0.000000 0.000000
# 2 -0.012622 0.007104 0.000087 0.000000 0.000000 0.000000
# 3 -0.008120 0.000087 0.005570 0.000000 0.000000 0.000000
# 4 0.000000 0.000000 0.000000 0.022768 0.000000 0.000000
# 5 0.000000 0.000000 0.000000 0.000000 0.025630 0.000000
# 6 0.000000 0.000000 0.000000 0.000000 0.000000 0.028661
#
#
# Mechanical properties :
#
#
# Convention : Reuss Voigt Hill
#
# Bulk Modulus (GPa) = 17.86744 73.50541 45.68643
# Shear Modulus (GPa) = 21.34018 45.64215 33.49117
#
# Velocity S-wave (km/s) = 2.99129 4.37464 3.74735
# Velocity P-wave (km/s) = 4.40705 7.50579 6.15463
#
# Compressibility (1/GPa) = 0.05596772
#
# Stress axis : x y z
#
# Youngs Moduli (GPa) = 11.81993 140.77297 179.53622
#
# Poissons Ratio (x) = 1.77683 1.45780
# Poissons Ratio (y) = 0.14919 -0.01570
# Poissons Ratio (z) = 0.09598 -0.01231
#
# Static dielectric constant tensor:
#      x y z
#    x 3.897340 0.000000 0.000000 
#    y 0.000000 4.498890 0.000000 
#    z 0.000000 0.000000 5.527610 
# 
# 
# High freq. dielectric constant tensor:
#      x y z
#    x 1.920310 0.000000 0.000000 
#    y 0.000000 1.957280 0.000000 
#    z 0.000000 0.000000 1.998380 
# 
# From -- ./inp_files/390.got.cif
#   From: 2010.03.12/outbox.cif.g09.slc.cpg/sg54_1_cif.got.tgz:390.got - 2010.04.16 15:00:50.
