data_PCOD8222199
_publ_section_title
;
Structure prediction by ZEFSAII (Michael W. Deem and Ramdas Pophale) SiO2 
 PCOD8222199
Probable space group: P M N A
;
_chemical_formula_sum "Si O2"
_cell_formula_units_Z 32
_cell_length_a 10.025799
_cell_length_b 12.736702
_cell_length_c 12.181764
_cell_angle_alpha 90.000000
_cell_angle_beta 90.000000
_cell_angle_gamma 90.000000
_cell_volume 1555.557836
_symmetry_space_group_name_H-M "P M N A"
_symmetry_group_IT_number 53
_symmetry_cell_setting 'orthorhombic'
loop_
_space_group_symop_operation_xyz
x,y,z
1/2-x,-y,1/2+z
x,-y,-z
1/2-x,y,1/2-z
-x,-y,-z
1/2+x,y,1/2-z
-x,y,z
1/2+x,-y,1/2+z
loop_
_atom_site_type_symbol
_atom_site_label
_atom_site_fract_x
_atom_site_fract_y
_atom_site_fract_z
Si Si1 0.000000 0.876583 0.482934
Si Si2 0.500000 0.953190 0.379310
Si Si3 0.750000 0.291439 0.250000
Si Si4 0.154637 0.385668 0.041144
Si Si5 0.500000 0.156145 0.233877
Si Si6 0.234377 0.208883 0.872325
O O1 0.872050 0.836515 0.417815
O O2 0.000000 0.830346 0.603942
O O3 0.000000 0.000000 0.500000
O O4 0.367295 0.886917 0.365553
O O5 0.500000 0.000000 0.500000
O O6 0.500000 0.039027 0.282075
O O7 0.756114 0.364151 0.357852
O O8 0.627878 0.215946 0.278049
O O9 0.000000 0.383184 0.078907
O O10 0.195464 0.500000 0.000000
O O11 0.176879 0.301691 0.945705
O O12 0.250000 0.255086 0.750000
#
# Coordination Sequence:
#
# PCOD8222199 Si02
#       6
#     4   4   4   8   4   8
#     4  12  26  42  64 101 138 183 232 287 342 407
#     4  12  26  42  68  98 139 196 230 278 349 422
#     4  12  24  48  70 106 136 180 236 288 342 420
#     4  11  25  47  74 102 138 187 232 290 359 413
#     4  12  26  42  70  99 142 183 234 287 346 416
#     4  12  25  45  65 102 141 181 233 286 347 412
#
# _framework density 20.571397999999999
#
# number of rings (size 3 to 8) (size 9 to 14) (size 15 to 20)
#    0.000    0.250    5.000    4.500    7.000    0.000 
#    0.000    2.500    0.000    0.000    0.000    0.000 
#    0.000    0.000    0.000    0.000    0.000    0.000 
#
# Total GULP energy -396891.845918 kJ/mol
# GULP energy per Si atom -12402.870185 kJ/mol
# Density = 2.052458 g / cm^3
# Si number density = 20.571398 Si / 1000 Ang^3
#
#
#
# Elastic Constant Matrix: (Units=GPa)
#
#
# Indices 1 2 3 4 5 6 
#
# 1 120.6672 52.5088 24.0963 0.0000 0.0000 0.0000
# 2 52.5088 141.9013 51.9624 0.0000 0.0000 0.0000
# 3 24.0963 51.9624 155.0908 0.0000 0.0000 0.0000
# 4 0.0000 0.0000 0.0000 37.4401 0.0000 0.0000
# 5 0.0000 0.0000 0.0000 0.0000 22.8189 0.0000
# 6 0.0000 0.0000 0.0000 0.0000 0.0000 -19.2155
#
#
#
# Elastic Compliance Matrix: (Units=1/GPa)
#
#
# Indices 1 2 3 4 5 6 
#
# 1 0.009895 -0.003532 -0.000354 0.000000 0.000000 0.000000
# 2 -0.003532 0.009293 -0.002565 0.000000 0.000000 0.000000
# 3 -0.000354 -0.002565 0.007362 0.000000 0.000000 0.000000
# 4 0.000000 0.000000 0.000000 0.026709 0.000000 0.000000
# 5 0.000000 0.000000 0.000000 0.000000 0.043823 0.000000
# 6 0.000000 0.000000 0.000000 0.000000 0.000000 -0.052041
#
#
# Mechanical properties :
#
#
# Convention : Reuss Voigt Hill
#
# Bulk Modulus (GPa) = 73.26665 74.97712 74.12189
# Shear Modulus (GPa) = 80.00922 27.48150 53.74536
#
# Velocity S-wave (km/s) = 6.24323 3.65897 5.11693
# Velocity P-wave (km/s) = 9.36288 7.37409 8.42736
#
# Compressibility (1/GPa) = 0.01364878
#
# Stress axis : x y z
#
# Youngs Moduli (GPa) = 101.06279 107.60437 135.82875
#
# Poissons Ratio (x) = 0.38004 0.04809
# Poissons Ratio (y) = 0.35694 0.34839
# Poissons Ratio (z) = 0.03578 0.27600
#
# Static dielectric constant tensor:
#      x y z
#    x 3.788990 0.000000 0.000000 
#    y 0.000000 3.764390 0.000000 
#    z 0.000000 0.000000 4.959660 
# 
# 
# High freq. dielectric constant tensor:
#      x y z
#    x 1.812860 0.000000 0.000000 
#    y 0.000000 1.806620 0.000000 
#    z 0.000000 0.000000 1.827490 
# 
# From -- ./inp_files/13754.got.cif
#   From: 2010.03.12/outbox.cif.g09.slc.cpg/sg53_7_cif.got.tgz:13754.got - 2010.04.16 14:36:59.
