data_PCOD8222744
_publ_section_title
;
Structure prediction by ZEFSAII (Michael W. Deem and Ramdas Pophale) SiO2 
 PCOD8222744
Probable space group: P C C A
;
_chemical_formula_sum "Si O2"
_cell_formula_units_Z 56
_cell_length_a 4.973382
_cell_length_b 16.730173
_cell_length_c 33.543845
_cell_angle_alpha 90.000000
_cell_angle_beta 90.000000
_cell_angle_gamma 90.000000
_cell_volume 2791.033779
_symmetry_space_group_name_H-M "P C C A"
_symmetry_group_IT_number 54
_symmetry_cell_setting 'orthorhombic'
loop_
_space_group_symop_operation_xyz
x,y,z
1/2-x,-y,z
1/2+x,-y,1/2-z
-x,y,1/2-z
-x,-y,-z
1/2+x,y,-z
1/2-x,y,1/2+z
x,-y,1/2+z
loop_
_atom_site_type_symbol
_atom_site_label
_atom_site_fract_x
_atom_site_fract_y
_atom_site_fract_z
Si Si1 0.761834 0.746280 0.722817
Si Si2 0.165498 0.699149 0.863134
Si Si3 0.173869 0.775606 0.099749
Si Si4 0.877724 0.684532 0.973492
Si Si5 0.636144 0.086287 0.209557
Si Si6 0.488072 0.945139 0.623668
Si Si7 0.992799 0.552792 0.912814
O O1 0.500000 0.737100 0.750000
O O2 0.746237 0.692838 0.683004
O O3 0.829778 0.836548 0.705356
O O4 0.000000 0.714749 0.750000
O O5 0.427048 0.718027 0.889656
O O6 0.922592 0.764147 0.869151
O O7 0.066612 0.612921 0.877299
O O8 0.298141 0.755712 0.056608
O O9 0.042461 0.864290 0.098507
O O10 0.870765 0.599598 0.950976
O O11 0.682537 0.691960 0.011234
O O12 0.500000 0.112957 0.250000
O O13 0.454463 0.080184 0.170088
O O14 0.750000 0.000000 0.218346
O O15 0.250000 0.000000 0.609509
O O16 0.750000 0.000000 0.616452
O O17 0.750000 0.500000 0.895845
O O18 0.250000 0.500000 0.925396
#
# Coordination Sequence:
#
# PCOD8222744 Si02
#       7
#     8   8   8   8   8   8   8
#     4  11  23  36  57  85 119 163 212 259 302 345
#     4  11  22  40  63  87 121 165 210 251 297 366
#     4  11  22  40  63  86 121 165 211 251 298 366
#     4  11  23  40  64  96 127 159 190 236 305 376
#     4  10  20  32  50  80 121 159 192 247 307 360
#     4  11  23  36  57  84 117 163 211 259 305 345
#     4  11  23  40  64  97 128 159 190 236 304 376
#
# _framework density 20.064249
#
# number of rings (size 3 to 8) (size 9 to 14) (size 15 to 20)
#    0.000    1.143    1.429    6.857    4.000    1.714 
#    0.000    0.000    0.000    4.286    0.000    0.000 
#    0.000    0.000    0.000    0.000    0.000    0.000 
#
# Total GULP energy -693861.845384 kJ/mol
# GULP energy per Si atom -12390.390096 kJ/mol
# Density = 2.001858 g / cm^3
# Si number density = 20.064249 Si / 1000 Ang^3
#
#
#
# Elastic Constant Matrix: (Units=GPa)
#
#
# Indices 1 2 3 4 5 6 
#
# 1 123.5420 41.4239 40.6336 0.0000 0.0000 0.0000
# 2 41.4239 102.0676 59.8311 0.0000 0.0000 0.0000
# 3 40.6336 59.8311 108.6753 0.0000 0.0000 0.0000
# 4 0.0000 0.0000 0.0000 21.3291 0.0000 0.0000
# 5 0.0000 0.0000 0.0000 0.0000 37.0385 0.0000
# 6 0.0000 0.0000 0.0000 0.0000 0.0000 39.9417
#
#
#
# Elastic Compliance Matrix: (Units=1/GPa)
#
#
# Indices 1 2 3 4 5 6 
#
# 1 0.009700 -0.002673 -0.002155 0.000000 0.000000 0.000000
# 2 -0.002673 0.015203 -0.007370 0.000000 0.000000 0.000000
# 3 -0.002155 -0.007370 0.014065 0.000000 0.000000 0.000000
# 4 0.000000 0.000000 0.000000 0.046884 0.000000 0.000000
# 5 0.000000 0.000000 0.000000 0.000000 0.026999 0.000000
# 6 0.000000 0.000000 0.000000 0.000000 0.000000 0.025037
#
#
# Mechanical properties :
#
#
# Convention : Reuss Voigt Hill
#
# Bulk Modulus (GPa) = 68.63216 68.67356 68.65286
# Shear Modulus (GPa) = 29.91486 32.48829 31.20158
#
# Velocity S-wave (km/s) = 3.86548 4.02831 3.94773
# Velocity P-wave (km/s) = 7.36227 7.47914 7.42093
#
# Compressibility (1/GPa) = 0.01457043
#
# Stress axis : x y z
#
# Youngs Moduli (GPa) = 103.09766 65.77724 71.09793
#
# Poissons Ratio (x) = 0.17585 0.15320
# Poissons Ratio (y) = 0.27562 0.52401
# Poissons Ratio (z) = 0.22215 0.48480
#
# Static dielectric constant tensor:
#      x y z
#    x 4.186040 0.000000 0.000000 
#    y 0.000000 3.586270 0.000000 
#    z 0.000000 0.000000 3.618120 
# 
# 
# High freq. dielectric constant tensor:
#      x y z
#    x 1.795490 0.000000 0.000000 
#    y 0.000000 1.772750 0.000000 
#    z 0.000000 0.000000 1.770600 
# 
# From -- ./inp_files/27204.got.cif
#   From: 2010.03.12/outbox.cif.g09.slc.cpg/sg54_14_cif.got.tgz:27204.got - 2010.04.16 15:00:50.
