data_PCOD8222836
_publ_section_title
;
Structure prediction by ZEFSAII (Michael W. Deem and Ramdas Pophale) SiO2 
 PCOD8222836
Probable space group: P C C A
;
_chemical_formula_sum "Si O2"
_cell_formula_units_Z 52
_cell_length_a 25.410635
_cell_length_b 8.618123
_cell_length_c 12.414345
_cell_angle_alpha 90.000000
_cell_angle_beta 90.000000
_cell_angle_gamma 90.000000
_cell_volume 2718.641966
_symmetry_space_group_name_H-M "P C C A"
_symmetry_group_IT_number 54
_symmetry_cell_setting 'orthorhombic'
loop_
_space_group_symop_operation_xyz
x,y,z
1/2-x,-y,z
1/2+x,-y,1/2-z
-x,y,1/2-z
-x,-y,-z
1/2+x,y,-z
1/2-x,y,1/2+z
x,-y,1/2+z
loop_
_atom_site_type_symbol
_atom_site_label
_atom_site_fract_x
_atom_site_fract_y
_atom_site_fract_z
Si Si1 0.442170 0.796574 0.878962
Si Si2 0.500000 0.452929 0.250000
Si Si3 0.677079 0.779507 0.614839
Si Si4 0.750000 0.000000 0.481578
Si Si5 0.000000 0.950605 0.750000
Si Si6 0.280447 0.720296 0.653054
Si Si7 0.440955 0.297752 0.621922
Si Si8 0.672883 0.415882 0.914391
O O1 0.454289 0.651858 0.801259
O O2 0.381403 0.840360 0.862536
O O3 0.476537 0.945238 0.845949
O O4 0.455473 0.751367 0.001123
O O5 0.523593 0.555730 0.346119
O O6 0.707775 0.914973 0.554886
O O7 0.706449 0.737463 0.722945
O O8 0.675665 0.624935 0.541081
O O9 0.784214 0.883839 0.407912
O O10 0.953191 0.845798 0.798915
O O11 0.220771 0.660712 0.650022
O O12 0.321909 0.601849 0.597151
O O13 0.380309 0.346926 0.636133
#
# Coordination Sequence:
#
# PCOD8222836 Si02
#       8
#     8   4   8   4   4   8   8   8
#     4  10  21  37  56  81 111 145 184 229 279 332
#     4  10  20  36  58  80 106 144 186 230 278 326
#     4  10  21  37  56  80 111 146 182 222 273 324
#     4  10  22  36  54  84 112 142 182 220 266 334
#     4  10  22  36  58  82 110 148 184 228 286 332
#     4  10  20  37  57  81 114 146 178 225 271 321
#     4  10  20  38  57  82 112 142 186 233 275 329
#     4   9  21  37  57  82 110 144 187 226 267 327
#
# _framework density 19.127198
#
# number of rings (size 3 to 8) (size 9 to 14) (size 15 to 20)
#    0.000    2.154    0.000    2.308    0.000    9.846 
#    0.000    7.692    0.000    0.000    0.000    0.000 
#    0.000    0.000    0.000    0.000    0.000    0.000 
#
# Total GULP energy -644909.931205 kJ/mol
# GULP energy per Si atom -12402.114062 kJ/mol
# Density = 1.908366 g / cm^3
# Si number density = 19.127198 Si / 1000 Ang^3
#
#
#
# Elastic Constant Matrix: (Units=GPa)
#
#
# Indices 1 2 3 4 5 6 
#
# 1 123.5225 55.6232 60.1231 0.0000 0.0000 0.0000
# 2 55.6232 137.6582 63.8039 0.0000 0.0000 0.0000
# 3 60.1231 63.8039 118.8835 0.0000 0.0000 0.0000
# 4 0.0000 0.0000 0.0000 27.1648 0.0000 0.0000
# 5 0.0000 0.0000 0.0000 0.0000 28.6807 0.0000
# 6 0.0000 0.0000 0.0000 0.0000 0.0000 21.1388
#
#
#
# Elastic Compliance Matrix: (Units=1/GPa)
#
#
# Indices 1 2 3 4 5 6 
#
# 1 0.011384 -0.002571 -0.004377 0.000000 0.000000 0.000000
# 2 -0.002571 0.010250 -0.004201 0.000000 0.000000 0.000000
# 3 -0.004377 -0.004201 0.012880 0.000000 0.000000 0.000000
# 4 0.000000 0.000000 0.000000 0.036812 0.000000 0.000000
# 5 0.000000 0.000000 0.000000 0.000000 0.034867 0.000000
# 6 0.000000 0.000000 0.000000 0.000000 0.000000 0.047306
#
#
# Mechanical properties :
#
#
# Convention : Reuss Voigt Hill
#
# Bulk Modulus (GPa) = 81.86308 82.12943 81.99625
# Shear Modulus (GPa) = 27.79770 28.76445 28.28108
#
# Velocity S-wave (km/s) = 3.81636 3.88216 3.84940
# Velocity P-wave (km/s) = 7.89378 7.94523 7.91954
#
# Compressibility (1/GPa) = 0.01221552
#
# Stress axis : x y z
#
# Youngs Moduli (GPa) = 87.84169 97.55696 77.63913
#
# Poissons Ratio (x) = 0.25082 0.33986
# Poissons Ratio (y) = 0.22584 0.32617
# Poissons Ratio (z) = 0.38452 0.40984
#
# Static dielectric constant tensor:
#      x y z
#    x 3.537930 0.000000 0.000000 
#    y 0.000000 3.724160 0.000000 
#    z 0.000000 0.000000 3.517420 
# 
# 
# High freq. dielectric constant tensor:
#      x y z
#    x 1.745320 0.000000 0.000000 
#    y 0.000000 1.750620 0.000000 
#    z 0.000000 0.000000 1.748570 
# 
# From -- ./inp_files/10322.got.cif
#   From: 2010.03.12/outbox.cif.g09.slc.cpg/sg54_6_cif.got.tgz:10322.got - 2010.04.16 15:00:50.
