data_PCOD8222099
_publ_section_title
;
Structure prediction by ZEFSAII (Michael W. Deem and Ramdas Pophale) SiO2 
 PCOD8222099
Probable space group: P M N A
;
_chemical_formula_sum "Si O2"
_cell_formula_units_Z 56
_cell_length_a 8.604484
_cell_length_b 21.396471
_cell_length_c 15.698890
_cell_angle_alpha 90.000000
_cell_angle_beta 90.000000
_cell_angle_gamma 90.000000
_cell_volume 2890.253443
_symmetry_space_group_name_H-M "P M N A"
_symmetry_group_IT_number 53
_symmetry_cell_setting 'orthorhombic'
loop_
_space_group_symop_operation_xyz
x,y,z
1/2-x,-y,1/2+z
x,-y,-z
1/2-x,y,1/2-z
-x,-y,-z
1/2+x,y,1/2-z
-x,y,z
1/2+x,-y,1/2+z
loop_
_atom_site_type_symbol
_atom_site_label
_atom_site_fract_x
_atom_site_fract_y
_atom_site_fract_z
Si Si1 0.815203 0.293058 0.993093
Si Si2 0.316045 0.364746 0.340438
Si Si3 0.829921 0.965041 0.089221
Si Si4 0.186101 0.846263 0.004472
Si Si5 0.684957 0.621030 0.338533
Si Si6 0.814986 0.087048 0.162969
Si Si7 0.683809 0.506081 0.902189
O O1 0.754098 0.320108 0.083291
O O2 0.749273 0.223098 0.977810
O O3 0.000000 0.292121 0.994187
O O4 0.754372 0.335440 0.915510
O O5 0.250000 0.340912 0.250000
O O6 0.500000 0.363234 0.335862
O O7 0.261710 0.434580 0.358981
O O8 0.000000 0.950691 0.127429
O O9 0.745139 0.015943 0.150130
O O10 0.746682 0.897336 0.073418
O O11 0.849498 0.000000 0.000000
O O12 0.242900 0.866419 0.910681
O O13 0.000000 0.848032 0.008525
O O14 0.750000 0.649097 0.250000
O O15 0.500000 0.617268 0.336750
O O16 0.757148 0.552970 0.349922
O O17 0.750000 0.115316 0.250000
O O18 0.000000 0.083678 0.163733
O O19 0.500000 0.512170 0.894512
O O20 0.738206 0.500000 0.000000
#
# Coordination Sequence:
#
# PCOD8222099 Si02
#       7
#     8   8   8   8   8   8   8
#     4   9  19  34  53  75 103 140 178 217 259 310
#     4  11  22  37  55  79 109 140 176 215 263 315
#     4   7  11  22  42  66  89 118 159 201 234 273
#     4   8  14  28  49  70  93 128 174 210 240 291
#     4  11  22  38  58  80 105 136 175 219 268 315
#     4   9  16  26  45  73 101 127 160 205 252 297
#     4  11  22  37  59  84 107 134 171 216 268 316
#
# _framework density 19.375463
#
# number of rings (size 3 to 8) (size 9 to 14) (size 15 to 20)
#    0.000    2.571    1.429    3.429    0.000    1.143 
#    0.000    0.714    0.000    6.429    0.000    0.000 
#    0.000    0.000    0.000    0.000    0.000    0.000 
#
# Total GULP energy -693899.329982 kJ/mol
# GULP energy per Si atom -12391.059464 kJ/mol
# Density = 1.933136 g / cm^3
# Si number density = 19.375463 Si / 1000 Ang^3
#
#
#
# Elastic Constant Matrix: (Units=GPa)
#
#
# Indices 1 2 3 4 5 6 
#
# 1 26.7266 6.5687 16.8749 0.0000 0.0000 0.0000
# 2 6.5687 128.1661 28.1867 0.0000 0.0000 0.0000
# 3 16.8749 28.1867 99.0662 0.0000 0.0000 0.0000
# 4 0.0000 0.0000 0.0000 18.7902 0.0000 0.0000
# 5 0.0000 0.0000 0.0000 0.0000 26.2161 0.0000
# 6 0.0000 0.0000 0.0000 0.0000 0.0000 1.7487
#
#
#
# Elastic Compliance Matrix: (Units=1/GPa)
#
#
# Indices 1 2 3 4 5 6 
#
# 1 0.041971 -0.000617 -0.006974 0.000000 0.000000 0.000000
# 2 -0.000617 0.008332 -0.002266 0.000000 0.000000 0.000000
# 3 -0.006974 -0.002266 0.011927 0.000000 0.000000 0.000000
# 4 0.000000 0.000000 0.000000 0.053219 0.000000 0.000000
# 5 0.000000 0.000000 0.000000 0.000000 0.038144 0.000000
# 6 0.000000 0.000000 0.000000 0.000000 0.000000 0.571864
#
#
# Mechanical properties :
#
#
# Convention : Reuss Voigt Hill
#
# Bulk Modulus (GPa) = 23.52021 39.69105 31.60563
# Shear Modulus (GPa) = 6.58464 22.83956 14.71210
#
# Velocity S-wave (km/s) = 1.84549 3.43707 2.75856
# Velocity P-wave (km/s) = 4.08737 6.02337 5.14721
#
# Compressibility (1/GPa) = 0.04251663
#
# Stress axis : x y z
#
# Youngs Moduli (GPa) = 23.82610 120.01528 83.84510
#
# Poissons Ratio (x) = 0.07410 0.58470
# Poissons Ratio (y) = 0.01471 0.18996
# Poissons Ratio (z) = 0.16615 0.27190
#
# Static dielectric constant tensor:
#      x y z
#    x 3.087120 0.000000 0.000000 
#    y 0.000000 3.841550 0.000000 
#    z 0.000000 0.000000 3.795350 
# 
# 
# High freq. dielectric constant tensor:
#      x y z
#    x 1.709730 0.000000 0.000000 
#    y 0.000000 1.756950 0.000000 
#    z 0.000000 0.000000 1.753260 
# 
# From -- ./inp_files/26733.got.cif
#   From: 2010.03.12/outbox.cif.g09.slc.cpg/sg53_14_cif.got.tgz:26733.got - 2010.04.16 14:36:59.
