data_PCOD8222847
_publ_section_title
;
Structure prediction by ZEFSAII (Michael W. Deem and Ramdas Pophale) SiO2 
 PCOD8222847
Probable space group: P C C A
;
_chemical_formula_sum "Si O2"
_cell_formula_units_Z 40
_cell_length_a 8.939200
_cell_length_b 9.891198
_cell_length_c 22.215281
_cell_angle_alpha 90.000000
_cell_angle_beta 90.000000
_cell_angle_gamma 90.000000
_cell_volume 1964.261754
_symmetry_space_group_name_H-M "P C C A"
_symmetry_group_IT_number 54
_symmetry_cell_setting 'orthorhombic'
loop_
_space_group_symop_operation_xyz
x,y,z
1/2-x,-y,z
1/2+x,-y,1/2-z
-x,y,1/2-z
-x,-y,-z
1/2+x,y,-z
1/2-x,y,1/2+z
x,-y,1/2+z
loop_
_atom_site_type_symbol
_atom_site_label
_atom_site_fract_x
_atom_site_fract_y
_atom_site_fract_z
Si Si1 0.445050 0.269932 0.816950
Si Si2 0.358985 0.626620 0.965163
Si Si3 0.927242 0.001429 0.815661
Si Si4 0.821749 0.146319 0.625972
Si Si5 0.093138 0.456064 0.091952
O O1 0.500000 0.303769 0.750000
O O2 0.268232 0.230431 0.821789
O O3 0.483173 0.398083 0.857734
O O4 0.533635 0.142809 0.845050
O O5 0.250000 0.500000 0.951890
O O6 0.306854 0.767303 0.935357
O O7 0.518997 0.590291 0.936145
O O8 0.377112 0.649173 0.036869
O O9 0.000000 0.004521 0.750000
O O10 0.004833 0.123731 0.853333
O O11 0.750000 0.000000 0.812530
O O12 0.750000 0.000000 0.614678
O O13 0.250000 0.500000 0.122120
#
# Coordination Sequence:
#
# PCOD8222847 Si02
#       5
#     8   8   8   8   8
#     4  10  20  39  59  85 125 159 200 252 304 366
#     4  10  20  41  65  83 118 165 201 245 312 369
#     4  10  20  36  59  86 120 162 199 247 308 369
#     4  10  21  39  63  88 119 160 203 249 309 366
#     4  10  22  38  62  87 118 160 208 248 302 368
#
# _framework density 20.363886000000001
#
# number of rings (size 3 to 8) (size 9 to 14) (size 15 to 20)
#    0.000    2.000    2.000    3.000    2.800    0.000 
#    3.600    5.000    0.000    0.000    0.000    0.000 
#    0.000    0.000    0.000    0.000    0.000    0.000 
#
# Total GULP energy -495627.175743 kJ/mol
# GULP energy per Si atom -12390.679394 kJ/mol
# Density = 2.031754 g / cm^3
# Si number density = 20.363886 Si / 1000 Ang^3
#
#
#
# Elastic Constant Matrix: (Units=GPa)
#
#
# Indices 1 2 3 4 5 6 
#
# 1 143.3991 27.8221 30.5984 0.0000 0.0000 0.0000
# 2 27.8221 71.3542 47.4572 0.0000 0.0000 0.0000
# 3 30.5984 47.4572 99.2872 0.0000 0.0000 0.0000
# 4 0.0000 0.0000 0.0000 24.2784 0.0000 0.0000
# 5 0.0000 0.0000 0.0000 0.0000 26.3962 0.0000
# 6 0.0000 0.0000 0.0000 0.0000 0.0000 22.5254
#
#
#
# Elastic Compliance Matrix: (Units=1/GPa)
#
#
# Indices 1 2 3 4 5 6 
#
# 1 0.007669 -0.002079 -0.001370 0.000000 0.000000 0.000000
# 2 -0.002079 0.021110 -0.009449 0.000000 0.000000 0.000000
# 3 -0.001370 -0.009449 0.015010 0.000000 0.000000 0.000000
# 4 0.000000 0.000000 0.000000 0.041189 0.000000 0.000000
# 5 0.000000 0.000000 0.000000 0.000000 0.037884 0.000000
# 6 0.000000 0.000000 0.000000 0.000000 0.000000 0.044394
#
#
# Mechanical properties :
#
#
# Convention : Reuss Voigt Hill
#
# Bulk Modulus (GPa) = 55.57700 58.42176 56.99938
# Shear Modulus (GPa) = 25.11909 28.51751 26.81830
#
# Velocity S-wave (km/s) = 3.51595 3.74625 3.63292
# Velocity P-wave (km/s) = 6.62070 6.88939 6.75638
#
# Compressibility (1/GPa) = 0.01799305
#
# Stress axis : x y z
#
# Youngs Moduli (GPa) = 130.39106 47.37062 66.62019
#
# Poissons Ratio (x) = 0.09851 0.09124
# Poissons Ratio (y) = 0.27114 0.62952
# Poissons Ratio (z) = 0.17858 0.44762
#
# Static dielectric constant tensor:
#      x y z
#    x 3.963400 0.000000 0.000000 
#    y 0.000000 3.600020 0.000000 
#    z 0.000000 0.000000 3.536880 
# 
# 
# High freq. dielectric constant tensor:
#      x y z
#    x 1.809600 0.000000 0.000000 
#    y 0.000000 1.775170 0.000000 
#    z 0.000000 0.000000 1.775590 
# 
# From -- ./inp_files/16311.got.cif
#   From: 2010.03.12/outbox.cif.g09.slc.cpg/sg54_9_cif.got.tgz:16311.got - 2010.04.16 15:00:50.
