data_PCOD8222996
_publ_section_title
;
Structure prediction by ZEFSAII (Michael W. Deem and Ramdas Pophale) SiO2 
 PCOD8222996
Probable space group: P C C A
;
_chemical_formula_sum "Si O2"
_cell_formula_units_Z 60
_cell_length_a 10.281155
_cell_length_b 16.984450
_cell_length_c 17.124413
_cell_angle_alpha 90.000000
_cell_angle_beta 90.000000
_cell_angle_gamma 90.000000
_cell_volume 2990.260940
_symmetry_space_group_name_H-M "P C C A"
_symmetry_group_IT_number 54
_symmetry_cell_setting 'orthorhombic'
loop_
_space_group_symop_operation_xyz
x,y,z
1/2-x,-y,z
1/2+x,-y,1/2-z
-x,y,1/2-z
-x,-y,-z
1/2+x,y,-z
1/2-x,y,1/2+z
x,-y,1/2+z
loop_
_atom_site_type_symbol
_atom_site_label
_atom_site_fract_x
_atom_site_fract_y
_atom_site_fract_z
Si Si1 0.496502 0.348271 0.497298
Si Si2 0.367409 0.726840 0.369601
Si Si3 0.749184 0.410303 0.926627
Si Si4 0.121954 0.948844 0.521948
Si Si5 0.768143 0.711997 0.792947
Si Si6 0.899504 0.201632 0.586844
Si Si7 0.062007 0.855742 0.669697
Si Si8 0.500000 0.771527 0.750000
O O1 0.556728 0.339708 0.583346
O O2 0.356149 0.392541 0.503747
O O3 0.600717 0.398239 0.449260
O O4 0.494938 0.261464 0.457937
O O5 0.352168 0.690488 0.283299
O O6 0.230560 0.747721 0.407258
O O7 0.448493 0.807207 0.371511
O O8 0.750000 0.500000 0.898601
O O9 0.704064 0.353290 0.857200
O O10 0.126857 0.875087 0.463856
O O11 0.109344 0.924910 0.612765
O O12 0.250000 0.000000 0.509883
O O13 0.000000 0.000000 0.500000
O O14 0.812931 0.799489 0.818539
O O15 0.615858 0.713743 0.774298
O O16 0.955863 0.177805 0.673297
O O17 0.000000 0.890771 0.750000
#
# Coordination Sequence:
#
# PCOD8222996 Si02
#       8
#     8   8   8   8   8   8   8   4
#     4  12  22  40  70  92 127 172 224 264 315 391
#     4  10  20  38  68  97 116 159 234 274 305 368
#     4  12  25  41  61  97 137 171 208 267 337 390
#     4  12  27  42  65  99 140 172 211 266 342 396
#     4  10  21  39  66  94 123 166 222 268 314 383
#     4  11  22  40  69  93 127 170 225 276 315 381
#     4  10  21  42  68  92 126 171 225 266 317 387
#     4  10  22  38  68  96 120 160 236 268 308 372
#
# _framework density 20.065138000000001
#
# number of rings (size 3 to 8) (size 9 to 14) (size 15 to 20)
#    0.000    1.067    5.333    1.200    1.867    0.000 
#    1.200    2.667    0.000    0.000    0.000    0.000 
#    0.000    0.000    0.000    0.000    0.000    0.000 
#
# Total GULP energy -743784.732693 kJ/mol
# GULP energy per Si atom -12396.412212 kJ/mol
# Density = 2.001947 g / cm^3
# Si number density = 20.065138 Si / 1000 Ang^3
#
#
#
# Elastic Constant Matrix: (Units=GPa)
#
#
# Indices 1 2 3 4 5 6 
#
# 1 120.6092 41.7714 36.8970 0.0000 0.0000 0.0000
# 2 41.7714 93.8818 46.6938 0.0000 0.0000 0.0000
# 3 36.8970 46.6938 107.7084 0.0000 0.0000 0.0000
# 4 0.0000 0.0000 0.0000 3.0867 0.0000 0.0000
# 5 0.0000 0.0000 0.0000 0.0000 30.4799 0.0000
# 6 0.0000 0.0000 0.0000 0.0000 0.0000 26.2700
#
#
#
# Elastic Compliance Matrix: (Units=1/GPa)
#
#
# Indices 1 2 3 4 5 6 
#
# 1 0.010106 -0.003538 -0.001928 0.000000 0.000000 0.000000
# 2 -0.003538 0.014818 -0.005212 0.000000 0.000000 0.000000
# 3 -0.001928 -0.005212 0.012205 0.000000 0.000000 0.000000
# 4 0.000000 0.000000 0.000000 0.323974 0.000000 0.000000
# 5 0.000000 0.000000 0.000000 0.000000 0.032809 0.000000
# 6 0.000000 0.000000 0.000000 0.000000 0.000000 0.038066
#
#
# Mechanical properties :
#
#
# Convention : Reuss Voigt Hill
#
# Bulk Modulus (GPa) = 63.40073 63.65820 63.52947
# Shear Modulus (GPa) = 10.90295 25.08977 17.99636
#
# Velocity S-wave (km/s) = 2.33358 3.53996 2.99807
# Velocity P-wave (km/s) = 6.23914 6.96441 6.61173
#
# Compressibility (1/GPa) = 0.01577269
#
# Stress axis : x y z
#
# Youngs Moduli (GPa) = 98.94731 67.48551 81.93693
#
# Poissons Ratio (x) = 0.23873 0.15801
# Poissons Ratio (y) = 0.35003 0.42706
# Poissons Ratio (z) = 0.19082 0.35174
#
# Static dielectric constant tensor:
#      x y z
#    x 3.960880 0.000000 0.000000 
#    y 0.000000 3.290890 0.000000 
#    z 0.000000 0.000000 4.620250 
# 
# 
# High freq. dielectric constant tensor:
#      x y z
#    x 1.808480 0.000000 0.000000 
#    y 0.000000 1.742700 0.000000 
#    z 0.000000 0.000000 1.794650 
# 
# From -- ./inp_files/16815.got.cif
#   From: 2010.03.12/outbox.cif.g09.slc.cpg/sg54_9_cif.got.tgz:16815.got - 2010.04.16 15:00:50.
