data_PCOD8222360
_publ_section_title
;
Structure prediction by ZEFSAII (Michael W. Deem and Ramdas Pophale) SiO2 
 PCOD8222360
Probable space group: P C C A
;
_chemical_formula_sum "Si O2"
_cell_formula_units_Z 32
_cell_length_a 13.900103
_cell_length_b 17.055669
_cell_length_c 5.285850
_cell_angle_alpha 90.000000
_cell_angle_beta 90.000000
_cell_angle_gamma 90.000000
_cell_volume 1253.145827
_symmetry_space_group_name_H-M "P C C A"
_symmetry_group_IT_number 54
_symmetry_cell_setting 'orthorhombic'
loop_
_space_group_symop_operation_xyz
x,y,z
1/2-x,-y,z
1/2+x,-y,1/2-z
-x,y,1/2-z
-x,-y,-z
1/2+x,y,-z
1/2-x,y,1/2+z
x,-y,1/2+z
loop_
_atom_site_type_symbol
_atom_site_label
_atom_site_fract_x
_atom_site_fract_y
_atom_site_fract_z
Si Si1 0.391552 0.289413 0.715720
Si Si2 0.892538 0.531353 0.944346
Si Si3 0.386300 0.786294 0.716859
Si Si4 0.142577 0.033015 0.642313
O O1 0.500000 0.259381 0.750000
O O2 0.389343 0.380468 0.650476
O O3 0.340686 0.242109 0.484811
O O4 0.344223 0.268562 0.988616
O O5 0.841647 0.479689 0.719616
O O6 0.000000 0.500000 0.000000
O O7 0.500000 0.776634 0.750000
O O8 0.355325 0.874026 0.657338
O O9 0.250000 0.000000 0.619513
O O10 0.088634 0.003890 0.386648
#
# Coordination Sequence:
#
# PCOD8222360 Si02
#       4
#     8   8   8   8
#     4  10  18  29  43  68 107 143 183 212 256 311
#     4  10  17  24  41  63  95 147 195 202 239 303
#     4  10  21  32  49  75 106 140 175 219 275 316
#     4  10  21  38  58  76  97 133 177 229 270 326
#
# _framework density 25.535734000000001
#
# number of rings (size 3 to 8) (size 9 to 14) (size 15 to 20)
#    0.000    2.000    2.500    3.000    7.000    1.000 
#    0.000    0.000    0.000    0.000    0.000    0.000 
#    0.000    0.000    0.000  315.000    0.000    0.000 
#
# Total GULP energy -396424.584781 kJ/mol
# GULP energy per Si atom -12388.268274 kJ/mol
# Density = 2.547761 g / cm^3
# Si number density = 25.535734 Si / 1000 Ang^3
#
#
#
# Elastic Constant Matrix: (Units=GPa)
#
#
# Indices 1 2 3 4 5 6 
#
# 1 25.1094 -1.0264 -0.7966 0.0000 0.0000 0.0000
# 2 -1.0264 213.8526 118.2574 0.0000 0.0000 0.0000
# 3 -0.7966 118.2574 326.7569 0.0000 0.0000 0.0000
# 4 0.0000 0.0000 0.0000 62.2906 0.0000 0.0000
# 5 0.0000 0.0000 0.0000 0.0000 -19.6664 0.0000
# 6 0.0000 0.0000 0.0000 0.0000 0.0000 8.0018
#
#
#
# Elastic Compliance Matrix: (Units=1/GPa)
#
#
# Indices 1 2 3 4 5 6 
#
# 1 0.039834 0.000172 0.000035 0.000000 0.000000 0.000000
# 2 0.000172 0.005847 -0.002116 0.000000 0.000000 0.000000
# 3 0.000035 -0.002116 0.003826 0.000000 0.000000 0.000000
# 4 0.000000 0.000000 0.000000 0.016054 0.000000 0.000000
# 5 0.000000 0.000000 0.000000 0.000000 -0.050848 0.000000
# 6 0.000000 0.000000 0.000000 0.000000 0.000000 0.124972
#
#
# Mechanical properties :
#
#
# Convention : Reuss Voigt Hill
#
# Bulk Modulus (GPa) = 21.88700 88.73194 55.30947
# Shear Modulus (GPa) = 31.49971 40.07750 35.78860
#
# Velocity S-wave (km/s) = 3.51601 3.96595 3.74774
# Velocity P-wave (km/s) = 5.00728 7.46962 6.35878
#
# Compressibility (1/GPa) = 0.04568922
#
# Stress axis : x y z
#
# Youngs Moduli (GPa) = 25.10425 171.03205 261.36020
#
# Poissons Ratio (x) = -0.02940 -0.00912
# Poissons Ratio (y) = -0.00432 0.55294
# Poissons Ratio (z) = -0.00088 0.36184
#
# Static dielectric constant tensor:
#      x y z
#    x 3.282240 0.000000 0.000000 
#    y 0.000000 4.608760 0.000000 
#    z 0.000000 0.000000 10.259800 
# 
# 
# High freq. dielectric constant tensor:
#      x y z
#    x 1.982030 0.000000 0.000000 
#    y 0.000000 2.010050 0.000000 
#    z 0.000000 0.000000 2.069590 
# 
# From -- ./inp_files/868.got.cif
#   From: 2010.03.12/outbox.cif.g09.slc.cpg/sg54_1_cif.got.tgz:868.got - 2010.04.16 15:00:50.
