data_PCOD8222028
_publ_section_title
;
Structure prediction by ZEFSAII (Michael W. Deem and Ramdas Pophale) SiO2 
 PCOD8222028
Probable space group: P M N A
;
_chemical_formula_sum "Si O2"
_cell_formula_units_Z 64
_cell_length_a 8.836408
_cell_length_b 12.533369
_cell_length_c 28.662323
_cell_angle_alpha 90.000000
_cell_angle_beta 90.000000
_cell_angle_gamma 90.000000
_cell_volume 3174.351186
_symmetry_space_group_name_H-M "P M N A"
_symmetry_group_IT_number 53
_symmetry_cell_setting 'orthorhombic'
loop_
_space_group_symop_operation_xyz
x,y,z
1/2-x,-y,1/2+z
x,-y,-z
1/2-x,y,1/2-z
-x,-y,-z
1/2+x,y,1/2-z
-x,y,z
1/2+x,-y,1/2+z
loop_
_atom_site_type_symbol
_atom_site_label
_atom_site_fract_x
_atom_site_fract_y
_atom_site_fract_z
Si Si1 0.176987 0.062640 0.453958
Si Si2 0.677879 0.488141 0.052635
Si Si3 0.827941 0.027011 0.647329
Si Si4 0.325317 0.268153 0.425712
Si Si5 0.669448 0.204259 0.163139
Si Si6 0.178371 0.779808 0.198710
Si Si7 0.328026 0.579352 0.796013
Si Si8 0.821089 0.578427 0.137776
O O1 0.269170 0.172665 0.458848
O O2 0.000000 0.089336 0.453880
O O3 0.226056 0.000000 0.500000
O O4 0.218530 0.997549 0.406556
O O5 0.500000 0.505017 0.057093
O O6 0.721974 0.370553 0.067973
O O7 0.756720 0.578980 0.084977
O O8 0.735889 0.500000 0.000000
O O9 0.720122 0.114478 0.670070
O O10 0.000000 0.069391 0.649420
O O11 0.810142 0.918911 0.678768
O O12 0.500000 0.295307 0.435204
O O13 0.301465 0.228909 0.373148
O O14 0.500000 0.214185 0.140322
O O15 0.682932 0.291217 0.204339
O O16 0.250000 0.777030 0.250000
O O17 0.235755 0.679413 0.167899
O O18 0.000000 0.776065 0.205374
O O19 0.250000 0.533485 0.750000
O O20 0.500000 0.539369 0.796814
O O21 0.241585 0.530914 0.840083
O O22 0.000000 0.573963 0.135657
#
# Coordination Sequence:
#
# PCOD8222028 Si02
#       8
#     8   8   8   8   8   8   8   8
#     4   9  19  37  61  88 121 163 209 255 305 368
#     4  11  24  41  62  88 119 161 208 251 304 372
#     4   9  19  37  61  88 120 158 203 253 305 362
#     4  11  21  34  57  85 118 156 193 246 307 360
#     4   9  19  37  59  84 116 155 196 241 297 360
#     4  11  25  43  63  88 122 164 210 262 315 376
#     4  11  22  36  59  88 120 155 195 244 298 359
#     4  11  24  42  63  89 121 156 202 257 315 369
#
# _framework density 20.161601000000001
#
# number of rings (size 3 to 8) (size 9 to 14) (size 15 to 20)
#    0.000    1.750    1.250    3.750    0.000    8.250 
#    0.000    5.000    0.000    0.000    0.000    0.000 
#    0.000    0.000    0.000    0.000    0.000    0.000 
#
# Total GULP energy -793391.456025 kJ/mol
# GULP energy per Si atom -12396.741500 kJ/mol
# Density = 2.011571 g / cm^3
# Si number density = 20.161601 Si / 1000 Ang^3
#
#
#
# Elastic Constant Matrix: (Units=GPa)
#
#
# Indices 1 2 3 4 5 6 
#
# 1 66.3755 29.0913 35.6589 0.0000 0.0000 0.0000
# 2 29.0913 105.8708 43.0796 0.0000 0.0000 0.0000
# 3 35.6589 43.0796 107.0042 0.0000 0.0000 0.0000
# 4 0.0000 0.0000 0.0000 57.0548 0.0000 0.0000
# 5 0.0000 0.0000 0.0000 0.0000 29.4700 0.0000
# 6 0.0000 0.0000 0.0000 0.0000 0.0000 17.7317
#
#
#
# Elastic Compliance Matrix: (Units=1/GPa)
#
#
# Indices 1 2 3 4 5 6 
#
# 1 0.019216 -0.003198 -0.005116 0.000000 0.000000 0.000000
# 2 -0.003198 0.011828 -0.003696 0.000000 0.000000 0.000000
# 3 -0.005116 -0.003696 0.012538 0.000000 0.000000 0.000000
# 4 0.000000 0.000000 0.000000 0.017527 0.000000 0.000000
# 5 0.000000 0.000000 0.000000 0.000000 0.033933 0.000000
# 6 0.000000 0.000000 0.000000 0.000000 0.000000 0.056396
#
#
# Mechanical properties :
#
#
# Convention : Reuss Voigt Hill
#
# Bulk Modulus (GPa) = 51.12079 54.99002 53.05540
# Shear Modulus (GPa) = 27.47542 32.27934 29.87738
#
# Velocity S-wave (km/s) = 3.69556 4.00563 3.85372
# Velocity P-wave (km/s) = 6.60455 6.98049 6.79512
#
# Compressibility (1/GPa) = 0.01956151
#
# Stress axis : x y z
#
# Youngs Moduli (GPa) = 52.03961 84.54257 79.75497
#
# Poissons Ratio (x) = 0.27041 0.40803
# Poissons Ratio (y) = 0.16645 0.29479
# Poissons Ratio (z) = 0.26624 0.31248
#
# Static dielectric constant tensor:
#      x y z
#    x 3.570050 0.000000 0.000000 
#    y 0.000000 3.779560 0.000000 
#    z 0.000000 0.000000 2.592230 
# 
# 
# High freq. dielectric constant tensor:
#      x y z
#    x 1.786690 0.000000 0.000000 
#    y 0.000000 1.790490 0.000000 
#    z 0.000000 0.000000 1.779100 
# 
# From -- ./inp_files/38300.got.cif
#   From: 2010.03.12/outbox.cif.g09.slc.cpg/sg53_20_cif.got.tgz:38300.got - 2010.04.16 14:36:59.
