data_PCOD8222250
_publ_section_title
;
Structure prediction by ZEFSAII (Michael W. Deem and Ramdas Pophale) SiO2 
 PCOD8222250
Probable space group: P M N A
;
_chemical_formula_sum "Si O2"
_cell_formula_units_Z 40
_cell_length_a 26.763039
_cell_length_b 13.375653
_cell_length_c 6.363880
_cell_angle_alpha 90.000000
_cell_angle_beta 90.000000
_cell_angle_gamma 90.000000
_cell_volume 2278.097997
_symmetry_space_group_name_H-M "P M N A"
_symmetry_group_IT_number 53
_symmetry_cell_setting 'orthorhombic'
loop_
_space_group_symop_operation_xyz
x,y,z
1/2-x,-y,1/2+z
x,-y,-z
1/2-x,y,1/2-z
-x,-y,-z
1/2+x,y,1/2-z
-x,y,z
1/2+x,-y,1/2+z
loop_
_atom_site_type_symbol
_atom_site_label
_atom_site_fract_x
_atom_site_fract_y
_atom_site_fract_z
Si Si1 0.057569 0.282678 0.741005
Si Si2 0.692521 0.217726 0.757806
Si Si3 0.109275 0.885001 0.498867
Si Si4 0.141453 0.614925 0.498999
Si Si5 0.875688 0.250499 0.121286
O O1 0.066745 0.176793 0.625087
O O2 0.088856 0.368734 0.621443
O O3 0.000000 0.312757 0.735771
O O4 0.075714 0.274679 0.981261
O O5 0.750000 0.187341 0.750000
O O6 0.662368 0.131389 0.881998
O O7 0.684586 0.322921 0.878872
O O8 0.672333 0.226555 0.521208
O O9 0.112659 0.846332 0.737363
O O10 0.093921 0.000000 0.500000
O O11 0.157002 0.500000 0.500000
O O12 0.136614 0.652948 0.737454
#
# Coordination Sequence:
#
# PCOD8222250 Si02
#       5
#     8   8   8   8   8
#     4   9  19  33  52  76 102 137 175 211 258 314
#     4   9  19  35  50  76 104 133 175 211 260 312
#     4   9  19  35  52  75 104 136 171 217 258 305
#     4   9  19  35  52  75 104 136 171 217 258 305
#     4   8  18  35  53  67 108 135 165 216 263 300
#
# _framework density 17.558508
#
# number of rings (size 3 to 8) (size 9 to 14) (size 15 to 20)
#    0.000    4.000    0.000    0.000    0.000   13.600 
#    7.200    2.000    0.000    0.000    0.000    0.000 
#    0.000    0.000    0.000    0.000    0.000    0.000 
#
# Total GULP energy -495859.205877 kJ/mol
# GULP energy per Si atom -12396.480147 kJ/mol
# Density = 1.751854 g / cm^3
# Si number density = 17.558508 Si / 1000 Ang^3
#
#
#
# Elastic Constant Matrix: (Units=GPa)
#
#
# Indices 1 2 3 4 5 6 
#
# 1 72.5968 -46.4205 6.3756 0.0000 0.0000 0.0000
# 2 -46.4205 71.2487 7.6471 0.0000 0.0000 0.0000
# 3 6.3756 7.6471 122.6927 0.0000 0.0000 0.0000
# 4 0.0000 0.0000 0.0000 12.1186 0.0000 0.0000
# 5 0.0000 0.0000 0.0000 0.0000 13.0525 0.0000
# 6 0.0000 0.0000 0.0000 0.0000 0.0000 13.2954
#
#
#
# Elastic Compliance Matrix: (Units=1/GPa)
#
#
# Indices 1 2 3 4 5 6 
#
# 1 0.024217 0.016020 -0.002257 0.000000 0.000000 0.000000
# 2 0.016020 0.024728 -0.002374 0.000000 0.000000 0.000000
# 3 -0.002257 -0.002374 0.008416 0.000000 0.000000 0.000000
# 4 0.000000 0.000000 0.000000 0.082518 0.000000 0.000000
# 5 0.000000 0.000000 0.000000 0.000000 0.076614 0.000000
# 6 0.000000 0.000000 0.000000 0.000000 0.000000 0.075214
#
#
# Mechanical properties :
#
#
# Convention : Reuss Voigt Hill
#
# Bulk Modulus (GPa) = 12.47838 22.41586 17.44712
# Shear Modulus (GPa) = 16.91249 27.62236 22.26742
#
# Velocity S-wave (km/s) = 3.10693 3.97061 3.56502
# Velocity P-wave (km/s) = 4.47133 5.81508 5.18690
#
# Compressibility (1/GPa) = 0.08013863
#
# Stress axis : x y z
#
# Youngs Moduli (GPa) = 41.29409 40.44069 118.82598
#
# Poissons Ratio (x) = -0.64786 0.26818
# Poissons Ratio (y) = -0.66153 0.28205
# Poissons Ratio (z) = 0.09320 0.09599
#
# Static dielectric constant tensor:
#      x y z
#    x 2.968950 0.000000 0.000000 
#    y 0.000000 2.963870 0.000000 
#    z 0.000000 0.000000 3.405040 
# 
# 
# High freq. dielectric constant tensor:
#      x y z
#    x 1.659110 0.000000 0.000000 
#    y 0.000000 1.658510 0.000000 
#    z 0.000000 0.000000 1.697210 
# 
# From -- ./inp_files/5231.got.cif
#   From: 2010.03.12/outbox.cif.g09.slc.cpg/sg53_3_cif.got.tgz:5231.got - 2010.04.16 14:36:59.
