data_PCOD8222118
_publ_section_title
;
Structure prediction by ZEFSAII (Michael W. Deem and Ramdas Pophale) SiO2 
 PCOD8222118
Probable space group: P M N A
;
_chemical_formula_sum "Si O2"
_cell_formula_units_Z 40
_cell_length_a 8.692824
_cell_length_b 12.419844
_cell_length_c 18.376920
_cell_angle_alpha 90.000000
_cell_angle_beta 90.000000
_cell_angle_gamma 90.000000
_cell_volume 1984.036933
_symmetry_space_group_name_H-M "P M N A"
_symmetry_group_IT_number 53
_symmetry_cell_setting 'orthorhombic'
loop_
_space_group_symop_operation_xyz
x,y,z
1/2-x,-y,1/2+z
x,-y,-z
1/2-x,y,1/2-z
-x,-y,-z
1/2+x,y,1/2-z
-x,y,z
1/2+x,-y,1/2+z
loop_
_atom_site_type_symbol
_atom_site_label
_atom_site_fract_x
_atom_site_fract_y
_atom_site_fract_z
Si Si1 0.680689 0.357040 0.828036
Si Si2 0.317695 0.791506 0.925262
Si Si3 0.682435 0.452335 0.074869
Si Si4 0.820872 0.171466 0.922422
Si Si5 0.819929 0.964366 0.827075
O O1 0.750000 0.331910 0.750000
O O2 0.500000 0.354795 0.819560
O O3 0.738432 0.472819 0.858152
O O4 0.726854 0.266695 0.885419
O O5 0.500000 0.797722 0.935924
O O6 0.260026 0.669102 0.913220
O O7 0.265525 0.857367 0.854662
O O8 0.234331 0.842190 0.995054
O O9 0.500000 0.455407 0.069914
O O10 0.752277 0.500000 0.000000
O O11 0.000000 0.199907 0.919490
O O12 0.784786 0.060295 0.882468
O O13 0.750000 0.998190 0.750000
O O14 0.000000 0.941104 0.819506
#
# Coordination Sequence:
#
# PCOD8222118 Si02
#       5
#     8   8   8   8   8
#     4  11  22  38  61  89 123 158 200 250 306 363
#     4  11  22  39  66  93 121 160 203 248 302 363
#     4   9  18  37  61  87 119 157 198 244 294 352
#     4  11  23  40  62  90 123 159 203 253 302 356
#     4  11  25  43  61  86 123 161 202 253 305 360
#
# _framework density 20.160914999999999
#
# number of rings (size 3 to 8) (size 9 to 14) (size 15 to 20)
#    0.000    1.400    2.000    3.600    0.000    8.000 
#    0.000    7.000    0.000    0.000    0.000    0.000 
#    0.000    0.000    0.000    0.000    0.000    0.000 
#
# Total GULP energy -496193.182010 kJ/mol
# GULP energy per Si atom -12404.829550 kJ/mol
# Density = 2.011503 g / cm^3
# Si number density = 20.160915 Si / 1000 Ang^3
#
#
#
# Elastic Constant Matrix: (Units=GPa)
#
#
# Indices 1 2 3 4 5 6 
#
# 1 51.3693 33.8617 16.7816 0.0000 0.0000 0.0000
# 2 33.8617 111.9455 16.4016 0.0000 0.0000 0.0000
# 3 16.7816 16.4016 69.2663 0.0000 0.0000 0.0000
# 4 0.0000 0.0000 0.0000 10.4820 0.0000 0.0000
# 5 0.0000 0.0000 0.0000 0.0000 32.5853 0.0000
# 6 0.0000 0.0000 0.0000 0.0000 0.0000 26.5038
#
#
#
# Elastic Compliance Matrix: (Units=1/GPa)
#
#
# Indices 1 2 3 4 5 6 
#
# 1 0.025617 -0.007085 -0.004529 0.000000 0.000000 0.000000
# 2 -0.007085 0.011214 -0.000939 0.000000 0.000000 0.000000
# 3 -0.004529 -0.000939 0.015756 0.000000 0.000000 0.000000
# 4 0.000000 0.000000 0.000000 0.095402 0.000000 0.000000
# 5 0.000000 0.000000 0.000000 0.000000 0.030689 0.000000
# 6 0.000000 0.000000 0.000000 0.000000 0.000000 0.037731
#
#
# Mechanical properties :
#
#
# Convention : Reuss Voigt Hill
#
# Bulk Modulus (GPa) = 36.38766 40.74120 38.56443
# Shear Modulus (GPa) = 19.94627 24.94995 22.44811
#
# Velocity S-wave (km/s) = 3.14881 3.52169 3.34046
# Velocity P-wave (km/s) = 5.59534 6.06533 5.83507
#
# Compressibility (1/GPa) = 0.02748184
#
# Stress axis : x y z
#
# Youngs Moduli (GPa) = 39.03708 89.17752 63.46594
#
# Poissons Ratio (x) = 0.63183 0.28741
# Poissons Ratio (y) = 0.27658 0.05958
# Poissons Ratio (z) = 0.17678 0.08371
#
# Static dielectric constant tensor:
#      x y z
#    x 3.543610 0.000000 0.000000 
#    y 0.000000 3.877580 0.000000 
#    z 0.000000 0.000000 3.778140 
# 
# 
# High freq. dielectric constant tensor:
#      x y z
#    x 1.779120 0.000000 0.000000 
#    y 0.000000 1.800530 0.000000 
#    z 0.000000 0.000000 1.793340 
# 
# From -- ./inp_files/25813.got.cif
#   From: 2010.03.12/outbox.cif.g09.slc.cpg/sg53_13_cif.got.tgz:25813.got - 2010.04.16 14:36:59.
