data_PCOD8222322
_publ_section_title
;
Structure prediction by ZEFSAII (Michael W. Deem and Ramdas Pophale) SiO2 
 PCOD8222322
Probable space group: P C C A
;
_chemical_formula_sum "Si O2"
_cell_formula_units_Z 40
_cell_length_a 26.267844
_cell_length_b 16.886587
_cell_length_c 5.279612
_cell_angle_alpha 90.000000
_cell_angle_beta 90.000000
_cell_angle_gamma 90.000000
_cell_volume 2341.899843
_symmetry_space_group_name_H-M "P C C A"
_symmetry_group_IT_number 54
_symmetry_cell_setting 'orthorhombic'
loop_
_space_group_symop_operation_xyz
x,y,z
1/2-x,-y,z
1/2+x,-y,1/2-z
-x,y,1/2-z
-x,-y,-z
1/2+x,y,-z
1/2-x,y,1/2+z
x,-y,1/2+z
loop_
_atom_site_type_symbol
_atom_site_label
_atom_site_fract_x
_atom_site_fract_y
_atom_site_fract_z
Si Si1 0.940199 0.711592 0.280301
Si Si2 0.942456 0.212481 0.282621
Si Si3 0.228323 0.588413 0.149930
Si Si4 0.612435 0.449148 0.341470
Si Si5 0.943087 0.968655 0.940880
O O1 0.916619 0.763242 0.514225
O O2 0.929220 0.619422 0.322092
O O3 0.000000 0.726700 0.250000
O O4 0.915186 0.741719 0.016050
O O5 0.941159 0.119957 0.340476
O O6 0.000000 0.242589 0.250000
O O7 0.250000 0.500000 0.120996
O O8 0.246341 0.632362 0.891942
O O9 0.167931 0.589673 0.175664
O O10 0.604241 0.490966 0.610314
O O11 0.916091 0.020799 0.716180
O O12 0.000000 0.000000 0.000000
#
# Coordination Sequence:
#
# PCOD8222322 Si02
#       5
#     8   8   8   8   8
#     4  10  23  34  44  62  89 136 161 191 236 261
#     4  10  18  32  45  59  95 119 155 196 225 282
#     4  10  16  30  49  74  87 104 130 201 261 289
#     4  12  21  33  52  67  88 115 167 209 230 279
#     4  10  17  24  44  72  83 107 150 203 226 256
#
# _framework density 17.08015
#
# number of rings (size 3 to 8) (size 9 to 14) (size 15 to 20)
#    0.000    1.600    6.000    2.400    5.600    0.800 
#    0.000    0.000    0.000    0.000    0.000    0.000 
#    0.000    0.000    0.000    0.000    0.000   70.000 
#
# Total GULP energy -495541.917456 kJ/mol
# GULP energy per Si atom -12388.547936 kJ/mol
# Density = 1.704128 g / cm^3
# Si number density = 17.080150 Si / 1000 Ang^3
#
#
#
# Elastic Constant Matrix: (Units=GPa)
#
#
# Indices 1 2 3 4 5 6 
#
# 1 10.6516 8.6812 11.4885 0.0000 0.0000 0.0000
# 2 8.6812 69.2218 37.2472 0.0000 0.0000 0.0000
# 3 11.4885 37.2472 174.3839 0.0000 0.0000 0.0000
# 4 0.0000 0.0000 0.0000 27.0104 0.0000 0.0000
# 5 0.0000 0.0000 0.0000 0.0000 11.6874 0.0000
# 6 0.0000 0.0000 0.0000 0.0000 0.0000 1.3450
#
#
#
# Elastic Compliance Matrix: (Units=1/GPa)
#
#
# Indices 1 2 3 4 5 6 
#
# 1 0.107971 -0.010975 -0.004769 0.000000 0.000000 0.000000
# 2 -0.010975 0.017438 -0.003002 0.000000 0.000000 0.000000
# 3 -0.004769 -0.003002 0.006690 0.000000 0.000000 0.000000
# 4 0.000000 0.000000 0.000000 0.037023 0.000000 0.000000
# 5 0.000000 0.000000 0.000000 0.000000 0.085562 0.000000
# 6 0.000000 0.000000 0.000000 0.000000 0.000000 0.743512
#
#
# Mechanical properties :
#
#
# Convention : Reuss Voigt Hill
#
# Bulk Modulus (GPa) = 10.56991 41.01013 25.79002
# Shear Modulus (GPa) = 4.68506 21.13125 12.90815
#
# Velocity S-wave (km/s) = 1.65799 3.52117 2.75205
# Velocity P-wave (km/s) = 3.14120 6.37135 5.02301
#
# Compressibility (1/GPa) = 0.09460817
#
# Stress axis : x y z
#
# Youngs Moduli (GPa) = 9.26172 57.34678 149.48175
#
# Poissons Ratio (x) = 0.62936 0.71289
# Poissons Ratio (y) = 0.10164 0.44868
# Poissons Ratio (z) = 0.04417 0.17213
#
# Static dielectric constant tensor:
#      x y z
#    x 2.694680 0.000000 0.000000 
#    y 0.000000 3.103530 0.000000 
#    z 0.000000 0.000000 8.778840 
# 
# 
# High freq. dielectric constant tensor:
#      x y z
#    x 1.580910 0.000000 0.000000 
#    y 0.000000 1.628040 0.000000 
#    z 0.000000 0.000000 1.711440 
# 
# From -- ./inp_files/1606.got.cif
#   From: 2010.03.12/outbox.cif.g09.slc.cpg/sg54_1_cif.got.tgz:1606.got - 2010.04.16 15:00:50.
