data_PCOD8222241
_publ_section_title
;
Structure prediction by ZEFSAII (Michael W. Deem and Ramdas Pophale) SiO2 
 PCOD8222241
Probable space group: P M N A
;
_chemical_formula_sum "Si O2"
_cell_formula_units_Z 48
_cell_length_a 9.380904
_cell_length_b 16.432036
_cell_length_c 18.714040
_cell_angle_alpha 90.000000
_cell_angle_beta 90.000000
_cell_angle_gamma 90.000000
_cell_volume 2884.719716
_symmetry_space_group_name_H-M "P M N A"
_symmetry_group_IT_number 53
_symmetry_cell_setting 'orthorhombic'
loop_
_space_group_symop_operation_xyz
x,y,z
1/2-x,-y,1/2+z
x,-y,-z
1/2-x,y,1/2-z
-x,-y,-z
1/2+x,y,1/2-z
-x,y,z
1/2+x,-y,1/2+z
loop_
_atom_site_type_symbol
_atom_site_label
_atom_site_fract_x
_atom_site_fract_y
_atom_site_fract_z
Si Si1 0.331332 0.162997 0.178034
Si Si2 0.669693 0.754126 0.040667
Si Si3 0.330846 0.083809 0.030794
Si Si4 0.833582 0.664473 0.321634
Si Si5 0.831486 0.675992 0.600230
Si Si6 0.334580 0.480467 0.179193
O O1 0.250000 0.136166 0.250000
O O2 0.500000 0.157168 0.191839
O O3 0.284935 0.102903 0.112674
O O4 0.283440 0.254844 0.156974
O O5 0.500000 0.749002 0.042287
O O6 0.727807 0.723869 0.117061
O O7 0.721785 0.845423 0.023239
O O8 0.730631 0.695342 0.978299
O O9 0.500000 0.080067 0.028830
O O10 0.264338 0.000000 0.000000
O O11 0.750000 0.685556 0.250000
O O12 0.804867 0.571910 0.347828
O O13 0.000000 0.678375 0.306520
O O14 0.780166 0.585586 0.621495
O O15 0.000000 0.680872 0.595374
O O16 0.250000 0.461280 0.250000
O O17 0.500000 0.467222 0.196207
#
# Coordination Sequence:
#
# PCOD8222241 Si02
#       6
#     8   8   8   8   8   8
#     4   9  16  26  42  63  85 107 131 163 201 239
#     4   8  14  25  41  60  79 101 133 169 201 233
#     4   8  14  26  44  63  82 106 136 167 198 236
#     4   9  17  28  42  59  80 107 136 167 200 233
#     4   8  14  24  39  60  82 103 132 168 199 231
#     4   9  16  25  38  57  81 108 135 163 197 234
#
# _framework density 16.639399000000001
#
# number of rings (size 3 to 8) (size 9 to 14) (size 15 to 20)
#    0.000    3.500    0.000    2.500    0.000    0.667 
#    0.000    4.167    0.000    5.500    0.000    4.667 
#    0.000    0.000    0.000    0.000    0.000    0.000 
#
# Total GULP energy -594742.036789 kJ/mol
# GULP energy per Si atom -12390.459100 kJ/mol
# Density = 1.660153 g / cm^3
# Si number density = 16.639399 Si / 1000 Ang^3
#
#
#
# Elastic Constant Matrix: (Units=GPa)
#
#
# Indices 1 2 3 4 5 6 
#
# 1 19.3532 22.1007 30.9843 0.0000 0.0000 0.0000
# 2 22.1007 120.7900 95.5049 0.0000 0.0000 0.0000
# 3 30.9843 95.5049 148.5719 0.0000 0.0000 0.0000
# 4 0.0000 0.0000 0.0000 25.9874 0.0000 0.0000
# 5 0.0000 0.0000 0.0000 0.0000 22.0054 0.0000
# 6 0.0000 0.0000 0.0000 0.0000 0.0000 10.4715
#
#
#
# Elastic Compliance Matrix: (Units=1/GPa)
#
#
# Indices 1 2 3 4 5 6 
#
# 1 0.078056 -0.002869 -0.014434 0.000000 0.000000 0.000000
# 2 -0.002869 0.016941 -0.010292 0.000000 0.000000 0.000000
# 3 -0.014434 -0.010292 0.016357 0.000000 0.000000 0.000000
# 4 0.000000 0.000000 0.000000 0.038480 0.000000 0.000000
# 5 0.000000 0.000000 0.000000 0.000000 0.045443 0.000000
# 6 0.000000 0.000000 0.000000 0.000000 0.000000 0.095497
#
#
# Mechanical properties :
#
#
# Convention : Reuss Voigt Hill
#
# Bulk Modulus (GPa) = 17.80502 65.09943 41.45222
# Shear Modulus (GPa) = 13.71043 21.03455 17.37249
#
# Velocity S-wave (km/s) = 2.87361 3.55933 3.23469
# Velocity P-wave (km/s) = 4.66197 7.49002 6.23836
#
# Compressibility (1/GPa) = 0.05616394
#
# Stress axis : x y z
#
# Youngs Moduli (GPa) = 12.81130 59.02781 61.13736
#
# Poissons Ratio (x) = 0.16937 0.88245
# Poissons Ratio (y) = 0.03676 0.62921
# Poissons Ratio (z) = 0.18492 0.60750
#
# Static dielectric constant tensor:
#      x y z
#    x 2.632660 0.000000 0.000000 
#    y 0.000000 3.437790 0.000000 
#    z 0.000000 0.000000 3.384090 
# 
# 
# High freq. dielectric constant tensor:
#      x y z
#    x 1.585440 0.000000 0.000000 
#    y 0.000000 1.638750 0.000000 
#    z 0.000000 0.000000 1.641940 
# 
# From -- ./inp_files/14912.got.cif
#   From: 2010.03.12/outbox.cif.g09.slc.cpg/sg53_8_cif.got.tgz:14912.got - 2010.04.16 14:36:59.
