data_PCOD8222989
_publ_section_title
;
Structure prediction by ZEFSAII (Michael W. Deem and Ramdas Pophale) SiO2 
 PCOD8222989
Probable space group: P C C A
;
_chemical_formula_sum "Si O2"
_cell_formula_units_Z 40
_cell_length_a 18.389041
_cell_length_b 5.152997
_cell_length_c 18.836310
_cell_angle_alpha 90.000000
_cell_angle_beta 90.000000
_cell_angle_gamma 90.000000
_cell_volume 1784.903742
_symmetry_space_group_name_H-M "P C C A"
_symmetry_group_IT_number 54
_symmetry_cell_setting 'orthorhombic'
loop_
_space_group_symop_operation_xyz
x,y,z
1/2-x,-y,z
1/2+x,-y,1/2-z
-x,y,1/2-z
-x,-y,-z
1/2+x,y,-z
1/2-x,y,1/2+z
x,-y,1/2+z
loop_
_atom_site_type_symbol
_atom_site_label
_atom_site_fract_x
_atom_site_fract_y
_atom_site_fract_z
Si Si1 0.093351 0.281361 0.641376
Si Si2 0.671655 0.398910 0.637539
Si Si3 0.945709 0.333633 0.561140
Si Si4 0.415308 0.781926 0.231444
Si Si5 0.115766 0.827804 0.994440
O O1 0.107951 0.560819 0.675347
O O2 0.147334 0.228129 0.573816
O O3 0.013393 0.253293 0.608598
O O4 0.102804 0.063031 0.700512
O O5 0.750000 0.500000 0.661329
O O6 0.619608 0.640746 0.619075
O O7 0.635273 0.233145 0.699821
O O8 0.677108 0.216663 0.566084
O O9 0.950300 0.613601 0.519244
O O10 0.921417 0.108262 0.507068
O O11 0.500000 0.747932 0.250000
#
# Coordination Sequence:
#
# PCOD8222989 Si02
#       5
#     8   8   8   8   8
#     4  12  22  39  66  98 132 160 216 278 332 371
#     4  10  25  44  67  92 134 178 227 262 334 407
#     4  10  20  38  66  94 123 161 215 267 324 380
#     4  12  24  40  65  99 132 173 215 273 327 394
#     4  10  22  39  64  97 121 167 212 273 325 385
#
# _framework density 22.410174000000001
#
# number of rings (size 3 to 8) (size 9 to 14) (size 15 to 20)
#    1.200    0.000    2.000    5.400    2.800    0.800 
#    0.000    1.000    4.400    0.000    0.000    0.000 
#    0.000    0.000    0.000    0.000    0.000    0.000 
#
# Total GULP energy -495787.572654 kJ/mol
# GULP energy per Si atom -12394.689316 kJ/mol
# Density = 2.235917 g / cm^3
# Si number density = 22.410174 Si / 1000 Ang^3
#
#
#
# Elastic Constant Matrix: (Units=GPa)
#
#
# Indices 1 2 3 4 5 6 
#
# 1 59.2296 0.7514 27.1372 0.0000 0.0000 0.0000
# 2 0.7514 107.3384 16.1484 0.0000 0.0000 0.0000
# 3 27.1372 16.1484 131.3564 0.0000 0.0000 0.0000
# 4 0.0000 0.0000 0.0000 47.9215 0.0000 0.0000
# 5 0.0000 0.0000 0.0000 0.0000 11.9798 0.0000
# 6 0.0000 0.0000 0.0000 0.0000 0.0000 9.9513
#
#
#
# Elastic Compliance Matrix: (Units=1/GPa)
#
#
# Indices 1 2 3 4 5 6 
#
# 1 0.018671 0.000458 -0.003914 0.000000 0.000000 0.000000
# 2 0.000458 0.009503 -0.001263 0.000000 0.000000 0.000000
# 3 -0.003914 -0.001263 0.008577 0.000000 0.000000 0.000000
# 4 0.000000 0.000000 0.000000 0.020867 0.000000 0.000000
# 5 0.000000 0.000000 0.000000 0.000000 0.083474 0.000000
# 6 0.000000 0.000000 0.000000 0.000000 0.000000 0.100490
#
#
# Mechanical properties :
#
#
# Convention : Reuss Voigt Hill
#
# Bulk Modulus (GPa) = 36.61163 42.88870 39.75016
# Shear Modulus (GPa) = 19.22167 30.89634 25.05901
#
# Velocity S-wave (km/s) = 2.93186 3.71708 3.34757
# Velocity P-wave (km/s) = 5.27576 6.13203 5.71994
#
# Compressibility (1/GPa) = 0.02731373
#
# Stress axis : x y z
#
# Youngs Moduli (GPa) = 53.55982 105.22860 116.59586
#
# Poissons Ratio (x) = -0.04820 0.45630
# Poissons Ratio (y) = -0.02453 0.14725
# Poissons Ratio (z) = 0.20961 0.13289
#
# Static dielectric constant tensor:
#      x y z
#    x 3.713650 0.000000 0.000000 
#    y 0.000000 3.962100 0.000000 
#    z 0.000000 0.000000 4.501190 
# 
# 
# High freq. dielectric constant tensor:
#      x y z
#    x 1.831990 0.000000 0.000000 
#    y 0.000000 1.892930 0.000000 
#    z 0.000000 0.000000 1.905030 
# 
# From -- ./inp_files/21762.got.cif
#   From: 2010.03.12/outbox.cif.g09.slc.cpg/sg54_11_cif.got.tgz:21762.got - 2010.04.16 15:00:50.
