data_PCOD8222753
_publ_section_title
;
Structure prediction by ZEFSAII (Michael W. Deem and Ramdas Pophale) SiO2 
 PCOD8222753
Probable space group: P C C A
;
_chemical_formula_sum "Si O2"
_cell_formula_units_Z 56
_cell_length_a 15.999749
_cell_length_b 18.986287
_cell_length_c 9.122259
_cell_angle_alpha 90.000000
_cell_angle_beta 90.000000
_cell_angle_gamma 90.000000
_cell_volume 2771.121767
_symmetry_space_group_name_H-M "P C C A"
_symmetry_group_IT_number 54
_symmetry_cell_setting 'orthorhombic'
loop_
_space_group_symop_operation_xyz
x,y,z
1/2-x,-y,z
1/2+x,-y,1/2-z
-x,y,1/2-z
-x,-y,-z
1/2+x,y,-z
1/2-x,y,1/2+z
x,-y,1/2+z
loop_
_atom_site_type_symbol
_atom_site_label
_atom_site_fract_x
_atom_site_fract_y
_atom_site_fract_z
Si Si1 0.444028 0.470052 0.874884
Si Si2 0.843280 0.077584 0.898996
Si Si3 0.692809 0.627516 0.993107
Si Si4 0.500000 0.133398 0.250000
Si Si5 0.151993 0.607968 0.327055
Si Si6 0.250000 0.000000 0.855451
Si Si7 0.633247 0.760957 0.624702
Si Si8 0.725932 0.224216 0.419139
O O1 0.500000 0.433720 0.750000
O O2 0.384502 0.408996 0.929945
O O3 0.402270 0.538987 0.807171
O O4 0.500000 0.500000 0.000000
O O5 0.815032 0.151363 0.967884
O O6 0.825441 0.024941 0.035500
O O7 0.941609 0.083693 0.853320
O O8 0.790094 0.058928 0.751689
O O9 0.779148 0.595402 0.049523
O O10 0.684322 0.712011 0.013185
O O11 0.701546 0.614259 0.822581
O O12 0.441631 0.184124 0.349246
O O13 0.099563 0.679827 0.364714
O O14 0.675312 0.776325 0.465161
O O15 0.708094 0.767990 0.745287
#
# Coordination Sequence:
#
# PCOD8222753 Si02
#       8
#     8   8   8   4   8   4   8   8
#     4  12  25  38  56  82 118 158 192 251 309 354
#     4  10  20  37  61  89 120 157 193 238 288 347
#     4  10  22  39  59  85 110 154 203 247 289 358
#     4  10  20  32  60  90 120 154 192 244 292 344
#     4  10  22  38  60  81 115 154 203 247 296 356
#     4  10  22  38  62  90 120 160 196 228 278 372
#     4   9  19  35  61  87 112 154 201 246 291 347
#     4   9  18  37  62  81 113 150 197 240 283 353
#
# _framework density 20.208421999999999
#
# number of rings (size 3 to 8) (size 9 to 14) (size 15 to 20)
#    0.000    2.000    1.429    2.143    3.000    2.857 
#    0.000    0.000    0.000   10.286    0.000    0.000 
#    0.000    0.000    0.000    0.000    0.000    0.000 
#
# Total GULP energy -693757.168624 kJ/mol
# GULP energy per Si atom -12388.520868 kJ/mol
# Density = 2.016243 g / cm^3
# Si number density = 20.208422 Si / 1000 Ang^3
#
#
#
# Elastic Constant Matrix: (Units=GPa)
#
#
# Indices 1 2 3 4 5 6 
#
# 1 99.2307 36.0964 34.6111 0.0000 0.0000 0.0000
# 2 36.0964 83.7382 19.1382 0.0000 0.0000 0.0000
# 3 34.6111 19.1382 73.3057 0.0000 0.0000 0.0000
# 4 0.0000 0.0000 0.0000 24.4588 0.0000 0.0000
# 5 0.0000 0.0000 0.0000 0.0000 33.4666 0.0000
# 6 0.0000 0.0000 0.0000 0.0000 0.0000 37.4401
#
#
#
# Elastic Compliance Matrix: (Units=1/GPa)
#
#
# Indices 1 2 3 4 5 6 
#
# 1 0.013589 -0.004670 -0.005197 0.000000 0.000000 0.000000
# 2 -0.004670 0.014305 -0.001530 0.000000 0.000000 0.000000
# 3 -0.005197 -0.001530 0.016495 0.000000 0.000000 0.000000
# 4 0.000000 0.000000 0.000000 0.040885 0.000000 0.000000
# 5 0.000000 0.000000 0.000000 0.000000 0.029880 0.000000
# 6 0.000000 0.000000 0.000000 0.000000 0.000000 0.026709
#
#
# Mechanical properties :
#
#
# Convention : Reuss Voigt Hill
#
# Bulk Modulus (GPa) = 46.30643 48.44067 47.37355
# Shear Modulus (GPa) = 29.09447 30.16838 29.63142
#
# Velocity S-wave (km/s) = 3.79848 3.86795 3.83337
# Velocity P-wave (km/s) = 6.49632 6.63103 6.56402
#
# Compressibility (1/GPa) = 0.02159527
#
# Stress axis : x y z
#
# Youngs Moduli (GPa) = 73.58964 69.90756 60.62624
#
# Poissons Ratio (x) = 0.32646 0.31506
# Poissons Ratio (y) = 0.34366 0.09274
# Poissons Ratio (z) = 0.38243 0.10693
#
# Static dielectric constant tensor:
#      x y z
#    x 3.512380 0.000000 0.000000 
#    y 0.000000 3.700030 0.000000 
#    z 0.000000 0.000000 3.731830 
# 
# 
# High freq. dielectric constant tensor:
#      x y z
#    x 1.766210 0.000000 0.000000 
#    y 0.000000 1.800710 0.000000 
#    z 0.000000 0.000000 1.789400 
# 
# From -- ./inp_files/3697.got.cif
#   From: 2010.03.12/outbox.cif.g09.slc.cpg/sg54_2_cif.got.tgz:3697.got - 2010.04.16 15:00:50.
