data_PCOD8222340
_publ_section_title
;
Structure prediction by ZEFSAII (Michael W. Deem and Ramdas Pophale) SiO2 
 PCOD8222340
Probable space group: P C C A
;
_chemical_formula_sum "Si O2"
_cell_formula_units_Z 32
_cell_length_a 26.505877
_cell_length_b 13.185061
_cell_length_c 5.180185
_cell_angle_alpha 90.000000
_cell_angle_beta 90.000000
_cell_angle_gamma 90.000000
_cell_volume 1810.379369
_symmetry_space_group_name_H-M "P C C A"
_symmetry_group_IT_number 54
_symmetry_cell_setting 'orthorhombic'
loop_
_space_group_symop_operation_xyz
x,y,z
1/2-x,-y,z
1/2+x,-y,1/2-z
-x,y,1/2-z
-x,-y,-z
1/2+x,y,-z
1/2-x,y,1/2+z
x,-y,1/2+z
loop_
_atom_site_type_symbol
_atom_site_label
_atom_site_fract_x
_atom_site_fract_y
_atom_site_fract_z
Si Si1 0.113487 0.434628 0.482295
Si Si2 0.442860 0.046190 0.183681
Si Si3 0.228034 0.387488 0.497225
Si Si4 0.467555 0.735445 0.506958
O O1 0.105693 0.520440 0.266842
O O2 0.168574 0.386475 0.452527
O O3 0.073274 0.347532 0.430523
O O4 0.500000 0.010752 0.250000
O O5 0.416355 0.022952 0.460490
O O6 0.439377 0.163107 0.101521
O O7 0.250000 0.500000 0.546469
O O8 0.256344 0.330375 0.261820
O O9 0.500000 0.758460 0.250000
O O10 0.500000 0.694645 0.750000
#
# Coordination Sequence:
#
# PCOD8222340 Si02
#       4
#     8   8   8   8
#     4  12  22  33  50  69  97 137 164 193 235 282
#     4   9  16  30  52  69  86 119 160 204 246 267
#     4  10  16  31  51  69  85 115 156 214 245 263
#     4  11  23  35  46  70 103 132 166 196 223 287
#
# _framework density 17.675854000000001
#
# number of rings (size 3 to 8) (size 9 to 14) (size 15 to 20)
#    0.000    1.500    5.000    5.250    0.000    3.000 
#    0.000    0.000    0.000    0.000    0.000    0.000 
#    0.000    6.000    0.000    0.000    0.000    0.000 
#
# Total GULP energy -396549.787782 kJ/mol
# GULP energy per Si atom -12392.180868 kJ/mol
# Density = 1.763562 g / cm^3
# Si number density = 17.675854 Si / 1000 Ang^3
#
#
#
# Elastic Constant Matrix: (Units=GPa)
#
#
# Indices 1 2 3 4 5 6 
#
# 1 51.3051 31.0706 10.1934 0.0000 0.0000 0.0000
# 2 31.0706 54.3578 22.5629 0.0000 0.0000 0.0000
# 3 10.1934 22.5629 137.7320 0.0000 0.0000 0.0000
# 4 0.0000 0.0000 0.0000 -105.7319 0.0000 0.0000
# 5 0.0000 0.0000 0.0000 0.0000 19.2805 0.0000
# 6 0.0000 0.0000 0.0000 0.0000 0.0000 -0.8607
#
#
#
# Elastic Compliance Matrix: (Units=1/GPa)
#
#
# Indices 1 2 3 4 5 6 
#
# 1 0.029861 -0.017330 0.000629 0.000000 0.000000 0.000000
# 2 -0.017330 0.029796 -0.003599 0.000000 0.000000 0.000000
# 3 0.000629 -0.003599 0.007803 0.000000 0.000000 0.000000
# 4 0.000000 0.000000 0.000000 -0.009458 0.000000 0.000000
# 5 0.000000 0.000000 0.000000 0.000000 0.051866 0.000000
# 6 0.000000 0.000000 0.000000 0.000000 0.000000 -1.161874
#
#
# Mechanical properties :
#
#
# Convention : Reuss Voigt Hill
#
# Bulk Modulus (GPa) = 37.22724 41.22762 39.22743
# Shear Modulus (GPa) = -4.98777 -5.49122 -5.23950
#
# Velocity S-wave (km/s) = -1.68164 -1.76447 -1.72356
# Velocity P-wave (km/s) = 4.16368 4.38449 4.27551
#
# Compressibility (1/GPa) = 0.02686205
#
# Stress axis : x y z
#
# Youngs Moduli (GPa) = 33.48832 33.56180 128.14869
#
# Poissons Ratio (x) = 0.58161 -0.08059
# Poissons Ratio (y) = 0.58034 0.46115
# Poissons Ratio (z) = -0.02106 0.12077
#
# Static dielectric constant tensor:
#      x y z
#    x 2.951630 0.000000 0.000000 
#    y 0.000000 2.836040 0.000000 
#    z 0.000000 0.000000 4.293200 
# 
# 
# High freq. dielectric constant tensor:
#      x y z
#    x 1.636370 0.000000 0.000000 
#    y 0.000000 1.635200 0.000000 
#    z 0.000000 0.000000 1.730640 
# 
# From -- ./inp_files/1549.got.cif
#   From: 2010.03.12/outbox.cif.g09.slc.cpg/sg54_1_cif.got.tgz:1549.got - 2010.04.16 15:00:50.
