data_PCOD8222338
_publ_section_title
;
Structure prediction by ZEFSAII (Michael W. Deem and Ramdas Pophale) SiO2 
 PCOD8222338
Probable space group: P C C A
;
_chemical_formula_sum "Si O2"
_cell_formula_units_Z 36
_cell_length_a 5.083680
_cell_length_b 21.651201
_cell_length_c 14.583281
_cell_angle_alpha 90.000000
_cell_angle_beta 90.000000
_cell_angle_gamma 90.000000
_cell_volume 1605.149328
_symmetry_space_group_name_H-M "P C C A"
_symmetry_group_IT_number 54
_symmetry_cell_setting 'orthorhombic'
loop_
_space_group_symop_operation_xyz
x,y,z
1/2-x,-y,z
1/2+x,-y,1/2-z
-x,y,1/2-z
-x,-y,-z
1/2+x,y,-z
1/2-x,y,1/2+z
x,-y,1/2+z
loop_
_atom_site_type_symbol
_atom_site_label
_atom_site_fract_x
_atom_site_fract_y
_atom_site_fract_z
Si Si1 0.958569 0.169839 0.560402
Si Si2 0.997118 0.027981 0.601607
Si Si3 0.250000 0.500000 0.310392
Si Si4 0.648202 0.385033 0.561066
Si Si5 0.240172 0.273147 0.808812
O O1 0.747442 0.182739 0.480120
O O2 0.887764 0.212525 0.646111
O O3 0.966479 0.101091 0.599529
O O4 0.250000 0.000000 0.653810
O O5 0.750000 0.000000 0.656120
O O6 0.000000 0.000000 0.500000
O O7 0.500000 0.481472 0.250000
O O8 0.323028 0.558257 0.371102
O O9 0.356215 0.388628 0.520692
O O10 0.675148 0.321021 0.613840
O O11 0.500000 0.256248 0.750000
O O12 0.000000 0.302525 0.750000
#
# Coordination Sequence:
#
# PCOD8222338 Si02
#       5
#     8   8   4   8   8
#     4  12  21  36  63  92 118 154 213 261 309 377
#     4  10  16  30  52  90 116 143 189 260 300 354
#     4  12  24  42  68 102 140 180 210 262 346 402
#     4  12  24  44  69  98 129 170 232 280 314 374
#     4  12  26  44  61  89 132 175 210 265 339 399
#
# _framework density 22.427817999999998
#
# number of rings (size 3 to 8) (size 9 to 14) (size 15 to 20)
#    0.000    0.444    4.444    7.333    0.000    0.000 
#    0.000    0.000    0.000    2.667    0.000    0.000 
#    0.000    0.000    0.000    0.000    0.000    0.000 
#
# Total GULP energy -446357.710039 kJ/mol
# GULP energy per Si atom -12398.825279 kJ/mol
# Density = 2.237677 g / cm^3
# Si number density = 22.427818 Si / 1000 Ang^3
#
#
#
# Elastic Constant Matrix: (Units=GPa)
#
#
# Indices 1 2 3 4 5 6 
#
# 1 139.0033 10.9663 18.5166 0.0000 0.0000 0.0000
# 2 10.9663 132.3488 35.9666 0.0000 0.0000 0.0000
# 3 18.5166 35.9666 74.2249 0.0000 0.0000 0.0000
# 4 0.0000 0.0000 0.0000 2.6228 0.0000 0.0000
# 5 0.0000 0.0000 0.0000 0.0000 18.9797 0.0000
# 6 0.0000 0.0000 0.0000 0.0000 0.0000 34.1358
#
#
#
# Elastic Compliance Matrix: (Units=1/GPa)
#
#
# Indices 1 2 3 4 5 6 
#
# 1 0.007443 -0.000129 -0.001794 0.000000 0.000000 0.000000
# 2 -0.000129 0.008704 -0.004185 0.000000 0.000000 0.000000
# 3 -0.001794 -0.004185 0.015948 0.000000 0.000000 0.000000
# 4 0.000000 0.000000 0.000000 0.381275 0.000000 0.000000
# 5 0.000000 0.000000 0.000000 0.000000 0.052688 0.000000
# 6 0.000000 0.000000 0.000000 0.000000 0.000000 0.029295
#
#
# Mechanical properties :
#
#
# Convention : Reuss Voigt Hill
#
# Bulk Modulus (GPa) = 50.30722 52.94179 51.62451
# Shear Modulus (GPa) = 9.72391 29.82282 19.77337
#
# Velocity S-wave (km/s) = 2.08448 3.65050 2.97247
# Velocity P-wave (km/s) = 5.31722 6.43621 5.90329
#
# Compressibility (1/GPa) = 0.01987786
#
# Stress axis : x y z
#
# Youngs Moduli (GPa) = 134.34941 114.89117 62.70283
#
# Poissons Ratio (x) = 0.01484 0.11251
# Poissons Ratio (y) = 0.01735 0.26243
# Poissons Ratio (z) = 0.24106 0.48086
#
# Static dielectric constant tensor:
#      x y z
#    x 4.100450 0.000000 0.000000 
#    y 0.000000 4.322860 0.000000 
#    z 0.000000 0.000000 3.831440 
# 
# 
# High freq. dielectric constant tensor:
#      x y z
#    x 1.917700 0.000000 0.000000 
#    y 0.000000 1.893030 0.000000 
#    z 0.000000 0.000000 1.871180 
# 
# From -- ./inp_files/10799.got.cif
#   From: 2010.03.12/outbox.cif.g09.slc.cpg/sg54_6_cif.got.tgz:10799.got - 2010.04.16 15:00:50.
