data_PCOD8222672
_publ_section_title
;
Structure prediction by ZEFSAII (Michael W. Deem and Ramdas Pophale) SiO2 
 PCOD8222672
Probable space group: P C C A
;
_chemical_formula_sum "Si O2"
_cell_formula_units_Z 48
_cell_length_a 12.565349
_cell_length_b 8.932059
_cell_length_c 21.172946
_cell_angle_alpha 90.000000
_cell_angle_beta 90.000000
_cell_angle_gamma 90.000000
_cell_volume 2376.333708
_symmetry_space_group_name_H-M "P C C A"
_symmetry_group_IT_number 54
_symmetry_cell_setting 'orthorhombic'
loop_
_space_group_symop_operation_xyz
x,y,z
1/2-x,-y,z
1/2+x,-y,1/2-z
-x,y,1/2-z
-x,-y,-z
1/2+x,y,-z
1/2-x,y,1/2+z
x,-y,1/2+z
loop_
_atom_site_type_symbol
_atom_site_label
_atom_site_fract_x
_atom_site_fract_y
_atom_site_fract_z
Si Si1 0.947870 0.799672 0.187251
Si Si2 0.142639 0.902578 0.835197
Si Si3 0.930502 0.174005 0.935805
Si Si4 0.232918 0.324430 0.112987
Si Si5 0.751385 0.324001 0.242493
Si Si6 0.974835 0.830801 0.932883
O O1 0.831729 0.729207 0.189472
O O2 0.000000 0.731216 0.250000
O O3 0.009059 0.752235 0.124033
O O4 0.942285 0.979403 0.192537
O O5 0.147389 0.768232 0.783663
O O6 0.089151 0.832412 0.897733
O O7 0.250000 0.000000 0.850582
O O8 0.810287 0.236911 0.935151
O O9 0.922447 0.994960 0.933567
O O10 0.997062 0.225874 0.996831
O O11 0.250000 0.500000 0.103598
O O12 0.264241 0.275668 0.184692
O O13 0.110313 0.282634 0.098265
O O14 0.750000 0.500000 0.236982
#
# Coordination Sequence:
#
# PCOD8222672 Si02
#       6
#     8   8   8   8   8   8
#     4  10  19  36  61  86 111 153 194 246 295 345
#     4   9  21  37  61  88 119 149 202 249 298 355
#     4  10  22  40  62  87 118 154 202 248 294 355
#     4  11  24  39  58  88 124 159 199 243 296 364
#     4  10  22  38  57  88 122 156 196 247 300 353
#     4  10  23  40  63  90 117 160 198 247 302 350
#
# _framework density 20.199183999999999
#
# number of rings (size 3 to 8) (size 9 to 14) (size 15 to 20)
#    0.000    2.000    1.667    0.500    4.667    8.667 
#    0.000    1.667    0.000    0.000    0.000    0.000 
#    0.000    0.000    0.000    0.000    0.000    0.000 
#
# Total GULP energy -594757.305876 kJ/mol
# GULP energy per Si atom -12390.777206 kJ/mol
# Density = 2.015321 g / cm^3
# Si number density = 20.199184 Si / 1000 Ang^3
#
#
#
# Elastic Constant Matrix: (Units=GPa)
#
#
# Indices 1 2 3 4 5 6 
#
# 1 88.3823 33.9406 51.6170 0.0000 0.0000 0.0000
# 2 33.9406 77.8312 42.8196 0.0000 0.0000 0.0000
# 3 51.6170 42.8196 127.7750 0.0000 0.0000 0.0000
# 4 0.0000 0.0000 0.0000 20.0968 0.0000 0.0000
# 5 0.0000 0.0000 0.0000 0.0000 34.1543 0.0000
# 6 0.0000 0.0000 0.0000 0.0000 0.0000 22.6149
#
#
#
# Elastic Compliance Matrix: (Units=1/GPa)
#
#
# Indices 1 2 3 4 5 6 
#
# 1 0.015831 -0.004150 -0.005004 0.000000 0.000000 0.000000
# 2 -0.004150 0.016841 -0.003967 0.000000 0.000000 0.000000
# 3 -0.005004 -0.003967 0.011177 0.000000 0.000000 0.000000
# 4 0.000000 0.000000 0.000000 0.049759 0.000000 0.000000
# 5 0.000000 0.000000 0.000000 0.000000 0.029279 0.000000
# 6 0.000000 0.000000 0.000000 0.000000 0.000000 0.044219
#
#
# Mechanical properties :
#
#
# Convention : Reuss Voigt Hill
#
# Bulk Modulus (GPa) = 56.80042 61.19365 58.99704
# Shear Modulus (GPa) = 25.09821 26.41396 25.75608
#
# Velocity S-wave (km/s) = 3.52879 3.62010 3.57474
# Velocity P-wave (km/s) = 6.69211 6.91624 6.80510
#
# Compressibility (1/GPa) = 0.01760550
#
# Stress axis : x y z
#
# Youngs Moduli (GPa) = 63.16741 59.37999 89.46733
#
# Poissons Ratio (x) = 0.24645 0.44773
# Poissons Ratio (y) = 0.26217 0.35492
# Poissons Ratio (z) = 0.31611 0.23556
#
# Static dielectric constant tensor:
#      x y z
#    x 3.730320 0.000000 0.000000 
#    y 0.000000 3.639360 0.000000 
#    z 0.000000 0.000000 3.789650 
# 
# 
# High freq. dielectric constant tensor:
#      x y z
#    x 1.789610 0.000000 0.000000 
#    y 0.000000 1.773570 0.000000 
#    z 0.000000 0.000000 1.787190 
# 
# From -- ./inp_files/24037.got.cif
#   From: 2010.03.12/outbox.cif.g09.slc.cpg/sg54_13_cif.got.tgz:24037.got - 2010.04.16 15:00:50.
