data_PCOD8222557
_publ_section_title
;
Structure prediction by ZEFSAII (Michael W. Deem and Ramdas Pophale) SiO2 
 PCOD8222557
Probable space group: P C C A
;
_chemical_formula_sum "Si O2"
_cell_formula_units_Z 64
_cell_length_a 32.234180
_cell_length_b 20.585094
_cell_length_c 5.123494
_cell_angle_alpha 90.000000
_cell_angle_beta 90.000000
_cell_angle_gamma 90.000000
_cell_volume 3399.661783
_symmetry_space_group_name_H-M "P C C A"
_symmetry_group_IT_number 54
_symmetry_cell_setting 'orthorhombic'
loop_
_space_group_symop_operation_xyz
x,y,z
1/2-x,-y,z
1/2+x,-y,1/2-z
-x,y,1/2-z
-x,-y,-z
1/2+x,y,-z
1/2-x,y,1/2+z
x,-y,1/2+z
loop_
_atom_site_type_symbol
_atom_site_label
_atom_site_fract_x
_atom_site_fract_y
_atom_site_fract_z
Si Si1 0.275303 0.623578 0.280945
Si Si2 0.546656 0.027675 0.045411
Si Si3 0.044460 0.300430 0.855451
Si Si4 0.723000 0.226078 0.680520
Si Si5 0.143784 0.542395 0.786113
Si Si6 0.580716 0.163538 0.166824
Si Si7 0.869770 0.198358 0.176796
Si Si8 0.910150 0.334024 0.147014
O O1 0.239155 0.608327 0.487702
O O2 0.288683 0.697986 0.318777
O O3 0.312673 0.576154 0.341020
O O4 0.550285 0.101828 0.138581
O O5 0.569220 0.983876 0.268374
O O6 0.500000 0.000000 0.000000
O O7 0.048931 0.222894 0.856415
O O8 0.077075 0.331419 0.654925
O O9 0.000000 0.321170 0.750000
O O10 0.051681 0.326721 0.148604
O O11 0.753099 0.206807 0.443618
O O12 0.679705 0.187244 0.652606
O O13 0.138866 0.514038 0.497416
O O14 0.108454 0.595750 0.809343
O O15 0.605613 0.165395 0.438348
O O16 0.614991 0.163726 0.939810
O O17 0.877982 0.275628 0.200323
#
# Coordination Sequence:
#
# PCOD8222557 Si02
#       8
#     8   8   8   8   8   8   8   8
#     4  10  21  35  52  76 110 145 181 222 270 339
#     4  10  21  36  53  79 121 168 184 217 252 318
#     4  10  21  36  61  82 105 137 180 241 273 337
#     4  10  19  32  54  81 112 150 181 224 298 344
#     4  12  24  37  57  77 104 145 188 229 274 353
#     4  10  21  34  56  86 113 152 198 219 269 314
#     4  10  19  36  56  79 115 147 187 248 266 330
#     4  10  21  39  54  79 108 138 180 230 300 324
#
# _framework density 18.825403000000001
#
# number of rings (size 3 to 8) (size 9 to 14) (size 15 to 20)
#    0.000    1.750    1.250    3.375    1.750    1.500 
#    4.500    0.000    0.000    7.500    0.000    0.000 
#    0.000   35.000    0.000    0.000    0.000    0.000 
#
# Total GULP energy -793420.774859 kJ/mol
# GULP energy per Si atom -12397.199607 kJ/mol
# Density = 1.878256 g / cm^3
# Si number density = 18.825403 Si / 1000 Ang^3
#
#
#
# Elastic Constant Matrix: (Units=GPa)
#
#
# Indices 1 2 3 4 5 6 
#
# 1 73.7900 32.2770 9.3314 0.0000 0.0000 0.0000
# 2 32.2770 57.8906 12.2847 0.0000 0.0000 0.0000
# 3 9.3314 12.2847 112.0184 0.0000 0.0000 0.0000
# 4 0.0000 0.0000 0.0000 22.8047 0.0000 0.0000
# 5 0.0000 0.0000 0.0000 0.0000 17.3582 0.0000
# 6 0.0000 0.0000 0.0000 0.0000 0.0000 27.1395
#
#
#
# Elastic Compliance Matrix: (Units=1/GPa)
#
#
# Indices 1 2 3 4 5 6 
#
# 1 0.017941 -0.009917 -0.000407 0.000000 0.000000 0.000000
# 2 -0.009917 0.023167 -0.001715 0.000000 0.000000 0.000000
# 3 -0.000407 -0.001715 0.009149 0.000000 0.000000 0.000000
# 4 0.000000 0.000000 0.000000 0.043851 0.000000 0.000000
# 5 0.000000 0.000000 0.000000 0.000000 0.057610 0.000000
# 6 0.000000 0.000000 0.000000 0.000000 0.000000 0.036847
#
#
# Mechanical properties :
#
#
# Convention : Reuss Voigt Hill
#
# Bulk Modulus (GPa) = 38.19637 39.05391 38.62514
# Shear Modulus (GPa) = 22.58687 26.11420 24.35053
#
# Velocity S-wave (km/s) = 3.46758 3.72853 3.60042
# Velocity P-wave (km/s) = 6.03042 6.27106 6.15192
#
# Compressibility (1/GPa) = 0.02618050
#
# Stress axis : x y z
#
# Youngs Moduli (GPa) = 55.73756 43.16497 109.30107
#
# Poissons Ratio (x) = 0.42806 0.04449
# Poissons Ratio (y) = 0.55274 0.18740
# Poissons Ratio (z) = 0.02269 0.07401
#
# Static dielectric constant tensor:
#      x y z
#    x 3.126120 0.000000 0.000000 
#    y 0.000000 3.222080 0.000000 
#    z 0.000000 0.000000 0.008090 
# 
# 
# High freq. dielectric constant tensor:
#      x y z
#    x 1.713200 0.000000 0.000000 
#    y 0.000000 1.702440 0.000000 
#    z 0.000000 0.000000 1.760460 
# 
# From -- ./inp_files/2242.got.cif
#   From: 2010.03.12/outbox.cif.g09.slc.cpg/sg54_2_cif.got.tgz:2242.got - 2010.04.16 15:00:50.
