data_PCOD8222397
_publ_section_title
;
Structure prediction by ZEFSAII (Michael W. Deem and Ramdas Pophale) SiO2 
 PCOD8222397
Probable space group: P C C A
;
_chemical_formula_sum "Si O2"
_cell_formula_units_Z 64
_cell_length_a 26.549023
_cell_length_b 13.575537
_cell_length_c 9.999652
_cell_angle_alpha 90.000000
_cell_angle_beta 90.000000
_cell_angle_gamma 90.000000
_cell_volume 3604.047015
_symmetry_space_group_name_H-M "P C C A"
_symmetry_group_IT_number 54
_symmetry_cell_setting 'orthorhombic'
loop_
_space_group_symop_operation_xyz
x,y,z
1/2-x,-y,z
1/2+x,-y,1/2-z
-x,y,1/2-z
-x,-y,-z
1/2+x,y,-z
1/2-x,y,1/2+z
x,-y,1/2+z
loop_
_atom_site_type_symbol
_atom_site_label
_atom_site_fract_x
_atom_site_fract_y
_atom_site_fract_z
Si Si1 0.042866 0.234909 0.859252
Si Si2 0.418446 0.522737 0.525134
Si Si3 0.744338 0.836627 0.405457
Si Si4 0.376372 0.399357 0.293339
Si Si5 0.206229 0.249805 0.838441
Si Si6 0.831762 0.989305 0.422373
Si Si7 0.123486 0.081801 0.833469
Si Si8 0.995608 0.646495 0.904486
O O1 0.081241 0.317803 0.812128
O O2 0.068937 0.127983 0.863298
O O3 0.000000 0.232017 0.750000
O O4 0.022301 0.260325 0.007299
O O5 0.383514 0.482363 0.406078
O O6 0.381783 0.558270 0.643779
O O7 0.455678 0.441875 0.587590
O O8 0.450867 0.612065 0.463835
O O9 0.733608 0.755046 0.518687
O O10 0.751776 0.772590 0.272630
O O11 0.698233 0.911575 0.383490
O O12 0.794061 0.898255 0.443263
O O13 0.320432 0.354615 0.312059
O O14 0.165243 0.165096 0.836932
O O15 0.863431 0.999827 0.557254
O O16 0.873900 0.969772 0.310288
O O17 0.000000 0.679713 0.750000
#
# Coordination Sequence:
#
# PCOD8222397 Si02
#       8
#     8   8   8   8   8   8   8   8
#     4  10  19  32  49  71 105 138 167 204 254 298
#     4  10  18  29  50  75 100 127 169 210 252 294
#     4   9  16  30  54  79  98 129 164 209 255 301
#     4  10  19  32  50  75 103 132 167 212 250 300
#     4   9  18  31  51  76 103 127 164 208 259 299
#     4   9  16  30  53  78 101 125 168 211 249 298
#     4   9  18  31  49  75 103 131 165 209 252 296
#     4  10  18  29  50  76  97 130 171 213 248 291
#
# _framework density 17.757815000000001
#
# number of rings (size 3 to 8) (size 9 to 14) (size 15 to 20)
#    0.000    2.500    2.500    0.750    0.000    3.000 
#    0.000    3.125    2.750    2.250    0.000    0.000 
#    0.000    0.000    0.000    0.000    0.000    0.000 
#
# Total GULP energy -793480.834241 kJ/mol
# GULP energy per Si atom -12398.138035 kJ/mol
# Density = 1.771740 g / cm^3
# Si number density = 17.757815 Si / 1000 Ang^3
#
#
#
# Elastic Constant Matrix: (Units=GPa)
#
#
# Indices 1 2 3 4 5 6 
#
# 1 58.6828 36.8133 47.9225 0.0000 0.0000 0.0000
# 2 36.8133 53.7628 45.3080 0.0000 0.0000 0.0000
# 3 47.9225 45.3080 149.2919 0.0000 0.0000 0.0000
# 4 0.0000 0.0000 0.0000 15.2345 0.0000 0.0000
# 5 0.0000 0.0000 0.0000 0.0000 14.1458 0.0000
# 6 0.0000 0.0000 0.0000 0.0000 0.0000 16.5360
#
#
#
# Elastic Compliance Matrix: (Units=1/GPa)
#
#
# Indices 1 2 3 4 5 6 
#
# 1 0.032357 -0.018009 -0.004921 0.000000 0.000000 0.000000
# 2 -0.018009 0.035015 -0.004846 0.000000 0.000000 0.000000
# 3 -0.004921 -0.004846 0.009749 0.000000 0.000000 0.000000
# 4 0.000000 0.000000 0.000000 0.065641 0.000000 0.000000
# 5 0.000000 0.000000 0.000000 0.000000 0.070692 0.000000
# 6 0.000000 0.000000 0.000000 0.000000 0.000000 0.060474
#
#
# Mechanical properties :
#
#
# Convention : Reuss Voigt Hill
#
# Bulk Modulus (GPa) = 46.36207 57.98055 52.17131
# Shear Modulus (GPa) = 14.85141 17.96284 16.40712
#
# Velocity S-wave (km/s) = 2.89508 3.18393 3.04293
# Velocity P-wave (km/s) = 6.11064 6.79986 6.46445
#
# Compressibility (1/GPa) = 0.02156936
#
# Stress axis : x y z
#
# Youngs Moduli (GPa) = 30.90541 28.55912 102.57865
#
# Poissons Ratio (x) = 0.51431 0.50480
# Poissons Ratio (y) = 0.55656 0.49708
# Poissons Ratio (z) = 0.15209 0.13839
#
# Static dielectric constant tensor:
#      x y z
#    x 3.224480 0.000000 0.000000 
#    y 0.000000 3.153700 0.000000 
#    z 0.000000 0.000000 3.452040 
# 
# 
# High freq. dielectric constant tensor:
#      x y z
#    x 1.662330 0.000000 0.000000 
#    y 0.000000 1.654930 0.000000 
#    z 0.000000 0.000000 1.701610 
# 
# From -- ./inp_files/6018.got.cif
#   From: 2010.03.12/outbox.cif.g09.slc.cpg/sg54_4_cif.got.tgz:6018.got - 2010.04.16 15:00:50.
