data_PCOD8222344
_publ_section_title
;
Structure prediction by ZEFSAII (Michael W. Deem and Ramdas Pophale) SiO2 
 PCOD8222344
Probable space group: P C C A
;
_chemical_formula_sum "Si O2"
_cell_formula_units_Z 60
_cell_length_a 27.527926
_cell_length_b 20.765063
_cell_length_c 5.295979
_cell_angle_alpha 90.000000
_cell_angle_beta 90.000000
_cell_angle_gamma 90.000000
_cell_volume 3027.282843
_symmetry_space_group_name_H-M "P C C A"
_symmetry_group_IT_number 54
_symmetry_cell_setting 'orthorhombic'
loop_
_space_group_symop_operation_xyz
x,y,z
1/2-x,-y,z
1/2+x,-y,1/2-z
-x,y,1/2-z
-x,-y,-z
1/2+x,y,-z
1/2-x,y,1/2+z
x,-y,1/2+z
loop_
_atom_site_type_symbol
_atom_site_label
_atom_site_fract_x
_atom_site_fract_y
_atom_site_fract_z
Si Si1 0.770155 0.268700 0.137957
Si Si2 0.409018 0.476425 0.792985
Si Si3 0.878574 0.762572 0.620380
Si Si4 0.378858 0.843763 0.884727
Si Si5 0.229396 0.875946 0.399677
Si Si6 0.000000 0.554825 0.250000
Si Si7 0.442629 0.963279 0.764643
Si Si8 0.049452 0.648307 0.875959
O O1 0.744740 0.304269 0.376946
O O2 0.827594 0.270848 0.185178
O O3 0.749261 0.196654 0.114497
O O4 0.380979 0.512958 0.562268
O O5 0.461499 0.508029 0.898053
O O6 0.417392 0.401538 0.710847
O O7 0.871362 0.801214 0.363150
O O8 0.919719 0.710762 0.557281
O O9 0.894592 0.804489 0.864324
O O10 0.328247 0.879513 0.939806
O O11 0.420880 0.893675 0.819342
O O12 0.254420 0.911286 0.640363
O O13 0.964041 0.604126 0.389166
O O14 0.500000 0.955022 0.750000
O O15 0.425185 0.990222 0.493268
O O16 0.000000 0.673002 0.750000
#
# Coordination Sequence:
#
# PCOD8222344 Si02
#       8
#     8   8   8   8   8   4   8   8
#     4  10  16  34  53  74 104 149 188 211 259 344
#     4  10  17  32  55  69  91 151 202 216 258 318
#     4  12  24  32  55  88 117 149 176 225 290 345
#     4  12  22  38  59  87 111 146 184 224 285 340
#     4  10  16  31  57  80 103 146 180 209 265 347
#     4  10  18  36  54  68 102 168 192 218 266 324
#     4  10  23  44  67  82 104 147 199 236 256 312
#     4  11  22  34  48  77 120 149 184 232 270 320
#
# _framework density 19.819752999999999
#
# number of rings (size 3 to 8) (size 9 to 14) (size 15 to 20)
#    0.000    1.333    7.333    1.600    1.867    1.067 
#    0.000    0.000    0.000    2.400    0.000    0.000 
#    0.000   12.800    0.000    0.000    0.000    0.000 
#
# Total GULP energy -743373.307669 kJ/mol
# GULP energy per Si atom -12389.555128 kJ/mol
# Density = 1.977464 g / cm^3
# Si number density = 19.819753 Si / 1000 Ang^3
#
#
#
# Elastic Constant Matrix: (Units=GPa)
#
#
# Indices 1 2 3 4 5 6 
#
# 1 42.7604 30.4340 18.6735 0.0000 0.0000 0.0000
# 2 30.4340 52.0366 22.9697 0.0000 0.0000 0.0000
# 3 18.6735 22.9697 148.9854 0.0000 0.0000 0.0000
# 4 0.0000 0.0000 0.0000 -28.9817 0.0000 0.0000
# 5 0.0000 0.0000 0.0000 0.0000 20.0579 0.0000
# 6 0.0000 0.0000 0.0000 0.0000 0.0000 33.6617
#
#
#
# Elastic Compliance Matrix: (Units=1/GPa)
#
#
# Indices 1 2 3 4 5 6 
#
# 1 0.040383 -0.022946 -0.001524 0.000000 0.000000 0.000000
# 2 -0.022946 0.033658 -0.002313 0.000000 0.000000 0.000000
# 3 -0.001524 -0.002313 0.007260 0.000000 0.000000 0.000000
# 4 0.000000 0.000000 0.000000 -0.034505 0.000000 0.000000
# 5 0.000000 0.000000 0.000000 0.000000 0.049856 0.000000
# 6 0.000000 0.000000 0.000000 0.000000 0.000000 0.029707
#
#
# Mechanical properties :
#
#
# Convention : Reuss Voigt Hill
#
# Bulk Modulus (GPa) = 36.05510 43.10411 39.57961
# Shear Modulus (GPa) = 26.43127 16.39457 21.41292
#
# Velocity S-wave (km/s) = 3.65579 2.87920 3.29048
# Velocity P-wave (km/s) = 6.00422 5.73135 5.86937
#
# Compressibility (1/GPa) = 0.02773532
#
# Stress axis : x y z
#
# Youngs Moduli (GPa) = 24.76305 29.71041 137.74640
#
# Poissons Ratio (x) = 0.68172 0.20991
# Poissons Ratio (y) = 0.56820 0.31865
# Poissons Ratio (z) = 0.03774 0.06873
#
# Static dielectric constant tensor:
#      x y z
#    x 3.352390 0.000000 0.000000 
#    y 0.000000 3.183120 0.000000 
#    z 0.000000 0.000000 0.244320 
# 
# 
# High freq. dielectric constant tensor:
#      x y z
#    x 1.742360 0.000000 0.000000 
#    y 0.000000 1.723670 0.000000 
#    z 0.000000 0.000000 1.808690 
# 
# From -- ./inp_files/1990.got.cif
#   From: 2010.03.12/outbox.cif.g09.slc.cpg/sg54_1_cif.got.tgz:1990.got - 2010.04.16 15:00:50.
