data_PCOD8222141
_publ_section_title
;
Structure prediction by ZEFSAII (Michael W. Deem and Ramdas Pophale) SiO2 
 PCOD8222141
Probable space group: P M N A
;
_chemical_formula_sum "Si O2"
_cell_formula_units_Z 32
_cell_length_a 15.018190
_cell_length_b 10.612908
_cell_length_c 8.788900
_cell_angle_alpha 90.000000
_cell_angle_beta 90.000000
_cell_angle_gamma 90.000000
_cell_volume 1400.833493
_symmetry_space_group_name_H-M "P M N A"
_symmetry_group_IT_number 53
_symmetry_cell_setting 'orthorhombic'
loop_
_space_group_symop_operation_xyz
x,y,z
1/2-x,-y,1/2+z
x,-y,-z
1/2-x,y,1/2-z
-x,-y,-z
1/2+x,y,1/2-z
-x,y,z
1/2+x,-y,1/2+z
loop_
_atom_site_type_symbol
_atom_site_label
_atom_site_fract_x
_atom_site_fract_y
_atom_site_fract_z
Si Si1 0.146728 0.086954 0.773317
Si Si2 0.000000 0.854319 0.450661
Si Si3 0.665387 0.427306 0.342531
Si Si4 0.500000 0.403490 0.134454
Si Si5 0.102284 0.833368 0.891209
O O1 0.250000 0.120159 0.750000
O O2 0.089611 0.164111 0.649822
O O3 0.128949 0.936258 0.762348
O O4 0.110680 0.117562 0.938935
O O5 0.000000 0.744822 0.579917
O O6 0.000000 0.000000 0.500000
O O7 0.652998 0.500000 0.500000
O O8 0.750000 0.478021 0.250000
O O9 0.583258 0.444811 0.232671
O O10 0.672676 0.279162 0.377603
O O11 0.500000 0.500000 0.000000
O O12 0.000000 0.787915 0.863204
#
# Coordination Sequence:
#
# PCOD8222141 Si02
#       5
#     8   4   8   4   8
#     4  11  24  40  69 104 143 189 241 307 372 440
#     4  12  26  43  68 105 152 189 251 305 367 443
#     4  12  28  49  75 103 144 190 248 307 371 444
#     4  12  29  48  74 109 149 195 249 300 371 445
#     4  11  22  45  70  99 141 189 246 299 379 438
#
# _framework density 22.843540000000001
#
# number of rings (size 3 to 8) (size 9 to 14) (size 15 to 20)
#    0.000    0.500    3.750    4.125   10.500    1.000 
#    0.000    0.000    0.000    0.000    0.000    0.000 
#    0.000    0.000    0.000    0.000    0.000    0.000 
#
# Total GULP energy -396690.435300 kJ/mol
# GULP energy per Si atom -12396.576103 kJ/mol
# Density = 2.279155 g / cm^3
# Si number density = 22.843540 Si / 1000 Ang^3
#
#
#
# Elastic Constant Matrix: (Units=GPa)
#
#
# Indices 1 2 3 4 5 6 
#
# 1 191.2632 30.6143 75.7549 0.0000 0.0000 0.0000
# 2 30.6143 100.6406 52.7463 0.0000 0.0000 0.0000
# 3 75.7549 52.7463 145.9071 0.0000 0.0000 0.0000
# 4 0.0000 0.0000 0.0000 27.2805 0.0000 0.0000
# 5 0.0000 0.0000 0.0000 0.0000 34.1900 0.0000
# 6 0.0000 0.0000 0.0000 0.0000 0.0000 35.2707
#
#
#
# Elastic Compliance Matrix: (Units=1/GPa)
#
#
# Indices 1 2 3 4 5 6 
#
# 1 0.006587 -0.000261 -0.003326 0.000000 0.000000 0.000000
# 2 -0.000261 0.012269 -0.004300 0.000000 0.000000 0.000000
# 3 -0.003326 -0.004300 0.010135 0.000000 0.000000 0.000000
# 4 0.000000 0.000000 0.000000 0.036656 0.000000 0.000000
# 5 0.000000 0.000000 0.000000 0.000000 0.029248 0.000000
# 6 0.000000 0.000000 0.000000 0.000000 0.000000 0.028352
#
#
# Mechanical properties :
#
#
# Convention : Reuss Voigt Hill
#
# Bulk Modulus (GPa) = 75.65258 84.00467 79.82862
# Shear Modulus (GPa) = 34.86066 37.92792 36.39429
#
# Velocity S-wave (km/s) = 3.91072 4.07914 3.99582
# Velocity P-wave (km/s) = 7.31992 7.68372 7.50403
#
# Compressibility (1/GPa) = 0.01321832
#
# Stress axis : x y z
#
# Youngs Moduli (GPa) = 151.80351 81.50386 98.66782
#
# Poissons Ratio (x) = 0.02125 0.32816
# Poissons Ratio (y) = 0.03958 0.42428
# Poissons Ratio (z) = 0.50489 0.35047
#
# Static dielectric constant tensor:
#      x y z
#    x 4.168870 0.000000 0.000000 
#    y 0.000000 4.363040 0.000000 
#    z 0.000000 0.000000 4.264090 
# 
# 
# High freq. dielectric constant tensor:
#      x y z
#    x 1.906740 0.000000 0.000000 
#    y 0.000000 1.896220 0.000000 
#    z 0.000000 0.000000 1.921650 
# 
# From -- ./inp_files/8174.got.cif
#   From: 2010.03.12/outbox.cif.g09.slc.cpg/sg53_5_cif.got.tgz:8174.got - 2010.04.16 14:36:59.
