data_PCOD8222420
_publ_section_title
;
Structure prediction by ZEFSAII (Michael W. Deem and Ramdas Pophale) SiO2 
 PCOD8222420
Probable space group: P C C A
;
_chemical_formula_sum "Si O2"
_cell_formula_units_Z 40
_cell_length_a 8.015093
_cell_length_b 13.092431
_cell_length_c 18.907258
_cell_angle_alpha 90.000000
_cell_angle_beta 90.000000
_cell_angle_gamma 90.000000
_cell_volume 1984.071917
_symmetry_space_group_name_H-M "P C C A"
_symmetry_group_IT_number 54
_symmetry_cell_setting 'orthorhombic'
loop_
_space_group_symop_operation_xyz
x,y,z
1/2-x,-y,z
1/2+x,-y,1/2-z
-x,y,1/2-z
-x,-y,-z
1/2+x,y,-z
1/2-x,y,1/2+z
x,-y,1/2+z
loop_
_atom_site_type_symbol
_atom_site_label
_atom_site_fract_x
_atom_site_fract_y
_atom_site_fract_z
Si Si1 0.500000 0.577943 0.250000
Si Si2 0.250000 0.500000 0.146758
Si Si3 0.801391 0.116923 0.446244
Si Si4 0.875303 0.709654 0.359367
Si Si5 0.274322 0.720498 0.801233
Si Si6 0.183657 0.110751 0.403248
O O1 0.409140 0.502139 0.197298
O O2 0.622404 0.640846 0.198193
O O3 0.280681 0.391651 0.106566
O O4 0.675643 0.192297 0.404976
O O5 0.789639 0.148172 0.528732
O O6 0.990118 0.123322 0.421577
O O7 0.750000 0.000000 0.434885
O O8 0.817718 0.735405 0.280384
O O9 0.073460 0.688224 0.353551
O O10 0.209816 0.826357 0.832171
O O11 0.250000 0.000000 0.382712
#
# Coordination Sequence:
#
# PCOD8222420 Si02
#       6
#     4   4   8   8   8   8
#     4  10  18  32  54  80 112 144 182 228 274 330
#     4  10  18  32  54  80 110 146 184 222 274 324
#     4  11  22  38  58  82 111 146 184 226 277 332
#     4  10  21  36  57  82 113 145 185 231 272 325
#     4  10  20  35  55  83 111 145 183 228 277 323
#     4  11  21  36  58  81 110 146 185 226 276 334
#
# _framework density 20.16056
#
# number of rings (size 3 to 8) (size 9 to 14) (size 15 to 20)
#    0.000    1.600    0.000    9.600    0.000    0.800 
#    0.000    2.000    0.000   15.600    0.000    0.000 
#    0.000    0.000    0.000    0.000    0.000    0.000 
#
# Total GULP energy -495525.539582 kJ/mol
# GULP energy per Si atom -12388.138490 kJ/mol
# Density = 2.011467 g / cm^3
# Si number density = 20.160560 Si / 1000 Ang^3
#
#
#
# Elastic Constant Matrix: (Units=GPa)
#
#
# Indices 1 2 3 4 5 6 
#
# 1 111.8049 27.6671 9.9313 0.0000 0.0000 0.0000
# 2 27.6671 110.2147 45.9583 0.0000 0.0000 0.0000
# 3 9.9313 45.9583 47.1338 0.0000 0.0000 0.0000
# 4 0.0000 0.0000 0.0000 -1.3453 0.0000 0.0000
# 5 0.0000 0.0000 0.0000 0.0000 25.8079 0.0000
# 6 0.0000 0.0000 0.0000 0.0000 0.0000 36.2117
#
#
#
# Elastic Compliance Matrix: (Units=1/GPa)
#
#
# Indices 1 2 3 4 5 6 
#
# 1 0.009545 -0.002625 0.000548 0.000000 0.000000 0.000000
# 2 -0.002625 0.016012 -0.015059 0.000000 0.000000 0.000000
# 3 0.000548 -0.015059 0.035784 0.000000 0.000000 0.000000
# 4 0.000000 0.000000 0.000000 -0.743336 0.000000 0.000000
# 5 0.000000 0.000000 0.000000 0.000000 0.038748 0.000000
# 6 0.000000 0.000000 0.000000 0.000000 0.000000 0.027615
#
#
# Mechanical properties :
#
#
# Convention : Reuss Voigt Hill
#
# Bulk Modulus (GPa) = 36.94236 48.47408 42.70822
# Shear Modulus (GPa) = -8.73611 24.50798 7.88594
#
# Velocity S-wave (km/s) = -2.08391 3.49039 1.97991
# Velocity P-wave (km/s) = 3.54593 6.35137 5.14362
#
# Compressibility (1/GPa) = 0.02706920
#
# Stress axis : x y z
#
# Youngs Moduli (GPa) = 104.76751 62.45493 27.94517
#
# Poissons Ratio (x) = 0.16391 -0.01531
# Poissons Ratio (y) = 0.27496 0.42083
# Poissons Ratio (z) = -0.05740 0.94052
#
# Static dielectric constant tensor:
#      x y z
#    x 4.433880 0.000000 0.000000 
#    y 0.000000 3.821360 0.000000 
#    z 0.000000 0.000000 3.449940 
# 
# 
# High freq. dielectric constant tensor:
#      x y z
#    x 1.813930 0.000000 0.000000 
#    y 0.000000 1.794200 0.000000 
#    z 0.000000 0.000000 1.752540 
# 
# From -- ./inp_files/16350.got.cif
#   From: 2010.03.12/outbox.cif.g09.slc.cpg/sg54_9_cif.got.tgz:16350.got - 2010.04.16 15:00:50.
