data_PCOD8222903
_publ_section_title
;
Structure prediction by ZEFSAII (Michael W. Deem and Ramdas Pophale) SiO2 
 PCOD8222903
Probable space group: P C C A
;
_chemical_formula_sum "Si O2"
_cell_formula_units_Z 48
_cell_length_a 15.631177
_cell_length_b 9.182777
_cell_length_c 17.588200
_cell_angle_alpha 90.000000
_cell_angle_beta 90.000000
_cell_angle_gamma 90.000000
_cell_volume 2524.568239
_symmetry_space_group_name_H-M "P C C A"
_symmetry_group_IT_number 54
_symmetry_cell_setting 'orthorhombic'
loop_
_space_group_symop_operation_xyz
x,y,z
1/2-x,-y,z
1/2+x,-y,1/2-z
-x,y,1/2-z
-x,-y,-z
1/2+x,y,-z
1/2-x,y,1/2+z
x,-y,1/2+z
loop_
_atom_site_type_symbol
_atom_site_label
_atom_site_fract_x
_atom_site_fract_y
_atom_site_fract_z
Si Si1 0.918558 0.181083 0.971853
Si Si2 0.914487 0.817613 0.290760
Si Si3 0.744783 0.664151 0.724111
Si Si4 0.240294 0.334579 0.454421
Si Si5 0.167200 0.901851 0.683343
Si Si6 0.604959 0.153280 0.977684
O O1 0.914743 0.205178 0.881349
O O2 0.895755 0.017579 0.998298
O O3 0.849132 0.283491 0.010650
O O4 0.013507 0.223893 0.000618
O O5 0.847668 0.717075 0.248166
O O6 0.000000 0.769679 0.250000
O O7 0.896594 0.988040 0.273536
O O8 0.750000 0.500000 0.754580
O O9 0.763656 0.673106 0.635652
O O10 0.814878 0.767480 0.762215
O O11 0.250000 0.500000 0.483037
O O12 0.319670 0.234693 0.478394
O O13 0.122147 0.829160 0.611309
O O14 0.250000 0.000000 0.659037
#
# Coordination Sequence:
#
# PCOD8222903 Si02
#       6
#     8   8   8   8   8   8
#     4  10  22  37  60  88 111 144 189 231 279 335
#     4  10  20  37  59  84 111 143 185 231 278 329
#     4  10  22  38  55  79 112 152 189 224 276 333
#     4  11  23  38  56  82 117 152 188 230 277 332
#     4   9  19  35  57  82 109 145 187 228 277 336
#     4  10  20  37  59  85 113 142 183 236 283 331
#
# _framework density 19.013154
#
# number of rings (size 3 to 8) (size 9 to 14) (size 15 to 20)
#    0.000    2.000    0.000    4.500    0.000   11.333 
#    0.000    4.167    0.000    0.000    0.000    0.000 
#    0.000    0.000    0.000    0.000    0.000    0.000 
#
# Total GULP energy -595108.558796 kJ/mol
# GULP energy per Si atom -12398.094975 kJ/mol
# Density = 1.896988 g / cm^3
# Si number density = 19.013154 Si / 1000 Ang^3
#
#
#
# Elastic Constant Matrix: (Units=GPa)
#
#
# Indices 1 2 3 4 5 6 
#
# 1 104.7305 36.1128 56.6829 0.0000 0.0000 0.0000
# 2 36.1128 100.2983 59.5828 0.0000 0.0000 0.0000
# 3 56.6829 59.5828 87.4070 0.0000 0.0000 0.0000
# 4 0.0000 0.0000 0.0000 28.6809 0.0000 0.0000
# 5 0.0000 0.0000 0.0000 0.0000 40.9262 0.0000
# 6 0.0000 0.0000 0.0000 0.0000 0.0000 17.0354
#
#
#
# Elastic Compliance Matrix: (Units=1/GPa)
#
#
# Indices 1 2 3 4 5 6 
#
# 1 0.014735 0.000624 -0.009981 0.000000 0.000000 0.000000
# 2 0.000624 0.016782 -0.011844 0.000000 0.000000 0.000000
# 3 -0.009981 -0.011844 0.025987 0.000000 0.000000 0.000000
# 4 0.000000 0.000000 0.000000 0.034866 0.000000 0.000000
# 5 0.000000 0.000000 0.000000 0.000000 0.024434 0.000000
# 6 0.000000 0.000000 0.000000 0.000000 0.000000 0.058701
#
#
# Mechanical properties :
#
#
# Convention : Reuss Voigt Hill
#
# Bulk Modulus (GPa) = 66.21863 66.35475 66.28669
# Shear Modulus (GPa) = 22.42734 26.66566 24.54650
#
# Velocity S-wave (km/s) = 3.43821 3.74904 3.59698
# Velocity P-wave (km/s) = 7.11795 7.32909 7.22429
#
# Compressibility (1/GPa) = 0.01510149
#
# Stress axis : x y z
#
# Youngs Moduli (GPa) = 67.86498 59.58853 38.48073
#
# Poissons Ratio (x) = -0.03717 0.38407
# Poissons Ratio (y) = -0.04233 0.45577
# Poissons Ratio (z) = 0.67735 0.70577
#
# Static dielectric constant tensor:
#      x y z
#    x 3.620780 0.000000 0.000000 
#    y 0.000000 3.634670 0.000000 
#    z 0.000000 0.000000 3.450310 
# 
# 
# High freq. dielectric constant tensor:
#      x y z
#    x 1.748200 0.000000 0.000000 
#    y 0.000000 1.735530 0.000000 
#    z 0.000000 0.000000 1.743790 
# 
# From -- ./inp_files/17996.got.cif
#   From: 2010.03.12/outbox.cif.g09.slc.cpg/sg54_9_cif.got.tgz:17996.got - 2010.04.16 15:00:50.
