data_PCOD8222100
_publ_section_title
;
Structure prediction by ZEFSAII (Michael W. Deem and Ramdas Pophale) SiO2 
 PCOD8222100
Probable space group: P M N A
;
_chemical_formula_sum "Si O2"
_cell_formula_units_Z 48
_cell_length_a 8.848519
_cell_length_b 19.078630
_cell_length_c 14.229039
_cell_angle_alpha 90.000000
_cell_angle_beta 90.000000
_cell_angle_gamma 90.000000
_cell_volume 2402.112500
_symmetry_space_group_name_H-M "P M N A"
_symmetry_group_IT_number 53
_symmetry_cell_setting 'orthorhombic'
loop_
_space_group_symop_operation_xyz
x,y,z
1/2-x,-y,1/2+z
x,-y,-z
1/2-x,y,1/2-z
-x,-y,-z
1/2+x,y,1/2-z
-x,y,z
1/2+x,-y,1/2+z
loop_
_atom_site_type_symbol
_atom_site_label
_atom_site_fract_x
_atom_site_fract_y
_atom_site_fract_z
Si Si1 0.321908 0.389988 0.973107
Si Si2 0.676962 0.479728 0.149772
Si Si3 0.678753 0.755020 0.489541
Si Si4 0.321028 0.834555 0.852491
Si Si5 0.824605 0.125405 0.850728
Si Si6 0.176755 0.971769 0.851392
O O1 0.500000 0.374470 0.969896
O O2 0.274830 0.419990 0.075318
O O3 0.227531 0.320447 0.951212
O O4 0.275092 0.444917 0.892056
O O5 0.750000 0.464716 0.250000
O O6 0.500000 0.477823 0.164279
O O7 0.500000 0.758778 0.503669
O O8 0.762518 0.768495 0.588157
O O9 0.739388 0.814115 0.417801
O O10 0.250000 0.828085 0.750000
O O11 0.500000 0.834172 0.846297
O O12 0.261242 0.906839 0.902389
O O13 0.750000 0.132183 0.750000
O O14 0.798274 0.048260 0.899174
O O15 0.000000 0.137352 0.833525
O O16 0.250000 0.978654 0.750000
O O17 0.000000 0.953223 0.844355
#
# Coordination Sequence:
#
# PCOD8222100 Si02
#       6
#     8   8   8   8   8   8
#     4   9  20  39  57  80 114 148 178 218 267 321
#     4   9  19  37  62  86 111 142 179 218 265 320
#     4  11  23  38  55  81 114 149 185 225 272 326
#     4  11  22  37  56  79 107 143 185 232 281 332
#     4   9  20  36  55  78 108 145 186 230 279 328
#     4   9  16  31  53  76 103 138 181 232 280 326
#
# _framework density 19.982413000000001
#
# number of rings (size 3 to 8) (size 9 to 14) (size 15 to 20)
#    0.000    2.333    0.000    4.500    0.000    5.333 
#    0.000   10.000    0.000    0.000    0.000    0.000 
#    0.000    0.000    0.000    0.000    0.000    0.000 
#
# Total GULP energy -595011.221732 kJ/mol
# GULP energy per Si atom -12396.067119 kJ/mol
# Density = 1.993693 g / cm^3
# Si number density = 19.982413 Si / 1000 Ang^3
#
#
#
# Elastic Constant Matrix: (Units=GPa)
#
#
# Indices 1 2 3 4 5 6 
#
# 1 82.3143 23.0344 10.9821 0.0000 0.0000 0.0000
# 2 23.0344 87.3141 -0.2956 0.0000 0.0000 0.0000
# 3 10.9821 -0.2956 44.4696 0.0000 0.0000 0.0000
# 4 0.0000 0.0000 0.0000 25.0258 0.0000 0.0000
# 5 0.0000 0.0000 0.0000 0.0000 20.5284 0.0000
# 6 0.0000 0.0000 0.0000 0.0000 0.0000 36.1727
#
#
#
# Elastic Compliance Matrix: (Units=1/GPa)
#
#
# Indices 1 2 3 4 5 6 
#
# 1 0.013608 -0.003601 -0.003385 0.000000 0.000000 0.000000
# 2 -0.003601 0.012406 0.000972 0.000000 0.000000 0.000000
# 3 -0.003385 0.000972 0.023330 0.000000 0.000000 0.000000
# 4 0.000000 0.000000 0.000000 0.039959 0.000000 0.000000
# 5 0.000000 0.000000 0.000000 0.000000 0.048713 0.000000
# 6 0.000000 0.000000 0.000000 0.000000 0.000000 0.027645
#
#
# Mechanical properties :
#
#
# Convention : Reuss Voigt Hill
#
# Bulk Modulus (GPa) = 26.79838 31.28220 29.04029
# Shear Modulus (GPa) = 26.29818 28.37053 27.33436
#
# Velocity S-wave (km/s) = 3.63170 3.77208 3.70255
# Velocity P-wave (km/s) = 5.57008 5.88730 5.73088
#
# Compressibility (1/GPa) = 0.03731569
#
# Stress axis : x y z
#
# Youngs Moduli (GPa) = 73.48670 80.60438 42.86408
#
# Poissons Ratio (x) = 0.29029 0.14507
# Poissons Ratio (y) = 0.26465 -0.04166
# Poissons Ratio (z) = 0.24872 -0.07834
#
# Static dielectric constant tensor:
#      x y z
#    x 3.623770 0.000000 0.000000 
#    y 0.000000 3.996470 0.000000 
#    z 0.000000 0.000000 4.421300 
# 
# 
# High freq. dielectric constant tensor:
#      x y z
#    x 1.776910 0.000000 0.000000 
#    y 0.000000 1.787480 0.000000 
#    z 0.000000 0.000000 1.768660 
# 
# From -- ./inp_files/20190.got.cif
#   From: 2010.03.12/outbox.cif.g09.slc.cpg/sg53_11_cif.got.tgz:20190.got - 2010.04.16 14:36:59.
