data_PCOD8222137
_publ_section_title
;
Structure prediction by ZEFSAII (Michael W. Deem and Ramdas Pophale) SiO2 
 PCOD8222137
Probable space group: P M N A
;
_chemical_formula_sum "Si O2"
_cell_formula_units_Z 40
_cell_length_a 12.687804
_cell_length_b 8.763160
_cell_length_c 18.231816
_cell_angle_alpha 90.000000
_cell_angle_beta 90.000000
_cell_angle_gamma 90.000000
_cell_volume 2027.109138
_symmetry_space_group_name_H-M "P M N A"
_symmetry_group_IT_number 53
_symmetry_cell_setting 'orthorhombic'
loop_
_space_group_symop_operation_xyz
x,y,z
1/2-x,-y,1/2+z
x,-y,-z
1/2-x,y,1/2-z
-x,-y,-z
1/2+x,y,1/2-z
-x,y,z
1/2+x,-y,1/2+z
loop_
_atom_site_type_symbol
_atom_site_label
_atom_site_fract_x
_atom_site_fract_y
_atom_site_fract_z
Si Si1 0.616236 0.134987 0.908524
Si Si2 0.000000 0.790113 0.944531
Si Si3 0.195177 0.419659 0.078644
Si Si4 0.298726 0.293898 0.669700
Si Si5 0.500000 0.129901 0.612600
Si Si6 0.116566 0.799714 0.579024
O O1 0.500000 0.175549 0.877128
O O2 0.702824 0.250786 0.881893
O O3 0.645547 0.962015 0.883098
O O4 0.616002 0.157950 0.994557
O O5 0.896188 0.703926 0.919853
O O6 0.000000 0.949893 0.901980
O O7 0.000000 0.793222 0.032748
O O8 0.167345 0.537887 0.143434
O O9 0.303249 0.334005 0.099378
O O10 0.203786 0.500000 0.000000
O O11 0.250000 0.291866 0.750000
O O12 0.397307 0.179133 0.659525
O O13 0.000000 0.744634 0.603785
#
# Coordination Sequence:
#
# PCOD8222137 Si02
#       6
#     8   4   8   8   4   8
#     4   9  18  36  60  88 116 154 203 253 293 359
#     4  11  22  41  74  97 118 152 224 282 314 356
#     4  12  21  37  61  95 127 161 203 264 319 369
#     4  12  26  40  60  89 129 167 202 253 325 389
#     4  11  23  44  69  98 118 162 219 271 314 372
#     4   9  18  34  60  90 119 151 202 251 298 353
#
# _framework density 19.732533
#
# number of rings (size 3 to 8) (size 9 to 14) (size 15 to 20)
#    0.000    1.400    4.000    3.300    1.400    4.400 
#    0.000    4.000    0.000    0.000    0.000    0.000 
#    0.000    0.000    0.000    0.000    0.000    0.000 
#
# Total GULP energy -495826.712544 kJ/mol
# GULP energy per Si atom -12395.667814 kJ/mol
# Density = 1.968762 g / cm^3
# Si number density = 19.732533 Si / 1000 Ang^3
#
#
#
# Elastic Constant Matrix: (Units=GPa)
#
#
# Indices 1 2 3 4 5 6 
#
# 1 129.3461 60.6816 30.1277 0.0000 0.0000 0.0000
# 2 60.6816 105.1473 30.1896 0.0000 0.0000 0.0000
# 3 30.1277 30.1896 64.0945 0.0000 0.0000 0.0000
# 4 0.0000 0.0000 0.0000 7.1543 0.0000 0.0000
# 5 0.0000 0.0000 0.0000 0.0000 -191.5265 0.0000
# 6 0.0000 0.0000 0.0000 0.0000 0.0000 47.4872
#
#
#
# Elastic Compliance Matrix: (Units=1/GPa)
#
#
# Indices 1 2 3 4 5 6 
#
# 1 0.010939 -0.005593 -0.002508 0.000000 0.000000 0.000000
# 2 -0.005593 0.013858 -0.003898 0.000000 0.000000 0.000000
# 3 -0.002508 -0.003898 0.018617 0.000000 0.000000 0.000000
# 4 0.000000 0.000000 0.000000 0.139777 0.000000 0.000000
# 5 0.000000 0.000000 0.000000 0.000000 -0.005221 0.000000
# 6 0.000000 0.000000 0.000000 0.000000 0.000000 0.021058
#
#
# Mechanical properties :
#
#
# Convention : Reuss Voigt Hill
#
# Bulk Modulus (GPa) = 51.50408 60.06507 55.78457
# Shear Modulus (GPa) = 21.78679 -15.53774 3.12452
#
# Velocity S-wave (km/s) = 3.32641 -2.80914 1.25971
# Velocity P-wave (km/s) = 6.39618 4.47035 5.51793
#
# Compressibility (1/GPa) = 0.01941594
#
# Stress axis : x y z
#
# Youngs Moduli (GPa) = 91.41391 72.16271 53.71535
#
# Poissons Ratio (x) = 0.40362 0.13469
# Poissons Ratio (y) = 0.51130 0.20939
# Poissons Ratio (z) = 0.22922 0.28129
#
# Static dielectric constant tensor:
#      x y z
#    x 3.030950 0.000000 0.000000 
#    y 0.000000 3.931880 0.000000 
#    z 0.000000 0.000000 3.059700 
# 
# 
# High freq. dielectric constant tensor:
#      x y z
#    x 1.789240 0.000000 0.000000 
#    y 0.000000 1.779770 0.000000 
#    z 0.000000 0.000000 1.724940 
# 
# From -- ./inp_files/27408.got.cif
#   From: 2010.03.12/outbox.cif.g09.slc.cpg/sg53_14_cif.got.tgz:27408.got - 2010.04.16 14:36:59.
