data_PCOD8222640
_publ_section_title
;
Structure prediction by ZEFSAII (Michael W. Deem and Ramdas Pophale) SiO2 
 PCOD8222640
Probable space group: P C C A
;
_chemical_formula_sum "Si O2"
_cell_formula_units_Z 64
_cell_length_a 15.822311
_cell_length_b 9.395888
_cell_length_c 22.432569
_cell_angle_alpha 90.000000
_cell_angle_beta 90.000000
_cell_angle_gamma 90.000000
_cell_volume 3334.930289
_symmetry_space_group_name_H-M "P C C A"
_symmetry_group_IT_number 54
_symmetry_cell_setting 'orthorhombic'
loop_
_space_group_symop_operation_xyz
x,y,z
1/2-x,-y,z
1/2+x,-y,1/2-z
-x,y,1/2-z
-x,-y,-z
1/2+x,y,-z
1/2-x,y,1/2+z
x,-y,1/2+z
loop_
_atom_site_type_symbol
_atom_site_label
_atom_site_fract_x
_atom_site_fract_y
_atom_site_fract_z
Si Si1 0.463255 0.653416 0.011271
Si Si2 0.908672 0.836013 0.725083
Si Si3 0.595641 0.170527 0.229960
Si Si4 0.076781 0.147252 0.410158
Si Si5 0.243514 0.671248 0.714258
Si Si6 0.909728 0.826417 0.092438
Si Si7 0.757711 0.845366 0.518868
Si Si8 0.713338 0.346727 0.920146
O O1 0.516484 0.754406 0.052860
O O2 0.376396 0.648626 0.047472
O O3 0.500000 0.500000 0.000000
O O4 0.467002 0.717027 0.944338
O O5 0.918869 0.799402 0.656521
O O6 0.832997 0.735727 0.747422
O O7 0.000000 0.792948 0.750000
O O8 0.886545 0.001854 0.737793
O O9 0.500000 0.208686 0.250000
O O10 0.666112 0.257493 0.267731
O O11 0.602460 0.217565 0.161028
O O12 0.169201 0.165761 0.434372
O O13 0.047851 0.982387 0.412709
O O14 0.250000 0.500000 0.723139
O O15 0.217019 0.715438 0.646792
O O16 0.821916 0.811431 0.059057
O O17 0.774223 0.743255 0.463042
O O18 0.750000 0.000000 0.489357
O O19 0.750000 0.500000 0.915387
#
# Coordination Sequence:
#
# PCOD8222640 Si02
#       8
#     8   8   8   8   8   8   8   8
#     4  11  22  35  57  85 113 150 190 234 285 346
#     4  10  21  39  62  86 114 151 197 244 291 354
#     4  10  22  39  61  86 113 153 200 245 292 350
#     4  10  19  35  58  82 109 141 180 232 286 331
#     4  11  24  39  58  84 119 157 190 240 300 356
#     4   9  20  37  55  80 113 141 181 233 281 336
#     4   9  18  33  55  78 102 139 179 223 277 330
#     4  10  22  39  53  77 115 148 185 229 282 343
#
# _framework density 19.190805999999998
#
# number of rings (size 3 to 8) (size 9 to 14) (size 15 to 20)
#    0.000    2.000    0.000    3.000    0.000    7.500 
#    0.000    5.625    0.000    0.000    0.000    0.000 
#    0.000    0.000    0.000    0.000    0.000    0.000 
#
# Total GULP energy -793069.823826 kJ/mol
# GULP energy per Si atom -12391.715997 kJ/mol
# Density = 1.914713 g / cm^3
# Si number density = 19.190806 Si / 1000 Ang^3
#
#
#
# Elastic Constant Matrix: (Units=GPa)
#
#
# Indices 1 2 3 4 5 6 
#
# 1 -24.5046 79.9938 36.8085 0.0000 0.0000 0.0000
# 2 79.9938 49.8448 48.6131 0.0000 0.0000 0.0000
# 3 36.8085 48.6131 141.7676 0.0000 0.0000 0.0000
# 4 0.0000 0.0000 0.0000 32.4995 0.0000 0.0000
# 5 0.0000 0.0000 0.0000 0.0000 45.6680 0.0000
# 6 0.0000 0.0000 0.0000 0.0000 0.0000 33.4765
#
#
#
# Elastic Compliance Matrix: (Units=1/GPa)
#
#
# Indices 1 2 3 4 5 6 
#
# 1 -0.005852 0.011884 -0.002556 0.000000 0.000000 0.000000
# 2 0.011884 0.006008 -0.005146 0.000000 0.000000 0.000000
# 3 -0.002556 -0.005146 0.009482 0.000000 0.000000 0.000000
# 4 0.000000 0.000000 0.000000 0.030770 0.000000 0.000000
# 5 0.000000 0.000000 0.000000 0.000000 0.021897 0.000000
# 6 0.000000 0.000000 0.000000 0.000000 0.000000 0.029872
#
#
# Mechanical properties :
#
#
# Convention : Reuss Voigt Hill
#
# Bulk Modulus (GPa) = 55.54486 55.32654 55.43570
# Shear Modulus (GPa) = 55.67132 22.44165 39.05649
#
# Velocity S-wave (km/s) = 5.39188 3.42335 4.51618
# Velocity P-wave (km/s) = 8.23222 6.67219 7.49291
#
# Compressibility (1/GPa) = 0.01800347
#
# Stress axis : x y z
#
# Youngs Moduli (GPa) = -170.88046 166.43339 105.46332
#
# Poissons Ratio (x) = -1.97795 0.26954
# Poissons Ratio (y) = 2.03080 0.54271
# Poissons Ratio (z) = -0.43674 0.85646
#
# Static dielectric constant tensor:
#      x y z
#    x 3.495730 0.000000 0.000000 
#    y 0.000000 3.643720 0.000000 
#    z 0.000000 0.000000 3.761220 
# 
# 
# High freq. dielectric constant tensor:
#      x y z
#    x 1.752330 0.000000 0.000000 
#    y 0.000000 1.745900 0.000000 
#    z 0.000000 0.000000 1.763520 
# 
# From -- ./inp_files/21945.got.cif
#   From: 2010.03.12/outbox.cif.g09.slc.cpg/sg54_11_cif.got.tgz:21945.got - 2010.04.16 15:00:50.
