data_PCOD8222240
_publ_section_title
;
Structure prediction by ZEFSAII (Michael W. Deem and Ramdas Pophale) SiO2 
 PCOD8222240
Probable space group: P M N A
;
_chemical_formula_sum "Si O2"
_cell_formula_units_Z 56
_cell_length_a 9.275878
_cell_length_b 18.925770
_cell_length_c 18.900507
_cell_angle_alpha 90.000000
_cell_angle_beta 90.000000
_cell_angle_gamma 90.000000
_cell_volume 3318.043230
_symmetry_space_group_name_H-M "P M N A"
_symmetry_group_IT_number 53
_symmetry_cell_setting 'orthorhombic'
loop_
_space_group_symop_operation_xyz
x,y,z
1/2-x,-y,1/2+z
x,-y,-z
1/2-x,y,1/2-z
-x,-y,-z
1/2+x,y,1/2-z
-x,y,z
1/2+x,-y,1/2+z
loop_
_atom_site_type_symbol
_atom_site_label
_atom_site_fract_x
_atom_site_fract_y
_atom_site_fract_z
Si Si1 0.331259 0.577600 0.027532
Si Si2 0.168971 0.707157 0.000262
Si Si3 0.664189 0.761146 0.135632
Si Si4 0.663401 0.890508 0.383606
Si Si5 0.159542 0.852881 0.951435
Si Si6 0.338492 0.388593 0.815377
Si Si7 0.662260 0.979457 0.918120
O O1 0.500000 0.597161 0.021471
O O2 0.238052 0.631650 0.978217
O O3 0.278584 0.583751 0.109161
O O4 0.297530 0.500000 0.000000
O O5 0.261190 0.730234 0.066887
O O6 0.000000 0.699296 0.019268
O O7 0.189398 0.768706 0.940680
O O8 0.500000 0.784278 0.118397
O O9 0.752727 0.830278 0.161674
O O10 0.666487 0.697058 0.191511
O O11 0.500000 0.896695 0.355564
O O12 0.667643 0.868692 0.465285
O O13 0.743158 0.965396 0.372946
O O14 0.272863 0.900656 0.908574
O O15 0.000000 0.872448 0.923750
O O16 0.250000 0.421269 0.750000
O O17 0.500000 0.416691 0.806637
O O18 0.500000 0.979429 0.888629
O O19 0.666218 0.000000 0.000000
#
# Coordination Sequence:
#
# PCOD8222240 Si02
#       7
#     8   8   8   8   8   8   8
#     4   9  18  32  47  63  85 113 144 177 216 264
#     4   9  16  25  38  56  76 100 132 169 208 249
#     4   9  16  26  38  53  74 101 134 168 203 243
#     4   9  15  22  32  46  66  94 127 164 203 237
#     4   8  14  22  30  43  66  94 124 160 199 238
#     4   9  18  30  45  64  85 111 141 176 215 255
#     4   9  15  20  28  43  63  91 127 163 197 236
#
# _framework density 16.877417000000001
#
# number of rings (size 3 to 8) (size 9 to 14) (size 15 to 20)
#    0.000    3.143    0.000    3.429    0.000    8.857 
#    0.000    0.000    0.000    0.000    0.000    0.000 
#    0.000    0.000    0.000    1.286    0.000   20.571 
#
# Total GULP energy -693816.597743 kJ/mol
# GULP energy per Si atom -12389.582103 kJ/mol
# Density = 1.683900 g / cm^3
# Si number density = 16.877417 Si / 1000 Ang^3
#
#
#
# Elastic Constant Matrix: (Units=GPa)
#
#
# Indices 1 2 3 4 5 6 
#
# 1 121.4869 63.1493 16.3083 0.0000 0.0000 0.0000
# 2 63.1493 118.2051 22.9988 0.0000 0.0000 0.0000
# 3 16.3083 22.9988 23.7894 0.0000 0.0000 0.0000
# 4 0.0000 0.0000 0.0000 7.4706 0.0000 0.0000
# 5 0.0000 0.0000 0.0000 0.0000 12.2128 0.0000
# 6 0.0000 0.0000 0.0000 0.0000 0.0000 27.7748
#
#
#
# Elastic Compliance Matrix: (Units=1/GPa)
#
#
# Indices 1 2 3 4 5 6 
#
# 1 0.011506 -0.005681 -0.002396 0.000000 0.000000 0.000000
# 2 -0.005681 0.013225 -0.008891 0.000000 0.000000 0.000000
# 3 -0.002396 -0.008891 0.052273 0.000000 0.000000 0.000000
# 4 0.000000 0.000000 0.000000 0.133858 0.000000 0.000000
# 5 0.000000 0.000000 0.000000 0.000000 0.081881 0.000000
# 6 0.000000 0.000000 0.000000 0.000000 0.000000 0.036004
#
#
# Mechanical properties :
#
#
# Convention : Reuss Voigt Hill
#
# Bulk Modulus (GPa) = 23.21844 52.04381 37.63113
# Shear Modulus (GPa) = 13.26130 20.22665 16.74398
#
# Velocity S-wave (km/s) = 2.80615 3.46561 3.15317
# Velocity P-wave (km/s) = 4.92811 6.84962 5.96672
#
# Compressibility (1/GPa) = 0.04306922
#
# Stress axis : x y z
#
# Youngs Moduli (GPa) = 86.91298 75.61700 19.13030
#
# Poissons Ratio (x) = 0.42956 0.04583
# Poissons Ratio (y) = 0.49372 0.17008
# Poissons Ratio (z) = 0.20821 0.67229
#
# Static dielectric constant tensor:
#      x y z
#    x 3.378450 0.000000 0.000000 
#    y 0.000000 3.589460 0.000000 
#    z 0.000000 0.000000 2.476170 
# 
# 
# High freq. dielectric constant tensor:
#      x y z
#    x 1.665620 0.000000 0.000000 
#    y 0.000000 1.650880 0.000000 
#    z 0.000000 0.000000 1.563640 
# 
# From -- ./inp_files/34379.got.cif
#   From: 2010.03.12/outbox.cif.g09.slc.cpg/sg53_18_cif.got.tgz:34379.got - 2010.04.16 14:36:59.
