data_PCOD8222665
_publ_section_title
;
Structure prediction by ZEFSAII (Michael W. Deem and Ramdas Pophale) SiO2 
 PCOD8222665
Probable space group: P C C A
;
_chemical_formula_sum "Si O2"
_cell_formula_units_Z 44
_cell_length_a 9.101304
_cell_length_b 12.708946
_cell_length_c 17.576472
_cell_angle_alpha 90.000000
_cell_angle_beta 90.000000
_cell_angle_gamma 90.000000
_cell_volume 2033.035030
_symmetry_space_group_name_H-M "P C C A"
_symmetry_group_IT_number 54
_symmetry_cell_setting 'orthorhombic'
loop_
_space_group_symop_operation_xyz
x,y,z
1/2-x,-y,z
1/2+x,-y,1/2-z
-x,y,1/2-z
-x,-y,-z
1/2+x,y,-z
1/2-x,y,1/2+z
x,-y,1/2+z
loop_
_atom_site_type_symbol
_atom_site_label
_atom_site_fract_x
_atom_site_fract_y
_atom_site_fract_z
Si Si1 0.673931 0.272876 0.112537
Si Si2 0.975822 0.885400 0.465295
Si Si3 0.993985 0.757066 0.613167
Si Si4 0.500000 0.249979 0.250000
Si Si5 0.260229 0.882295 0.669392
Si Si6 0.125511 0.575802 0.526812
O O1 0.613738 0.158103 0.084348
O O2 0.559591 0.316397 0.177510
O O3 0.834929 0.261201 0.152030
O O4 0.683329 0.355851 0.044331
O O5 0.947099 0.804320 0.532235
O O6 0.828274 0.884473 0.415291
O O7 0.000000 0.000000 0.500000
O O8 0.096673 0.832624 0.663642
O O9 0.078271 0.647940 0.597834
O O10 0.639658 0.179533 0.271851
O O11 0.250000 0.000000 0.701691
O O12 0.250000 0.500000 0.559538
O O13 0.000000 0.500000 0.500000
#
# Coordination Sequence:
#
# PCOD8222665 Si02
#       6
#     8   8   8   4   8   8
#     4  10  23  40  62  92 126 168 204 261 305 378
#     4  10  19  36  59  93 128 157 200 257 322 367
#     4  11  22  36  64  99 127 154 207 266 322 366
#     4  10  26  44  58  80 132 176 220 248 300 374
#     4  11  23  40  61  89 127 175 213 254 306 374
#     4  11  22  40  71 101 126 152 200 265 335 378
#
# _framework density 21.642520999999999
#
# number of rings (size 3 to 8) (size 9 to 14) (size 15 to 20)
#    0.000    1.455    3.636    2.182    5.091    2.182 
#    0.000    0.000    4.000    0.000    0.000    0.000 
#    0.000    0.000    0.000    0.000    0.000    0.000 
#
# Total GULP energy -545507.128728 kJ/mol
# GULP energy per Si atom -12397.889289 kJ/mol
# Density = 2.159326 g / cm^3
# Si number density = 21.642521 Si / 1000 Ang^3
#
#
#
# Elastic Constant Matrix: (Units=GPa)
#
#
# Indices 1 2 3 4 5 6 
#
# 1 146.0306 38.3259 13.1082 0.0000 0.0000 0.0000
# 2 38.3259 98.1191 1.9662 0.0000 0.0000 0.0000
# 3 13.1082 1.9662 46.8183 0.0000 0.0000 0.0000
# 4 0.0000 0.0000 0.0000 10.6944 0.0000 0.0000
# 5 0.0000 0.0000 0.0000 0.0000 30.7493 0.0000
# 6 0.0000 0.0000 0.0000 0.0000 0.0000 36.1662
#
#
#
# Elastic Compliance Matrix: (Units=1/GPa)
#
#
# Indices 1 2 3 4 5 6 
#
# 1 0.007824 -0.003015 -0.002064 0.000000 0.000000 0.000000
# 2 -0.003015 0.011362 0.000367 0.000000 0.000000 0.000000
# 3 -0.002064 0.000367 0.021922 0.000000 0.000000 0.000000
# 4 0.000000 0.000000 0.000000 0.093507 0.000000 0.000000
# 5 0.000000 0.000000 0.000000 0.000000 0.032521 0.000000
# 6 0.000000 0.000000 0.000000 0.000000 0.000000 0.027650
#
#
# Mechanical properties :
#
#
# Convention : Reuss Voigt Hill
#
# Bulk Modulus (GPa) = 31.56164 44.19652 37.87908
# Shear Modulus (GPa) = 23.28059 31.35984 27.32022
#
# Velocity S-wave (km/s) = 3.28333 3.81069 3.55680
# Velocity P-wave (km/s) = 5.38409 6.31089 5.86582
#
# Compressibility (1/GPa) = 0.03168403
#
# Stress axis : x y z
#
# Youngs Moduli (GPa) = 127.80498 88.01278 45.61695
#
# Poissons Ratio (x) = 0.26535 0.09416
# Poissons Ratio (y) = 0.38532 -0.01674
# Poissons Ratio (z) = 0.26380 -0.03230
#
# Static dielectric constant tensor:
#      x y z
#    x 4.116390 0.000000 0.000000 
#    y 0.000000 3.876790 0.000000 
#    z 0.000000 0.000000 3.988960 
# 
# 
# High freq. dielectric constant tensor:
#      x y z
#    x 1.871170 0.000000 0.000000 
#    y 0.000000 1.833850 0.000000 
#    z 0.000000 0.000000 1.827280 
# 
# From -- ./inp_files/16545.got.cif
#   From: 2010.03.12/outbox.cif.g09.slc.cpg/sg54_9_cif.got.tgz:16545.got - 2010.04.16 15:00:50.
