data_PCOD8222069
_publ_section_title
;
Structure prediction by ZEFSAII (Michael W. Deem and Ramdas Pophale) SiO2 
 PCOD8222069
Probable space group: P M N A
;
_chemical_formula_sum "Si O2"
_cell_formula_units_Z 64
_cell_length_a 15.037859
_cell_length_b 20.940909
_cell_length_c 10.065601
_cell_angle_alpha 90.000000
_cell_angle_beta 90.000000
_cell_angle_gamma 90.000000
_cell_volume 3169.722546
_symmetry_space_group_name_H-M "P M N A"
_symmetry_group_IT_number 53
_symmetry_cell_setting 'orthorhombic'
loop_
_space_group_symop_operation_xyz
x,y,z
1/2-x,-y,1/2+z
x,-y,-z
1/2-x,y,1/2-z
-x,-y,-z
1/2+x,y,1/2-z
-x,y,z
1/2+x,-y,1/2+z
loop_
_atom_site_type_symbol
_atom_site_label
_atom_site_fract_x
_atom_site_fract_y
_atom_site_fract_z
Si Si1 0.748527 0.060445 0.405035
Si Si2 0.148913 0.760901 0.751254
Si Si3 0.393458 0.357929 0.857633
Si Si4 0.097994 0.494666 0.658020
Si Si5 0.899144 0.158838 0.010323
Si Si6 0.393755 0.630896 0.842940
Si Si7 0.100324 0.844758 0.516862
Si Si8 0.894436 0.775043 0.255039
O O1 0.750000 0.040058 0.250000
O O2 0.660837 0.100779 0.439555
O O3 0.838766 0.098275 0.432580
O O4 0.747011 0.000000 0.500000
O O5 0.250000 0.786475 0.750000
O O6 0.144610 0.684168 0.756393
O O7 0.099388 0.786539 0.620792
O O8 0.098482 0.786080 0.880026
O O9 0.500000 0.360169 0.855063
O O10 0.355701 0.426684 0.802130
O O11 0.357339 0.297698 0.771473
O O12 0.361015 0.350427 0.009320
O O13 0.090132 0.500000 0.500000
O O14 0.144819 0.561155 0.704520
O O15 0.000000 0.493169 0.721514
O O16 0.858094 0.191142 0.877679
O O17 0.000000 0.133922 0.986481
O O18 0.500000 0.629043 0.837462
O O19 0.137718 0.818223 0.377832
O O20 0.000000 0.871004 0.501418
O O21 0.000000 0.771470 0.252030
#
# Coordination Sequence:
#
# PCOD8222069 Si02
#       8
#     8   8   8   8   8   8   8   8
#     4  12  28  47  66  96 124 158 197 230 284 349
#     4  12  21  36  57  87 114 156 202 246 300 345
#     4   8  12  23  44  78 115 141 187 251 296 345
#     4   7  11  19  37  71 110 142 183 244 301 343
#     4  11  23  42  63  89 127 160 191 238 292 349
#     4   9  15  25  47  78 108 147 196 246 298 346
#     4  11  21  41  67  90 119 152 197 250 288 337
#     4   9  19  32  57  92 117 152 199 243 299 349
#
# _framework density 20.191040999999998
#
# number of rings (size 3 to 8) (size 9 to 14) (size 15 to 20)
#    0.000    2.125    3.750    2.625    1.750    0.500 
#    0.000    0.000    0.000    0.750   13.000    4.375 
#    0.000    0.000    0.000    0.000    0.000    0.000 
#
# Total GULP energy -793053.142841 kJ/mol
# GULP energy per Si atom -12391.455357 kJ/mol
# Density = 2.014508 g / cm^3
# Si number density = 20.191041 Si / 1000 Ang^3
#
#
#
# Elastic Constant Matrix: (Units=GPa)
#
#
# Indices 1 2 3 4 5 6 
#
# 1 60.5059 29.9229 15.3770 0.0000 0.0000 0.0000
# 2 29.9229 154.4957 63.1266 0.0000 0.0000 0.0000
# 3 15.3770 63.1266 121.4449 0.0000 0.0000 0.0000
# 4 0.0000 0.0000 0.0000 25.0399 0.0000 0.0000
# 5 0.0000 0.0000 0.0000 0.0000 -7.7225 0.0000
# 6 0.0000 0.0000 0.0000 0.0000 0.0000 15.0629
#
#
#
# Elastic Compliance Matrix: (Units=1/GPa)
#
#
# Indices 1 2 3 4 5 6 
#
# 1 0.018313 -0.003300 -0.000603 0.000000 0.000000 0.000000
# 2 -0.003300 0.008813 -0.004163 0.000000 0.000000 0.000000
# 3 -0.000603 -0.004163 0.010474 0.000000 0.000000 0.000000
# 4 0.000000 0.000000 0.000000 0.039936 0.000000 0.000000
# 5 0.000000 0.000000 0.000000 0.000000 -0.129491 0.000000
# 6 0.000000 0.000000 0.000000 0.000000 0.000000 0.066388
#
#
# Mechanical properties :
#
#
# Convention : Reuss Voigt Hill
#
# Bulk Modulus (GPa) = 46.58317 61.47774 54.03045
# Shear Modulus (GPa) = 132.54698 21.67740 77.11219
#
# Velocity S-wave (km/s) = 8.11104 3.28016 6.18661
# Velocity P-wave (km/s) = 10.52805 6.69777 8.82326
#
# Compressibility (1/GPa) = 0.02146698
#
# Stress axis : x y z
#
# Youngs Moduli (GPa) = 54.60665 113.47005 95.47013
#
# Poissons Ratio (x) = 0.37450 0.05759
# Poissons Ratio (y) = 0.18022 0.39744
# Poissons Ratio (z) = 0.03294 0.47238
#
# Static dielectric constant tensor:
#      x y z
#    x 3.279090 0.000000 0.000000 
#    y 0.000000 4.035520 0.000000 
#    z 0.000000 0.000000 3.615360 
# 
# 
# High freq. dielectric constant tensor:
#      x y z
#    x 1.760640 0.000000 0.000000 
#    y 0.000000 1.797500 0.000000 
#    z 0.000000 0.000000 1.765610 
# 
# From -- ./inp_files/8938.got.cif
#   From: 2010.03.12/outbox.cif.g09.slc.cpg/sg53_5_cif.got.tgz:8938.got - 2010.04.16 14:36:59.
