data_PCOD8222506
_publ_section_title
;
Structure prediction by ZEFSAII (Michael W. Deem and Ramdas Pophale) SiO2 
 PCOD8222506
Probable space group: P C C A
;
_chemical_formula_sum "Si O2"
_cell_formula_units_Z 36
_cell_length_a 10.746256
_cell_length_b 11.648220
_cell_length_c 11.422502
_cell_angle_alpha 90.000000
_cell_angle_beta 90.000000
_cell_angle_gamma 90.000000
_cell_volume 1429.808879
_symmetry_space_group_name_H-M "P C C A"
_symmetry_group_IT_number 54
_symmetry_cell_setting 'orthorhombic'
loop_
_space_group_symop_operation_xyz
x,y,z
1/2-x,-y,z
1/2+x,-y,1/2-z
-x,y,1/2-z
-x,-y,-z
1/2+x,y,-z
1/2-x,y,1/2+z
x,-y,1/2+z
loop_
_atom_site_type_symbol
_atom_site_label
_atom_site_fract_x
_atom_site_fract_y
_atom_site_fract_z
Si Si1 0.918488 0.811633 0.022841
Si Si2 0.348243 0.804750 0.725963
Si Si3 0.223030 0.372025 0.543864
Si Si4 0.901104 0.734528 0.653334
Si Si5 0.750000 0.000000 0.921762
O O1 0.851591 0.695534 0.978393
O O2 0.041395 0.823533 0.942936
O O3 0.831260 0.920234 0.005418
O O4 0.950220 0.804728 0.164282
O O5 0.358783 0.692527 0.642887
O O6 0.213450 0.800167 0.789208
O O7 0.345878 0.924257 0.655554
O O8 0.250000 0.500000 0.587656
O O9 0.146023 0.375593 0.421399
O O10 0.000000 0.693881 0.750000
#
# Coordination Sequence:
#
# PCOD8222506 Si02
#       5
#     8   8   8   8   4
#     4  10  22  41  63  96 131 176 223 273 342 394
#     4  10  22  42  64  93 132 175 221 285 335 396
#     4  10  23  41  67  93 129 174 219 280 337 395
#     4  11  21  44  66  94 135 177 224 271 337 413
#     4  10  18  38  64  92 130 176 216 274 340 392
#
# _framework density 25.178187999999999
#
# number of rings (size 3 to 8) (size 9 to 14) (size 15 to 20)
#    0.000    1.778    4.444    0.667    0.000    5.333 
#    0.000   24.444    0.000    0.000    0.000    0.000 
#    0.000    0.000    0.000    0.000    0.000    0.000 
#
# Total GULP energy -446453.100115 kJ/mol
# GULP energy per Si atom -12401.475003 kJ/mol
# Density = 2.512088 g / cm^3
# Si number density = 25.178188 Si / 1000 Ang^3
#
#
#
# Elastic Constant Matrix: (Units=GPa)
#
#
# Indices 1 2 3 4 5 6 
#
# 1 64.6322 18.9493 47.2852 0.0000 0.0000 0.0000
# 2 18.9493 156.8446 46.7814 0.0000 0.0000 0.0000
# 3 47.2852 46.7814 185.1762 0.0000 0.0000 0.0000
# 4 0.0000 0.0000 0.0000 23.9515 0.0000 0.0000
# 5 0.0000 0.0000 0.0000 0.0000 51.2922 0.0000
# 6 0.0000 0.0000 0.0000 0.0000 0.0000 19.3173
#
#
#
# Elastic Compliance Matrix: (Units=1/GPa)
#
#
# Indices 1 2 3 4 5 6 
#
# 1 0.019150 -0.000925 -0.004656 0.000000 0.000000 0.000000
# 2 -0.000925 0.006940 -0.001517 0.000000 0.000000 0.000000
# 3 -0.004656 -0.001517 0.006973 0.000000 0.000000 0.000000
# 4 0.000000 0.000000 0.000000 0.041751 0.000000 0.000000
# 5 0.000000 0.000000 0.000000 0.000000 0.019496 0.000000
# 6 0.000000 0.000000 0.000000 0.000000 0.000000 0.051767
#
#
# Mechanical properties :
#
#
# Convention : Reuss Voigt Hill
#
# Bulk Modulus (GPa) = 53.00562 70.29832 61.65197
# Shear Modulus (GPa) = 30.01890 38.48801 34.25345
#
# Velocity S-wave (km/s) = 3.45665 3.91400 3.69242
# Velocity P-wave (km/s) = 6.08516 6.95750 6.53590
#
# Compressibility (1/GPa) = 0.01886592
#
# Stress axis : x y z
#
# Youngs Moduli (GPa) = 52.21963 144.09291 143.41974
#
# Poissons Ratio (x) = 0.13325 0.66781
# Poissons Ratio (y) = 0.04829 0.21758
# Poissons Ratio (z) = 0.24315 0.21860
#
# Static dielectric constant tensor:
#      x y z
#    x 5.203090 0.000000 0.000000 
#    y 0.000000 3.933380 0.000000 
#    z 0.000000 0.000000 5.413600 
# 
# 
# High freq. dielectric constant tensor:
#      x y z
#    x 2.037590 0.000000 0.000000 
#    y 0.000000 1.956920 0.000000 
#    z 0.000000 0.000000 2.042640 
# 
# From -- ./inp_files/7392.got.cif
#   From: 2010.03.12/outbox.cif.g09.slc.cpg/sg54_4_cif.got.tgz:7392.got - 2010.04.16 15:00:50.
