data_PCOD8222885
_publ_section_title
;
Structure prediction by ZEFSAII (Michael W. Deem and Ramdas Pophale) SiO2 
 PCOD8222885
Probable space group: P C C A
;
_chemical_formula_sum "Si O2"
_cell_formula_units_Z 40
_cell_length_a 11.633379
_cell_length_b 9.425184
_cell_length_c 16.320136
_cell_angle_alpha 90.000000
_cell_angle_beta 90.000000
_cell_angle_gamma 90.000000
_cell_volume 1789.449670
_symmetry_space_group_name_H-M "P C C A"
_symmetry_group_IT_number 54
_symmetry_cell_setting 'orthorhombic'
loop_
_space_group_symop_operation_xyz
x,y,z
1/2-x,-y,z
1/2+x,-y,1/2-z
-x,y,1/2-z
-x,-y,-z
1/2+x,y,-z
1/2-x,y,1/2+z
x,-y,1/2+z
loop_
_atom_site_type_symbol
_atom_site_label
_atom_site_fract_x
_atom_site_fract_y
_atom_site_fract_z
Si Si1 0.245093 0.337186 0.550171
Si Si2 0.333440 0.661225 0.865504
Si Si3 0.094055 0.641024 0.821329
Si Si4 0.526211 0.155903 0.407403
Si Si5 0.446506 0.847731 0.085576
O O1 0.250000 0.500000 0.579479
O O2 0.272706 0.324973 0.454035
O O3 0.123129 0.271088 0.573830
O O4 0.336783 0.250210 0.604574
O O5 0.229378 0.672622 0.798296
O O6 0.402580 0.512493 0.864225
O O7 0.429909 0.779299 0.845989
O O8 0.000000 0.641910 0.750000
O O9 0.059213 0.766425 0.883096
O O10 0.454535 0.126366 0.489338
O O11 0.569605 0.003899 0.372587
#
# Coordination Sequence:
#
# PCOD8222885 Si02
#       5
#     8   8   8   8   8
#     4  11  18  34  64  94 130 152 199 267 327 380
#     4  10  21  40  62  92 120 166 220 262 319 370
#     4  11  22  42  61  83 129 172 220 256 300 384
#     4  10  20  36  63  94 129 151 200 275 328 387
#     4  10  21  35  60  98 124 161 202 255 335 376
#
# _framework density 22.353241000000001
#
# number of rings (size 3 to 8) (size 9 to 14) (size 15 to 20)
#    0.000    1.600    4.000    1.800    0.000    4.000 
#   10.800    1.000    4.400    0.000    0.000    0.000 
#    0.000    0.000    0.000    0.000    0.000    0.000 
#
# Total GULP energy -495533.002853 kJ/mol
# GULP energy per Si atom -12388.325071 kJ/mol
# Density = 2.230236 g / cm^3
# Si number density = 22.353241 Si / 1000 Ang^3
#
#
#
# Elastic Constant Matrix: (Units=GPa)
#
#
# Indices 1 2 3 4 5 6 
#
# 1 146.1655 102.4935 31.3929 0.0000 0.0000 0.0000
# 2 102.4935 194.9671 24.2194 0.0000 0.0000 0.0000
# 3 31.3929 24.2194 26.0739 0.0000 0.0000 0.0000
# 4 0.0000 0.0000 0.0000 8.4910 0.0000 0.0000
# 5 0.0000 0.0000 0.0000 0.0000 36.9108 0.0000
# 6 0.0000 0.0000 0.0000 0.0000 0.0000 41.0642
#
#
#
# Elastic Compliance Matrix: (Units=1/GPa)
#
#
# Indices 1 2 3 4 5 6 
#
# 1 0.012955 -0.005509 -0.010482 0.000000 0.000000 0.000000
# 2 -0.005509 0.008140 -0.000929 0.000000 0.000000 0.000000
# 3 -0.010482 -0.000929 0.051835 0.000000 0.000000 0.000000
# 4 0.000000 0.000000 0.000000 0.117772 0.000000 0.000000
# 5 0.000000 0.000000 0.000000 0.000000 0.027092 0.000000
# 6 0.000000 0.000000 0.000000 0.000000 0.000000 0.024352
#
#
# Mechanical properties :
#
#
# Convention : Reuss Voigt Hill
#
# Bulk Modulus (GPa) = 25.58018 75.93532 50.75775
# Shear Modulus (GPa) = 17.30003 31.23323 24.26663
#
# Velocity S-wave (km/s) = 2.78499 3.74205 3.29842
# Velocity P-wave (km/s) = 4.67012 7.26050 6.10430
#
# Compressibility (1/GPa) = 0.03909277
#
# Stress axis : x y z
#
# Youngs Moduli (GPa) = 77.18763 122.84534 19.29187
#
# Poissons Ratio (x) = 0.67670 0.20221
# Poissons Ratio (y) = 0.42519 0.01792
# Poissons Ratio (z) = 0.80905 0.11413
#
# Static dielectric constant tensor:
#      x y z
#    x 4.337440 0.000000 0.000000 
#    y 0.000000 4.446430 0.000000 
#    z 0.000000 0.000000 3.497170 
# 
# 
# High freq. dielectric constant tensor:
#      x y z
#    x 1.897450 0.000000 0.000000 
#    y 0.000000 1.894410 0.000000 
#    z 0.000000 0.000000 1.820200 
# 
# From -- ./inp_files/17119.got.cif
#   From: 2010.03.12/outbox.cif.g09.slc.cpg/sg54_9_cif.got.tgz:17119.got - 2010.04.16 15:00:50.
