data_PCOD8222034
_publ_section_title
;
Structure prediction by ZEFSAII (Michael W. Deem and Ramdas Pophale) SiO2 
 PCOD8222034
Probable space group: P M N A
;
_chemical_formula_sum "Si O2"
_cell_formula_units_Z 32
_cell_length_a 8.713122
_cell_length_b 20.869149
_cell_length_c 9.258981
_cell_angle_alpha 90.000000
_cell_angle_beta 90.000000
_cell_angle_gamma 90.000000
_cell_volume 1683.610896
_symmetry_space_group_name_H-M "P M N A"
_symmetry_group_IT_number 53
_symmetry_cell_setting 'orthorhombic'
loop_
_space_group_symop_operation_xyz
x,y,z
1/2-x,-y,1/2+z
x,-y,-z
1/2-x,y,1/2-z
-x,-y,-z
1/2+x,y,1/2-z
-x,y,z
1/2+x,-y,1/2+z
loop_
_atom_site_type_symbol
_atom_site_label
_atom_site_fract_x
_atom_site_fract_y
_atom_site_fract_z
Si Si1 0.820699 0.442704 0.906034
Si Si2 0.318814 0.824676 0.090073
Si Si3 0.321624 0.937143 0.594014
Si Si4 0.679594 0.303100 0.592916
O O1 0.750000 0.446505 0.750000
O O2 0.789670 0.372739 0.981030
O O3 0.000000 0.453706 0.887261
O O4 0.747334 0.500000 0.000000
O O5 0.250000 0.834304 0.250000
O O6 0.500000 0.826303 0.103351
O O7 0.264121 0.757081 0.017526
O O8 0.264322 0.879402 0.983205
O O9 0.250000 0.949585 0.750000
O O10 0.500000 0.920157 0.609709
O O11 0.294965 0.000000 0.500000
O O12 0.750000 0.308588 0.750000
O O13 0.500000 0.287588 0.602060
#
# Coordination Sequence:
#
# PCOD8222034 Si02
#       4
#     8   8   8   8
#     4   9  18  32  50  74 103 136 175 220 267 316
#     4  11  21  35  57  83 111 142 180 223 268 319
#     4  11  24  41  61  85 113 144 179 219 264 315
#     4   9  16  29  50  74 103 137 176 220 265 316
#
# _framework density 19.006767
#
# number of rings (size 3 to 8) (size 9 to 14) (size 15 to 20)
#    0.000    2.000    0.000    6.000    0.000    5.500 
#    0.000    1.250    0.000    3.000    0.000    0.000 
#    0.000    0.000    0.000    0.000    0.000    0.000 
#
# Total GULP energy -396578.188550 kJ/mol
# GULP energy per Si atom -12393.068392 kJ/mol
# Density = 1.896351 g / cm^3
# Si number density = 19.006767 Si / 1000 Ang^3
#
#
#
# Elastic Constant Matrix: (Units=GPa)
#
#
# Indices 1 2 3 4 5 6 
#
# 1 134.3728 76.3767 47.0686 0.0000 0.0000 0.0000
# 2 76.3767 157.6788 51.1644 0.0000 0.0000 0.0000
# 3 47.0686 51.1644 76.6421 0.0000 0.0000 0.0000
# 4 0.0000 0.0000 0.0000 37.7969 0.0000 0.0000
# 5 0.0000 0.0000 0.0000 0.0000 23.4235 0.0000
# 6 0.0000 0.0000 0.0000 0.0000 0.0000 -32.8901
#
#
#
# Elastic Compliance Matrix: (Units=1/GPa)
#
#
# Indices 1 2 3 4 5 6 
#
# 1 0.011223 -0.004084 -0.004166 0.000000 0.000000 0.000000
# 2 -0.004084 0.009582 -0.003888 0.000000 0.000000 0.000000
# 3 -0.004166 -0.003888 0.018202 0.000000 0.000000 0.000000
# 4 0.000000 0.000000 0.000000 0.026457 0.000000 0.000000
# 5 0.000000 0.000000 0.000000 0.000000 0.042692 0.000000
# 6 0.000000 0.000000 0.000000 0.000000 0.000000 -0.030404
#
#
# Mechanical properties :
#
#
# Convention : Reuss Voigt Hill
#
# Bulk Modulus (GPa) = 67.89011 79.76815 73.82913
# Shear Modulus (GPa) = 46.75588 18.60499 32.68043
#
# Velocity S-wave (km/s) = 4.96518 3.13207 4.15108
# Velocity P-wave (km/s) = 8.28656 7.42558 7.86786
#
# Compressibility (1/GPa) = 0.01472969
#
# Stress axis : x y z
#
# Youngs Moduli (GPa) = 89.10541 104.36077 54.93983
#
# Poissons Ratio (x) = 0.42625 0.22886
# Poissons Ratio (y) = 0.36394 0.21363
# Poissons Ratio (z) = 0.37118 0.40580
#
# Static dielectric constant tensor:
#      x y z
#    x 3.625610 0.000000 0.000000 
#    y 0.000000 4.525690 0.000000 
#    z 0.000000 0.000000 3.198300 
# 
# 
# High freq. dielectric constant tensor:
#      x y z
#    x 1.752030 0.000000 0.000000 
#    y 0.000000 1.770050 0.000000 
#    z 0.000000 0.000000 1.696960 
# 
# From -- ./inp_files/6019.got.cif
#   From: 2010.03.12/outbox.cif.g09.slc.cpg/sg53_4_cif.got.tgz:6019.got - 2010.04.16 14:36:59.
