data_PCOD8222464
_publ_section_title
;
Structure prediction by ZEFSAII (Michael W. Deem and Ramdas Pophale) SiO2 
 PCOD8222464
Probable space group: P C C A
;
_chemical_formula_sum "Si O2"
_cell_formula_units_Z 48
_cell_length_a 18.107075
_cell_length_b 8.794709
_cell_length_c 13.969247
_cell_angle_alpha 90.000000
_cell_angle_beta 90.000000
_cell_angle_gamma 90.000000
_cell_volume 2224.553070
_symmetry_space_group_name_H-M "P C C A"
_symmetry_group_IT_number 54
_symmetry_cell_setting 'orthorhombic'
loop_
_space_group_symop_operation_xyz
x,y,z
1/2-x,-y,z
1/2+x,-y,1/2-z
-x,y,1/2-z
-x,-y,-z
1/2+x,y,-z
1/2-x,y,1/2+z
x,-y,1/2+z
loop_
_atom_site_type_symbol
_atom_site_label
_atom_site_fract_x
_atom_site_fract_y
_atom_site_fract_z
Si Si1 0.479639 0.337308 0.459465
Si Si2 0.435491 0.884759 0.115789
Si Si3 0.137703 0.249864 0.817103
Si Si4 0.866886 0.204990 0.895554
Si Si5 0.727921 0.175412 0.564126
Si Si6 0.906129 0.094173 0.176882
O O1 0.500000 0.500000 0.500000
O O2 0.427397 0.244428 0.534693
O O3 0.431153 0.342926 0.361864
O O4 0.557486 0.261718 0.440609
O O5 0.521214 0.935585 0.112696
O O6 0.421422 0.820067 0.222686
O O7 0.377406 0.021321 0.101320
O O8 0.148143 0.291905 0.705135
O O9 0.209851 0.277210 0.883430
O O10 0.124606 0.072108 0.806180
O O11 0.793329 0.239187 0.958718
O O12 0.652345 0.198231 0.622863
O O13 0.750000 0.000000 0.558785
#
# Coordination Sequence:
#
# PCOD8222464 Si02
#       6
#     8   8   8   8   8   8
#     4  12  24  40  61  92 124 167 213 258 309 373
#     4  10  18  34  64  91 120 158 210 258 307 362
#     4  10  22  38  60  90 127 157 200 258 316 373
#     4  11  21  40  67  88 123 165 203 260 314 371
#     4  10  20  34  60  97 127 157 200 259 322 372
#     4   9  17  33  60  95 121 152 203 261 307 361
#
# _framework density 21.577369000000001
#
# number of rings (size 3 to 8) (size 9 to 14) (size 15 to 20)
#    0.000    1.667    3.333    3.000    0.000    4.667 
#    6.000    0.833    0.000    2.000    0.000    0.000 
#    0.000    0.000    0.000    0.000    0.000    0.000 
#
# Total GULP energy -594747.758153 kJ/mol
# GULP energy per Si atom -12390.578295 kJ/mol
# Density = 2.152826 g / cm^3
# Si number density = 21.577369 Si / 1000 Ang^3
#
#
#
# Elastic Constant Matrix: (Units=GPa)
#
#
# Indices 1 2 3 4 5 6 
#
# 1 98.0875 7.9789 56.3645 0.0000 0.0000 0.0000
# 2 7.9789 46.0511 38.9466 0.0000 0.0000 0.0000
# 3 56.3645 38.9466 159.6250 0.0000 0.0000 0.0000
# 4 0.0000 0.0000 0.0000 16.5699 0.0000 0.0000
# 5 0.0000 0.0000 0.0000 0.0000 44.9565 0.0000
# 6 0.0000 0.0000 0.0000 0.0000 0.0000 6.1978
#
#
#
# Elastic Compliance Matrix: (Units=1/GPa)
#
#
# Indices 1 2 3 4 5 6 
#
# 1 0.012941 0.002044 -0.005068 0.000000 0.000000 0.000000
# 2 0.002044 0.027684 -0.007476 0.000000 0.000000 0.000000
# 3 -0.005068 -0.007476 0.009878 0.000000 0.000000 0.000000
# 4 0.000000 0.000000 0.000000 0.060350 0.000000 0.000000
# 5 0.000000 0.000000 0.000000 0.000000 0.022244 0.000000
# 6 0.000000 0.000000 0.000000 0.000000 0.000000 0.161348
#
#
# Mechanical properties :
#
#
# Convention : Reuss Voigt Hill
#
# Bulk Modulus (GPa) = 33.89552 56.70488 45.30020
# Shear Modulus (GPa) = 15.37135 26.90975 21.14055
#
# Velocity S-wave (km/s) = 2.67195 3.53530 3.13350
# Velocity P-wave (km/s) = 5.02613 6.55754 5.84223
#
# Compressibility (1/GPa) = 0.02950243
#
# Stress axis : x y z
#
# Youngs Moduli (GPa) = 77.27284 36.12230 101.23004
#
# Poissons Ratio (x) = -0.07384 0.51307
# Poissons Ratio (y) = -0.15796 0.75683
# Poissons Ratio (z) = 0.39165 0.27006
#
# Static dielectric constant tensor:
#      x y z
#    x 4.037050 0.000000 0.000000 
#    y 0.000000 3.974380 0.000000 
#    z 0.000000 0.000000 4.439110 
# 
# 
# High freq. dielectric constant tensor:
#      x y z
#    x 1.850150 0.000000 0.000000 
#    y 0.000000 1.771790 0.000000 
#    z 0.000000 0.000000 1.872630 
# 
# From -- ./inp_files/14089.got.cif
#   From: 2010.03.12/outbox.cif.g09.slc.cpg/sg54_8_cif.got.tgz:14089.got - 2010.04.16 15:00:50.
