data_PCOD8222162
_publ_section_title
;
Structure prediction by ZEFSAII (Michael W. Deem and Ramdas Pophale) SiO2 
 PCOD8222162
Probable space group: P M N A
;
_chemical_formula_sum "Si O2"
_cell_formula_units_Z 24
_cell_length_a 26.945997
_cell_length_b 4.933177
_cell_length_c 8.411309
_cell_angle_alpha 90.000000
_cell_angle_beta 90.000000
_cell_angle_gamma 90.000000
_cell_volume 1118.110028
_symmetry_space_group_name_H-M "P M N A"
_symmetry_group_IT_number 53
_symmetry_cell_setting 'orthorhombic'
loop_
_space_group_symop_operation_xyz
x,y,z
1/2-x,-y,1/2+z
x,-y,-z
1/2-x,y,1/2-z
-x,-y,-z
1/2+x,y,1/2-z
-x,y,z
1/2+x,-y,1/2+z
loop_
_atom_site_type_symbol
_atom_site_label
_atom_site_fract_x
_atom_site_fract_y
_atom_site_fract_z
Si Si1 0.102525 0.890821 0.328930
Si Si2 0.941803 0.390186 0.171636
Si Si3 0.213124 0.759870 0.391775
O O1 0.075316 0.605566 0.303420
O O2 0.161499 0.856344 0.316134
O O3 0.085714 0.000000 0.500000
O O4 0.085940 0.105842 0.195976
O O5 0.000000 0.336863 0.184572
O O6 0.926057 0.500000 0.000000
O O7 0.203497 0.500000 0.500000
O O8 0.250000 0.684234 0.250000
O O9 0.235904 0.000000 0.500000
#
# Coordination Sequence:
#
# PCOD8222162 Si02
#       3
#     8   8   8
#     4  11  23  41  63  91 126 162 205 257 308 364
#     4  11  24  41  62  91 126 165 210 256 304 364
#     4  11  24  43  65  93 126 160 204 255 308 369
#
# _framework density 21.464790000000001
#
# number of rings (size 3 to 8) (size 9 to 14) (size 15 to 20)
#    0.000    1.000    0.000    8.000    0.000   10.667 
#    0.000    0.000    0.000    0.000    0.000    0.000 
#    0.000    0.000    0.000    0.000    0.000    0.000 
#
# Total GULP energy -297805.685637 kJ/mol
# GULP energy per Si atom -12408.570235 kJ/mol
# Density = 2.141594 g / cm^3
# Si number density = 21.464790 Si / 1000 Ang^3
#
#
#
# Elastic Constant Matrix: (Units=GPa)
#
#
# Indices 1 2 3 4 5 6 
#
# 1 102.8731 36.1327 56.9535 0.0000 0.0000 0.0000
# 2 36.1327 108.9093 10.9658 0.0000 0.0000 0.0000
# 3 56.9535 10.9658 74.6968 0.0000 0.0000 0.0000
# 4 0.0000 0.0000 0.0000 37.5124 0.0000 0.0000
# 5 0.0000 0.0000 0.0000 0.0000 10.7140 0.0000
# 6 0.0000 0.0000 0.0000 0.0000 0.0000 18.2555
#
#
#
# Elastic Compliance Matrix: (Units=1/GPa)
#
#
# Indices 1 2 3 4 5 6 
#
# 1 0.019135 -0.004953 -0.013863 0.000000 0.000000 0.000000
# 2 -0.004953 0.010602 0.002220 0.000000 0.000000 0.000000
# 3 -0.013863 0.002220 0.023631 0.000000 0.000000 0.000000
# 4 0.000000 0.000000 0.000000 0.026658 0.000000 0.000000
# 5 0.000000 0.000000 0.000000 0.000000 0.093336 0.000000
# 6 0.000000 0.000000 0.000000 0.000000 0.000000 0.054778
#
#
# Mechanical properties :
#
#
# Convention : Reuss Voigt Hill
#
# Bulk Modulus (GPa) = 49.56132 54.95368 52.25750
# Shear Modulus (GPa) = 18.65281 25.45820 22.05550
#
# Velocity S-wave (km/s) = 2.95107 3.44764 3.20897
# Velocity P-wave (km/s) = 5.89504 6.44249 6.17483
#
# Compressibility (1/GPa) = 0.02017703
#
# Stress axis : x y z
#
# Youngs Moduli (GPa) = 52.26023 94.32567 42.31670
#
# Poissons Ratio (x) = 0.46716 0.58662
# Poissons Ratio (y) = 0.25882 -0.09394
# Poissons Ratio (z) = 0.72447 -0.20939
#
# Static dielectric constant tensor:
#      x y z
#    x 3.718510 0.000000 0.000000 
#    y 0.000000 4.107090 0.000000 
#    z 0.000000 0.000000 4.077830 
# 
# 
# High freq. dielectric constant tensor:
#      x y z
#    x 1.838800 0.000000 0.000000 
#    y 0.000000 1.865150 0.000000 
#    z 0.000000 0.000000 1.847580 
# 
# From -- ./inp_files/11294.got.cif
#   From: 2010.03.12/outbox.cif.g09.slc.cpg/sg53_6_cif.got.tgz:11294.got - 2010.04.16 14:36:59.
