data_PCOD8222576
_publ_section_title
;
Structure prediction by ZEFSAII (Michael W. Deem and Ramdas Pophale) SiO2 
 PCOD8222576
Probable space group: P C C A
;
_chemical_formula_sum "Si O2"
_cell_formula_units_Z 64
_cell_length_a 23.959347
_cell_length_b 15.036046
_cell_length_c 8.934878
_cell_angle_alpha 90.000000
_cell_angle_beta 90.000000
_cell_angle_gamma 90.000000
_cell_volume 3218.824142
_symmetry_space_group_name_H-M "P C C A"
_symmetry_group_IT_number 54
_symmetry_cell_setting 'orthorhombic'
loop_
_space_group_symop_operation_xyz
x,y,z
1/2-x,-y,z
1/2+x,-y,1/2-z
-x,y,1/2-z
-x,-y,-z
1/2+x,y,-z
1/2-x,y,1/2+z
x,-y,1/2+z
loop_
_atom_site_type_symbol
_atom_site_label
_atom_site_fract_x
_atom_site_fract_y
_atom_site_fract_z
Si Si1 0.500430 0.404350 0.427071
Si Si2 0.921505 0.275489 0.115656
Si Si3 0.494077 0.135172 0.538662
Si Si4 0.811548 0.175646 0.131211
Si Si5 0.642645 0.013076 0.066092
Si Si6 0.909496 0.714936 0.955903
Si Si7 0.197561 0.192156 0.017662
Si Si8 0.436945 0.026934 0.175165
O O1 0.500000 0.412539 0.250000
O O2 0.500000 0.500000 0.500000
O O3 0.551954 0.346543 0.497703
O O4 0.440096 0.362240 0.456200
O O5 0.862462 0.233919 0.062975
O O6 0.912997 0.314910 0.281649
O O7 0.963873 0.194246 0.137099
O O8 0.437938 0.190111 0.506272
O O9 0.479566 0.052520 0.642989
O O10 0.527571 0.112112 0.382996
O O11 0.820978 0.069969 0.120128
O O12 0.801597 0.188856 0.304929
O O13 0.758797 0.213780 0.041359
O O14 0.582697 0.030824 0.151241
O O15 0.680508 0.100124 0.062769
O O16 0.623180 0.986341 0.900522
O O17 0.846387 0.728226 0.017900
#
# Coordination Sequence:
#
# PCOD8222576 Si02
#       8
#     8   8   8   8   8   8   8   8
#     4  11  23  40  67 101 129 154 178 220 284 358
#     4  10  21  39  62  84 119 157 194 239 297 355
#     4  10  19  33  53  82 111 154 191 250 302 361
#     4  11  24  40  58  78 114 160 210 258 304 341
#     4  12  22  39  49  78 111 158 211 259 304 351
#     4  10  21  40  59  87 118 155 195 239 296 356
#     4  11  25  40  57  80 112 160 211 259 302 345
#     4  11  23  31  53  73 114 151 204 251 308 350
#
# _framework density 19.883037000000002
#
# number of rings (size 3 to 8) (size 9 to 14) (size 15 to 20)
#    0.000    1.250    3.750    3.375    3.500    5.500 
#    0.000    0.000    0.000    0.750    0.000    5.250 
#    0.000    0.000    0.000    0.000    0.000    0.000 
#
# Total GULP energy -793127.902489 kJ/mol
# GULP energy per Si atom -12392.623476 kJ/mol
# Density = 1.983778 g / cm^3
# Si number density = 19.883037 Si / 1000 Ang^3
#
#
#
# Elastic Constant Matrix: (Units=GPa)
#
#
# Indices 1 2 3 4 5 6 
#
# 1 143.3917 41.3280 41.3140 0.0000 0.0000 0.0000
# 2 41.3280 88.8569 42.9026 0.0000 0.0000 0.0000
# 3 41.3140 42.9026 89.3501 0.0000 0.0000 0.0000
# 4 0.0000 0.0000 0.0000 -16.2756 0.0000 0.0000
# 5 0.0000 0.0000 0.0000 0.0000 40.5794 0.0000
# 6 0.0000 0.0000 0.0000 0.0000 0.0000 17.3841
#
#
#
# Elastic Compliance Matrix: (Units=1/GPa)
#
#
# Indices 1 2 3 4 5 6 
#
# 1 0.008509 -0.002679 -0.002648 0.000000 0.000000 0.000000
# 2 -0.002679 0.015494 -0.006201 0.000000 0.000000 0.000000
# 3 -0.002648 -0.006201 0.015394 0.000000 0.000000 0.000000
# 4 0.000000 0.000000 0.000000 -0.061442 0.000000 0.000000
# 5 0.000000 0.000000 0.000000 0.000000 0.024643 0.000000
# 6 0.000000 0.000000 0.000000 0.000000 0.000000 0.057524
#
#
# Mechanical properties :
#
#
# Convention : Reuss Voigt Hill
#
# Bulk Modulus (GPa) = 61.19639 63.63199 62.41419
# Shear Modulus (GPa) = 56.41747 21.40786 38.91267
#
# Velocity S-wave (km/s) = 5.33257 3.28486 4.42869
# Velocity P-wave (km/s) = 8.29217 6.81613 7.59012
#
# Compressibility (1/GPa) = 0.01634083
#
# Stress axis : x y z
#
# Youngs Moduli (GPa) = 117.52249 64.54083 64.96123
#
# Poissons Ratio (x) = 0.17291 0.17202
# Poissons Ratio (y) = 0.31485 0.40282
# Poissons Ratio (z) = 0.31121 0.40021
#
# Static dielectric constant tensor:
#      x y z
#    x 3.879680 0.000000 0.000000 
#    y 0.000000 4.388510 0.000000 
#    z 0.000000 0.000000 3.677610 
# 
# 
# High freq. dielectric constant tensor:
#      x y z
#    x 1.782100 0.000000 0.000000 
#    y 0.000000 1.731210 0.000000 
#    z 0.000000 0.000000 1.789780 
# 
# From -- ./inp_files/5296.got.cif
#   From: 2010.03.12/outbox.cif.g09.slc.cpg/sg54_3_cif.got.tgz:5296.got - 2010.04.16 15:00:50.
