data_PCOD8222461
_publ_section_title
;
Structure prediction by ZEFSAII (Michael W. Deem and Ramdas Pophale) SiO2 
 PCOD8222461
Probable space group: P C C A
;
_chemical_formula_sum "Si O2"
_cell_formula_units_Z 48
_cell_length_a 11.090991
_cell_length_b 7.638946
_cell_length_c 24.335541
_cell_angle_alpha 90.000000
_cell_angle_beta 90.000000
_cell_angle_gamma 90.000000
_cell_volume 2061.791754
_symmetry_space_group_name_H-M "P C C A"
_symmetry_group_IT_number 54
_symmetry_cell_setting 'orthorhombic'
loop_
_space_group_symop_operation_xyz
x,y,z
1/2-x,-y,z
1/2+x,-y,1/2-z
-x,y,1/2-z
-x,-y,-z
1/2+x,y,-z
1/2-x,y,1/2+z
x,-y,1/2+z
loop_
_atom_site_type_symbol
_atom_site_label
_atom_site_fract_x
_atom_site_fract_y
_atom_site_fract_z
Si Si1 0.513180 0.314849 0.061692
Si Si2 0.039337 0.696752 0.562097
Si Si3 0.218330 0.203698 0.607090
Si Si4 0.371911 0.791213 0.725551
Si Si5 0.882514 0.009770 0.111460
Si Si6 0.623190 0.835893 0.232740
O O1 0.531918 0.518757 0.077476
O O2 0.371565 0.262122 0.058163
O O3 0.569838 0.189622 0.108484
O O4 0.573699 0.289914 0.002117
O O5 0.158258 0.691076 0.599512
O O6 0.960169 0.866089 0.573351
O O7 0.151640 0.265905 0.663071
O O8 0.250000 0.000000 0.604489
O O9 0.500000 0.715353 0.750000
O O10 0.250379 0.731081 0.760261
O O11 0.377251 0.002230 0.724619
O O12 0.884830 0.081642 0.172789
O O13 0.750000 0.000000 0.086819
O O14 0.500000 0.727511 0.250000
#
# Coordination Sequence:
#
# PCOD8222461 Si02
#       6
#     8   8   8   8   8   8
#     4  11  26  46  66  98 141 178 231 293 352 415
#     4  11  27  45  67  99 139 184 228 293 357 413
#     4  12  22  40  74 103 129 183 240 281 342 429
#     4  10  19  34  62 103 134 175 225 275 347 415
#     4  12  24  40  71 103 130 182 232 280 349 429
#     4  10  18  34  61 102 129 171 227 274 341 414
#
# _framework density 23.280721
#
# number of rings (size 3 to 8) (size 9 to 14) (size 15 to 20)
#    0.000    1.000    5.000    4.000    2.333    0.667 
#    0.000    0.000    0.000   16.000    0.000    0.000 
#    0.000    0.000    0.000    0.000    0.000    0.000 
#
# Total GULP energy -594791.969012 kJ/mol
# GULP energy per Si atom -12391.499354 kJ/mol
# Density = 2.322773 g / cm^3
# Si number density = 23.280721 Si / 1000 Ang^3
#
#
#
# Elastic Constant Matrix: (Units=GPa)
#
#
# Indices 1 2 3 4 5 6 
#
# 1 193.1024 20.5570 38.3066 0.0000 0.0000 0.0000
# 2 20.5570 65.0084 25.0606 0.0000 0.0000 0.0000
# 3 38.3066 25.0606 96.0286 0.0000 0.0000 0.0000
# 4 0.0000 0.0000 0.0000 9.5306 0.0000 0.0000
# 5 0.0000 0.0000 0.0000 0.0000 41.8436 0.0000
# 6 0.0000 0.0000 0.0000 0.0000 0.0000 14.2672
#
#
#
# Elastic Compliance Matrix: (Units=1/GPa)
#
#
# Indices 1 2 3 4 5 6 
#
# 1 0.005685 -0.001027 -0.002000 0.000000 0.000000 0.000000
# 2 -0.001027 0.017289 -0.004102 0.000000 0.000000 0.000000
# 3 -0.002000 -0.004102 0.012282 0.000000 0.000000 0.000000
# 4 0.000000 0.000000 0.000000 0.104925 0.000000 0.000000
# 5 0.000000 0.000000 0.000000 0.000000 0.023899 0.000000
# 6 0.000000 0.000000 0.000000 0.000000 0.000000 0.070091
#
#
# Mechanical properties :
#
#
# Convention : Reuss Voigt Hill
#
# Bulk Modulus (GPa) = 47.62407 57.99865 52.81136
# Shear Modulus (GPa) = 19.57514 31.14264 25.35889
#
# Velocity S-wave (km/s) = 2.90285 3.66143 3.30398
# Velocity P-wave (km/s) = 5.63349 6.54535 6.10646
#
# Compressibility (1/GPa) = 0.02099778
#
# Stress axis : x y z
#
# Youngs Moduli (GPa) = 175.91430 57.84121 81.42116
#
# Poissons Ratio (x) = 0.05939 0.16282
# Poissons Ratio (y) = 0.18061 0.33401
# Poissons Ratio (z) = 0.35177 0.23728
#
# Static dielectric constant tensor:
#      x y z
#    x 5.032960 0.000000 0.000000 
#    y 0.000000 3.948300 0.000000 
#    z 0.000000 0.000000 4.041740 
# 
# 
# High freq. dielectric constant tensor:
#      x y z
#    x 1.941850 0.000000 0.000000 
#    y 0.000000 1.880040 0.000000 
#    z 0.000000 0.000000 1.915910 
# 
# From -- ./inp_files/26190.got.cif
#   From: 2010.03.12/outbox.cif.g09.slc.cpg/sg54_14_cif.got.tgz:26190.got - 2010.04.16 15:00:50.
