data_PCOD8222459
_publ_section_title
;
Structure prediction by ZEFSAII (Michael W. Deem and Ramdas Pophale) SiO2 
 PCOD8222459
Probable space group: P C C A
;
_chemical_formula_sum "Si O2"
_cell_formula_units_Z 48
_cell_length_a 28.259663
_cell_length_b 5.085899
_cell_length_c 16.229245
_cell_angle_alpha 90.000000
_cell_angle_beta 90.000000
_cell_angle_gamma 90.000000
_cell_volume 2332.561088
_symmetry_space_group_name_H-M "P C C A"
_symmetry_group_IT_number 54
_symmetry_cell_setting 'orthorhombic'
loop_
_space_group_symop_operation_xyz
x,y,z
1/2-x,-y,z
1/2+x,-y,1/2-z
-x,y,1/2-z
-x,-y,-z
1/2+x,y,-z
1/2-x,y,1/2+z
x,-y,1/2+z
loop_
_atom_site_type_symbol
_atom_site_label
_atom_site_fract_x
_atom_site_fract_y
_atom_site_fract_z
Si Si1 0.034915 0.233717 0.321613
Si Si2 0.389692 0.625448 0.197671
Si Si3 0.850927 0.952830 0.931947
Si Si4 0.196113 0.536411 0.120441
Si Si5 0.556463 0.062117 0.020426
Si Si6 0.465565 0.433908 0.079317
O O1 0.084738 0.336613 0.284495
O O2 0.046203 0.997023 0.383879
O O3 0.000000 0.122989 0.250000
O O4 0.010226 0.481667 0.365359
O O5 0.337317 0.491443 0.202998
O O6 0.419120 0.435380 0.135791
O O7 0.383333 0.907800 0.150907
O O8 0.813812 0.188933 0.924179
O O9 0.887413 0.989071 0.007524
O O10 0.818830 0.691319 0.944582
O O11 0.250000 0.500000 0.148168
O O12 0.527597 0.860357 0.958976
O O13 0.541571 0.362845 0.997840
#
# Coordination Sequence:
#
# PCOD8222459 Si02
#       6
#     8   8   8   8   8   8
#     4  10  21  37  53  85 114 155 189 229 270 333
#     4   8  19  35  52  83 110 140 186 227 273 333
#     4   9  18  34  56  81 108 140 182 229 281 334
#     4  10  18  34  60  84 103 136 184 234 284 340
#     4  11  19  38  55  77 113 151 185 232 273 323
#     4  10  20  37  54  77 112 151 189 227 270 326
#
# _framework density 20.578237999999999
#
# number of rings (size 3 to 8) (size 9 to 14) (size 15 to 20)
#    1.000    1.333    1.667    1.500    0.000    0.000 
#    6.000    5.000    0.000    1.000    4.333    0.000 
#    0.000    0.000    0.000    0.000    0.000    0.000 
#
# Total GULP energy -594729.296587 kJ/mol
# GULP energy per Si atom -12390.193679 kJ/mol
# Density = 2.053140 g / cm^3
# Si number density = 20.578238 Si / 1000 Ang^3
#
#
#
# Elastic Constant Matrix: (Units=GPa)
#
#
# Indices 1 2 3 4 5 6 
#
# 1 148.1539 37.0021 48.7950 0.0000 0.0000 0.0000
# 2 37.0021 128.3940 34.2486 0.0000 0.0000 0.0000
# 3 48.7950 34.2486 102.3810 0.0000 0.0000 0.0000
# 4 0.0000 0.0000 0.0000 17.9934 0.0000 0.0000
# 5 0.0000 0.0000 0.0000 0.0000 24.9793 0.0000
# 6 0.0000 0.0000 0.0000 0.0000 0.0000 32.2782
#
#
#
# Elastic Compliance Matrix: (Units=1/GPa)
#
#
# Indices 1 2 3 4 5 6 
#
# 1 0.008248 -0.001459 -0.003443 0.000000 0.000000 0.000000
# 2 -0.001459 0.008810 -0.002252 0.000000 0.000000 0.000000
# 3 -0.003443 -0.002252 0.012162 0.000000 0.000000 0.000000
# 4 0.000000 0.000000 0.000000 0.055576 0.000000 0.000000
# 5 0.000000 0.000000 0.000000 0.000000 0.040033 0.000000
# 6 0.000000 0.000000 0.000000 0.000000 0.000000 0.030981
#
#
# Mechanical properties :
#
#
# Convention : Reuss Voigt Hill
#
# Bulk Modulus (GPa) = 67.05881 68.78002 67.91941
# Shear Modulus (GPa) = 28.55730 32.30908 30.43319
#
# Velocity S-wave (km/s) = 3.72928 3.96670 3.84982
# Velocity P-wave (km/s) = 7.15551 7.38077 7.26902
#
# Compressibility (1/GPa) = 0.01491228
#
# Stress axis : x y z
#
# Youngs Moduli (GPa) = 121.24124 113.51329 82.22531
#
# Poissons Ratio (x) = 0.16557 0.28311
# Poissons Ratio (y) = 0.17684 0.18516
# Poissons Ratio (z) = 0.41745 0.25561
#
# Static dielectric constant tensor:
#      x y z
#    x 3.746110 0.000000 0.000000 
#    y 0.000000 3.653010 0.000000 
#    z 0.000000 0.000000 3.488270 
# 
# 
# High freq. dielectric constant tensor:
#      x y z
#    x 1.803790 0.000000 0.000000 
#    y 0.000000 1.816200 0.000000 
#    z 0.000000 0.000000 1.759640 
# 
# From -- ./inp_files/15296.got.cif
#   From: 2010.03.12/outbox.cif.g09.slc.cpg/sg54_8_cif.got.tgz:15296.got - 2010.04.16 15:00:50.
