data_PCOD8222249
_publ_section_title
;
Structure prediction by ZEFSAII (Michael W. Deem and Ramdas Pophale) SiO2 
 PCOD8222249
Probable space group: P M N A
;
_chemical_formula_sum "Si O2"
_cell_formula_units_Z 64
_cell_length_a 9.423055
_cell_length_b 26.138262
_cell_length_c 14.968240
_cell_angle_alpha 90.000000
_cell_angle_beta 90.000000
_cell_angle_gamma 90.000000
_cell_volume 3686.711646
_symmetry_space_group_name_H-M "P M N A"
_symmetry_group_IT_number 53
_symmetry_cell_setting 'orthorhombic'
loop_
_space_group_symop_operation_xyz
x,y,z
1/2-x,-y,1/2+z
x,-y,-z
1/2-x,y,1/2-z
-x,-y,-z
1/2+x,y,1/2-z
-x,y,z
1/2+x,-y,1/2+z
loop_
_atom_site_type_symbol
_atom_site_label
_atom_site_fract_x
_atom_site_fract_y
_atom_site_fract_z
Si Si1 0.831930 0.576046 0.000000
Si Si2 0.164873 0.241837 0.162437
Si Si3 0.668891 0.942486 0.500000
Si Si4 0.668858 0.500000 0.345723
Si Si5 0.664886 0.875091 0.337556
Si Si6 0.664873 0.758162 0.337563
Si Si7 0.835114 0.124909 0.162444
Si Si8 0.168961 0.690671 0.000000
O O1 0.784519 0.548399 0.092462
O O2 0.000000 0.576438 0.000000
O O3 0.784519 0.548399 0.907538
O O4 0.768372 0.633280 0.000000
O O5 0.250000 0.256616 0.250000
O O6 0.192496 0.183373 0.132927
O O7 0.224429 0.279080 0.086225
O O8 0.000000 0.251249 0.181662
O O9 0.500000 0.942593 0.500000
O O10 0.724597 0.912361 0.413711
O O11 0.724597 0.912361 0.586289
O O12 0.730197 0.000000 0.500000
O O13 0.750000 0.500000 0.250000
O O14 0.500000 0.500000 0.326375
O O15 0.750000 0.889848 0.250000
O O16 0.500000 0.884527 0.318407
O O17 0.692496 0.816627 0.367072
O O18 0.750000 0.743384 0.250000
O O19 0.500000 0.748751 0.318338
O O20 0.724429 0.720920 0.413775
O O21 0.750000 0.110153 0.250000
O O22 0.000000 0.115473 0.181593
O O23 0.000000 0.690199 0.000000
#
# Coordination Sequence:
#
# PCOD8222249 Si02
#       8
#     8   8   8   8   8   8   8   8
#     4   8  16  30  46  66  91 119 150 180 216 264
#     4   9  17  29  46  67  89 115 147 180 215 258
#     4   9  17  29  46  66  86 112 147 182 216 258
#     4   9  17  31  50  68  88 117 151 185 220 258
#     4   9  17  30  47  66  88 114 145 180 217 258
#     4   9  17  29  46  67  89 115 147 180 215 258
#     4   9  17  30  47  66  88 114 145 180 217 258
#     4   9  16  28  47  67  89 119 151 180 212 258
#
# _framework density 17.359642999999998
#
# number of rings (size 3 to 8) (size 9 to 14) (size 15 to 20)
#    0.000    3.125    0.000    1.500    0.000    4.500 
#    0.000    2.500    0.000    8.250    0.000    0.000 
#    0.000    0.000    0.000    0.000    0.000    0.000 
#
# Total GULP energy -793305.680099 kJ/mol
# GULP energy per Si atom -12395.401252 kJ/mol
# Density = 1.732013 g / cm^3
# Si number density = 17.359643 Si / 1000 Ang^3
#
#
#
# Elastic Constant Matrix: (Units=GPa)
#
#
# Indices 1 2 3 4 5 6 
#
# 1 29.7901 32.0541 46.3212 0.0000 0.0000 0.0000
# 2 32.0541 150.6582 108.9909 0.0000 0.0000 0.0000
# 3 46.3212 108.9909 175.0440 0.0000 0.0000 0.0000
# 4 0.0000 0.0000 0.0000 8.3337 0.0000 0.0000
# 5 0.0000 0.0000 0.0000 0.0000 30.3313 0.0000
# 6 0.0000 0.0000 0.0000 0.0000 0.0000 13.3120
#
#
#
# Elastic Compliance Matrix: (Units=1/GPa)
#
#
# Indices 1 2 3 4 5 6 
#
# 1 0.057446 -0.002229 -0.013814 0.000000 0.000000 0.000000
# 2 -0.002229 0.012164 -0.006984 0.000000 0.000000 0.000000
# 3 -0.013814 -0.006984 0.013717 0.000000 0.000000 0.000000
# 4 0.000000 0.000000 0.000000 0.119994 0.000000 0.000000
# 5 0.000000 0.000000 0.000000 0.000000 0.032969 0.000000
# 6 0.000000 0.000000 0.000000 0.000000 0.000000 0.075120
#
#
# Mechanical properties :
#
#
# Convention : Reuss Voigt Hill
#
# Bulk Modulus (GPa) = 26.82886 81.13608 53.98247
# Shear Modulus (GPa) = 13.51754 21.60381 17.56067
#
# Velocity S-wave (km/s) = 2.79350 3.53155 3.18399
# Velocity P-wave (km/s) = 5.08853 7.96674 6.68439
#
# Compressibility (1/GPa) = 0.03727329
#
# Stress axis : x y z
#
# Youngs Moduli (GPa) = 17.40771 82.20664 72.90130
#
# Poissons Ratio (x) = 0.18322 1.00705
# Poissons Ratio (y) = 0.03880 0.50917
# Poissons Ratio (z) = 0.24047 0.57416
#
# Static dielectric constant tensor:
#      x y z
#    x 2.822700 0.000000 0.000000 
#    y 0.000000 3.568570 0.000000 
#    z 0.000000 0.000000 3.328090 
# 
# 
# High freq. dielectric constant tensor:
#      x y z
#    x 1.625570 0.000000 0.000000 
#    y 0.000000 1.675910 0.000000 
#    z 0.000000 0.000000 1.678700 
# 
# From -- ./inp_files/15040.got.cif
#   From: 2010.03.12/outbox.cif.g09.slc.cpg/sg53_8_cif.got.tgz:15040.got - 2010.04.16 14:36:59.
