data_PCOD8222245
_publ_section_title
;
Structure prediction by ZEFSAII (Michael W. Deem and Ramdas Pophale) SiO2 
 PCOD8222245
Probable space group: P M N A
;
_chemical_formula_sum "Si O2"
_cell_formula_units_Z 64
_cell_length_a 9.818071
_cell_length_b 21.108587
_cell_length_c 18.975602
_cell_angle_alpha 90.000000
_cell_angle_beta 90.000000
_cell_angle_gamma 90.000000
_cell_volume 3932.610133
_symmetry_space_group_name_H-M "P M N A"
_symmetry_group_IT_number 53
_symmetry_cell_setting 'orthorhombic'
loop_
_space_group_symop_operation_xyz
x,y,z
1/2-x,-y,1/2+z
x,-y,-z
1/2-x,y,1/2-z
-x,-y,-z
1/2+x,y,1/2-z
-x,y,z
1/2+x,-y,1/2+z
loop_
_atom_site_type_symbol
_atom_site_label
_atom_site_fract_x
_atom_site_fract_y
_atom_site_fract_z
Si Si1 0.158136 0.802261 0.057171
Si Si2 0.837879 0.564378 0.533313
Si Si3 0.840378 0.604987 0.686192
Si Si4 0.342300 0.893032 0.315605
Si Si5 0.344499 0.962860 0.685954
Si Si6 0.655632 0.155594 0.402281
Si Si7 0.848242 0.304783 0.521466
Si Si8 0.850924 0.741667 0.637347
O O1 0.199523 0.850017 0.118731
O O2 0.245160 0.737962 0.067171
O O3 0.000000 0.783437 0.060356
O O4 0.194721 0.837430 0.984163
O O5 0.777487 0.500000 0.500000
O O6 0.788639 0.571680 0.614102
O O7 0.790767 0.623269 0.484092
O O8 0.000000 0.564318 0.533864
O O9 0.750000 0.576944 0.750000
O O10 0.811503 0.680180 0.682556
O O11 0.000000 0.591256 0.699634
O O12 0.250000 0.872267 0.250000
O O13 0.500000 0.883779 0.294856
O O14 0.311568 0.965498 0.337725
O O15 0.250000 0.941272 0.750000
O O16 0.500000 0.957033 0.711737
O O17 0.316225 0.916990 0.619648
O O18 0.500000 0.174943 0.389555
O O19 0.742259 0.202353 0.352109
O O20 0.856080 0.278036 0.443452
O O21 0.000000 0.303050 0.555610
O O22 0.000000 0.766790 0.660379
#
# Coordination Sequence:
#
# PCOD8222245 Si02
#       8
#     8   8   8   8   8   8   8   8
#     4   9  17  29  46  67  89 112 139 177 222 261
#     4   8  14  27  48  70  90 117 153 184 211 252
#     4   9  17  28  43  64  89 117 149 184 217 250
#     4   9  18  32  48  64  83 110 144 182 224 267
#     4   9  18  31  44  59  82 112 145 180 217 260
#     4   9  17  28  43  64  87 112 143 177 216 259
#     4   8  14  26  45  67  87 108 138 174 209 248
#     4   8  15  27  40  57  84 114 141 170 206 249
#
# _framework density 16.274179
#
# number of rings (size 3 to 8) (size 9 to 14) (size 15 to 20)
#    0.000    3.375    0.000    1.500    0.000    2.500 
#    0.000    6.875    0.000    2.250    0.000   10.500 
#    0.000    0.000    0.000    0.000    0.000    0.000 
#
# Total GULP energy -793267.350826 kJ/mol
# GULP energy per Si atom -12394.802357 kJ/mol
# Density = 1.623714 g / cm^3
# Si number density = 16.274179 Si / 1000 Ang^3
#
#
#
# Elastic Constant Matrix: (Units=GPa)
#
#
# Indices 1 2 3 4 5 6 
#
# 1 61.4035 51.4907 44.9588 0.0000 0.0000 0.0000
# 2 51.4907 112.9251 58.1097 0.0000 0.0000 0.0000
# 3 44.9588 58.1097 77.3085 0.0000 0.0000 0.0000
# 4 0.0000 0.0000 0.0000 20.3567 0.0000 0.0000
# 5 0.0000 0.0000 0.0000 0.0000 23.3654 0.0000
# 6 0.0000 0.0000 0.0000 0.0000 0.0000 18.6473
#
#
#
# Elastic Compliance Matrix: (Units=1/GPa)
#
#
# Indices 1 2 3 4 5 6 
#
# 1 0.032536 -0.008315 -0.012671 0.000000 0.000000 0.000000
# 2 -0.008315 0.016566 -0.007617 0.000000 0.000000 0.000000
# 3 -0.012671 -0.007617 0.026029 0.000000 0.000000 0.000000
# 4 0.000000 0.000000 0.000000 0.049124 0.000000 0.000000
# 5 0.000000 0.000000 0.000000 0.000000 0.042798 0.000000
# 6 0.000000 0.000000 0.000000 0.000000 0.000000 0.053627
#
#
# Mechanical properties :
#
#
# Convention : Reuss Voigt Hill
#
# Bulk Modulus (GPa) = 55.78553 62.30616 59.04584
# Shear Modulus (GPa) = 17.61418 18.94574 18.27996
#
# Velocity S-wave (km/s) = 3.29346 3.41568 3.35513
# Velocity P-wave (km/s) = 6.98681 7.34331 7.16728
#
# Compressibility (1/GPa) = 0.01792580
#
# Stress axis : x y z
#
# Youngs Moduli (GPa) = 30.73498 60.36362 38.41835
#
# Poissons Ratio (x) = 0.50193 0.48681
# Poissons Ratio (y) = 0.25557 0.29262
# Poissons Ratio (z) = 0.38945 0.45976
#
# Static dielectric constant tensor:
#      x y z
#    x 3.134590 0.000000 0.000000 
#    y 0.000000 3.253410 0.000000 
#    z 0.000000 0.000000 2.886220 
# 
# 
# High freq. dielectric constant tensor:
#      x y z
#    x 1.616400 0.000000 0.000000 
#    y 0.000000 1.617550 0.000000 
#    z 0.000000 0.000000 1.601440 
# 
# From -- ./inp_files/27038.got.cif
#   From: 2010.03.12/outbox.cif.g09.slc.cpg/sg53_14_cif.got.tgz:27038.got - 2010.04.16 14:36:59.
