data_PCOD8222483
_publ_section_title
;
Structure prediction by ZEFSAII (Michael W. Deem and Ramdas Pophale) SiO2 
 PCOD8222483
Probable space group: P C C A
;
_chemical_formula_sum "Si O2"
_cell_formula_units_Z 64
_cell_length_a 15.230177
_cell_length_b 9.639294
_cell_length_c 22.357323
_cell_angle_alpha 90.000000
_cell_angle_beta 90.000000
_cell_angle_gamma 90.000000
_cell_volume 3282.237313
_symmetry_space_group_name_H-M "P C C A"
_symmetry_group_IT_number 54
_symmetry_cell_setting 'orthorhombic'
loop_
_space_group_symop_operation_xyz
x,y,z
1/2-x,-y,z
1/2+x,-y,1/2-z
-x,y,1/2-z
-x,-y,-z
1/2+x,y,-z
1/2-x,y,1/2+z
x,-y,1/2+z
loop_
_atom_site_type_symbol
_atom_site_label
_atom_site_fract_x
_atom_site_fract_y
_atom_site_fract_z
Si Si1 0.132607 0.743984 0.495063
Si Si2 0.589333 0.116841 0.233874
Si Si3 0.151897 0.960820 0.393914
Si Si4 0.067654 0.177238 0.204235
Si Si5 0.760170 0.835988 0.314022
Si Si6 0.220398 0.654383 0.077335
Si Si7 0.526645 0.203349 0.579114
Si Si8 0.093068 0.552791 0.979781
O O1 0.162173 0.841257 0.441934
O O2 0.201339 0.745897 0.549069
O O3 0.143897 0.589591 0.465968
O O4 0.037700 0.791003 0.521075
O O5 0.500000 0.203893 0.250000
O O6 0.596738 0.087315 0.163609
O O7 0.678196 0.189401 0.256266
O O8 0.577664 0.979210 0.273626
O O9 0.250000 0.000000 0.372937
O O10 0.098605 0.083173 0.426348
O O11 0.166664 0.236915 0.202189
O O12 0.000000 0.255618 0.250000
O O13 0.029031 0.187589 0.138446
O O14 0.807346 0.748661 0.366449
O O15 0.750000 0.000000 0.330534
O O16 0.250000 0.500000 0.097368
O O17 0.138780 0.642096 0.032299
O O18 0.581475 0.348370 0.578189
O O19 0.000000 0.500000 0.000000
#
# Coordination Sequence:
#
# PCOD8222483 Si02
#       8
#     8   8   8   8   8   8   8   8
#     4  10  22  39  58  89 126 154 199 252 302 359
#     4  10  21  38  57  85 120 160 194 250 310 349
#     4  12  23  37  60  90 128 158 198 250 308 365
#     4  10  18  36  60  86 119 154 197 249 299 359
#     4  10  21  36  64  89 114 154 211 248 298 356
#     4  10  20  39  61  82 120 159 196 248 301 364
#     4  11  20  37  62  88 117 159 209 241 300 372
#     4   9  21  38  57  84 119 161 193 240 311 356
#
# _framework density 19.498894
#
# number of rings (size 3 to 8) (size 9 to 14) (size 15 to 20)
#    0.000    1.750    3.750    2.250    0.000    3.500 
#    0.000    0.000    2.750    0.000    0.000    0.000 
#    0.000    0.000    0.000    0.000    0.000    0.000 
#
# Total GULP energy -792955.173554 kJ/mol
# GULP energy per Si atom -12389.924587 kJ/mol
# Density = 1.945451 g / cm^3
# Si number density = 19.498894 Si / 1000 Ang^3
#
#
#
# Elastic Constant Matrix: (Units=GPa)
#
#
# Indices 1 2 3 4 5 6 
#
# 1 108.8892 23.1717 26.4547 0.0000 0.0000 0.0000
# 2 23.1717 68.0480 44.7818 0.0000 0.0000 0.0000
# 3 26.4547 44.7818 81.7932 0.0000 0.0000 0.0000
# 4 0.0000 0.0000 0.0000 7.2142 0.0000 0.0000
# 5 0.0000 0.0000 0.0000 0.0000 22.3811 0.0000
# 6 0.0000 0.0000 0.0000 0.0000 0.0000 24.5059
#
#
#
# Elastic Compliance Matrix: (Units=1/GPa)
#
#
# Indices 1 2 3 4 5 6 
#
# 1 0.010142 -0.002024 -0.002172 0.000000 0.000000 0.000000
# 2 -0.002024 0.023377 -0.012144 0.000000 0.000000 0.000000
# 3 -0.002172 -0.012144 0.019577 0.000000 0.000000 0.000000
# 4 0.000000 0.000000 0.000000 0.138615 0.000000 0.000000
# 5 0.000000 0.000000 0.000000 0.000000 0.044681 0.000000
# 6 0.000000 0.000000 0.000000 0.000000 0.000000 0.040807
#
#
# Mechanical properties :
#
#
# Convention : Reuss Voigt Hill
#
# Bulk Modulus (GPa) = 48.98229 49.72743 49.35486
# Shear Modulus (GPa) = 15.78860 21.77505 18.78182
#
# Velocity S-wave (km/s) = 2.84864 3.34538 3.10695
# Velocity P-wave (km/s) = 5.99956 6.36240 6.18364
#
# Compressibility (1/GPa) = 0.02041554
#
# Stress axis : x y z
#
# Youngs Moduli (GPa) = 98.59889 42.77769 51.07940
#
# Poissons Ratio (x) = 0.08659 0.11095
# Poissons Ratio (y) = 0.19958 0.62031
# Poissons Ratio (z) = 0.21416 0.51949
#
# Static dielectric constant tensor:
#      x y z
#    x 4.449130 0.000000 0.000000 
#    y 0.000000 3.857140 0.000000 
#    z 0.000000 0.000000 3.455070 
# 
# 
# High freq. dielectric constant tensor:
#      x y z
#    x 1.784190 0.000000 0.000000 
#    y 0.000000 1.728260 0.000000 
#    z 0.000000 0.000000 1.746460 
# 
# From -- ./inp_files/18241.got.cif
#   From: 2010.03.12/outbox.cif.g09.slc.cpg/sg54_10_cif.got.tgz:18241.got - 2010.04.16 15:00:50.
