data_PCOD8222601
_publ_section_title
;
Structure prediction by ZEFSAII (Michael W. Deem and Ramdas Pophale) SiO2 
 PCOD8222601
Probable space group: P C C A
;
_chemical_formula_sum "Si O2"
_cell_formula_units_Z 48
_cell_length_a 14.540833
_cell_length_b 5.038158
_cell_length_c 32.779872
_cell_angle_alpha 90.000000
_cell_angle_beta 90.000000
_cell_angle_gamma 90.000000
_cell_volume 2401.421105
_symmetry_space_group_name_H-M "P C C A"
_symmetry_group_IT_number 54
_symmetry_cell_setting 'orthorhombic'
loop_
_space_group_symop_operation_xyz
x,y,z
1/2-x,-y,z
1/2+x,-y,1/2-z
-x,y,1/2-z
-x,-y,-z
1/2+x,y,-z
1/2-x,y,1/2+z
x,-y,1/2+z
loop_
_atom_site_type_symbol
_atom_site_label
_atom_site_fract_x
_atom_site_fract_y
_atom_site_fract_z
Si Si1 0.905476 0.127956 0.394786
Si Si2 0.811237 0.760134 0.583233
Si Si3 0.006728 0.245468 0.471393
Si Si4 0.843022 0.359589 0.852268
Si Si5 0.510212 0.360187 0.202065
Si Si6 0.574919 0.115938 0.657821
O O1 0.890154 0.423208 0.379906
O O2 0.918334 0.181777 0.442746
O O3 0.999375 0.020444 0.375014
O O4 0.829263 0.905753 0.380901
O O5 0.750000 0.500000 0.580803
O O6 0.901111 0.727126 0.555352
O O7 0.835393 0.816601 0.630976
O O8 0.750000 0.000000 0.565939
O O9 0.000000 0.500000 0.500000
O O10 0.000000 0.000000 0.500000
O O11 0.750000 0.500000 0.836119
O O12 0.907419 0.289864 0.813885
O O13 0.500000 0.372809 0.250000
O O14 0.545359 0.638684 0.185442
O O15 0.584457 0.135850 0.188298
#
# Coordination Sequence:
#
# PCOD8222601 Si02
#       6
#     8   8   8   8   8   8
#     4   9  19  35  55  76 102 143 185 216 265 338
#     4  11  22  39  61  85 113 150 195 244 286 334
#     4  11  22  39  60  83 114 150 185 228 289 352
#     4  10  19  34  54  78 107 143 187 231 269 317
#     4  10  19  34  56  82 112 148 186 229 282 343
#     4   9  19  35  56  78 106 146 188 222 272 344
#
# _framework density 19.988163
#
# number of rings (size 3 to 8) (size 9 to 14) (size 15 to 20)
#    0.000    2.000    0.000    4.000    0.000    5.333 
#    0.000   10.833    0.000    2.000    0.000    0.000 
#    0.000    0.000    0.000    0.000    0.000    0.000 
#
# Total GULP energy -594645.094052 kJ/mol
# GULP energy per Si atom -12388.439459 kJ/mol
# Density = 1.994267 g / cm^3
# Si number density = 19.988163 Si / 1000 Ang^3
#
#
#
# Elastic Constant Matrix: (Units=GPa)
#
#
# Indices 1 2 3 4 5 6 
#
# 1 76.5954 30.5301 41.0465 0.0000 0.0000 0.0000
# 2 30.5301 148.4607 62.2598 0.0000 0.0000 0.0000
# 3 41.0465 62.2598 141.2472 0.0000 0.0000 0.0000
# 4 0.0000 0.0000 0.0000 37.8973 0.0000 0.0000
# 5 0.0000 0.0000 0.0000 0.0000 403.2209 0.0000
# 6 0.0000 0.0000 0.0000 0.0000 0.0000 33.6895
#
#
#
# Elastic Compliance Matrix: (Units=1/GPa)
#
#
# Indices 1 2 3 4 5 6 
#
# 1 0.015776 -0.001621 -0.003870 0.000000 0.000000 0.000000
# 2 -0.001621 0.008430 -0.003245 0.000000 0.000000 0.000000
# 3 -0.003870 -0.003245 0.009635 0.000000 0.000000 0.000000
# 4 0.000000 0.000000 0.000000 0.026387 0.000000 0.000000
# 5 0.000000 0.000000 0.000000 0.000000 0.002480 0.000000
# 6 0.000000 0.000000 0.000000 0.000000 0.000000 0.029683
#
#
# Mechanical properties :
#
#
# Convention : Reuss Voigt Hill
#
# Bulk Modulus (GPa) = 61.09237 70.44177 65.76707
# Shear Modulus (GPa) = 43.35852 110.45933 76.90892
#
# Velocity S-wave (km/s) = 4.66253 7.44193 6.20973
# Velocity P-wave (km/s) = 7.72115 10.44803 9.18634
#
# Compressibility (1/GPa) = 0.01636865
#
# Stress axis : x y z
#
# Youngs Moduli (GPa) = 63.38902 118.62537 103.79343
#
# Poissons Ratio (x) = 0.19233 0.40165
# Poissons Ratio (y) = 0.10277 0.33677
# Poissons Ratio (z) = 0.24530 0.38489
#
# Static dielectric constant tensor:
#      x y z
#    x 3.627950 0.000000 0.000000 
#    y 0.000000 3.856600 0.000000 
#    z 0.000000 0.000000 3.697860 
# 
# 
# High freq. dielectric constant tensor:
#      x y z
#    x 1.761250 0.000000 0.000000 
#    y 0.000000 1.804920 0.000000 
#    z 0.000000 0.000000 1.771740 
# 
# From -- ./inp_files/26470.got.cif
#   From: 2010.03.12/outbox.cif.g09.slc.cpg/sg54_14_cif.got.tgz:26470.got - 2010.04.16 15:00:50.
