data_PCOD8222292
_publ_section_title
;
Structure prediction by ZEFSAII (Michael W. Deem and Ramdas Pophale) SiO2 
 PCOD8222292
Probable space group: P C C A
;
_chemical_formula_sum "Si O2"
_cell_formula_units_Z 56
_cell_length_a 18.775052
_cell_length_b 16.739068
_cell_length_c 8.957598
_cell_angle_alpha 90.000000
_cell_angle_beta 90.000000
_cell_angle_gamma 90.000000
_cell_volume 2815.165881
_symmetry_space_group_name_H-M "P C C A"
_symmetry_group_IT_number 54
_symmetry_cell_setting 'orthorhombic'
loop_
_space_group_symop_operation_xyz
x,y,z
1/2-x,-y,z
1/2+x,-y,1/2-z
-x,y,1/2-z
-x,-y,-z
1/2+x,y,-z
1/2-x,y,1/2+z
x,-y,1/2+z
loop_
_atom_site_type_symbol
_atom_site_label
_atom_site_fract_x
_atom_site_fract_y
_atom_site_fract_z
Si Si1 0.422563 0.015563 0.932881
Si Si2 0.072789 0.456281 0.546117
Si Si3 0.073833 0.253824 0.030695
Si Si4 0.084057 0.596151 0.731813
Si Si5 0.826963 0.134206 0.607597
Si Si6 0.708561 0.075871 0.396037
Si Si7 0.000000 0.663429 0.250000
Si Si8 0.000000 0.135297 0.250000
O O1 0.433225 0.078869 0.796847
O O2 0.388835 0.932505 0.879320
O O3 0.370534 0.053636 0.053307
O O4 0.500000 0.000000 0.000000
O O5 0.118229 0.527038 0.625848
O O6 0.112821 0.415498 0.402940
O O7 0.060892 0.390157 0.673867
O O8 0.000000 0.500000 0.500000
O O9 0.098883 0.319048 0.153244
O O10 0.023229 0.189579 0.110509
O O11 0.145837 0.213855 0.971059
O O12 0.032954 0.285910 0.885393
O O13 0.000000 0.586057 0.750000
O O14 0.755562 0.105357 0.530820
O O15 0.801255 0.147656 0.777285
O O16 0.750000 0.000000 0.321310
#
# Coordination Sequence:
#
# PCOD8222292 Si02
#       8
#     8   8   8   8   8   8   4   4
#     4  11  22  39  65  87 114 152 208 252 309 368
#     4  10  15  29  54  75 119 172 198 231 294 381
#     4  12  24  34  53  85 131 161 197 249 318 367
#     4  10  16  31  49  82 116 171 195 237 300 374
#     4  11  25  41  60  84 113 158 207 258 302 366
#     4  10  23  43  64  82 107 154 213 261 305 364
#     4  12  20  32  50  84 126 168 194 242 304 376
#     4  12  24  38  56  86 124 162 190 256 318 362
#
# _framework density 19.892257000000001
#
# number of rings (size 3 to 8) (size 9 to 14) (size 15 to 20)
#    0.000    1.143    7.143    2.143    6.000    0.571 
#    0.000    0.000    0.000    0.000    0.000    0.000 
#    0.000   13.714    0.000    0.000    0.000    0.000 
#
# Total GULP energy -693808.742320 kJ/mol
# GULP energy per Si atom -12389.441827 kJ/mol
# Density = 1.984698 g / cm^3
# Si number density = 19.892257 Si / 1000 Ang^3
#
#
#
# Elastic Constant Matrix: (Units=GPa)
#
#
# Indices 1 2 3 4 5 6 
#
# 1 80.9588 29.5962 34.4485 0.0000 0.0000 0.0000
# 2 29.5962 110.5285 65.6329 0.0000 0.0000 0.0000
# 3 34.4485 65.6329 140.6559 0.0000 0.0000 0.0000
# 4 0.0000 0.0000 0.0000 52.3393 0.0000 0.0000
# 5 0.0000 0.0000 0.0000 0.0000 4.0158 0.0000
# 6 0.0000 0.0000 0.0000 0.0000 0.0000 7.9010
#
#
#
# Elastic Compliance Matrix: (Units=1/GPa)
#
#
# Indices 1 2 3 4 5 6 
#
# 1 0.014238 -0.002410 -0.002363 0.000000 0.000000 0.000000
# 2 -0.002410 0.012923 -0.005440 0.000000 0.000000 0.000000
# 3 -0.002363 -0.005440 0.010227 0.000000 0.000000 0.000000
# 4 0.000000 0.000000 0.000000 0.019106 0.000000 0.000000
# 5 0.000000 0.000000 0.000000 0.000000 0.249017 0.000000
# 6 0.000000 0.000000 0.000000 0.000000 0.000000 0.126566
#
#
# Mechanical properties :
#
#
# Convention : Reuss Voigt Hill
#
# Bulk Modulus (GPa) = 58.95117 65.72205 62.33661
# Shear Modulus (GPa) = 10.91331 26.34892 18.63111
#
# Velocity S-wave (km/s) = 2.34481 3.64343 3.06371
# Velocity P-wave (km/s) = 6.08526 7.12813 6.62724
#
# Compressibility (1/GPa) = 0.01696319
#
# Stress axis : x y z
#
# Youngs Moduli (GPa) = 70.23359 77.38168 97.78382
#
# Poissons Ratio (x) = 0.18645 0.23104
# Poissons Ratio (y) = 0.16923 0.53194
# Poissons Ratio (z) = 0.16595 0.42096
#
# Static dielectric constant tensor:
#      x y z
#    x 2.934590 0.000000 0.000000 
#    y 0.000000 3.926250 0.000000 
#    z 0.000000 0.000000 4.520190 
# 
# 
# High freq. dielectric constant tensor:
#      x y z
#    x 1.716700 0.000000 0.000000 
#    y 0.000000 1.769940 0.000000 
#    z 0.000000 0.000000 1.807230 
# 
# From -- ./inp_files/4875.got.cif
#   From: 2010.03.12/outbox.cif.g09.slc.cpg/sg54_3_cif.got.tgz:4875.got - 2010.04.16 15:00:50.
