data_PCOD8222682
_publ_section_title
;
Structure prediction by ZEFSAII (Michael W. Deem and Ramdas Pophale) SiO2 
 PCOD8222682
Probable space group: P C C A
;
_chemical_formula_sum "Si O2"
_cell_formula_units_Z 40
_cell_length_a 15.087481
_cell_length_b 11.446962
_cell_length_c 8.914537
_cell_angle_alpha 90.000000
_cell_angle_beta 90.000000
_cell_angle_gamma 90.000000
_cell_volume 1539.592438
_symmetry_space_group_name_H-M "P C C A"
_symmetry_group_IT_number 54
_symmetry_cell_setting 'orthorhombic'
loop_
_space_group_symop_operation_xyz
x,y,z
1/2-x,-y,z
1/2+x,-y,1/2-z
-x,y,1/2-z
-x,-y,-z
1/2+x,y,-z
1/2-x,y,1/2+z
x,-y,1/2+z
loop_
_atom_site_type_symbol
_atom_site_label
_atom_site_fract_x
_atom_site_fract_y
_atom_site_fract_z
Si Si1 0.209725 0.883208 0.759764
Si Si2 0.895795 0.660493 0.018582
Si Si3 0.702096 0.261706 0.470724
Si Si4 0.959039 0.891216 0.911696
Si Si5 0.352248 0.528063 0.701351
O O1 0.157833 0.814993 0.895106
O O2 0.289339 0.807697 0.686407
O O3 0.144473 0.915063 0.622444
O O4 0.250000 0.000000 0.831504
O O5 0.797273 0.708370 0.039268
O O6 0.912413 0.576840 0.161900
O O7 0.964948 0.769710 0.008018
O O8 0.899685 0.587506 0.862722
O O9 0.646572 0.378387 0.436163
O O10 0.000000 0.875467 0.750000
O O11 0.000000 0.000000 0.000000
O O12 0.250000 0.500000 0.750239
#
# Coordination Sequence:
#
# PCOD8222682 Si02
#       5
#     8   8   8   8   8
#     4  11  24  40  72 107 141 190 255 312 364 453
#     4  10  22  40  69 107 145 194 237 303 376 453
#     4  10  20  36  65 109 149 177 238 309 380 433
#     4  11  29  52  70 100 154 207 252 306 383 449
#     4  10  19  36  70 112 156 182 235 314 388 446
#
# _framework density 25.980902
#
# number of rings (size 3 to 8) (size 9 to 14) (size 15 to 20)
#    0.000    1.600    2.000    2.400   14.000    0.000 
#    0.000    1.000    0.000    0.000    0.000    0.000 
#    0.000    0.000    0.000    0.000    0.000    0.000 
#
# Total GULP energy -495826.371250 kJ/mol
# GULP energy per Si atom -12395.659281 kJ/mol
# Density = 2.592177 g / cm^3
# Si number density = 25.980902 Si / 1000 Ang^3
#
#
#
# Elastic Constant Matrix: (Units=GPa)
#
#
# Indices 1 2 3 4 5 6 
#
# 1 14.3911 38.8159 20.4932 0.0000 0.0000 0.0000
# 2 38.8159 189.6978 86.4056 0.0000 0.0000 0.0000
# 3 20.4932 86.4056 149.3179 0.0000 0.0000 0.0000
# 4 0.0000 0.0000 0.0000 60.8794 0.0000 0.0000
# 5 0.0000 0.0000 0.0000 0.0000 33.1913 0.0000
# 6 0.0000 0.0000 0.0000 0.0000 0.0000 47.6146
#
#
#
# Elastic Compliance Matrix: (Units=1/GPa)
#
#
# Indices 1 2 3 4 5 6 
#
# 1 0.156822 -0.030262 -0.004012 0.000000 0.000000 0.000000
# 2 -0.030262 0.012998 -0.003368 0.000000 0.000000 0.000000
# 3 -0.004012 -0.003368 0.009197 0.000000 0.000000 0.000000
# 4 0.000000 0.000000 0.000000 0.016426 0.000000 0.000000
# 5 0.000000 0.000000 0.000000 0.000000 0.030128 0.000000
# 6 0.000000 0.000000 0.000000 0.000000 0.000000 0.021002
#
#
# Mechanical properties :
#
#
# Convention : Reuss Voigt Hill
#
# Bulk Modulus (GPa) = 9.64006 71.64847 40.64426
# Shear Modulus (GPa) = 14.02786 42.18321 28.10553
#
# Velocity S-wave (km/s) = 2.32616 4.03379 3.29261
# Velocity P-wave (km/s) = 3.30654 7.02371 5.48934
#
# Compressibility (1/GPa) = 0.10373378
#
# Stress axis : x y z
#
# Youngs Moduli (GPa) = 6.37666 76.93581 108.73397
#
# Poissons Ratio (x) = 2.32820 0.43620
# Poissons Ratio (y) = 0.19297 0.36624
# Poissons Ratio (z) = 0.02558 0.25913
#
# Static dielectric constant tensor:
#      x y z
#    x 4.431320 0.000000 0.000000 
#    y 0.000000 4.996260 0.000000 
#    z 0.000000 0.000000 4.586610 
# 
# 
# High freq. dielectric constant tensor:
#      x y z
#    x 1.991500 0.000000 0.000000 
#    y 0.000000 2.056290 0.000000 
#    z 0.000000 0.000000 2.044540 
# 
# From -- ./inp_files/3938.got.cif
#   From: 2010.03.12/outbox.cif.g09.slc.cpg/sg54_2_cif.got.tgz:3938.got - 2010.04.16 15:00:50.
