data_PCOD8222460
_publ_section_title
;
Structure prediction by ZEFSAII (Michael W. Deem and Ramdas Pophale) SiO2 
 PCOD8222460
Probable space group: P C C A
;
_chemical_formula_sum "Si O2"
_cell_formula_units_Z 44
_cell_length_a 12.713661
_cell_length_b 10.990629
_cell_length_c 15.128329
_cell_angle_alpha 90.000000
_cell_angle_beta 90.000000
_cell_angle_gamma 90.000000
_cell_volume 2113.898526
_symmetry_space_group_name_H-M "P C C A"
_symmetry_group_IT_number 54
_symmetry_cell_setting 'orthorhombic'
loop_
_space_group_symop_operation_xyz
x,y,z
1/2-x,-y,z
1/2+x,-y,1/2-z
-x,y,1/2-z
-x,-y,-z
1/2+x,y,-z
1/2-x,y,1/2+z
x,-y,1/2+z
loop_
_atom_site_type_symbol
_atom_site_label
_atom_site_fract_x
_atom_site_fract_y
_atom_site_fract_z
Si Si1 0.233511 0.251449 0.396841
Si Si2 0.496783 0.270119 0.848763
Si Si3 0.750000 0.000000 0.511959
Si Si4 0.799418 0.190914 0.788827
Si Si5 0.889377 0.037316 0.349135
Si Si6 0.710146 0.365244 0.926588
O O1 0.301411 0.260101 0.305530
O O2 0.288589 0.334844 0.469680
O O3 0.115750 0.304272 0.388470
O O4 0.228528 0.112186 0.425040
O O5 0.500000 0.320181 0.750000
O O6 0.506403 0.120555 0.850243
O O7 0.589696 0.340460 0.899333
O O8 0.850500 0.025806 0.450085
O O9 0.692982 0.112202 0.789374
O O10 0.792637 0.283395 0.871130
O O11 0.898842 0.098506 0.805755
O O12 0.750000 0.500000 0.908847
#
# Coordination Sequence:
#
# PCOD8222460 Si02
#       6
#     8   8   4   8   8   8
#     4  12  21  37  69  94 129 172 211 268 330 394
#     4  11  22  41  66  97 128 174 217 262 331 405
#     4  10  18  34  60  94 132 160 194 256 326 386
#     4   9  18  37  61  89 124 168 205 255 328 389
#     4   9  16  37  59  90 133 159 202 255 330 393
#     4  11  24  44  64  90 128 172 228 280 318 373
#
# _framework density 20.814622
#
# number of rings (size 3 to 8) (size 9 to 14) (size 15 to 20)
#    0.000    1.818    9.091    1.091    0.000    2.182 
#    0.000    0.000    0.000    0.000    0.000    0.000 
#    0.000    0.000    0.000    0.000    0.000    0.000 
#
# Total GULP energy -545248.599667 kJ/mol
# GULP energy per Si atom -12392.013629 kJ/mol
# Density = 2.076725 g / cm^3
# Si number density = 20.814622 Si / 1000 Ang^3
#
#
#
# Elastic Constant Matrix: (Units=GPa)
#
#
# Indices 1 2 3 4 5 6 
#
# 1 53.3978 18.2015 12.1243 0.0000 0.0000 0.0000
# 2 18.2015 96.5912 21.5361 0.0000 0.0000 0.0000
# 3 12.1243 21.5361 115.7512 0.0000 0.0000 0.0000
# 4 0.0000 0.0000 0.0000 11.8236 0.0000 0.0000
# 5 0.0000 0.0000 0.0000 0.0000 25.8596 0.0000
# 6 0.0000 0.0000 0.0000 0.0000 0.0000 12.6450
#
#
#
# Elastic Compliance Matrix: (Units=1/GPa)
#
#
# Indices 1 2 3 4 5 6 
#
# 1 0.020250 -0.003488 -0.001472 0.000000 0.000000 0.000000
# 2 -0.003488 0.011402 -0.001756 0.000000 0.000000 0.000000
# 3 -0.001472 -0.001756 0.009120 0.000000 0.000000 0.000000
# 4 0.000000 0.000000 0.000000 0.084577 0.000000 0.000000
# 5 0.000000 0.000000 0.000000 0.000000 0.038670 0.000000
# 6 0.000000 0.000000 0.000000 0.000000 0.000000 0.079083
#
#
# Mechanical properties :
#
#
# Convention : Reuss Voigt Hill
#
# Bulk Modulus (GPa) = 36.57597 41.05156 38.81376
# Shear Modulus (GPa) = 18.82195 24.32420 21.57307
#
# Velocity S-wave (km/s) = 3.01036 3.42220 3.22287
# Velocity P-wave (km/s) = 5.44917 5.94816 5.70412
#
# Compressibility (1/GPa) = 0.02734036
#
# Stress axis : x y z
#
# Youngs Moduli (GPa) = 49.38156 87.70657 109.64746
#
# Poissons Ratio (x) = 0.30590 0.16142
# Poissons Ratio (y) = 0.17223 0.19254
# Poissons Ratio (z) = 0.07270 0.15401
#
# Static dielectric constant tensor:
#      x y z
#    x 3.547970 0.000000 0.000000 
#    y 0.000000 3.760320 0.000000 
#    z 0.000000 0.000000 3.873790 
# 
# 
# High freq. dielectric constant tensor:
#      x y z
#    x 1.776990 0.000000 0.000000 
#    y 0.000000 1.791720 0.000000 
#    z 0.000000 0.000000 1.830780 
# 
# From -- ./inp_files/13368.got.cif
#   From: 2010.03.12/outbox.cif.g09.slc.cpg/sg54_7_cif.got.tgz:13368.got - 2010.04.16 15:00:50.
