data_PCOD8222896
_publ_section_title
;
Structure prediction by ZEFSAII (Michael W. Deem and Ramdas Pophale) SiO2 
 PCOD8222896
Probable space group: P C C A
;
_chemical_formula_sum "Si O2"
_cell_formula_units_Z 48
_cell_length_a 14.293797
_cell_length_b 14.239122
_cell_length_c 10.148651
_cell_angle_alpha 90.000000
_cell_angle_beta 90.000000
_cell_angle_gamma 90.000000
_cell_volume 2065.566298
_symmetry_space_group_name_H-M "P C C A"
_symmetry_group_IT_number 54
_symmetry_cell_setting 'orthorhombic'
loop_
_space_group_symop_operation_xyz
x,y,z
1/2-x,-y,z
1/2+x,-y,1/2-z
-x,y,1/2-z
-x,-y,-z
1/2+x,y,-z
1/2-x,y,1/2+z
x,-y,1/2+z
loop_
_atom_site_type_symbol
_atom_site_label
_atom_site_fract_x
_atom_site_fract_y
_atom_site_fract_z
Si Si1 0.500000 0.229951 0.750000
Si Si2 0.396377 0.868511 0.719376
Si Si3 0.654384 0.176776 0.569474
Si Si4 0.250000 0.000000 0.323835
Si Si5 0.813803 0.303990 0.660212
Si Si6 0.934583 0.619656 0.937872
Si Si7 0.079429 0.415143 0.647289
O O1 0.564070 0.163382 0.661339
O O2 0.567778 0.293643 0.839228
O O3 0.500000 0.904360 0.750000
O O4 0.380746 0.815422 0.580405
O O5 0.373617 0.791557 0.830570
O O6 0.330684 0.959711 0.728902
O O7 0.709040 0.271027 0.619750
O O8 0.714868 0.082780 0.581796
O O9 0.853041 0.369518 0.544773
O O10 0.825069 0.363526 0.799220
O O11 0.908542 0.527178 0.854392
O O12 0.039635 0.615537 0.003195
O O13 0.000000 0.383645 0.750000
#
# Coordination Sequence:
#
# PCOD8222896 Si02
#       7
#     4   8   8   4   8   8   8
#     4  12  24  40  66  98 134 180 228 278 342 412
#     4  11  23  46  73 100 142 183 230 282 361 432
#     4  11  26  45  70 100 138 177 234 291 349 424
#     4  10  26  46  72 112 138 172 228 296 350 434
#     4  10  22  40  68  97 136 185 229 285 344 410
#     4  10  20  36  68  97 137 181 230 278 340 414
#     4   9  17  37  66  97 135 182 229 279 339 405
#
# _framework density 23.238178999999999
#
# number of rings (size 3 to 8) (size 9 to 14) (size 15 to 20)
#    0.000    1.667    0.833    4.000    5.833    0.667 
#    0.000    0.833    3.667    0.000    0.000    0.000 
#    0.000    0.000    0.000    0.000    0.000    0.000 
#
# Total GULP energy -595005.409271 kJ/mol
# GULP energy per Si atom -12395.946026 kJ/mol
# Density = 2.318529 g / cm^3
# Si number density = 23.238179 Si / 1000 Ang^3
#
#
#
# Elastic Constant Matrix: (Units=GPa)
#
#
# Indices 1 2 3 4 5 6 
#
# 1 112.3947 34.4295 39.7584 0.0000 0.0000 0.0000
# 2 34.4295 81.5779 22.0266 0.0000 0.0000 0.0000
# 3 39.7584 22.0266 90.8500 0.0000 0.0000 0.0000
# 4 0.0000 0.0000 0.0000 35.1340 0.0000 0.0000
# 5 0.0000 0.0000 0.0000 0.0000 34.7227 0.0000
# 6 0.0000 0.0000 0.0000 0.0000 0.0000 26.9030
#
#
#
# Elastic Compliance Matrix: (Units=1/GPa)
#
#
# Indices 1 2 3 4 5 6 
#
# 1 0.011503 -0.003740 -0.004127 0.000000 0.000000 0.000000
# 2 -0.003740 0.014333 -0.001838 0.000000 0.000000 0.000000
# 3 -0.004127 -0.001838 0.013259 0.000000 0.000000 0.000000
# 4 0.000000 0.000000 0.000000 0.028462 0.000000 0.000000
# 5 0.000000 0.000000 0.000000 0.000000 0.028800 0.000000
# 6 0.000000 0.000000 0.000000 0.000000 0.000000 0.037171
#
#
# Mechanical properties :
#
#
# Convention : Reuss Voigt Hill
#
# Bulk Modulus (GPa) = 50.80362 53.02796 51.91579
# Shear Modulus (GPa) = 31.34790 31.92581 31.63685
#
# Velocity S-wave (km/s) = 3.67683 3.71057 3.69374
# Velocity P-wave (km/s) = 6.31942 6.42080 6.37031
#
# Compressibility (1/GPa) = 0.01968364
#
# Stress axis : x y z
#
# Youngs Moduli (GPa) = 86.93443 69.76830 75.42060
#
# Poissons Ratio (x) = 0.26096 0.31127
# Poissons Ratio (y) = 0.32517 0.13864
# Poissons Ratio (z) = 0.35879 0.12825
#
# Static dielectric constant tensor:
#      x y z
#    x 4.071120 0.000000 0.000000 
#    y 0.000000 4.034830 0.000000 
#    z 0.000000 0.000000 4.198820 
# 
# 
# High freq. dielectric constant tensor:
#      x y z
#    x 1.899620 0.000000 0.000000 
#    y 0.000000 1.917840 0.000000 
#    z 0.000000 0.000000 1.918520 
# 
# From -- ./inp_files/8376.got.cif
#   From: 2010.03.12/outbox.cif.g09.slc.cpg/sg54_5_cif.got.tgz:8376.got - 2010.04.16 15:00:50.
