data_PCOD8222561
_publ_section_title
;
Structure prediction by ZEFSAII (Michael W. Deem and Ramdas Pophale) SiO2 
 PCOD8222561
Probable space group: P C C A
;
_chemical_formula_sum "Si O2"
_cell_formula_units_Z 56
_cell_length_a 11.882867
_cell_length_b 11.048779
_cell_length_c 21.354205
_cell_angle_alpha 90.000000
_cell_angle_beta 90.000000
_cell_angle_gamma 90.000000
_cell_volume 2803.618588
_symmetry_space_group_name_H-M "P C C A"
_symmetry_group_IT_number 54
_symmetry_cell_setting 'orthorhombic'
loop_
_space_group_symop_operation_xyz
x,y,z
1/2-x,-y,z
1/2+x,-y,1/2-z
-x,y,1/2-z
-x,-y,-z
1/2+x,y,-z
1/2-x,y,1/2+z
x,-y,1/2+z
loop_
_atom_site_type_symbol
_atom_site_label
_atom_site_fract_x
_atom_site_fract_y
_atom_site_fract_z
Si Si1 0.750000 0.000000 0.116050
Si Si2 0.366564 0.729065 0.576625
Si Si3 0.152840 0.595234 0.944568
Si Si4 0.500000 0.635361 0.250000
Si Si5 0.060611 0.511009 0.623889
Si Si6 0.055097 0.888172 0.464227
Si Si7 0.377010 0.244948 0.583119
Si Si8 0.893600 0.785797 0.653650
O O1 0.834031 0.925477 0.072603
O O2 0.674271 0.911442 0.159261
O O3 0.369238 0.666877 0.508425
O O4 0.388509 0.622803 0.626658
O O5 0.462890 0.830919 0.582318
O O6 0.250864 0.801304 0.593999
O O7 0.250000 0.500000 0.953944
O O8 0.176385 0.699413 0.893062
O O9 0.051187 0.513764 0.918458
O O10 0.546029 0.549291 0.304146
O O11 0.401859 0.722767 0.278278
O O12 0.139908 0.610040 0.590054
O O13 0.089557 0.784420 0.512572
O O14 0.000000 0.000000 0.500000
O O15 0.475979 0.195808 0.629182
#
# Coordination Sequence:
#
# PCOD8222561 Si02
#       8
#     4   8   8   4   8   8   8   8
#     4  12  24  38  66  88 126 162 218 250 314 376
#     4  12  22  33  61  90 131 161 196 245 305 389
#     4  10  19  32  55  92 130 156 193 238 316 384
#     4   8  20  44  68  80 122 154 222 256 318 362
#     4  10  21  37  59  91 116 166 198 258 309 373
#     4  12  22  38  57  93 130 165 198 249 300 380
#     4  10  20  37  55  89 126 161 193 233 320 367
#     4  10  21  42  62  89 114 172 206 259 303 369
#
# _framework density 19.974186
#
# number of rings (size 3 to 8) (size 9 to 14) (size 15 to 20)
#    0.000    1.714    4.286    3.429    4.000    0.000 
#    0.000   11.429    6.286    0.000    0.000    0.000 
#    0.000    0.000    0.000    0.000    0.000    0.000 
#
# Total GULP energy -693834.485231 kJ/mol
# GULP energy per Si atom -12389.901522 kJ/mol
# Density = 1.992872 g / cm^3
# Si number density = 19.974186 Si / 1000 Ang^3
#
#
#
# Elastic Constant Matrix: (Units=GPa)
#
#
# Indices 1 2 3 4 5 6 
#
# 1 131.3184 47.9015 25.2980 0.0000 0.0000 0.0000
# 2 47.9015 99.5961 37.5533 0.0000 0.0000 0.0000
# 3 25.2980 37.5533 93.8330 0.0000 0.0000 0.0000
# 4 0.0000 0.0000 0.0000 24.5486 0.0000 0.0000
# 5 0.0000 0.0000 0.0000 0.0000 11.2491 0.0000
# 6 0.0000 0.0000 0.0000 0.0000 0.0000 41.1929
#
#
#
# Elastic Compliance Matrix: (Units=1/GPa)
#
#
# Indices 1 2 3 4 5 6 
#
# 1 0.009292 -0.004151 -0.000844 0.000000 0.000000 0.000000
# 2 -0.004151 0.013679 -0.004356 0.000000 0.000000 0.000000
# 3 -0.000844 -0.004356 0.012628 0.000000 0.000000 0.000000
# 4 0.000000 0.000000 0.000000 0.040736 0.000000 0.000000
# 5 0.000000 0.000000 0.000000 0.000000 0.088896 0.000000
# 6 0.000000 0.000000 0.000000 0.000000 0.000000 0.024276
#
#
# Mechanical properties :
#
#
# Convention : Reuss Voigt Hill
#
# Bulk Modulus (GPa) = 59.17713 60.69480 59.93597
# Shear Modulus (GPa) = 23.38201 29.66443 26.52322
#
# Velocity S-wave (km/s) = 3.42513 3.85793 3.64795
# Velocity P-wave (km/s) = 6.73299 7.09207 6.91486
#
# Compressibility (1/GPa) = 0.01689842
#
# Stress axis : x y z
#
# Youngs Moduli (GPa) = 107.62255 73.10396 79.18975
#
# Poissons Ratio (x) = 0.30343 0.06683
# Poissons Ratio (y) = 0.44671 0.34491
# Poissons Ratio (z) = 0.09083 0.31841
#
# Static dielectric constant tensor:
#      x y z
#    x 3.902860 0.000000 0.000000 
#    y 0.000000 3.717200 0.000000 
#    z 0.000000 0.000000 3.431450 
# 
# 
# High freq. dielectric constant tensor:
#      x y z
#    x 1.787320 0.000000 0.000000 
#    y 0.000000 1.777840 0.000000 
#    z 0.000000 0.000000 1.744950 
# 
# From -- ./inp_files/21213.got.cif
#   From: 2010.03.12/outbox.cif.g09.slc.cpg/sg54_11_cif.got.tgz:21213.got - 2010.04.16 15:00:50.
