data_PCOD8222113
_publ_section_title
;
Structure prediction by ZEFSAII (Michael W. Deem and Ramdas Pophale) SiO2 
 PCOD8222113
Probable space group: P M N A
;
_chemical_formula_sum "Si O2"
_cell_formula_units_Z 64
_cell_length_a 15.633201
_cell_length_b 8.457261
_cell_length_c 22.233957
_cell_angle_alpha 90.000000
_cell_angle_beta 90.000000
_cell_angle_gamma 90.000000
_cell_volume 2939.641750
_symmetry_space_group_name_H-M "P M N A"
_symmetry_group_IT_number 53
_symmetry_cell_setting 'orthorhombic'
loop_
_space_group_symop_operation_xyz
x,y,z
1/2-x,-y,1/2+z
x,-y,-z
1/2-x,y,1/2-z
-x,-y,-z
1/2+x,y,1/2-z
-x,y,z
1/2+x,-y,1/2+z
loop_
_atom_site_type_symbol
_atom_site_label
_atom_site_fract_x
_atom_site_fract_y
_atom_site_fract_z
Si Si1 0.176398 0.832393 0.981409
Si Si2 0.096958 0.920327 0.861183
Si Si3 0.272460 0.437584 0.653970
Si Si4 0.661304 0.296917 0.261921
Si Si5 0.596261 0.396007 0.555305
Si Si6 0.172201 0.384006 0.447629
Si Si7 0.759536 0.912500 0.319567
Si Si8 0.402887 0.832410 0.854854
O O1 0.121430 0.825406 0.920881
O O2 0.253951 0.711108 0.981310
O O3 0.110121 0.785236 0.034474
O O4 0.215055 0.000000 0.000000
O O5 0.100567 0.791664 0.808355
O O6 0.000000 0.989636 0.863811
O O7 0.167990 0.054429 0.851110
O O8 0.304089 0.534035 0.712985
O O9 0.359749 0.419079 0.618325
O O10 0.205907 0.527631 0.611491
O O11 0.224728 0.274059 0.670587
O O12 0.750000 0.198358 0.250000
O O13 0.612431 0.299499 0.197895
O O14 0.635190 0.500000 0.500000
O O15 0.500000 0.443698 0.566739
O O16 0.132799 0.500000 0.500000
O O17 0.106303 0.255270 0.419645
O O18 0.750000 0.946737 0.250000
O O19 0.836212 0.019847 0.348212
O O20 0.500000 0.897886 0.850316
#
# Coordination Sequence:
#
# PCOD8222113 Si02
#       8
#     8   8   8   8   8   8   8   8
#     4  12  22  38  64  98 135 183 227 278 338 412
#     4  12  23  39  66 100 139 182 228 275 338 428
#     4  12  23  40  70  99 140 184 223 283 345 420
#     4  12  20  43  71  99 130 180 231 276 351 416
#     4  11  22  38  59  96 143 182 220 269 334 419
#     4  12  24  45  71 103 131 181 242 286 355 419
#     4  12  25  43  67 103 138 182 230 287 347 418
#     4  12  26  48  74  98 137 186 237 301 359 412
#
# _framework density 21.771360999999999
#
# number of rings (size 3 to 8) (size 9 to 14) (size 15 to 20)
#    0.000    0.125    8.750    1.875    0.000    4.750 
#    0.000    0.625    0.000    2.625    0.000    0.000 
#    0.000    0.000    0.000    0.000    0.000    0.000 
#
# Total GULP energy -792927.951177 kJ/mol
# GULP energy per Si atom -12389.499237 kJ/mol
# Density = 2.172181 g / cm^3
# Si number density = 21.771361 Si / 1000 Ang^3
#
#
#
# Elastic Constant Matrix: (Units=GPa)
#
#
# Indices 1 2 3 4 5 6 
#
# 1 107.4725 23.8240 27.0843 0.0000 0.0000 0.0000
# 2 23.8240 115.7864 28.5271 0.0000 0.0000 0.0000
# 3 27.0843 28.5271 78.4533 0.0000 0.0000 0.0000
# 4 0.0000 0.0000 0.0000 42.5421 0.0000 0.0000
# 5 0.0000 0.0000 0.0000 0.0000 24.0051 0.0000
# 6 0.0000 0.0000 0.0000 0.0000 0.0000 54.5709
#
#
#
# Elastic Compliance Matrix: (Units=1/GPa)
#
#
# Indices 1 2 3 4 5 6 
#
# 1 0.010388 -0.001377 -0.003085 0.000000 0.000000 0.000000
# 2 -0.001377 0.009669 -0.003040 0.000000 0.000000 0.000000
# 3 -0.003085 -0.003040 0.014917 0.000000 0.000000 0.000000
# 4 0.000000 0.000000 0.000000 0.023506 0.000000 0.000000
# 5 0.000000 0.000000 0.000000 0.000000 0.041658 0.000000
# 6 0.000000 0.000000 0.000000 0.000000 0.000000 0.018325
#
#
# Mechanical properties :
#
#
# Convention : Reuss Voigt Hill
#
# Bulk Modulus (GPa) = 50.08031 51.17588 50.62809
# Shear Modulus (GPa) = 35.68262 39.04205 37.36233
#
# Velocity S-wave (km/s) = 4.05281 4.23930 4.14711
# Velocity P-wave (km/s) = 6.70471 6.89343 6.79972
#
# Compressibility (1/GPa) = 0.01996793
#
# Stress axis : x y z
#
# Youngs Moduli (GPa) = 96.26934 103.42281 67.03709
#
# Poissons Ratio (x) = 0.14243 0.20683
# Poissons Ratio (y) = 0.13258 0.20382
# Poissons Ratio (z) = 0.29702 0.31445
#
# Static dielectric constant tensor:
#      x y z
#    x 3.691500 0.000000 0.000000 
#    y 0.000000 4.337910 0.000000 
#    z 0.000000 0.000000 4.060720 
# 
# 
# High freq. dielectric constant tensor:
#      x y z
#    x 1.826230 0.000000 0.000000 
#    y 0.000000 1.856880 0.000000 
#    z 0.000000 0.000000 1.872370 
# 
# From -- ./inp_files/35323.got.cif
#   From: 2010.03.12/outbox.cif.g09.slc.cpg/sg53_18_cif.got.tgz:35323.got - 2010.04.16 14:36:59.
