data_PCOD8222538
_publ_section_title
;
Structure prediction by ZEFSAII (Michael W. Deem and Ramdas Pophale) SiO2 
 PCOD8222538
Probable space group: P C C A
;
_chemical_formula_sum "Si O2"
_cell_formula_units_Z 48
_cell_length_a 21.947446
_cell_length_b 5.993550
_cell_length_c 18.743160
_cell_angle_alpha 90.000000
_cell_angle_beta 90.000000
_cell_angle_gamma 90.000000
_cell_volume 2465.533651
_symmetry_space_group_name_H-M "P C C A"
_symmetry_group_IT_number 54
_symmetry_cell_setting 'orthorhombic'
loop_
_space_group_symop_operation_xyz
x,y,z
1/2-x,-y,z
1/2+x,-y,1/2-z
-x,y,1/2-z
-x,-y,-z
1/2+x,y,-z
1/2-x,y,1/2+z
x,-y,1/2+z
loop_
_atom_site_type_symbol
_atom_site_label
_atom_site_fract_x
_atom_site_fract_y
_atom_site_fract_z
Si Si1 0.750000 0.500000 0.307695
Si Si2 0.151671 0.802955 0.742845
Si Si3 0.154361 0.835234 0.356742
Si Si4 0.750000 0.500000 0.595747
Si Si5 0.928645 0.415351 0.746876
Si Si6 0.686503 0.881897 0.014624
Si Si7 0.847128 0.816851 0.361940
O O1 0.800521 0.397461 0.256206
O O2 0.781868 0.692625 0.354666
O O3 0.086825 0.680285 0.757603
O O4 0.172810 0.967028 0.804241
O O5 0.153036 0.931166 0.667727
O O6 0.210527 0.664965 0.355501
O O7 0.094537 0.714320 0.324508
O O8 0.147212 0.951791 0.434127
O O9 0.798161 0.642347 0.549055
O O10 0.899918 0.317391 0.820225
O O11 0.000000 0.380842 0.750000
O O12 0.750000 0.000000 0.992837
O O13 0.642652 0.838389 0.946732
#
# Coordination Sequence:
#
# PCOD8222538 Si02
#       7
#     4   8   8   4   8   8   8
#     4  10  19  31  52  84 117 143 180 228 283 339
#     4  10  21  34  55  81 110 145 187 234 282 332
#     4  10  22  36  56  84 114 148 185 226 278 337
#     4  10  21  35  56  86 123 151 174 216 281 349
#     4  10  23  41  58  78 108 149 198 245 281 317
#     4  10  20  34  55  86 122 150 177 218 278 346
#     4  10  21  36  57  84 114 148 185 228 279 335
#
# _framework density 19.468402000000001
#
# number of rings (size 3 to 8) (size 9 to 14) (size 15 to 20)
#    0.000    2.000    0.000    3.000    0.000   26.667 
#    0.000    0.833    0.000    5.000    0.000    0.000 
#    0.000    0.000    0.000    0.000    0.000    0.000 
#
# Total GULP energy -594975.879095 kJ/mol
# GULP energy per Si atom -12395.330814 kJ/mol
# Density = 1.942409 g / cm^3
# Si number density = 19.468402 Si / 1000 Ang^3
#
#
#
# Elastic Constant Matrix: (Units=GPa)
#
#
# Indices 1 2 3 4 5 6 
#
# 1 103.8483 45.8861 58.2915 0.0000 0.0000 0.0000
# 2 45.8861 126.9799 55.2316 0.0000 0.0000 0.0000
# 3 58.2915 55.2316 133.3312 0.0000 0.0000 0.0000
# 4 0.0000 0.0000 0.0000 21.1537 0.0000 0.0000
# 5 0.0000 0.0000 0.0000 0.0000 21.2684 0.0000
# 6 0.0000 0.0000 0.0000 0.0000 0.0000 21.7328
#
#
#
# Elastic Compliance Matrix: (Units=1/GPa)
#
#
# Indices 1 2 3 4 5 6 
#
# 1 0.013546 -0.002829 -0.004750 0.000000 0.000000 0.000000
# 2 -0.002829 0.010197 -0.002987 0.000000 0.000000 0.000000
# 3 -0.004750 -0.002987 0.010814 0.000000 0.000000 0.000000
# 4 0.000000 0.000000 0.000000 0.047273 0.000000 0.000000
# 5 0.000000 0.000000 0.000000 0.000000 0.047018 0.000000
# 6 0.000000 0.000000 0.000000 0.000000 0.000000 0.046013
#
#
# Mechanical properties :
#
#
# Convention : Reuss Voigt Hill
#
# Bulk Modulus (GPa) = 74.49176 75.88642 75.18909
# Shear Modulus (GPa) = 24.94150 26.48098 25.71124
#
# Velocity S-wave (km/s) = 3.58317 3.69209 3.63804
# Velocity P-wave (km/s) = 7.44747 7.56567 7.50680
#
# Compressibility (1/GPa) = 0.01342430
#
# Stress axis : x y z
#
# Youngs Moduli (GPa) = 73.82383 98.06976 92.46937
#
# Poissons Ratio (x) = 0.27741 0.43926
# Poissons Ratio (y) = 0.20883 0.27623
# Poissons Ratio (z) = 0.35069 0.29296
#
# Static dielectric constant tensor:
#      x y z
#    x 3.153420 0.000000 0.000000 
#    y 0.000000 4.153880 0.000000 
#    z 0.000000 0.000000 3.518010 
# 
# 
# High freq. dielectric constant tensor:
#      x y z
#    x 1.706930 0.000000 0.000000 
#    y 0.000000 1.787300 0.000000 
#    z 0.000000 0.000000 1.753850 
# 
# From -- ./inp_files/19089.got.cif
#   From: 2010.03.12/outbox.cif.g09.slc.cpg/sg54_10_cif.got.tgz:19089.got - 2010.04.16 15:00:50.
