data_PCOD8222284
_publ_section_title
;
Structure prediction by ZEFSAII (Michael W. Deem and Ramdas Pophale) SiO2 
 PCOD8222284
Probable space group: P C C A
;
_chemical_formula_sum "Si O2"
_cell_formula_units_Z 48
_cell_length_a 17.286607
_cell_length_b 27.762437
_cell_length_c 5.286489
_cell_angle_alpha 90.000000
_cell_angle_beta 90.000000
_cell_angle_gamma 90.000000
_cell_volume 2537.083014
_symmetry_space_group_name_H-M "P C C A"
_symmetry_group_IT_number 54
_symmetry_cell_setting 'orthorhombic'
loop_
_space_group_symop_operation_xyz
x,y,z
1/2-x,-y,z
1/2+x,-y,1/2-z
-x,y,1/2-z
-x,-y,-z
1/2+x,y,-z
1/2-x,y,1/2+z
x,-y,1/2+z
loop_
_atom_site_type_symbol
_atom_site_label
_atom_site_fract_x
_atom_site_fract_y
_atom_site_fract_z
Si Si1 0.091055 0.471423 0.250051
Si Si2 0.159249 0.825874 0.719486
Si Si3 0.800076 0.617025 0.777600
Si Si4 0.335304 0.020296 0.201549
Si Si5 0.666345 0.866160 0.780347
Si Si6 0.297439 0.723174 0.277862
O O1 0.117984 0.499435 0.501828
O O2 0.129497 0.419371 0.249221
O O3 0.000000 0.463003 0.250000
O O4 0.249592 0.841151 0.711121
O O5 0.119922 0.846209 0.464135
O O6 0.145769 0.768211 0.730704
O O7 0.120542 0.850530 0.965809
O O8 0.739889 0.609015 0.549191
O O9 0.836872 0.670870 0.761274
O O10 0.328748 0.076899 0.239615
O O11 0.250000 0.000000 0.155223
O O12 0.378581 0.995087 0.440364
O O13 0.269893 0.727375 0.567812
#
# Coordination Sequence:
#
# PCOD8222284 Si02
#       6
#     8   8   8   8   8   8
#     4  10  21  37  55  74  99 131 163 192 227 276
#     4  10  14  22  31  44  60  85 117 153 195 257
#     4  10  21  32  50  75 100 125 154 194 241 281
#     4  10  16  22  26  35  53  75 108 158 208 240
#     4  10  16  20  31  42  55  84 121 154 202 256
#     4  10  16  27  38  56  81 104 129 167 218 265
#
# _framework density 18.919366
#
# number of rings (size 3 to 8) (size 9 to 14) (size 15 to 20)
#    0.000    2.000    3.333    6.000    0.000    2.000 
#    0.000    0.000    0.000    0.000    0.000    0.000 
#    0.000    0.000    0.000    0.000    0.000    0.000 
#
# Total GULP energy -594701.142282 kJ/mol
# GULP energy per Si atom -12389.607131 kJ/mol
# Density = 1.887630 g / cm^3
# Si number density = 18.919366 Si / 1000 Ang^3
#
#
#
# Elastic Constant Matrix: (Units=GPa)
#
#
# Indices 1 2 3 4 5 6 
#
# 1 7.5550 20.2454 5.2480 0.0000 0.0000 0.0000
# 2 20.2454 164.1275 37.8285 0.0000 0.0000 0.0000
# 3 5.2480 37.8285 167.5894 0.0000 0.0000 0.0000
# 4 0.0000 0.0000 0.0000 34.5143 0.0000 0.0000
# 5 0.0000 0.0000 0.0000 0.0000 3.9800 0.0000
# 6 0.0000 0.0000 0.0000 0.0000 0.0000 0.5120
#
#
#
# Elastic Compliance Matrix: (Units=1/GPa)
#
#
# Indices 1 2 3 4 5 6 
#
# 1 0.197800 -0.024232 -0.000724 0.000000 0.000000 0.000000
# 2 -0.024232 0.009396 -0.001362 0.000000 0.000000 0.000000
# 3 -0.000724 -0.001362 0.006297 0.000000 0.000000 0.000000
# 4 0.000000 0.000000 0.000000 0.028973 0.000000 0.000000
# 5 0.000000 0.000000 0.000000 0.000000 0.251256 0.000000
# 6 0.000000 0.000000 0.000000 0.000000 0.000000 1.952999
#
#
# Mechanical properties :
#
#
# Convention : Reuss Voigt Hill
#
# Bulk Modulus (GPa) = 6.21674 51.76841 28.99257
# Shear Modulus (GPa) = 1.95850 26.19794 14.07822
#
# Velocity S-wave (km/s) = 1.01854 3.72521 2.73081
# Velocity P-wave (km/s) = 2.16247 6.77680 5.02998
#
# Compressibility (1/GPa) = 0.16085601
#
# Stress axis : x y z
#
# Youngs Moduli (GPa) = 5.05562 106.43066 158.80372
#
# Poissons Ratio (x) = 2.57902 0.11504
# Poissons Ratio (y) = 0.12251 0.21629
# Poissons Ratio (z) = 0.00366 0.14496
#
# Static dielectric constant tensor:
#      x y z
#    x 2.481260 0.000000 0.000000 
#    y 0.000000 3.725940 0.000000 
#    z 0.000000 0.000000 5.345160 
# 
# 
# High freq. dielectric constant tensor:
#      x y z
#    x 1.618240 0.000000 0.000000 
#    y 0.000000 1.759000 0.000000 
#    z 0.000000 0.000000 1.782600 
# 
# From -- ./inp_files/1013.got.cif
#   From: 2010.03.12/outbox.cif.g09.slc.cpg/sg54_1_cif.got.tgz:1013.got - 2010.04.16 15:00:50.
