data_PCOD8222726
_publ_section_title
;
Structure prediction by ZEFSAII (Michael W. Deem and Ramdas Pophale) SiO2 
 PCOD8222726
Probable space group: P C C A
;
_chemical_formula_sum "Si O2"
_cell_formula_units_Z 60
_cell_length_a 18.239543
_cell_length_b 17.043273
_cell_length_c 8.931320
_cell_angle_alpha 90.000000
_cell_angle_beta 90.000000
_cell_angle_gamma 90.000000
_cell_volume 2776.403628
_symmetry_space_group_name_H-M "P C C A"
_symmetry_group_IT_number 54
_symmetry_cell_setting 'orthorhombic'
loop_
_space_group_symop_operation_xyz
x,y,z
1/2-x,-y,z
1/2+x,-y,1/2-z
-x,y,1/2-z
-x,-y,-z
1/2+x,y,-z
1/2-x,y,1/2+z
x,-y,1/2+z
loop_
_atom_site_type_symbol
_atom_site_label
_atom_site_fract_x
_atom_site_fract_y
_atom_site_fract_z
Si Si1 0.920249 0.991964 0.217361
Si Si2 0.329401 0.279664 0.857013
Si Si3 0.442027 0.604169 0.482131
Si Si4 0.813306 0.762269 0.973519
Si Si5 0.530840 0.260423 0.088580
Si Si6 0.950034 0.844092 0.609993
Si Si7 0.179617 0.057672 0.024579
Si Si8 0.000000 0.483780 0.750000
O O1 0.935927 0.063765 0.103537
O O2 0.882371 0.026755 0.364130
O O3 0.000000 0.952120 0.250000
O O4 0.860806 0.936050 0.137341
O O5 0.322408 0.288377 0.677770
O O6 0.250769 0.273442 0.929726
O O7 0.372911 0.199811 0.888421
O O8 0.366053 0.354568 0.937410
O O9 0.506190 0.670174 0.474002
O O10 0.443127 0.568386 0.651039
O O11 0.452722 0.535863 0.362283
O O12 0.882588 0.750158 0.082077
O O13 0.797704 0.853797 0.932399
O O14 0.500000 0.283073 0.250000
O O15 0.494107 0.178311 0.039537
O O16 0.000000 0.818279 0.750000
O O17 0.250000 0.000000 0.019064
#
# Coordination Sequence:
#
# PCOD8222726 Si02
#       8
#     8   8   8   8   8   8   8   4
#     4  11  23  42  64  88 125 167 228 289 353 407
#     4  11  24  41  65  96 134 175 225 277 328 398
#     4  10  22  41  70 108 133 176 212 263 318 394
#     4  12  26  42  65  95 133 181 224 288 345 392
#     4  11  23  40  68 102 135 170 233 280 330 401
#     4  10  19  41  63  86 124 172 223 285 350 398
#     4  12  26  42  62  91 128 178 225 279 354 421
#     4  10  20  40  76 104 142 168 218 252 326 398
#
# _framework density 21.610690999999999
#
# number of rings (size 3 to 8) (size 9 to 14) (size 15 to 20)
#    0.000    1.067    3.333    3.200    7.467    1.600 
#    0.000    0.000    0.000   13.600    0.000    0.000 
#    0.000    0.000    0.000    0.000    0.000    0.000 
#
# Total GULP energy -743875.982041 kJ/mol
# GULP energy per Si atom -12397.933034 kJ/mol
# Density = 2.156150 g / cm^3
# Si number density = 21.610691 Si / 1000 Ang^3
#
#
#
# Elastic Constant Matrix: (Units=GPa)
#
#
# Indices 1 2 3 4 5 6 
#
# 1 156.0703 38.7680 48.9524 0.0000 0.0000 0.0000
# 2 38.7680 77.5815 41.4687 0.0000 0.0000 0.0000
# 3 48.9524 41.4687 113.3664 0.0000 0.0000 0.0000
# 4 0.0000 0.0000 0.0000 114.2850 0.0000 0.0000
# 5 0.0000 0.0000 0.0000 0.0000 35.2437 0.0000
# 6 0.0000 0.0000 0.0000 0.0000 0.0000 11.3461
#
#
#
# Elastic Compliance Matrix: (Units=1/GPa)
#
#
# Indices 1 2 3 4 5 6 
#
# 1 0.007815 -0.002612 -0.002419 0.000000 0.000000 0.000000
# 2 -0.002612 0.016896 -0.005052 0.000000 0.000000 0.000000
# 3 -0.002419 -0.005052 0.011714 0.000000 0.000000 0.000000
# 4 0.000000 0.000000 0.000000 0.008750 0.000000 0.000000
# 5 0.000000 0.000000 0.000000 0.000000 0.028374 0.000000
# 6 0.000000 0.000000 0.000000 0.000000 0.000000 0.088136
#
#
# Mechanical properties :
#
#
# Convention : Reuss Voigt Hill
#
# Bulk Modulus (GPa) = 61.51176 67.26628 64.38902
# Shear Modulus (GPa) = 26.69942 46.69689 36.69816
#
# Velocity S-wave (km/s) = 3.51874 4.65351 4.12533
# Velocity P-wave (km/s) = 6.71075 7.75032 7.24919
#
# Compressibility (1/GPa) = 0.01625705
#
# Stress axis : x y z
#
# Youngs Moduli (GPa) = 127.95925 59.18717 85.37065
#
# Poissons Ratio (x) = 0.15461 0.20652
# Poissons Ratio (y) = 0.33425 0.43132
# Poissons Ratio (z) = 0.30954 0.29903
#
# Static dielectric constant tensor:
#      x y z
#    x 3.870640 0.000000 0.000000 
#    y 0.000000 3.947180 0.000000 
#    z 0.000000 0.000000 4.081550 
# 
# 
# High freq. dielectric constant tensor:
#      x y z
#    x 1.843230 0.000000 0.000000 
#    y 0.000000 1.836610 0.000000 
#    z 0.000000 0.000000 1.858900 
# 
# From -- ./inp_files/4358.got.cif
#   From: 2010.03.12/outbox.cif.g09.slc.cpg/sg54_3_cif.got.tgz:4358.got - 2010.04.16 15:00:50.
