data_PCOD8222554
_publ_section_title
;
Structure prediction by ZEFSAII (Michael W. Deem and Ramdas Pophale) SiO2 
 PCOD8222554
Probable space group: P C C A
;
_chemical_formula_sum "Si O2"
_cell_formula_units_Z 48
_cell_length_a 14.404582
_cell_length_b 29.749398
_cell_length_c 5.141483
_cell_angle_alpha 90.000000
_cell_angle_beta 90.000000
_cell_angle_gamma 90.000000
_cell_volume 2203.267591
_symmetry_space_group_name_H-M "P C C A"
_symmetry_group_IT_number 54
_symmetry_cell_setting 'orthorhombic'
loop_
_space_group_symop_operation_xyz
x,y,z
1/2-x,-y,z
1/2+x,-y,1/2-z
-x,y,1/2-z
-x,-y,-z
1/2+x,y,-z
1/2-x,y,1/2+z
x,-y,1/2+z
loop_
_atom_site_type_symbol
_atom_site_label
_atom_site_fract_x
_atom_site_fract_y
_atom_site_fract_z
Si Si1 0.691809 0.789522 0.937906
Si Si2 0.188314 0.691540 0.128132
Si Si3 0.146358 0.519532 0.905853
Si Si4 0.560735 0.609945 0.993092
Si Si5 0.392344 0.976704 0.724616
Si Si6 0.688913 0.882488 0.800886
O O1 0.780638 0.791253 0.741553
O O2 0.641935 0.741536 0.888929
O O3 0.634329 0.834928 0.859629
O O4 0.231574 0.684548 0.413305
O O5 0.106222 0.656848 0.084228
O O6 0.250000 0.500000 0.857163
O O7 0.094589 0.507968 0.635414
O O8 0.141576 0.572935 0.956155
O O9 0.500000 0.593218 0.750000
O O10 0.500000 0.616653 0.250000
O O11 0.500000 0.987729 0.750000
O O12 0.379964 0.924105 0.663837
O O13 0.345945 0.006386 0.493624
O O14 0.727186 0.884563 0.508014
#
# Coordination Sequence:
#
# PCOD8222554 Si02
#       6
#     8   8   8   8   8   8
#     4   8  16  32  53  83 107 138 183 230 275 321
#     4  10  21  38  66  86 114 158 198 227 276 359
#     4  10  23  40  63  86 116 156 199 233 268 344
#     4  12  26  41  62  94 126 150 187 246 299 327
#     4  10  21  35  49  70 106 146 183 222 274 340
#     4  10  19  32  54  79 107 135 181 239 276 320
#
# _framework density 21.785826
#
# number of rings (size 3 to 8) (size 9 to 14) (size 15 to 20)
#    0.000    2.000    0.000    3.000    4.667    4.000 
#    0.000    0.833    0.000    3.000    0.000    0.000 
#    0.000    0.000    0.000    0.000    0.000    0.000 
#
# Total GULP energy -594698.707763 kJ/mol
# GULP energy per Si atom -12389.556412 kJ/mol
# Density = 2.173624 g / cm^3
# Si number density = 21.785826 Si / 1000 Ang^3
#
#
#
# Elastic Constant Matrix: (Units=GPa)
#
#
# Indices 1 2 3 4 5 6 
#
# 1 31.3256 29.6569 10.9512 0.0000 0.0000 0.0000
# 2 29.6569 184.8098 29.9034 0.0000 0.0000 0.0000
# 3 10.9512 29.9034 144.3600 0.0000 0.0000 0.0000
# 4 0.0000 0.0000 0.0000 34.0917 0.0000 0.0000
# 5 0.0000 0.0000 0.0000 0.0000 -566.5490 0.0000
# 6 0.0000 0.0000 0.0000 0.0000 0.0000 13.8183
#
#
#
# Elastic Compliance Matrix: (Units=1/GPa)
#
#
# Indices 1 2 3 4 5 6 
#
# 1 0.038030 -0.005831 -0.001677 0.000000 0.000000 0.000000
# 2 -0.005831 0.006493 -0.000903 0.000000 0.000000 0.000000
# 3 -0.001677 -0.000903 0.007241 0.000000 0.000000 0.000000
# 4 0.000000 0.000000 0.000000 0.029333 0.000000 0.000000
# 5 0.000000 0.000000 0.000000 0.000000 -0.001765 0.000000
# 6 0.000000 0.000000 0.000000 0.000000 0.000000 0.072368
#
#
# Mechanical properties :
#
#
# Convention : Reuss Voigt Hill
#
# Bulk Modulus (GPa) = 28.61892 55.72427 42.17159
# Shear Modulus (GPa) = 27.75177 -84.39553 -28.32188
#
# Velocity S-wave (km/s) = 3.57297 -6.23080 -3.60948
# Velocity P-wave (km/s) = 5.49422 5.11175 1.42416
#
# Compressibility (1/GPa) = 0.03494192
#
# Stress axis : x y z
#
# Youngs Moduli (GPa) = 26.29520 154.01699 138.09659
#
# Poissons Ratio (x) = 0.89813 0.23159
# Poissons Ratio (y) = 0.15334 0.12464
# Poissons Ratio (z) = 0.04410 0.13901
#
# Static dielectric constant tensor:
#      x y z
#    x 3.291350 0.000000 0.000000 
#    y 0.000000 4.386090 0.000000 
#    z 0.000000 0.000000 4.727610 
# 
# 
# High freq. dielectric constant tensor:
#      x y z
#    x 1.784370 0.000000 0.000000 
#    y 0.000000 1.882000 0.000000 
#    z 0.000000 0.000000 1.893690 
# 
# From -- ./inp_files/611.got.cif
#   From: 2010.03.12/outbox.cif.g09.slc.cpg/sg54_1_cif.got.tgz:611.got - 2010.04.16 15:00:50.
