data_PCOD8222303
_publ_section_title
;
Structure prediction by ZEFSAII (Michael W. Deem and Ramdas Pophale) SiO2 
 PCOD8222303
Probable space group: P C C A
;
_chemical_formula_sum "Si O2"
_cell_formula_units_Z 60
_cell_length_a 5.304662
_cell_length_b 24.529573
_cell_length_c 23.396728
_cell_angle_alpha 90.000000
_cell_angle_beta 90.000000
_cell_angle_gamma 90.000000
_cell_volume 3044.407838
_symmetry_space_group_name_H-M "P C C A"
_symmetry_group_IT_number 54
_symmetry_cell_setting 'orthorhombic'
loop_
_space_group_symop_operation_xyz
x,y,z
1/2-x,-y,z
1/2+x,-y,1/2-z
-x,y,1/2-z
-x,-y,-z
1/2+x,y,-z
1/2-x,y,1/2+z
x,-y,1/2+z
loop_
_atom_site_type_symbol
_atom_site_label
_atom_site_fract_x
_atom_site_fract_y
_atom_site_fract_z
Si Si1 0.250000 0.500000 0.401143
Si Si2 0.538046 0.592024 0.535854
Si Si3 0.578103 0.327652 0.813010
Si Si4 0.928459 0.547693 0.813024
Si Si5 0.966916 0.197986 0.565532
Si Si6 0.001550 0.023144 0.063429
Si Si7 0.440451 0.688931 0.880231
Si Si8 0.530262 0.152040 0.937424
O O1 0.461714 0.469985 0.439917
O O2 0.349084 0.548223 0.359711
O O3 0.313442 0.601329 0.491543
O O4 0.492994 0.633771 0.587110
O O5 0.500000 0.307305 0.750000
O O6 0.669632 0.390793 0.810367
O O7 0.336675 0.315498 0.852546
O O8 0.833915 0.298336 0.834800
O O9 0.750000 0.500000 0.837263
O O10 0.000000 0.527636 0.750000
O O11 0.949111 0.262762 0.573184
O O12 0.719358 0.172153 0.595937
O O13 0.967542 0.180857 0.499303
O O14 0.217402 0.172290 0.595108
O O15 0.016338 0.087584 0.058642
O O16 0.750000 0.000000 0.095041
O O17 0.250000 0.000000 0.095866
O O18 0.000000 0.000000 0.000000
#
# Coordination Sequence:
#
# PCOD8222303 Si02
#       8
#     4   8   8   8   8   8   8   8
#     4  12  24  44  58  84 112 148 176 228 288 356
#     4  12  28  43  61  82 116 152 193 224 269 340
#     4  11  25  44  66  90 113 134 175 236 299 370
#     4  11  23  38  65  90 111 135 171 230 300 365
#     4  10  20  31  52  70 107 140 196 237 270 306
#     4  10  16  25  43  66 103 147 200 238 278 320
#     4  12  24  43  63  87 109 152 190 234 294 333
#     4  10  19  32  46  78 106 156 201 244 264 311
#
# _framework density 19.708266999999999
#
# number of rings (size 3 to 8) (size 9 to 14) (size 15 to 20)
#    0.000    1.067    2.000    7.200    5.600    0.000 
#    0.000    0.000    0.000    0.000    0.000    0.000 
#    0.000    0.000    0.000    0.000    0.000  568.000 
#
# Total GULP energy -743428.225439 kJ/mol
# GULP energy per Si atom -12390.470424 kJ/mol
# Density = 1.966341 g / cm^3
# Si number density = 19.708267 Si / 1000 Ang^3
#
#
#
# Elastic Constant Matrix: (Units=GPa)
#
#
# Indices 1 2 3 4 5 6 
#
# 1 167.0799 36.6976 21.7475 0.0000 0.0000 0.0000
# 2 36.6976 107.8748 25.8217 0.0000 0.0000 0.0000
# 3 21.7475 25.8217 58.1690 0.0000 0.0000 0.0000
# 4 0.0000 0.0000 0.0000 9.4374 0.0000 0.0000
# 5 0.0000 0.0000 0.0000 0.0000 25.3134 0.0000
# 6 0.0000 0.0000 0.0000 0.0000 0.0000 32.6451
#
#
#
# Elastic Compliance Matrix: (Units=1/GPa)
#
#
# Indices 1 2 3 4 5 6 
#
# 1 0.006607 -0.001853 -0.001647 0.000000 0.000000 0.000000
# 2 -0.001853 0.010892 -0.004142 0.000000 0.000000 0.000000
# 3 -0.001647 -0.004142 0.019646 0.000000 0.000000 0.000000
# 4 0.000000 0.000000 0.000000 0.105961 0.000000 0.000000
# 5 0.000000 0.000000 0.000000 0.000000 0.039505 0.000000
# 6 0.000000 0.000000 0.000000 0.000000 0.000000 0.030632
#
#
# Mechanical properties :
#
#
# Convention : Reuss Voigt Hill
#
# Bulk Modulus (GPa) = 45.74759 55.73970 50.74365
# Shear Modulus (GPa) = 21.20309 30.06964 25.63636
#
# Velocity S-wave (km/s) = 3.28357 3.91031 3.61056
# Velocity P-wave (km/s) = 6.13503 6.98077 6.57152
#
# Compressibility (1/GPa) = 0.02185907
#
# Stress axis : x y z
#
# Youngs Moduli (GPa) = 151.36343 91.81117 50.90108
#
# Poissons Ratio (x) = 0.17014 0.08385
# Poissons Ratio (y) = 0.28050 0.21084
# Poissons Ratio (z) = 0.24935 0.38030
#
# Static dielectric constant tensor:
#      x y z
#    x 4.013830 0.000000 0.000000 
#    y 0.000000 3.509420 0.000000 
#    z 0.000000 0.000000 3.305140 
# 
# 
# High freq. dielectric constant tensor:
#      x y z
#    x 1.800480 0.000000 0.000000 
#    y 0.000000 1.758870 0.000000 
#    z 0.000000 0.000000 1.711500 
# 
# From -- ./inp_files/19888.got.cif
#   From: 2010.03.12/outbox.cif.g09.slc.cpg/sg54_10_cif.got.tgz:19888.got - 2010.04.16 15:00:50.
