data_PCOD8222393
_publ_section_title
;
Structure prediction by ZEFSAII (Michael W. Deem and Ramdas Pophale) SiO2 
 PCOD8222393
Probable space group: P C C A
;
_chemical_formula_sum "Si O2"
_cell_formula_units_Z 48
_cell_length_a 13.579457
_cell_length_b 13.301456
_cell_length_c 12.658467
_cell_angle_alpha 90.000000
_cell_angle_beta 90.000000
_cell_angle_gamma 90.000000
_cell_volume 2286.455220
_symmetry_space_group_name_H-M "P C C A"
_symmetry_group_IT_number 54
_symmetry_cell_setting 'orthorhombic'
loop_
_space_group_symop_operation_xyz
x,y,z
1/2-x,-y,z
1/2+x,-y,1/2-z
-x,y,1/2-z
-x,-y,-z
1/2+x,y,-z
1/2-x,y,1/2+z
x,-y,1/2+z
loop_
_atom_site_type_symbol
_atom_site_label
_atom_site_fract_x
_atom_site_fract_y
_atom_site_fract_z
Si Si1 0.118987 0.341131 0.012514
Si Si2 0.437054 0.359871 0.855577
Si Si3 0.391684 0.426154 0.295085
Si Si4 0.621874 0.147584 0.644317
Si Si5 0.250000 0.000000 0.985425
Si Si6 0.395929 0.870930 0.111606
Si Si7 0.750000 0.500000 0.369092
O O1 0.144044 0.231727 0.058426
O O2 0.186971 0.427487 0.058914
O O3 0.007703 0.370620 0.043667
O O4 0.128431 0.342799 0.884935
O O5 0.500000 0.333319 0.750000
O O6 0.377053 0.462127 0.844078
O O7 0.362145 0.267399 0.873719
O O8 0.500000 0.410566 0.250000
O O9 0.314391 0.421547 0.200033
O O10 0.633364 0.122828 0.766809
O O11 0.513816 0.117829 0.599370
O O12 0.708800 0.090341 0.585303
O O13 0.158578 0.037159 0.055263
#
# Coordination Sequence:
#
# PCOD8222393 Si02
#       7
#     8   8   8   8   4   8   4
#     4  11  22  39  62  87 125 168 207 249 307 366
#     4  10  17  40  66  81 117 179 206 233 304 382
#     4  11  23  39  60  93 130 159 212 257 294 351
#     4  10  20  41  67  84 122 161 203 250 306 381
#     4  12  24  36  66  98 114 148 208 272 308 356
#     4  10  22  43  62  88 120 164 202 244 319 378
#     4  12  22  36  60  94 124 168 208 252 292 372
#
# _framework density 20.993193000000002
#
# number of rings (size 3 to 8) (size 9 to 14) (size 15 to 20)
#    0.000    1.333    6.667    2.000    0.000    4.000 
#    3.000    0.000    3.667    0.000    0.000    0.000 
#    0.000    0.000    0.000    0.000    0.000    0.000 
#
# Total GULP energy -595194.076993 kJ/mol
# GULP energy per Si atom -12399.876604 kJ/mol
# Density = 2.094541 g / cm^3
# Si number density = 20.993193 Si / 1000 Ang^3
#
#
#
# Elastic Constant Matrix: (Units=GPa)
#
#
# Indices 1 2 3 4 5 6 
#
# 1 59.2688 19.3180 38.0727 0.0000 0.0000 0.0000
# 2 19.3180 85.7174 31.5590 0.0000 0.0000 0.0000
# 3 38.0727 31.5590 105.9428 0.0000 0.0000 0.0000
# 4 0.0000 0.0000 0.0000 27.4322 0.0000 0.0000
# 5 0.0000 0.0000 0.0000 0.0000 -16.4705 0.0000
# 6 0.0000 0.0000 0.0000 0.0000 0.0000 27.0818
#
#
#
# Elastic Compliance Matrix: (Units=1/GPa)
#
#
# Indices 1 2 3 4 5 6 
#
# 1 0.022345 -0.002336 -0.007334 0.000000 0.000000 0.000000
# 2 -0.002336 0.013347 -0.003137 0.000000 0.000000 0.000000
# 3 -0.007334 -0.003137 0.013009 0.000000 0.000000 0.000000
# 4 0.000000 0.000000 0.000000 0.036453 0.000000 0.000000
# 5 0.000000 0.000000 0.000000 0.000000 -0.060715 0.000000
# 6 0.000000 0.000000 0.000000 0.000000 0.000000 0.036925
#
#
# Mechanical properties :
#
#
# Convention : Reuss Voigt Hill
#
# Bulk Modulus (GPa) = 43.31190 47.64761 45.47976
# Shear Modulus (GPa) = 52.81228 18.40732 35.60980
#
# Velocity S-wave (km/s) = 5.02110 2.96433 4.12303
# Velocity P-wave (km/s) = 7.36828 5.87046 6.66160
#
# Compressibility (1/GPa) = 0.02308834
#
# Stress axis : x y z
#
# Youngs Moduli (GPa) = 44.75288 74.92069 76.86862
#
# Poissons Ratio (x) = 0.17498 0.56378
# Poissons Ratio (y) = 0.10452 0.24111
# Poissons Ratio (z) = 0.32824 0.23500
#
# Static dielectric constant tensor:
#      x y z
#    x 3.702440 0.000000 0.000000 
#    y 0.000000 3.703390 0.000000 
#    z 0.000000 0.000000 3.844320 
# 
# 
# High freq. dielectric constant tensor:
#      x y z
#    x 1.818390 0.000000 0.000000 
#    y 0.000000 1.807800 0.000000 
#    z 0.000000 0.000000 1.826370 
# 
# From -- ./inp_files/13443.got.cif
#   From: 2010.03.12/outbox.cif.g09.slc.cpg/sg54_7_cif.got.tgz:13443.got - 2010.04.16 15:00:50.
