data_PCOD8222898
_publ_section_title
;
Structure prediction by ZEFSAII (Michael W. Deem and Ramdas Pophale) SiO2 
 PCOD8222898
Probable space group: P C C A
;
_chemical_formula_sum "Si O2"
_cell_formula_units_Z 64
_cell_length_a 10.867824
_cell_length_b 13.213606
_cell_length_c 23.463282
_cell_angle_alpha 90.000000
_cell_angle_beta 90.000000
_cell_angle_gamma 90.000000
_cell_volume 3369.401073
_symmetry_space_group_name_H-M "P C C A"
_symmetry_group_IT_number 54
_symmetry_cell_setting 'orthorhombic'
loop_
_space_group_symop_operation_xyz
x,y,z
1/2-x,-y,z
1/2+x,-y,1/2-z
-x,y,1/2-z
-x,-y,-z
1/2+x,y,-z
1/2-x,y,1/2+z
x,-y,1/2+z
loop_
_atom_site_type_symbol
_atom_site_label
_atom_site_fract_x
_atom_site_fract_y
_atom_site_fract_z
Si Si1 0.468156 0.573642 0.380101
Si Si2 0.626359 0.437910 0.502873
Si Si3 0.695255 0.602652 0.226428
Si Si4 0.911080 0.356447 0.889329
Si Si5 0.582284 0.738854 0.696228
Si Si6 0.121225 0.025043 0.809283
Si Si7 0.369116 0.055181 0.682582
Si Si8 0.158176 0.289644 0.163116
O O1 0.369655 0.594729 0.430879
O O2 0.397447 0.565126 0.321380
O O3 0.552561 0.473893 0.383669
O O4 0.559419 0.669678 0.382102
O O5 0.750000 0.500000 0.487731
O O6 0.500000 0.500000 0.500000
O O7 0.615618 0.344076 0.457608
O O8 0.750000 0.500000 0.253482
O O9 0.793416 0.676044 0.197098
O O10 0.624593 0.663447 0.275484
O O11 0.793503 0.326529 0.852654
O O12 0.018473 0.284395 0.864819
O O13 0.500000 0.704085 0.750000
O O14 0.611834 0.856484 0.702566
O O15 0.128608 0.962958 0.750234
O O16 0.999066 0.987100 0.843087
O O17 0.250000 0.000000 0.842514
O O18 0.352471 0.170444 0.666124
O O19 0.250000 0.000000 0.655252
#
# Coordination Sequence:
#
# PCOD8222898 Si02
#       8
#     8   8   8   8   8   8   8   8
#     4  11  24  38  56  89 123 163 204 249 299 358
#     4  10  22  42  65  81 118 166 218 264 290 349
#     4  12  23  35  53  85 130 165 189 234 306 379
#     4  11  22  40  59  86 117 167 207 242 300 359
#     4  12  22  38  58  85 125 162 197 244 305 381
#     4  10  21  36  57  80 118 157 201 246 300 363
#     4  10  20  37  55  82 115 152 205 245 293 361
#     4  12  24  34  59  88 127 156 200 245 306 377
#
# _framework density 18.994474
#
# number of rings (size 3 to 8) (size 9 to 14) (size 15 to 20)
#    0.000    1.000    3.750    5.625    7.000    0.000 
#    0.000    0.000    0.000    0.000    0.000    4.375 
#    0.000    0.000    0.000    0.000    0.000    0.000 
#
# Total GULP energy -793185.239091 kJ/mol
# GULP energy per Si atom -12393.519361 kJ/mol
# Density = 1.895124 g / cm^3
# Si number density = 18.994474 Si / 1000 Ang^3
#
#
#
# Elastic Constant Matrix: (Units=GPa)
#
#
# Indices 1 2 3 4 5 6 
#
# 1 123.0550 38.9341 21.0525 0.0000 0.0000 0.0000
# 2 38.9341 119.4440 18.0477 0.0000 0.0000 0.0000
# 3 21.0525 18.0477 55.3075 0.0000 0.0000 0.0000
# 4 0.0000 0.0000 0.0000 9.0514 0.0000 0.0000
# 5 0.0000 0.0000 0.0000 0.0000 21.3613 0.0000
# 6 0.0000 0.0000 0.0000 0.0000 0.0000 29.8185
#
#
#
# Elastic Compliance Matrix: (Units=1/GPa)
#
#
# Indices 1 2 3 4 5 6 
#
# 1 0.009435 -0.002664 -0.002722 0.000000 0.000000 0.000000
# 2 -0.002664 0.009559 -0.002105 0.000000 0.000000 0.000000
# 3 -0.002722 -0.002105 0.019804 0.000000 0.000000 0.000000
# 4 0.000000 0.000000 0.000000 0.110480 0.000000 0.000000
# 5 0.000000 0.000000 0.000000 0.000000 0.046814 0.000000
# 6 0.000000 0.000000 0.000000 0.000000 0.000000 0.033536
#
#
# Mechanical properties :
#
#
# Convention : Reuss Voigt Hill
#
# Bulk Modulus (GPa) = 41.99041 50.43055 46.21048
# Shear Modulus (GPa) = 19.79818 26.69772 23.24795
#
# Velocity S-wave (km/s) = 3.23199 3.75314 3.50227
# Velocity P-wave (km/s) = 6.00686 6.73715 6.38245
#
# Compressibility (1/GPa) = 0.02381496
#
# Stress axis : x y z
#
# Youngs Moduli (GPa) = 105.98753 104.61781 50.49550
#
# Poissons Ratio (x) = 0.27872 0.13745
# Poissons Ratio (y) = 0.28237 0.10629
# Poissons Ratio (z) = 0.28850 0.22022
#
# Static dielectric constant tensor:
#      x y z
#    x 4.147890 0.000000 0.000000 
#    y 0.000000 3.402480 0.000000 
#    z 0.000000 0.000000 3.775080 
# 
# 
# High freq. dielectric constant tensor:
#      x y z
#    x 1.768030 0.000000 0.000000 
#    y 0.000000 1.723350 0.000000 
#    z 0.000000 0.000000 1.698930 
# 
# From -- ./inp_files/24267.got.cif
#   From: 2010.03.12/outbox.cif.g09.slc.cpg/sg54_13_cif.got.tgz:24267.got - 2010.04.16 15:00:50.
