data_PCOD8222562
_publ_section_title
;
Structure prediction by ZEFSAII (Michael W. Deem and Ramdas Pophale) SiO2 
 PCOD8222562
Probable space group: P C C A
;
_chemical_formula_sum "Si O2"
_cell_formula_units_Z 48
_cell_length_a 18.850538
_cell_length_b 11.350072
_cell_length_c 11.677056
_cell_angle_alpha 90.000000
_cell_angle_beta 90.000000
_cell_angle_gamma 90.000000
_cell_volume 2498.364091
_symmetry_space_group_name_H-M "P C C A"
_symmetry_group_IT_number 54
_symmetry_cell_setting 'orthorhombic'
loop_
_space_group_symop_operation_xyz
x,y,z
1/2-x,-y,z
1/2+x,-y,1/2-z
-x,y,1/2-z
-x,-y,-z
1/2+x,y,-z
1/2-x,y,1/2+z
x,-y,1/2+z
loop_
_atom_site_type_symbol
_atom_site_label
_atom_site_fract_x
_atom_site_fract_y
_atom_site_fract_z
Si Si1 0.175908 0.154391 0.723705
Si Si2 0.080073 0.689899 0.777532
Si Si3 0.828973 0.460233 0.379652
Si Si4 0.146264 0.701255 0.011019
Si Si5 0.804721 0.242331 0.536939
Si Si6 0.333135 0.113485 0.673564
O O1 0.133733 0.212418 0.618542
O O2 0.155941 0.220508 0.841925
O O3 0.260552 0.172071 0.719578
O O4 0.156036 0.017290 0.720562
O O5 0.129830 0.581404 0.734736
O O6 0.087069 0.712886 0.913350
O O7 0.099970 0.811455 0.714723
O O8 0.000000 0.656035 0.750000
O O9 0.750000 0.500000 0.342359
O O10 0.863876 0.570754 0.440746
O O11 0.835319 0.355532 0.471741
O O12 0.220761 0.734440 0.950989
O O13 0.823563 0.123516 0.464266
#
# Coordination Sequence:
#
# PCOD8222562 Si02
#       6
#     8   8   8   8   8   8
#     4  10  19  32  62  87 113 142 197 259 296 339
#     4  11  23  40  59  83 126 164 192 236 302 367
#     4   9  21  37  62  87 115 153 199 252 292 342
#     4  10  21  34  57  86 112 149 199 236 299 355
#     4   9  18  34  55  89 117 140 187 256 303 334
#     4   9  20  34  55  87 114 151 188 244 306 348
#
# _framework density 19.212572000000002
#
# number of rings (size 3 to 8) (size 9 to 14) (size 15 to 20)
#    0.000    2.333    1.667    1.000    4.667    2.667 
#    0.000    0.833    0.000    0.000    0.000    0.000 
#    0.000    0.000    0.000    0.000    0.000    0.000 
#
# Total GULP energy -594878.208147 kJ/mol
# GULP energy per Si atom -12393.296003 kJ/mol
# Density = 1.916884 g / cm^3
# Si number density = 19.212572 Si / 1000 Ang^3
#
#
#
# Elastic Constant Matrix: (Units=GPa)
#
#
# Indices 1 2 3 4 5 6 
#
# 1 60.3481 33.0185 29.7820 0.0000 0.0000 0.0000
# 2 33.0185 88.7361 54.1930 0.0000 0.0000 0.0000
# 3 29.7820 54.1930 127.3961 0.0000 0.0000 0.0000
# 4 0.0000 0.0000 0.0000 27.1518 0.0000 0.0000
# 5 0.0000 0.0000 0.0000 0.0000 19.2809 0.0000
# 6 0.0000 0.0000 0.0000 0.0000 0.0000 15.5291
#
#
#
# Elastic Compliance Matrix: (Units=1/GPa)
#
#
# Indices 1 2 3 4 5 6 
#
# 1 0.021240 -0.006580 -0.002166 0.000000 0.000000 0.000000
# 2 -0.006580 0.017263 -0.005805 0.000000 0.000000 0.000000
# 3 -0.002166 -0.005805 0.010825 0.000000 0.000000 0.000000
# 4 0.000000 0.000000 0.000000 0.036830 0.000000 0.000000
# 5 0.000000 0.000000 0.000000 0.000000 0.051865 0.000000
# 6 0.000000 0.000000 0.000000 0.000000 0.000000 0.064395
#
#
# Mechanical properties :
#
#
# Convention : Reuss Voigt Hill
#
# Bulk Modulus (GPa) = 49.44377 56.71856 53.08116
# Shear Modulus (GPa) = 20.98512 23.02481 22.00496
#
# Velocity S-wave (km/s) = 3.30852 3.46558 3.38796
# Velocity P-wave (km/s) = 6.35500 6.75273 6.55688
#
# Compressibility (1/GPa) = 0.02022500
#
# Stress axis : x y z
#
# Youngs Moduli (GPa) = 47.08121 57.92609 92.37496
#
# Poissons Ratio (x) = 0.38118 0.20009
# Poissons Ratio (y) = 0.30981 0.53627
# Poissons Ratio (z) = 0.10198 0.33628
#
# Static dielectric constant tensor:
#      x y z
#    x 2.983770 0.000000 0.000000 
#    y 0.000000 3.577400 0.000000 
#    z 0.000000 0.000000 3.634000 
# 
# 
# High freq. dielectric constant tensor:
#      x y z
#    x 1.686320 0.000000 0.000000 
#    y 0.000000 1.754530 0.000000 
#    z 0.000000 0.000000 1.759030 
# 
# From -- ./inp_files/8918.got.cif
#   From: 2010.03.12/outbox.cif.g09.slc.cpg/sg54_5_cif.got.tgz:8918.got - 2010.04.16 15:00:50.
