data_PCOD8222986
_publ_section_title
;
Structure prediction by ZEFSAII (Michael W. Deem and Ramdas Pophale) SiO2 
 PCOD8222986
Probable space group: P C C A
;
_chemical_formula_sum "Si O2"
_cell_formula_units_Z 56
_cell_length_a 20.358113
_cell_length_b 14.004508
_cell_length_c 9.043321
_cell_angle_alpha 90.000000
_cell_angle_beta 90.000000
_cell_angle_gamma 90.000000
_cell_volume 2578.299257
_symmetry_space_group_name_H-M "P C C A"
_symmetry_group_IT_number 54
_symmetry_cell_setting 'orthorhombic'
loop_
_space_group_symop_operation_xyz
x,y,z
1/2-x,-y,z
1/2+x,-y,1/2-z
-x,y,1/2-z
-x,-y,-z
1/2+x,y,-z
1/2-x,y,1/2+z
x,-y,1/2+z
loop_
_atom_site_type_symbol
_atom_site_label
_atom_site_fract_x
_atom_site_fract_y
_atom_site_fract_z
Si Si1 0.550331 0.985173 0.128510
Si Si2 0.125643 0.193290 0.437273
Si Si3 0.843312 0.146798 0.604198
Si Si4 0.424976 0.715839 0.729106
Si Si5 0.301408 0.380373 0.857083
Si Si6 0.678992 0.572237 0.806151
Si Si7 0.261342 0.889706 0.615695
O O1 0.500000 0.020117 0.250000
O O2 0.576053 0.875633 0.153599
O O3 0.615704 0.049033 0.117910
O O4 0.500000 0.000000 0.000000
O O5 0.086573 0.221910 0.583798
O O6 0.152282 0.286038 0.346598
O O7 0.186759 0.128315 0.485565
O O8 0.894387 0.232904 0.626395
O O9 0.786362 0.154151 0.730476
O O10 0.807917 0.155502 0.443350
O O11 0.500000 0.696190 0.750000
O O12 0.393710 0.612125 0.709431
O O13 0.227260 0.362407 0.797354
O O14 0.326190 0.462845 0.745240
O O15 0.297432 0.419326 0.024142
O O16 0.250000 0.000000 0.639153
#
# Coordination Sequence:
#
# PCOD8222986 Si02
#       7
#     8   8   8   8   8   8   8
#     4  12  25  43  62  85 124 176 215 255 310 381
#     4  10  22  39  59  90 123 157 210 260 306 373
#     4  11  23  38  61  88 122 160 205 260 312 376
#     4  10  21  41  61  86 121 167 210 246 305 382
#     4  10  20  39  63  95 123 155 204 259 324 379
#     4  10  20  38  66  91 124 158 197 256 321 373
#     4  11  21  37  58  88 120 155 199 261 319 362
#
# _framework density 21.719743000000001
#
# number of rings (size 3 to 8) (size 9 to 14) (size 15 to 20)
#    0.000    1.429    1.429    6.000    0.000    0.000 
#    0.000   10.714    0.000    0.000    0.000    0.000 
#    0.000    0.000    0.000    0.000    0.000    0.000 
#
# Total GULP energy -693783.360811 kJ/mol
# GULP energy per Si atom -12388.988586 kJ/mol
# Density = 2.167031 g / cm^3
# Si number density = 21.719743 Si / 1000 Ang^3
#
#
#
# Elastic Constant Matrix: (Units=GPa)
#
#
# Indices 1 2 3 4 5 6 
#
# 1 143.9813 36.3349 42.1683 0.0000 0.0000 0.0000
# 2 36.3349 72.1333 17.4535 0.0000 0.0000 0.0000
# 3 42.1683 17.4535 83.9731 0.0000 0.0000 0.0000
# 4 0.0000 0.0000 0.0000 24.6283 0.0000 0.0000
# 5 0.0000 0.0000 0.0000 0.0000 27.7992 0.0000
# 6 0.0000 0.0000 0.0000 0.0000 0.0000 38.6604
#
#
#
# Elastic Compliance Matrix: (Units=1/GPa)
#
#
# Indices 1 2 3 4 5 6 
#
# 1 0.008952 -0.003603 -0.003746 0.000000 0.000000 0.000000
# 2 -0.003603 0.016047 -0.001526 0.000000 0.000000 0.000000
# 3 -0.003746 -0.001526 0.014107 0.000000 0.000000 0.000000
# 4 0.000000 0.000000 0.000000 0.040604 0.000000 0.000000
# 5 0.000000 0.000000 0.000000 0.000000 0.035972 0.000000
# 6 0.000000 0.000000 0.000000 0.000000 0.000000 0.025866
#
#
# Mechanical properties :
#
#
# Convention : Reuss Voigt Hill
#
# Bulk Modulus (GPa) = 46.82650 54.66678 50.74664
# Shear Modulus (GPa) = 30.04493 31.82632 30.93563
#
# Velocity S-wave (km/s) = 3.72331 3.83210 3.77810
# Velocity P-wave (km/s) = 6.33169 6.69356 6.51514
#
# Compressibility (1/GPa) = 0.02135543
#
# Stress axis : x y z
#
# Youngs Moduli (GPa) = 111.71007 62.31603 70.88614
#
# Poissons Ratio (x) = 0.22450 0.26557
# Poissons Ratio (y) = 0.40245 0.10819
# Poissons Ratio (z) = 0.41852 0.09511
#
# Static dielectric constant tensor:
#      x y z
#    x 4.087210 0.000000 0.000000 
#    y 0.000000 3.857310 0.000000 
#    z 0.000000 0.000000 3.923530 
# 
# 
# High freq. dielectric constant tensor:
#      x y z
#    x 1.852920 0.000000 0.000000 
#    y 0.000000 1.851490 0.000000 
#    z 0.000000 0.000000 1.848140 
# 
# From -- ./inp_files/4817.got.cif
#   From: 2010.03.12/outbox.cif.g09.slc.cpg/sg54_3_cif.got.tgz:4817.got - 2010.04.16 15:00:50.
