data_PCOD8222981
_publ_section_title
;
Structure prediction by ZEFSAII (Michael W. Deem and Ramdas Pophale) SiO2 
 PCOD8222981
Probable space group: P C C A
;
_chemical_formula_sum "Si O2"
_cell_formula_units_Z 64
_cell_length_a 7.522597
_cell_length_b 12.221825
_cell_length_c 28.879926
_cell_angle_alpha 90.000000
_cell_angle_beta 90.000000
_cell_angle_gamma 90.000000
_cell_volume 2655.216471
_symmetry_space_group_name_H-M "P C C A"
_symmetry_group_IT_number 54
_symmetry_cell_setting 'orthorhombic'
loop_
_space_group_symop_operation_xyz
x,y,z
1/2-x,-y,z
1/2+x,-y,1/2-z
-x,y,1/2-z
-x,-y,-z
1/2+x,y,-z
1/2-x,y,1/2+z
x,-y,1/2+z
loop_
_atom_site_type_symbol
_atom_site_label
_atom_site_fract_x
_atom_site_fract_y
_atom_site_fract_z
Si Si1 0.049770 0.377221 0.882161
Si Si2 0.955398 0.000294 0.166996
Si Si3 0.541336 0.227040 0.698740
Si Si4 0.253334 0.375838 0.042800
Si Si5 0.957099 0.226959 0.698717
Si Si6 0.209417 0.855203 0.009497
Si Si7 0.952836 0.374198 0.116538
Si Si8 0.515857 0.981781 0.058175
O O1 0.966409 0.310420 0.839230
O O2 0.042955 0.501985 0.866123
O O3 0.250130 0.339970 0.895511
O O4 0.927472 0.360951 0.926494
O O5 0.044736 0.106890 0.190545
O O6 0.981755 0.000502 0.112297
O O7 0.750000 0.000000 0.179751
O O8 0.044623 0.892302 0.189335
O O9 0.500000 0.271209 0.750000
O O10 0.749179 0.221937 0.690752
O O11 0.463641 0.306508 0.659311
O O12 0.250000 0.500000 0.020563
O O13 0.273964 0.277282 0.005395
O O14 0.072711 0.356805 0.071186
O O15 0.000000 0.269144 0.750000
O O16 0.351261 0.901517 0.045860
O O17 0.016619 0.900823 0.031114
O O18 0.196900 0.914004 0.958367
#
# Coordination Sequence:
#
# PCOD8222981 Si02
#       8
#     8   8   8   8   8   8   8   8
#     4   9  19  36  58  88 123 166 205 249 302 362
#     4  10  21  37  59  82 114 157 197 239 308 372
#     4  10  21  36  54  83 118 156 199 250 299 356
#     4  10  20  38  65  93 125 161 206 255 311 375
#     4  10  21  36  54  84 120 159 202 249 302 363
#     4  10  22  40  60  94 120 150 204 253 312 376
#     4   9  19  36  58  88 123 164 208 248 300 367
#     4  10  22  40  63  88 121 156 198 260 310 369
#
# _framework density 24.103496
#
# number of rings (size 3 to 8) (size 9 to 14) (size 15 to 20)
#    0.000    2.250    0.000    1.875    5.250    0.500 
#    6.750    0.625    0.000    0.000    0.000    0.000 
#    0.000    0.000    0.000    0.000    0.000    0.000 
#
# Total GULP energy -793102.957569 kJ/mol
# GULP energy per Si atom -12392.233712 kJ/mol
# Density = 2.404864 g / cm^3
# Si number density = 24.103496 Si / 1000 Ang^3
#
#
#
# Elastic Constant Matrix: (Units=GPa)
#
#
# Indices 1 2 3 4 5 6 
#
# 1 60.5534 23.3228 -1.2299 0.0000 0.0000 0.0000
# 2 23.3228 154.2394 29.9328 0.0000 0.0000 0.0000
# 3 -1.2299 29.9328 62.4455 0.0000 0.0000 0.0000
# 4 0.0000 0.0000 0.0000 28.5539 0.0000 0.0000
# 5 0.0000 0.0000 0.0000 0.0000 17.1043 0.0000
# 6 0.0000 0.0000 0.0000 0.0000 0.0000 19.6846
#
#
#
# Elastic Compliance Matrix: (Units=1/GPa)
#
#
# Indices 1 2 3 4 5 6 
#
# 1 0.017717 -0.003029 0.001801 0.000000 0.000000 0.000000
# 2 -0.003029 0.007666 -0.003734 0.000000 0.000000 0.000000
# 3 0.001801 -0.003734 0.017839 0.000000 0.000000 0.000000
# 4 0.000000 0.000000 0.000000 0.035022 0.000000 0.000000
# 5 0.000000 0.000000 0.000000 0.000000 0.058465 0.000000
# 6 0.000000 0.000000 0.000000 0.000000 0.000000 0.050801
#
#
# Mechanical properties :
#
#
# Convention : Reuss Voigt Hill
#
# Bulk Modulus (GPa) = 30.03133 42.36550 36.19842
# Shear Modulus (GPa) = 23.97689 28.08274 26.02982
#
# Velocity S-wave (km/s) = 3.15738 3.41704 3.28978
# Velocity P-wave (km/s) = 5.07725 5.76046 5.42961
#
# Compressibility (1/GPa) = 0.03329856
#
# Stress axis : x y z
#
# Youngs Moduli (GPa) = 56.44170 130.44467 56.05551
#
# Poissons Ratio (x) = 0.39505 -0.10094
# Poissons Ratio (y) = 0.17093 0.20933
# Poissons Ratio (z) = -0.10163 0.48712
#
# Static dielectric constant tensor:
#      x y z
#    x 4.867070 0.000000 0.000000 
#    y 0.000000 4.848410 0.000000 
#    z 0.000000 0.000000 4.057540 
# 
# 
# High freq. dielectric constant tensor:
#      x y z
#    x 1.964980 0.000000 0.000000 
#    y 0.000000 1.961340 0.000000 
#    z 0.000000 0.000000 1.935440 
# 
# From -- ./inp_files/27961.got.cif
#   From: 2010.03.12/outbox.cif.g09.slc.cpg/sg54_14_cif.got.tgz:27961.got - 2010.04.16 15:00:50.
