data_PCOD8222508
_publ_section_title
;
Structure prediction by ZEFSAII (Michael W. Deem and Ramdas Pophale) SiO2 
 PCOD8222508
Probable space group: P C C A
;
_chemical_formula_sum "Si O2"
_cell_formula_units_Z 28
_cell_length_a 13.170266
_cell_length_b 7.495325
_cell_length_c 12.195988
_cell_angle_alpha 90.000000
_cell_angle_beta 90.000000
_cell_angle_gamma 90.000000
_cell_volume 1203.932127
_symmetry_space_group_name_H-M "P C C A"
_symmetry_group_IT_number 54
_symmetry_cell_setting 'orthorhombic'
loop_
_space_group_symop_operation_xyz
x,y,z
1/2-x,-y,z
1/2+x,-y,1/2-z
-x,y,1/2-z
-x,-y,-z
1/2+x,y,-z
1/2-x,y,1/2+z
x,-y,1/2+z
loop_
_atom_site_type_symbol
_atom_site_label
_atom_site_fract_x
_atom_site_fract_y
_atom_site_fract_z
Si Si1 0.961712 0.373897 0.634655
Si Si2 0.835233 0.851744 0.752606
Si Si3 0.498502 0.232242 0.588759
Si Si4 0.250000 0.500000 0.301651
O O1 0.021412 0.560244 0.620245
O O2 0.000000 0.290341 0.750000
O O3 0.991838 0.224002 0.543525
O O4 0.841692 0.417839 0.625209
O O5 0.911000 0.886740 0.854023
O O6 0.785612 0.659818 0.776370
O O7 0.894153 0.839874 0.635318
O O8 0.750000 0.000000 0.744422
#
# Coordination Sequence:
#
# PCOD8222508 Si02
#       4
#     8   8   8   4
#     4  10  18  38  66  97 137 180 225 290 345 429
#     4  10  20  41  65  95 137 169 229 293 335 420
#     4   9  19  39  63 100 135 174 232 283 356 413
#     4  10  20  38  64 100 126 184 222 268 362 408
#
# _framework density 23.257126
#
# number of rings (size 3 to 8) (size 9 to 14) (size 15 to 20)
#    0.000    2.286    5.714    0.000    0.000    1.143 
#   10.286    2.857    0.000    1.714    0.000    0.000 
#    0.000    0.000    0.000    0.000    0.000    0.000 
#
# Total GULP energy -347003.486438 kJ/mol
# GULP energy per Si atom -12392.981659 kJ/mol
# Density = 2.320419 g / cm^3
# Si number density = 23.257126 Si / 1000 Ang^3
#
#
#
# Elastic Constant Matrix: (Units=GPa)
#
#
# Indices 1 2 3 4 5 6 
#
# 1 163.0716 63.0805 76.4838 0.0000 0.0000 0.0000
# 2 63.0805 76.0083 39.1823 0.0000 0.0000 0.0000
# 3 76.4838 39.1823 191.0243 0.0000 0.0000 0.0000
# 4 0.0000 0.0000 0.0000 34.5500 0.0000 0.0000
# 5 0.0000 0.0000 0.0000 0.0000 14.6633 0.0000
# 6 0.0000 0.0000 0.0000 0.0000 0.0000 44.6265
#
#
#
# Elastic Compliance Matrix: (Units=1/GPa)
#
#
# Indices 1 2 3 4 5 6 
#
# 1 0.010060 -0.007014 -0.002589 0.000000 0.000000 0.000000
# 2 -0.007014 0.019603 -0.001212 0.000000 0.000000 0.000000
# 3 -0.002589 -0.001212 0.006520 0.000000 0.000000 0.000000
# 4 0.000000 0.000000 0.000000 0.028944 0.000000 0.000000
# 5 0.000000 0.000000 0.000000 0.000000 0.068197 0.000000
# 6 0.000000 0.000000 0.000000 0.000000 0.000000 0.022408
#
#
# Mechanical properties :
#
#
# Convention : Reuss Voigt Hill
#
# Bulk Modulus (GPa) = 68.72226 87.51080 78.11653
# Shear Modulus (GPa) = 27.44027 35.52515 31.48271
#
# Velocity S-wave (km/s) = 3.43864 3.91256 3.68323
# Velocity P-wave (km/s) = 6.73637 7.62365 7.19370
#
# Compressibility (1/GPa) = 0.01455133
#
# Stress axis : x y z
#
# Youngs Moduli (GPa) = 99.40459 51.01358 153.36751
#
# Poissons Ratio (x) = 0.35782 0.39709
# Poissons Ratio (y) = 0.69724 0.18595
# Poissons Ratio (z) = 0.25737 0.06185
#
# Static dielectric constant tensor:
#      x y z
#    x 4.351790 0.000000 0.000000 
#    y 0.000000 3.939720 0.000000 
#    z 0.000000 0.000000 4.218030 
# 
# 
# High freq. dielectric constant tensor:
#      x y z
#    x 1.924740 0.000000 0.000000 
#    y 0.000000 1.907970 0.000000 
#    z 0.000000 0.000000 1.894580 
# 
# From -- ./inp_files/12103.got.cif
#   From: 2010.03.12/outbox.cif.g09.slc.cpg/sg54_7_cif.got.tgz:12103.got - 2010.04.16 15:00:50.
