data_PCOD8222481
_publ_section_title
;
Structure prediction by ZEFSAII (Michael W. Deem and Ramdas Pophale) SiO2 
 PCOD8222481
Probable space group: P C C A
;
_chemical_formula_sum "Si O2"
_cell_formula_units_Z 56
_cell_length_a 8.943364
_cell_length_b 21.952485
_cell_length_c 13.653494
_cell_angle_alpha 90.000000
_cell_angle_beta 90.000000
_cell_angle_gamma 90.000000
_cell_volume 2680.577698
_symmetry_space_group_name_H-M "P C C A"
_symmetry_group_IT_number 54
_symmetry_cell_setting 'orthorhombic'
loop_
_space_group_symop_operation_xyz
x,y,z
1/2-x,-y,z
1/2+x,-y,1/2-z
-x,y,1/2-z
-x,-y,-z
1/2+x,y,-z
1/2-x,y,1/2+z
x,-y,1/2+z
loop_
_atom_site_type_symbol
_atom_site_label
_atom_site_fract_x
_atom_site_fract_y
_atom_site_fract_z
Si Si1 0.817431 0.181794 0.542024
Si Si2 0.870770 0.542287 0.459505
Si Si3 0.137729 0.379690 0.941022
Si Si4 0.380941 0.284002 0.604893
Si Si5 0.077014 0.996166 0.649192
Si Si6 0.555673 0.903278 0.011958
Si Si7 0.785967 0.276718 0.177659
O O1 0.794623 0.232886 0.458262
O O2 0.723956 0.118678 0.532724
O O3 0.795205 0.213166 0.648259
O O4 0.985327 0.159193 0.527673
O O5 0.750000 0.500000 0.396511
O O6 0.767537 0.569456 0.547202
O O7 0.000000 0.500000 0.500000
O O8 0.972043 0.594834 0.407365
O O9 0.187062 0.332971 0.858377
O O10 0.126293 0.348194 0.048307
O O11 0.293437 0.286190 0.706886
O O12 0.554233 0.270684 0.624908
O O13 0.000000 0.013257 0.750000
O O14 0.020412 0.929872 0.611210
O O15 0.250000 0.000000 0.670671
O O16 0.036861 0.046143 0.569700
#
# Coordination Sequence:
#
# PCOD8222481 Si02
#       7
#     8   8   8   8   8   8   8
#     4  11  22  40  62  89 120 160 197 256 301 360
#     4   9  18  32  58  87 115 157 204 239 291 352
#     4  10  18  36  58  85 120 159 194 247 300 353
#     4  10  21  36  59  90 119 156 203 243 304 369
#     4  11  26  42  64  92 119 160 207 248 307 373
#     4  11  24  43  62  84 125 158 202 252 306 362
#     4  10  21  36  60  88 119 160 200 245 302 369
#
# _framework density 20.891017999999999
#
# number of rings (size 3 to 8) (size 9 to 14) (size 15 to 20)
#    0.000    1.714    4.286    0.000    2.000    2.286 
#    0.000    2.143    0.000   12.857    0.000    0.000 
#    0.000    0.000    0.000    0.000    0.000    0.000 
#
# Total GULP energy -693776.871236 kJ/mol
# GULP energy per Si atom -12388.872701 kJ/mol
# Density = 2.084347 g / cm^3
# Si number density = 20.891018 Si / 1000 Ang^3
#
#
#
# Elastic Constant Matrix: (Units=GPa)
#
#
# Indices 1 2 3 4 5 6 
#
# 1 95.4497 34.5395 30.2905 0.0000 0.0000 0.0000
# 2 34.5395 100.1440 29.6661 0.0000 0.0000 0.0000
# 3 30.2905 29.6661 83.1103 0.0000 0.0000 0.0000
# 4 0.0000 0.0000 0.0000 18.0706 0.0000 0.0000
# 5 0.0000 0.0000 0.0000 0.0000 21.5148 0.0000
# 6 0.0000 0.0000 0.0000 0.0000 0.0000 57.4061
#
#
#
# Elastic Compliance Matrix: (Units=1/GPa)
#
#
# Indices 1 2 3 4 5 6 
#
# 1 0.012800 -0.003391 -0.003455 0.000000 0.000000 0.000000
# 2 -0.003391 0.012065 -0.003071 0.000000 0.000000 0.000000
# 3 -0.003455 -0.003071 0.014387 0.000000 0.000000 0.000000
# 4 0.000000 0.000000 0.000000 0.055338 0.000000 0.000000
# 5 0.000000 0.000000 0.000000 0.000000 0.046480 0.000000
# 6 0.000000 0.000000 0.000000 0.000000 0.000000 0.017420
#
#
# Mechanical properties :
#
#
# Convention : Reuss Voigt Hill
#
# Bulk Modulus (GPa) = 51.49507 51.96625 51.73066
# Shear Modulus (GPa) = 27.05677 31.67881 29.36779
#
# Velocity S-wave (km/s) = 3.60271 3.89830 3.75342
# Velocity P-wave (km/s) = 6.48143 6.72245 6.60304
#
# Compressibility (1/GPa) = 0.01941933
#
# Stress axis : x y z
#
# Youngs Moduli (GPa) = 78.12348 82.88497 69.50577
#
# Poissons Ratio (x) = 0.28110 0.24012
# Poissons Ratio (y) = 0.26495 0.21342
# Poissons Ratio (z) = 0.26989 0.25450
#
# Static dielectric constant tensor:
#      x y z
#    x 4.350330 0.000000 0.000000 
#    y 0.000000 4.143460 0.000000 
#    z 0.000000 0.000000 3.425120 
# 
# 
# High freq. dielectric constant tensor:
#      x y z
#    x 1.837550 0.000000 0.000000 
#    y 0.000000 1.834290 0.000000 
#    z 0.000000 0.000000 1.776670 
# 
# From -- ./inp_files/11869.got.cif
#   From: 2010.03.12/outbox.cif.g09.slc.cpg/sg54_6_cif.got.tgz:11869.got - 2010.04.16 15:00:50.
