data_PCOD8222932
_publ_section_title
;
Structure prediction by ZEFSAII (Michael W. Deem and Ramdas Pophale) SiO2 
 PCOD8222932
Probable space group: P C C A
;
_chemical_formula_sum "Si O2"
_cell_formula_units_Z 48
_cell_length_a 8.763705
_cell_length_b 15.204674
_cell_length_c 17.875594
_cell_angle_alpha 90.000000
_cell_angle_beta 90.000000
_cell_angle_gamma 90.000000
_cell_volume 2381.909986
_symmetry_space_group_name_H-M "P C C A"
_symmetry_group_IT_number 54
_symmetry_cell_setting 'orthorhombic'
loop_
_space_group_symop_operation_xyz
x,y,z
1/2-x,-y,z
1/2+x,-y,1/2-z
-x,y,1/2-z
-x,-y,-z
1/2+x,y,-z
1/2-x,y,1/2+z
x,-y,1/2+z
loop_
_atom_site_type_symbol
_atom_site_label
_atom_site_fract_x
_atom_site_fract_y
_atom_site_fract_z
Si Si1 0.681532 0.587971 0.599871
Si Si2 0.134987 0.724848 0.641235
Si Si3 0.302906 0.736491 0.306986
Si Si4 0.512314 0.825742 0.490629
Si Si5 0.751285 0.099022 0.096565
Si Si6 0.629077 0.358118 0.457476
O O1 0.750000 0.500000 0.638864
O O2 0.680261 0.668547 0.659150
O O3 0.795154 0.602926 0.530912
O O4 0.506169 0.578477 0.572358
O O5 0.217909 0.750294 0.718529
O O6 0.124444 0.803393 0.579721
O O7 0.236780 0.647798 0.604661
O O8 0.964329 0.695787 0.664770
O O9 0.281675 0.835173 0.335714
O O10 0.382626 0.892605 0.465124
O O11 0.593628 0.875820 0.557591
O O12 0.442802 0.735842 0.522418
O O13 0.750000 0.000000 0.128066
#
# Coordination Sequence:
#
# PCOD8222932 Si02
#       6
#     8   8   8   8   8   8
#     4  12  23  38  61  89 121 157 200 248 297 353
#     4  10  20  37  67  82 116 167 191 242 311 347
#     4  10  21  41  59  83 125 158 195 241 304 368
#     4  11  18  37  62  86 113 152 203 244 291 351
#     4  11  21  36  61  87 119 154 196 247 298 351
#     4  12  19  39  64  87 115 155 206 247 292 349
#
# _framework density 20.151895
#
# number of rings (size 3 to 8) (size 9 to 14) (size 15 to 20)
#    0.000    1.000    8.333    1.000    0.000    0.667 
#    0.000    5.000   11.000    0.000    0.000    0.000 
#    0.000    0.000    0.000    0.000    0.000    0.000 
#
# Total GULP energy -594957.230590 kJ/mol
# GULP energy per Si atom -12394.942304 kJ/mol
# Density = 2.010603 g / cm^3
# Si number density = 20.151895 Si / 1000 Ang^3
#
#
#
# Elastic Constant Matrix: (Units=GPa)
#
#
# Indices 1 2 3 4 5 6 
#
# 1 58.4155 18.3664 3.5561 0.0000 0.0000 0.0000
# 2 18.3664 88.2886 11.2070 0.0000 0.0000 0.0000
# 3 3.5561 11.2070 84.7877 0.0000 0.0000 0.0000
# 4 0.0000 0.0000 0.0000 1.9234 0.0000 0.0000
# 5 0.0000 0.0000 0.0000 0.0000 14.6968 0.0000
# 6 0.0000 0.0000 0.0000 0.0000 0.0000 26.3223
#
#
#
# Elastic Compliance Matrix: (Units=1/GPa)
#
#
# Indices 1 2 3 4 5 6 
#
# 1 0.018323 -0.003777 -0.000269 0.000000 0.000000 0.000000
# 2 -0.003777 0.012299 -0.001467 0.000000 0.000000 0.000000
# 3 -0.000269 -0.001467 0.011999 0.000000 0.000000 0.000000
# 4 0.000000 0.000000 0.000000 0.519924 0.000000 0.000000
# 5 0.000000 0.000000 0.000000 0.000000 0.068042 0.000000
# 6 0.000000 0.000000 0.000000 0.000000 0.000000 0.037991
#
#
# Mechanical properties :
#
#
# Convention : Reuss Voigt Hill
#
# Bulk Modulus (GPa) = 31.65247 33.08341 32.36794
# Shear Modulus (GPa) = 7.24495 21.81265 14.52880
#
# Velocity S-wave (km/s) = 1.89815 3.29357 2.68799
# Velocity P-wave (km/s) = 4.53266 5.56023 5.07253
#
# Compressibility (1/GPa) = 0.03159312
#
# Stress axis : x y z
#
# Youngs Moduli (GPa) = 54.57681 81.31050 83.33770
#
# Poissons Ratio (x) = 0.30715 0.02243
# Poissons Ratio (y) = 0.20616 0.12227
# Poissons Ratio (z) = 0.01469 0.11929
#
# Static dielectric constant tensor:
#      x y z
#    x 3.940610 0.000000 0.000000 
#    y 0.000000 3.543810 0.000000 
#    z 0.000000 0.000000 3.679790 
# 
# 
# High freq. dielectric constant tensor:
#      x y z
#    x 1.796660 0.000000 0.000000 
#    y 0.000000 1.758720 0.000000 
#    z 0.000000 0.000000 1.778560 
# 
# From -- ./inp_files/16598.got.cif
#   From: 2010.03.12/outbox.cif.g09.slc.cpg/sg54_9_cif.got.tgz:16598.got - 2010.04.16 15:00:50.
