data_PCOD8222048
_publ_section_title
;
Structure prediction by ZEFSAII (Michael W. Deem and Ramdas Pophale) SiO2 
 PCOD8222048
Probable space group: P M N A
;
_chemical_formula_sum "Si O2"
_cell_formula_units_Z 32
_cell_length_a 7.419862
_cell_length_b 11.868553
_cell_length_c 20.288837
_cell_angle_alpha 90.000000
_cell_angle_beta 90.000000
_cell_angle_gamma 90.000000
_cell_volume 1786.696368
_symmetry_space_group_name_H-M "P M N A"
_symmetry_group_IT_number 53
_symmetry_cell_setting 'orthorhombic'
loop_
_space_group_symop_operation_xyz
x,y,z
1/2-x,-y,1/2+z
x,-y,-z
1/2-x,y,1/2-z
-x,-y,-z
1/2+x,y,1/2-z
-x,y,z
1/2+x,-y,1/2+z
loop_
_atom_site_type_symbol
_atom_site_label
_atom_site_fract_x
_atom_site_fract_y
_atom_site_fract_z
Si Si1 0.500000 0.339983 0.055260
Si Si2 0.710817 0.077634 0.588382
Si Si3 0.000000 0.588268 0.404347
Si Si4 0.787214 0.838470 0.947505
Si Si5 0.209534 0.719717 0.173644
O O1 0.500000 0.453414 0.097568
O O2 0.678347 0.270698 0.076431
O O3 0.500000 0.365916 0.977991
O O4 0.500000 0.072132 0.579263
O O5 0.781681 0.135361 0.521578
O O6 0.769632 0.154433 0.650344
O O7 0.773480 0.947674 0.596281
O O8 0.820893 0.627693 0.366544
O O9 0.000000 0.812354 0.942333
O O10 0.250000 0.708612 0.250000
O O11 0.000000 0.698496 0.158285
#
# Coordination Sequence:
#
# PCOD8222048 Si02
#       5
#     4   8   4   8   8
#     4  11  22  34  55  80 115 148 188 232 265 331
#     4   8  16  30  52  82 112 137 170 214 280 335
#     4  11  24  37  50  85 112 144 199 227 268 324
#     4   9  17  32  52  79 114 143 170 219 276 331
#     4  11  21  37  58  81 108 141 180 234 277 324
#
# _framework density 17.910149000000001
#
# number of rings (size 3 to 8) (size 9 to 14) (size 15 to 20)
#    0.000    2.250    3.750    1.500    0.000    4.000 
#    0.000    2.500    0.000    1.500    0.000    0.000 
#    0.000    0.000    0.000    0.000    0.000    0.000 
#
# Total GULP energy -396599.631786 kJ/mol
# GULP energy per Si atom -12393.738493 kJ/mol
# Density = 1.786938 g / cm^3
# Si number density = 17.910149 Si / 1000 Ang^3
#
#
#
# Elastic Constant Matrix: (Units=GPa)
#
#
# Indices 1 2 3 4 5 6 
#
# 1 106.3684 70.3262 29.8733 0.0000 0.0000 0.0000
# 2 70.3262 170.2435 53.6201 0.0000 0.0000 0.0000
# 3 29.8733 53.6201 75.7251 0.0000 0.0000 0.0000
# 4 0.0000 0.0000 0.0000 24.3034 0.0000 0.0000
# 5 0.0000 0.0000 0.0000 0.0000 9.3213 0.0000
# 6 0.0000 0.0000 0.0000 0.0000 0.0000 25.5614
#
#
#
# Elastic Compliance Matrix: (Units=1/GPa)
#
#
# Indices 1 2 3 4 5 6 
#
# 1 0.013106 -0.004872 -0.001720 0.000000 0.000000 0.000000
# 2 -0.004872 0.009371 -0.004714 0.000000 0.000000 0.000000
# 3 -0.001720 -0.004714 0.017222 0.000000 0.000000 0.000000
# 4 0.000000 0.000000 0.000000 0.041146 0.000000 0.000000
# 5 0.000000 0.000000 0.000000 0.000000 0.107281 0.000000
# 6 0.000000 0.000000 0.000000 0.000000 0.000000 0.039122
#
#
# Mechanical properties :
#
#
# Convention : Reuss Voigt Hill
#
# Bulk Modulus (GPa) = 58.52446 73.33069 65.92757
# Shear Modulus (GPa) = 19.56524 25.07171 22.31847
#
# Velocity S-wave (km/s) = 3.30875 3.74553 3.53389
# Velocity P-wave (km/s) = 6.88075 7.72903 7.31719
#
# Compressibility (1/GPa) = 0.01708687
#
# Stress axis : x y z
#
# Youngs Moduli (GPa) = 76.30343 106.71088 58.06540
#
# Poissons Ratio (x) = 0.51989 0.09989
# Poissons Ratio (y) = 0.37175 0.27370
# Poissons Ratio (z) = 0.13127 0.50299
#
# Static dielectric constant tensor:
#      x y z
#    x 3.324010 0.000000 0.000000 
#    y 0.000000 3.510620 0.000000 
#    z 0.000000 0.000000 3.108920 
# 
# 
# High freq. dielectric constant tensor:
#      x y z
#    x 1.702070 0.000000 0.000000 
#    y 0.000000 1.692480 0.000000 
#    z 0.000000 0.000000 1.653010 
# 
# From -- ./inp_files/25780.got.cif
#   From: 2010.03.12/outbox.cif.g09.slc.cpg/sg53_13_cif.got.tgz:25780.got - 2010.04.16 14:36:59.
