data_PCOD8222000
_publ_section_title
;
Structure prediction by ZEFSAII (Michael W. Deem and Ramdas Pophale) SiO2 
 PCOD8222000
Probable space group: P M N A
;
_chemical_formula_sum "Si O2"
_cell_formula_units_Z 40
_cell_length_a 17.960919
_cell_length_b 12.441516
_cell_length_c 9.254250
_cell_angle_alpha 90.000000
_cell_angle_beta 90.000000
_cell_angle_gamma 90.000000
_cell_volume 2067.964525
_symmetry_space_group_name_H-M "P M N A"
_symmetry_group_IT_number 53
_symmetry_cell_setting 'orthorhombic'
loop_
_space_group_symop_operation_xyz
x,y,z
1/2-x,-y,1/2+z
x,-y,-z
1/2-x,y,1/2-z
-x,-y,-z
1/2+x,y,1/2-z
-x,y,z
1/2+x,-y,1/2+z
loop_
_atom_site_type_symbol
_atom_site_label
_atom_site_fract_x
_atom_site_fract_y
_atom_site_fract_z
Si Si1 0.581194 0.474744 0.832116
Si Si2 0.588049 0.750083 0.069604
Si Si3 0.087951 0.075667 0.791247
Si Si4 0.163405 0.679666 0.723085
Si Si5 0.587959 0.852181 0.600433
O O1 0.500000 0.496079 0.760898
O O2 0.602436 0.348793 0.818372
O O3 0.641701 0.553873 0.761285
O O4 0.575904 0.500000 0.000000
O O5 0.500000 0.755147 0.026866
O O6 0.616437 0.858493 0.150639
O O7 0.637650 0.733000 0.927524
O O8 0.000000 0.087495 0.794023
O O9 0.110680 0.949572 0.788873
O O10 0.119265 0.124995 0.940266
O O11 0.250000 0.691620 0.750000
O O12 0.122958 0.741055 0.851500
O O13 0.500000 0.840885 0.598537
#
# Coordination Sequence:
#
# PCOD8222000 Si02
#       5
#     8   8   8   8   8
#     4   8  15  31  54  74  95 129 172 216 256 296
#     4   9  17  34  59  81 100 130 175 219 259 308
#     4   8  16  32  55  78  99 129 171 216 259 304
#     4  11  21  32  47  74 108 138 172 210 253 308
#     4   9  17  33  54  75 102 133 167 213 264 304
#
# _framework density 19.342690999999999
#
# number of rings (size 3 to 8) (size 9 to 14) (size 15 to 20)
#    0.000    3.000    0.000    4.200    0.000    0.800 
#    0.000   15.000    0.000    4.800    0.000    0.000 
#    0.000    0.000    0.000    0.000    0.000    0.000 
#
# Total GULP energy -495603.266968 kJ/mol
# GULP energy per Si atom -12390.081674 kJ/mol
# Density = 1.929867 g / cm^3
# Si number density = 19.342691 Si / 1000 Ang^3
#
#
#
# Elastic Constant Matrix: (Units=GPa)
#
#
# Indices 1 2 3 4 5 6 
#
# 1 71.3096 29.7889 36.2866 0.0000 0.0000 0.0000
# 2 29.7889 51.8670 12.6085 0.0000 0.0000 0.0000
# 3 36.2866 12.6085 43.9142 0.0000 0.0000 0.0000
# 4 0.0000 0.0000 0.0000 30.6561 0.0000 0.0000
# 5 0.0000 0.0000 0.0000 0.0000 -18.4158 0.0000
# 6 0.0000 0.0000 0.0000 0.0000 0.0000 13.3990
#
#
#
# Elastic Compliance Matrix: (Units=1/GPa)
#
#
# Indices 1 2 3 4 5 6 
#
# 1 0.029807 -0.011967 -0.021194 0.000000 0.000000 0.000000
# 2 -0.011967 0.025531 0.002558 0.000000 0.000000 0.000000
# 3 -0.021194 0.002558 0.039550 0.000000 0.000000 0.000000
# 4 0.000000 0.000000 0.000000 0.032620 0.000000 0.000000
# 5 0.000000 0.000000 0.000000 0.000000 -0.054301 0.000000
# 6 0.000000 0.000000 0.000000 0.000000 0.000000 0.074633
#
#
# Mechanical properties :
#
#
# Convention : Reuss Voigt Hill
#
# Bulk Modulus (GPa) = 29.68908 36.05098 32.87003
# Shear Modulus (GPa) = 22.69903 11.02163 16.86033
#
# Velocity S-wave (km/s) = 3.42938 2.38966 2.95560
# Velocity P-wave (km/s) = 5.57344 5.12762 5.35517
#
# Compressibility (1/GPa) = 0.03368242
#
# Stress axis : x y z
#
# Youngs Moduli (GPa) = 33.54882 39.16747 25.28450
#
# Poissons Ratio (x) = 0.46873 0.53588
# Poissons Ratio (y) = 0.40149 -0.06468
# Poissons Ratio (z) = 0.71103 -0.10019
#
# Static dielectric constant tensor:
#      x y z
#    x 3.105000 0.000000 0.000000 
#    y 0.000000 4.076470 0.000000 
#    z 0.000000 0.000000 3.452360 
# 
# 
# High freq. dielectric constant tensor:
#      x y z
#    x 1.707660 0.000000 0.000000 
#    y 0.000000 1.767530 0.000000 
#    z 0.000000 0.000000 1.728710 
# 
# From -- ./inp_files/8419.got.cif
#   From: 2010.03.12/outbox.cif.g09.slc.cpg/sg53_5_cif.got.tgz:8419.got - 2010.04.16 14:36:59.
