data_PCOD8222139
_publ_section_title
;
Structure prediction by ZEFSAII (Michael W. Deem and Ramdas Pophale) SiO2 
 PCOD8222139
Probable space group: P M N A
;
_chemical_formula_sum "Si O2"
_cell_formula_units_Z 52
_cell_length_a 20.402452
_cell_length_b 8.365272
_cell_length_c 14.229421
_cell_angle_alpha 90.000000
_cell_angle_beta 90.000000
_cell_angle_gamma 90.000000
_cell_volume 2428.564601
_symmetry_space_group_name_H-M "P M N A"
_symmetry_group_IT_number 53
_symmetry_cell_setting 'orthorhombic'
loop_
_space_group_symop_operation_xyz
x,y,z
1/2-x,-y,1/2+z
x,-y,-z
1/2-x,y,1/2-z
-x,-y,-z
1/2+x,y,1/2-z
-x,y,z
1/2+x,-y,1/2+z
loop_
_atom_site_type_symbol
_atom_site_label
_atom_site_fract_x
_atom_site_fract_y
_atom_site_fract_z
Si Si1 0.176006 0.317563 0.992126
Si Si2 0.691297 0.821377 0.963323
Si Si3 0.624588 0.500000 0.000000
Si Si4 0.318826 0.736197 0.274445
Si Si5 0.072380 0.522692 0.301833
Si Si6 0.924099 0.253190 0.145949
Si Si7 0.821981 0.905157 0.734969
O O1 0.166251 0.262887 0.885047
O O2 0.200646 0.500000 0.000000
O O3 0.229659 0.201567 0.040581
O O4 0.105842 0.305063 0.045509
O O5 0.665172 0.665391 0.020421
O O6 0.656210 0.820704 0.861765
O O7 0.675456 0.000000 0.000000
O O8 0.581152 0.538429 0.908473
O O9 0.250000 0.646194 0.250000
O O10 0.377267 0.660836 0.217639
O O11 0.312325 0.906917 0.225142
O O12 0.083380 0.389282 0.223367
O O13 0.000000 0.594314 0.291697
O O14 0.877327 0.113656 0.184987
O O15 0.000000 0.199767 0.132779
O O16 0.750000 0.827054 0.750000
#
# Coordination Sequence:
#
# PCOD8222139 Si02
#       7
#     8   8   4   8   8   8   8
#     4  12  24  42  68 101 137 181 230 291 354 424
#     4  12  24  40  68 106 139 175 234 296 360 414
#     4  12  23  42  72 102 135 184 240 296 363 422
#     4  11  25  43  69 102 135 176 231 290 352 418
#     4  11  24  43  66  95 137 181 232 290 355 427
#     4  11  25  43  66  98 137 184 231 283 350 429
#     4  11  22  43  67  93 138 181 222 292 351 412
#
# _framework density 21.411825
#
# number of rings (size 3 to 8) (size 9 to 14) (size 15 to 20)
#    0.000    0.615    5.385    3.923    0.000    2.154 
#    0.000    0.769    0.000    2.308    0.000    0.000 
#    0.000    0.000    0.000    0.000    0.000    0.000 
#
# Total GULP energy -644366.145313 kJ/mol
# GULP energy per Si atom -12391.656641 kJ/mol
# Density = 2.136309 g / cm^3
# Si number density = 21.411825 Si / 1000 Ang^3
#
#
#
# Elastic Constant Matrix: (Units=GPa)
#
#
# Indices 1 2 3 4 5 6 
#
# 1 141.7820 32.5078 50.5195 0.0000 0.0000 0.0000
# 2 32.5078 85.8624 9.5322 0.0000 0.0000 0.0000
# 3 50.5195 9.5322 127.7915 0.0000 0.0000 0.0000
# 4 0.0000 0.0000 0.0000 31.9904 0.0000 0.0000
# 5 0.0000 0.0000 0.0000 0.0000 22.1742 0.0000
# 6 0.0000 0.0000 0.0000 0.0000 0.0000 3.2367
#
#
#
# Elastic Compliance Matrix: (Units=1/GPa)
#
#
# Indices 1 2 3 4 5 6 
#
# 1 0.008920 -0.003011 -0.003302 0.000000 0.000000 0.000000
# 2 -0.003011 0.012760 0.000238 0.000000 0.000000 0.000000
# 3 -0.003302 0.000238 0.009113 0.000000 0.000000 0.000000
# 4 0.000000 0.000000 0.000000 0.031259 0.000000 0.000000
# 5 0.000000 0.000000 0.000000 0.000000 0.045097 0.000000
# 6 0.000000 0.000000 0.000000 0.000000 0.000000 0.308958
#
#
# Mechanical properties :
#
#
# Convention : Reuss Voigt Hill
#
# Bulk Modulus (GPa) = 53.63455 60.06166 56.84810
# Shear Modulus (GPa) = 11.50829 29.00534 20.25682
#
# Velocity S-wave (km/s) = 2.32086 3.68454 3.07914
# Velocity P-wave (km/s) = 5.68201 6.79799 6.26490
#
# Compressibility (1/GPa) = 0.01864470
#
# Stress axis : x y z
#
# Youngs Moduli (GPa) = 112.11033 78.37066 109.73683
#
# Poissons Ratio (x) = 0.23594 0.36232
# Poissons Ratio (y) = 0.33751 -0.02616
# Poissons Ratio (z) = 0.37015 -0.01868
#
# Static dielectric constant tensor:
#      x y z
#    x 3.894500 0.000000 0.000000 
#    y 0.000000 3.689150 0.000000 
#    z 0.000000 0.000000 3.965780 
# 
# 
# High freq. dielectric constant tensor:
#      x y z
#    x 1.831140 0.000000 0.000000 
#    y 0.000000 1.830080 0.000000 
#    z 0.000000 0.000000 1.856010 
# 
# From -- ./inp_files/24265.got.cif
#   From: 2010.03.12/outbox.cif.g09.slc.cpg/sg53_13_cif.got.tgz:24265.got - 2010.04.16 14:36:59.
