data_PCOD8222606
_publ_section_title
;
Structure prediction by ZEFSAII (Michael W. Deem and Ramdas Pophale) SiO2 
 PCOD8222606
Probable space group: P C C A
;
_chemical_formula_sum "Si O2"
_cell_formula_units_Z 48
_cell_length_a 11.799012
_cell_length_b 9.049308
_cell_length_c 18.819620
_cell_angle_alpha 90.000000
_cell_angle_beta 90.000000
_cell_angle_gamma 90.000000
_cell_volume 2009.425285
_symmetry_space_group_name_H-M "P C C A"
_symmetry_group_IT_number 54
_symmetry_cell_setting 'orthorhombic'
loop_
_space_group_symop_operation_xyz
x,y,z
1/2-x,-y,z
1/2+x,-y,1/2-z
-x,y,1/2-z
-x,-y,-z
1/2+x,y,-z
1/2-x,y,1/2+z
x,-y,1/2+z
loop_
_atom_site_type_symbol
_atom_site_label
_atom_site_fract_x
_atom_site_fract_y
_atom_site_fract_z
Si Si1 0.987266 0.492064 0.170613
Si Si2 0.610676 0.754686 0.597198
Si Si3 0.541528 0.923880 0.091706
Si Si4 0.189070 0.765719 0.804309
Si Si5 0.165051 0.251958 0.142311
Si Si6 0.785565 0.169713 0.985804
O O1 0.970784 0.614415 0.109339
O O2 0.880916 0.380925 0.174635
O O3 0.000000 0.560198 0.250000
O O4 0.102437 0.409472 0.146219
O O5 0.682234 0.760133 0.670273
O O6 0.699036 0.732346 0.533198
O O7 0.535485 0.899985 0.581041
O O8 0.623872 0.901720 0.159133
O O9 0.415164 0.869985 0.105380
O O10 0.590294 0.831921 0.023176
O O11 0.195942 0.798081 0.721000
O O12 0.278369 0.246247 0.092640
O O13 0.750000 0.000000 0.986656
#
# Coordination Sequence:
#
# PCOD8222606 Si02
#       6
#     8   8   8   8   8   8
#     4   9  19  34  55  81 109 146 188 237 294 349
#     4  10  19  34  55  80 112 148 190 241 290 346
#     4   9  19  36  58  84 113 150 197 242 291 352
#     4   9  18  35  57  80 108 147 193 237 292 353
#     4  10  20  37  59  82 116 157 194 240 298 354
#     4   9  20  35  54  83 116 151 194 241 292 348
#
# _framework density 23.887426000000001
#
# number of rings (size 3 to 8) (size 9 to 14) (size 15 to 20)
#    0.000    2.667    0.000    3.500    0.000    6.000 
#    0.000    1.667    0.000   30.000    0.000    0.000 
#    0.000    0.000    0.000    0.000    0.000    0.000 
#
# Total GULP energy -594908.764665 kJ/mol
# GULP energy per Si atom -12393.932597 kJ/mol
# Density = 2.383306 g / cm^3
# Si number density = 23.887426 Si / 1000 Ang^3
#
#
#
# Elastic Constant Matrix: (Units=GPa)
#
#
# Indices 1 2 3 4 5 6 
#
# 1 44.3293 3.8281 31.7878 0.0000 0.0000 0.0000
# 2 3.8281 68.6496 31.5223 0.0000 0.0000 0.0000
# 3 31.7878 31.5223 167.7221 0.0000 0.0000 0.0000
# 4 0.0000 0.0000 0.0000 11.3417 0.0000 0.0000
# 5 0.0000 0.0000 0.0000 0.0000 22.4688 0.0000
# 6 0.0000 0.0000 0.0000 0.0000 0.0000 16.7305
#
#
#
# Elastic Compliance Matrix: (Units=1/GPa)
#
#
# Indices 1 2 3 4 5 6 
#
# 1 0.026157 0.000895 -0.005126 0.000000 0.000000 0.000000
# 2 0.000895 0.015973 -0.003172 0.000000 0.000000 0.000000
# 3 -0.005126 -0.003172 0.007530 0.000000 0.000000 0.000000
# 4 0.000000 0.000000 0.000000 0.088171 0.000000 0.000000
# 5 0.000000 0.000000 0.000000 0.000000 0.044506 0.000000
# 6 0.000000 0.000000 0.000000 0.000000 0.000000 0.059771
#
#
# Mechanical properties :
#
#
# Convention : Reuss Voigt Hill
#
# Bulk Modulus (GPa) = 28.69027 46.10862 37.39944
# Shear Modulus (GPa) = 18.61989 24.34572 21.48280
#
# Velocity S-wave (km/s) = 2.79495 3.19593 3.00215
# Velocity P-wave (km/s) = 4.73839 5.74134 5.26381
#
# Compressibility (1/GPa) = 0.03485503
#
# Stress axis : x y z
#
# Youngs Moduli (GPa) = 38.23118 62.60495 132.80601
#
# Poissons Ratio (x) = -0.05603 0.68071
# Poissons Ratio (y) = -0.03422 0.42122
# Poissons Ratio (z) = 0.19596 0.19856
#
# Static dielectric constant tensor:
#      x y z
#    x 4.172850 0.000000 0.000000 
#    y 0.000000 4.009110 0.000000 
#    z 0.000000 0.000000 4.525640 
# 
# 
# High freq. dielectric constant tensor:
#      x y z
#    x 1.938910 0.000000 0.000000 
#    y 0.000000 1.920130 0.000000 
#    z 0.000000 0.000000 1.956460 
# 
# From -- ./inp_files/18038.got.cif
#   From: 2010.03.12/outbox.cif.g09.slc.cpg/sg54_10_cif.got.tgz:18038.got - 2010.04.16 15:00:50.
