data_PCOD8222978
_publ_section_title
;
Structure prediction by ZEFSAII (Michael W. Deem and Ramdas Pophale) SiO2 
 PCOD8222978
Probable space group: P C C A
;
_chemical_formula_sum "Si O2"
_cell_formula_units_Z 60
_cell_length_a 18.675135
_cell_length_b 18.050294
_cell_length_c 8.944500
_cell_angle_alpha 90.000000
_cell_angle_beta 90.000000
_cell_angle_gamma 90.000000
_cell_volume 3015.116507
_symmetry_space_group_name_H-M "P C C A"
_symmetry_group_IT_number 54
_symmetry_cell_setting 'orthorhombic'
loop_
_space_group_symop_operation_xyz
x,y,z
1/2-x,-y,z
1/2+x,-y,1/2-z
-x,y,1/2-z
-x,-y,-z
1/2+x,y,-z
1/2-x,y,1/2+z
x,-y,1/2+z
loop_
_atom_site_type_symbol
_atom_site_label
_atom_site_fract_x
_atom_site_fract_y
_atom_site_fract_z
Si Si1 0.750000 0.500000 0.407547
Si Si2 0.305749 0.400264 0.845424
Si Si3 0.927569 0.284195 0.173941
Si Si4 0.418730 0.067435 0.223957
Si Si5 0.568007 0.760482 0.838459
Si Si6 0.796137 0.265390 0.672313
Si Si7 0.670264 0.031567 0.985286
Si Si8 0.176683 0.189821 0.141446
O O1 0.804655 0.546123 0.511431
O O2 0.701668 0.553655 0.306895
O O3 0.379925 0.357315 0.838182
O O4 0.240740 0.342961 0.862853
O O5 0.893260 0.219039 0.273371
O O6 0.000000 0.310825 0.250000
O O7 0.943472 0.250952 0.012630
O O8 0.500000 0.037419 0.250000
O O9 0.421045 0.153748 0.193072
O O10 0.364990 0.055063 0.360150
O O11 0.383486 0.028814 0.081427
O O12 0.500000 0.728883 0.750000
O O13 0.636890 0.716201 0.778659
O O14 0.820325 0.228670 0.518612
O O15 0.745431 0.208254 0.759014
O O16 0.750000 0.000000 0.012486
O O17 0.673366 0.101496 0.873507
#
# Coordination Sequence:
#
# PCOD8222978 Si02
#       8
#     4   8   8   8   8   8   8   8
#     4  10  20  38  64  94 132 162 206 248 304 378
#     4  10  21  38  64  96 126 167 206 251 307 376
#     4  11  24  41  66  95 127 167 215 261 321 381
#     4  11  26  44  63  86 126 170 221 267 347 408
#     4  11  23  41  62  90 126 165 213 274 323 382
#     4  11  20  40  62  92 123 161 213 260 314 371
#     4  12  26  42  62  92 123 169 220 279 333 400
#     4  11  24  38  64  90 125 165 210 273 321 375
#
# _framework density 19.899729000000001
#
# number of rings (size 3 to 8) (size 9 to 14) (size 15 to 20)
#    0.000    1.067    1.333    6.400    5.600    0.533 
#    0.000    0.667    0.000    3.200    0.000    0.000 
#    0.000    0.000    0.000    0.000    0.000    0.000 
#
# Total GULP energy -744304.262450 kJ/mol
# GULP energy per Si atom -12405.071041 kJ/mol
# Density = 1.985444 g / cm^3
# Si number density = 19.899729 Si / 1000 Ang^3
#
#
#
# Elastic Constant Matrix: (Units=GPa)
#
#
# Indices 1 2 3 4 5 6 
#
# 1 147.4788 41.8637 49.7865 0.0000 0.0000 0.0000
# 2 41.8637 59.5077 21.3248 0.0000 0.0000 0.0000
# 3 49.7865 21.3248 132.3345 0.0000 0.0000 0.0000
# 4 0.0000 0.0000 0.0000 24.5176 0.0000 0.0000
# 5 0.0000 0.0000 0.0000 0.0000 36.8273 0.0000
# 6 0.0000 0.0000 0.0000 0.0000 0.0000 21.7529
#
#
#
# Elastic Compliance Matrix: (Units=1/GPa)
#
#
# Indices 1 2 3 4 5 6 
#
# 1 0.009232 -0.005572 -0.002575 0.000000 0.000000 0.000000
# 2 -0.005572 0.021197 -0.001320 0.000000 0.000000 0.000000
# 3 -0.002575 -0.001320 0.008738 0.000000 0.000000 0.000000
# 4 0.000000 0.000000 0.000000 0.040787 0.000000 0.000000
# 5 0.000000 0.000000 0.000000 0.000000 0.027154 0.000000
# 6 0.000000 0.000000 0.000000 0.000000 0.000000 0.045971
#
#
# Mechanical properties :
#
#
# Convention : Reuss Voigt Hill
#
# Bulk Modulus (GPa) = 49.42226 62.80789 56.11508
# Shear Modulus (GPa) = 27.97110 31.70929 29.84019
#
# Velocity S-wave (km/s) = 3.75320 3.99614 3.87657
# Velocity P-wave (km/s) = 6.60845 7.27481 6.94962
#
# Compressibility (1/GPa) = 0.02023380
#
# Stress axis : x y z
#
# Youngs Moduli (GPa) = 108.32417 47.17644 114.44117
#
# Poissons Ratio (x) = 0.26285 0.29471
# Poissons Ratio (y) = 0.60353 0.15102
# Poissons Ratio (z) = 0.27896 0.06226
#
# Static dielectric constant tensor:
#      x y z
#    x 3.824610 0.000000 0.000000 
#    y 0.000000 3.738580 0.000000 
#    z 0.000000 0.000000 3.825640 
# 
# 
# High freq. dielectric constant tensor:
#      x y z
#    x 1.778660 0.000000 0.000000 
#    y 0.000000 1.771940 0.000000 
#    z 0.000000 0.000000 1.798270 
# 
# From -- ./inp_files/4359.got.cif
#   From: 2010.03.12/outbox.cif.g09.slc.cpg/sg54_3_cif.got.tgz:4359.got - 2010.04.16 15:00:50.
