data_PCOD8222082
_publ_section_title
;
Structure prediction by ZEFSAII (Michael W. Deem and Ramdas Pophale) SiO2 
 PCOD8222082
Probable space group: P M N A
;
_chemical_formula_sum "Si O2"
_cell_formula_units_Z 64
_cell_length_a 9.349236
_cell_length_b 20.111908
_cell_length_c 21.925001
_cell_angle_alpha 90.000000
_cell_angle_beta 90.000000
_cell_angle_gamma 90.000000
_cell_volume 4122.579300
_symmetry_space_group_name_H-M "P M N A"
_symmetry_group_IT_number 53
_symmetry_cell_setting 'orthorhombic'
loop_
_space_group_symop_operation_xyz
x,y,z
1/2-x,-y,1/2+z
x,-y,-z
1/2-x,y,1/2-z
-x,-y,-z
1/2+x,y,1/2-z
-x,y,z
1/2+x,-y,1/2+z
loop_
_atom_site_type_symbol
_atom_site_label
_atom_site_fract_x
_atom_site_fract_y
_atom_site_fract_z
Si Si1 0.331771 0.374196 0.186905
Si Si2 0.164372 0.402677 0.960802
Si Si3 0.664960 0.866130 0.040843
Si Si4 0.159001 0.018917 0.929036
Si Si5 0.331940 0.875245 0.584690
Si Si6 0.665872 0.245245 0.109541
Si Si7 0.333597 0.458467 0.408220
Si Si8 0.662425 0.720795 0.027074
O O1 0.250000 0.377583 0.250000
O O2 0.500000 0.386865 0.196039
O O3 0.301733 0.302197 0.158184
O O4 0.268727 0.431764 0.144357
O O5 0.193960 0.462502 0.913736
O O6 0.248737 0.336996 0.939877
O O7 0.000000 0.383277 0.960569
O O8 0.211327 0.424036 0.028569
O O9 0.500000 0.883895 0.028069
O O10 0.730858 0.921224 0.087269
O O11 0.679218 0.790114 0.064905
O O12 0.754504 0.869152 0.979573
O O13 0.000000 0.044521 0.913458
O O14 0.192465 0.951061 0.890910
O O15 0.170001 0.000000 0.000000
O O16 0.500000 0.860538 0.577209
O O17 0.259354 0.819903 0.628563
O O18 0.500000 0.224531 0.108471
O O19 0.714705 0.270167 0.042773
O O20 0.500000 0.444184 0.393183
O O21 0.500000 0.696671 0.026767
#
# Coordination Sequence:
#
# PCOD8222082 Si02
#       8
#     8   8   8   8   8   8   8   8
#     4  11  22  35  49  65  85 112 144 180 220 262
#     4   9  17  28  45  65  86 110 139 176 216 257
#     4   9  16  23  32  49  75 105 136 168 202 241
#     4   8  14  23  32  47  70  97 133 170 200 235
#     4   9  16  24  36  52  71  98 133 172 207 239
#     4   9  18  30  41  57  80 104 137 175 210 253
#     4   9  18  32  46  65  87 108 139 177 215 261
#     4   9  16  26  38  57  83 108 139 176 210 250
#
# _framework density 15.524262
#
# number of rings (size 3 to 8) (size 9 to 14) (size 15 to 20)
#    0.000    2.875    1.250    3.375    0.000    6.750 
#    0.000    1.250    0.000    0.000    0.000    0.000 
#    0.000    0.000    0.000    1.125    0.000   18.125 
#
# Total GULP energy -793049.446345 kJ/mol
# GULP energy per Si atom -12391.397599 kJ/mol
# Density = 1.548893 g / cm^3
# Si number density = 15.524262 Si / 1000 Ang^3
#
#
#
# Elastic Constant Matrix: (Units=GPa)
#
#
# Indices 1 2 3 4 5 6 
#
# 1 97.0372 75.1328 29.9431 0.0000 0.0000 0.0000
# 2 75.1328 125.6237 31.4500 0.0000 0.0000 0.0000
# 3 29.9431 31.4500 37.6492 0.0000 0.0000 0.0000
# 4 0.0000 0.0000 0.0000 10.3090 0.0000 0.0000
# 5 0.0000 0.0000 0.0000 0.0000 12.8828 0.0000
# 6 0.0000 0.0000 0.0000 0.0000 0.0000 33.3878
#
#
#
# Elastic Compliance Matrix: (Units=1/GPa)
#
#
# Indices 1 2 3 4 5 6 
#
# 1 0.020860 -0.010523 -0.007800 0.000000 0.000000 0.000000
# 2 -0.010523 0.015374 -0.004473 0.000000 0.000000 0.000000
# 3 -0.007800 -0.004473 0.036501 0.000000 0.000000 0.000000
# 4 0.000000 0.000000 0.000000 0.097003 0.000000 0.000000
# 5 0.000000 0.000000 0.000000 0.000000 0.077623 0.000000
# 6 0.000000 0.000000 0.000000 0.000000 0.000000 0.029951
#
#
# Mechanical properties :
#
#
# Convention : Reuss Voigt Hill
#
# Bulk Modulus (GPa) = 36.84273 59.26242 48.05258
# Shear Modulus (GPa) = 15.06248 19.56821 17.31535
#
# Velocity S-wave (km/s) = 3.11827 3.55419 3.34334
# Velocity P-wave (km/s) = 6.06207 7.42294 6.77675
#
# Compressibility (1/GPa) = 0.02714240
#
# Stress axis : x y z
#
# Youngs Moduli (GPa) = 47.93892 65.04574 27.39662
#
# Poissons Ratio (x) = 0.68449 0.21369
# Poissons Ratio (y) = 0.50447 0.12255
# Poissons Ratio (z) = 0.37391 0.29096
#
# Static dielectric constant tensor:
#      x y z
#    x 3.083210 0.000000 0.000000 
#    y 0.000000 3.561450 0.000000 
#    z 0.000000 0.000000 2.416590 
# 
# 
# High freq. dielectric constant tensor:
#      x y z
#    x 1.607190 0.000000 0.000000 
#    y 0.000000 1.613680 0.000000 
#    z 0.000000 0.000000 1.510090 
# 
# From -- ./inp_files/34575.got.cif
#   From: 2010.03.12/outbox.cif.g09.slc.cpg/sg53_18_cif.got.tgz:34575.got - 2010.04.16 14:36:59.
