data_PCOD8222210
_publ_section_title
;
Structure prediction by ZEFSAII (Michael W. Deem and Ramdas Pophale) SiO2 
 PCOD8222210
Probable space group: P M N A
;
_chemical_formula_sum "Si O2"
_cell_formula_units_Z 64
_cell_length_a 15.614051
_cell_length_b 20.634690
_cell_length_c 9.926789
_cell_angle_alpha 90.000000
_cell_angle_beta 90.000000
_cell_angle_gamma 90.000000
_cell_volume 3198.323088
_symmetry_space_group_name_H-M "P M N A"
_symmetry_group_IT_number 53
_symmetry_cell_setting 'orthorhombic'
loop_
_space_group_symop_operation_xyz
x,y,z
1/2-x,-y,1/2+z
x,-y,-z
1/2-x,y,1/2-z
-x,-y,-z
1/2+x,y,1/2-z
-x,y,z
1/2+x,-y,1/2+z
loop_
_atom_site_type_symbol
_atom_site_label
_atom_site_fract_x
_atom_site_fract_y
_atom_site_fract_z
Si Si1 0.746229 0.063138 0.409869
Si Si2 0.153667 0.762741 0.763672
Si Si3 0.400190 0.355719 0.839584
Si Si4 0.101311 0.494420 0.648127
Si Si5 0.903721 0.159464 0.004373
Si Si6 0.400444 0.634594 0.844228
Si Si7 0.095346 0.848497 0.531352
Si Si8 0.847382 0.780609 0.264741
O O1 0.750000 0.047254 0.250000
O O2 0.663485 0.105921 0.445831
O O3 0.835166 0.095264 0.455210
O O4 0.735701 0.000000 0.500000
O O5 0.250000 0.790490 0.750000
O O6 0.154195 0.686044 0.739648
O O7 0.095114 0.800782 0.658284
O O8 0.116254 0.775558 0.911366
O O9 0.500000 0.344259 0.814481
O O10 0.368894 0.426722 0.780713
O O11 0.352862 0.297800 0.760446
O O12 0.378713 0.357247 0.998288
O O13 0.142259 0.500000 0.500000
O O14 0.124421 0.563301 0.717774
O O15 0.000000 0.487972 0.631563
O O16 0.898207 0.181353 0.850358
O O17 0.000000 0.133266 0.030485
O O18 0.500000 0.648244 0.819730
O O19 0.113793 0.803533 0.404417
O O20 0.000000 0.879164 0.520001
O O21 0.750000 0.802284 0.250000
#
# Coordination Sequence:
#
# PCOD8222210 Si02
#       8
#     8   8   8   8   8   8   8   8
#     4  12  28  49  72 102 136 168 205 250 303 369
#     4  12  21  38  61  93 125 163 208 266 318 361
#     4   9  16  29  52  83 115 156 209 262 315 371
#     4   7  12  24  44  76 115 149 200 266 314 361
#     4  12  25  44  66  93 133 171 204 252 315 373
#     4   9  16  28  53  84 112 156 212 263 313 368
#     4  12  23  44  72  95 125 167 216 262 300 358
#     4  12  23  38  61  95 130 164 209 268 319 369
#
# _framework density 20.010486
#
# number of rings (size 3 to 8) (size 9 to 14) (size 15 to 20)
#    0.000    1.375    5.000    3.750    1.750    0.500 
#    0.000    0.625    0.000    0.750    0.000    3.500 
#    0.000    0.000    0.000    0.000    0.000    0.000 
#
# Total GULP energy -793124.792120 kJ/mol
# GULP energy per Si atom -12392.574877 kJ/mol
# Density = 1.996494 g / cm^3
# Si number density = 20.010486 Si / 1000 Ang^3
#
#
#
# Elastic Constant Matrix: (Units=GPa)
#
#
# Indices 1 2 3 4 5 6 
#
# 1 119.9188 39.7995 17.2202 0.0000 0.0000 0.0000
# 2 39.7995 120.5710 36.7348 0.0000 0.0000 0.0000
# 3 17.2202 36.7348 52.2516 0.0000 0.0000 0.0000
# 4 0.0000 0.0000 0.0000 22.0863 0.0000 0.0000
# 5 0.0000 0.0000 0.0000 0.0000 18.9819 0.0000
# 6 0.0000 0.0000 0.0000 0.0000 0.0000 31.1729
#
#
#
# Elastic Compliance Matrix: (Units=1/GPa)
#
#
# Indices 1 2 3 4 5 6 
#
# 1 0.009421 -0.002754 -0.001169 0.000000 0.000000 0.000000
# 2 -0.002754 0.011359 -0.007079 0.000000 0.000000 0.000000
# 3 -0.001169 -0.007079 0.024500 0.000000 0.000000 0.000000
# 4 0.000000 0.000000 0.000000 0.045277 0.000000 0.000000
# 5 0.000000 0.000000 0.000000 0.000000 0.052682 0.000000
# 6 0.000000 0.000000 0.000000 0.000000 0.000000 0.032079
#
#
# Mechanical properties :
#
#
# Convention : Reuss Voigt Hill
#
# Bulk Modulus (GPa) = 42.95910 53.36116 48.16013
# Shear Modulus (GPa) = 24.38078 27.71401 26.04739
#
# Velocity S-wave (km/s) = 3.49435 3.72556 3.61180
# Velocity P-wave (km/s) = 6.14780 6.72539 6.44307
#
# Compressibility (1/GPa) = 0.02327795
#
# Stress axis : x y z
#
# Youngs Moduli (GPa) = 106.14930 88.03215 40.81641
#
# Poissons Ratio (x) = 0.24240 0.04771
# Poissons Ratio (y) = 0.29229 0.28893
# Poissons Ratio (z) = 0.12407 0.62315
#
# Static dielectric constant tensor:
#      x y z
#    x 3.559380 0.000000 0.000000 
#    y 0.000000 3.848830 0.000000 
#    z 0.000000 0.000000 3.465020 
# 
# 
# High freq. dielectric constant tensor:
#      x y z
#    x 1.772640 0.000000 0.000000 
#    y 0.000000 1.786360 0.000000 
#    z 0.000000 0.000000 1.756900 
# 
# From -- ./inp_files/8940.got.cif
#   From: 2010.03.12/outbox.cif.g09.slc.cpg/sg53_5_cif.got.tgz:8940.got - 2010.04.16 14:36:59.
