data_PCOD8222453
_publ_section_title
;
Structure prediction by ZEFSAII (Michael W. Deem and Ramdas Pophale) SiO2 
 PCOD8222453
Probable space group: P C C A
;
_chemical_formula_sum "Si O2"
_cell_formula_units_Z 60
_cell_length_a 24.008110
_cell_length_b 8.540194
_cell_length_c 15.323509
_cell_angle_alpha 90.000000
_cell_angle_beta 90.000000
_cell_angle_gamma 90.000000
_cell_volume 3141.839072
_symmetry_space_group_name_H-M "P C C A"
_symmetry_group_IT_number 54
_symmetry_cell_setting 'orthorhombic'
loop_
_space_group_symop_operation_xyz
x,y,z
1/2-x,-y,z
1/2+x,-y,1/2-z
-x,y,1/2-z
-x,-y,-z
1/2+x,y,-z
1/2-x,y,1/2+z
x,-y,1/2+z
loop_
_atom_site_type_symbol
_atom_site_label
_atom_site_fract_x
_atom_site_fract_y
_atom_site_fract_z
Si Si1 0.878378 0.731481 0.712900
Si Si2 0.694953 0.411991 0.850235
Si Si3 0.827197 0.878055 0.549001
Si Si4 0.617829 0.568809 0.603347
Si Si5 0.000000 0.327478 0.250000
Si Si6 0.706882 0.773980 0.529205
Si Si7 0.116421 0.642429 0.066180
Si Si8 0.000686 0.431346 0.595901
O O1 0.832304 0.725518 0.790258
O O2 0.861920 0.857947 0.638626
O O3 0.874537 0.552951 0.680589
O O4 0.942091 0.772996 0.742402
O O5 0.750000 0.500000 0.812898
O O6 0.651671 0.555069 0.859975
O O7 0.709525 0.323800 0.940245
O O8 0.769074 0.788355 0.566193
O O9 0.857409 0.805025 0.464845
O O10 0.819785 0.055375 0.518739
O O11 0.669531 0.687067 0.601982
O O12 0.613550 0.475698 0.513871
O O13 0.557946 0.658293 0.615003
O O14 0.007180 0.426358 0.162691
O O15 0.054656 0.680628 0.104439
O O16 0.000000 0.500000 0.500000
#
# Coordination Sequence:
#
# PCOD8222453 Si02
#       8
#     8   8   8   8   4   8   8   8
#     4  10  21  34  60  87 110 145 191 242 288 330
#     4  11  20  33  57  87 108 138 189 245 280 325
#     4  10  21  38  55  78 114 159 187 223 289 357
#     4   8  18  31  54  79 104 141 184 230 278 332
#     4  10  18  34  56  88 116 142 188 250 296 330
#     4  10  21  38  55  76 116 152 185 227 285 355
#     4   9  16  32  54  76 104 139 187 230 272 333
#     4   9  16  30  52  82 109 140 184 241 292 328
#
# _framework density 19.097094999999999
#
# number of rings (size 3 to 8) (size 9 to 14) (size 15 to 20)
#    0.000    2.400    2.667    0.800    1.867    0.000 
#    0.000    4.667    0.000    0.800    0.000    0.000 
#    0.000    0.000    0.000    0.000    0.000    0.000 
#
# Total GULP energy -743313.958665 kJ/mol
# GULP energy per Si atom -12388.565978 kJ/mol
# Density = 1.905363 g / cm^3
# Si number density = 19.097095 Si / 1000 Ang^3
#
#
#
# Elastic Constant Matrix: (Units=GPa)
#
#
# Indices 1 2 3 4 5 6 
#
# 1 125.5514 27.2383 2.2152 0.0000 0.0000 0.0000
# 2 27.2383 43.0279 -2.4799 0.0000 0.0000 0.0000
# 3 2.2152 -2.4799 49.3445 0.0000 0.0000 0.0000
# 4 0.0000 0.0000 0.0000 12.7011 0.0000 0.0000
# 5 0.0000 0.0000 0.0000 0.0000 27.3876 0.0000
# 6 0.0000 0.0000 0.0000 0.0000 0.0000 23.1544
#
#
#
# Elastic Compliance Matrix: (Units=1/GPa)
#
#
# Indices 1 2 3 4 5 6 
#
# 1 0.009258 -0.005902 -0.000712 0.000000 0.000000 0.000000
# 2 -0.005902 0.027070 0.001625 0.000000 0.000000 0.000000
# 3 -0.000712 0.001625 0.020379 0.000000 0.000000 0.000000
# 4 0.000000 0.000000 0.000000 0.078733 0.000000 0.000000
# 5 0.000000 0.000000 0.000000 0.000000 0.036513 0.000000
# 6 0.000000 0.000000 0.000000 0.000000 0.000000 0.043188
#
#
# Mechanical properties :
#
#
# Convention : Reuss Voigt Hill
#
# Bulk Modulus (GPa) = 21.39919 30.20790 25.80355
# Shear Modulus (GPa) = 20.77311 25.37863 23.07587
#
# Velocity S-wave (km/s) = 3.30170 3.64940 3.47990
# Velocity P-wave (km/s) = 5.07590 5.79740 5.44861
#
# Compressibility (1/GPa) = 0.04673074
#
# Stress axis : x y z
#
# Youngs Moduli (GPa) = 108.01733 36.94078 49.06931
#
# Poissons Ratio (x) = 0.21801 0.03495
# Poissons Ratio (y) = 0.63747 -0.07976
# Poissons Ratio (z) = 0.07693 -0.06004
#
# Static dielectric constant tensor:
#      x y z
#    x 4.283260 0.000000 0.000000 
#    y 0.000000 3.079460 0.000000 
#    z 0.000000 0.000000 3.487200 
# 
# 
# High freq. dielectric constant tensor:
#      x y z
#    x 1.774000 0.000000 0.000000 
#    y 0.000000 1.684580 0.000000 
#    z 0.000000 0.000000 1.735620 
# 
# From -- ./inp_files/14972.got.cif
#   From: 2010.03.12/outbox.cif.g09.slc.cpg/sg54_8_cif.got.tgz:14972.got - 2010.04.16 15:00:50.
