data_PCOD8222958
_publ_section_title
;
Structure prediction by ZEFSAII (Michael W. Deem and Ramdas Pophale) SiO2 
 PCOD8222958
Probable space group: P C C A
;
_chemical_formula_sum "Si O2"
_cell_formula_units_Z 44
_cell_length_a 15.401302
_cell_length_b 15.591468
_cell_length_c 8.887457
_cell_angle_alpha 90.000000
_cell_angle_beta 90.000000
_cell_angle_gamma 90.000000
_cell_volume 2134.135338
_symmetry_space_group_name_H-M "P C C A"
_symmetry_group_IT_number 54
_symmetry_cell_setting 'orthorhombic'
loop_
_space_group_symop_operation_xyz
x,y,z
1/2-x,-y,z
1/2+x,-y,1/2-z
-x,y,1/2-z
-x,-y,-z
1/2+x,y,-z
1/2-x,y,1/2+z
x,-y,1/2+z
loop_
_atom_site_type_symbol
_atom_site_label
_atom_site_fract_x
_atom_site_fract_y
_atom_site_fract_z
Si Si1 0.830758 0.100584 0.944575
Si Si2 0.527683 0.374541 0.922126
Si Si3 0.867712 0.536496 0.460813
Si Si4 0.500874 0.203357 0.077801
Si Si5 0.750000 0.500000 0.712994
Si Si6 0.657780 0.081326 0.092598
O O1 0.904479 0.173024 0.973259
O O2 0.822236 0.079713 0.769221
O O3 0.736647 0.131127 0.007219
O O4 0.854118 0.015101 0.035605
O O5 0.500000 0.384336 0.750000
O O6 0.612108 0.433626 0.950927
O O7 0.454155 0.408480 0.037375
O O8 0.539726 0.276270 0.968090
O O9 0.812224 0.557892 0.609469
O O10 0.809621 0.561899 0.316602
O O11 0.500000 0.236170 0.250000
O O12 0.566181 0.124836 0.059023
#
# Coordination Sequence:
#
# PCOD8222958 Si02
#       6
#     8   8   8   8   4   8
#     4  10  20  38  61  87 115 153 196 241 292 349
#     4  11  23  40  59  85 119 159 193 238 293 356
#     4  10  22  40  62  88 114 154 198 238 294 346
#     4  10  24  40  57  86 120 161 194 239 296 349
#     4  10  20  40  64  90 112 144 202 246 288 348
#     4  10  20  38  61  87 115 153 196 241 292 349
#
# _framework density 20.617248
#
# number of rings (size 3 to 8) (size 9 to 14) (size 15 to 20)
#    0.000    1.818    1.818    2.727    2.545    2.909 
#    6.545    0.000    0.000    0.000    0.000    0.000 
#    0.000    0.000    0.000    0.000    0.000    0.000 
#
# Total GULP energy -545437.709380 kJ/mol
# GULP energy per Si atom -12396.311577 kJ/mol
# Density = 2.057032 g / cm^3
# Si number density = 20.617248 Si / 1000 Ang^3
#
#
#
# Elastic Constant Matrix: (Units=GPa)
#
#
# Indices 1 2 3 4 5 6 
#
# 1 90.1559 14.7650 33.2097 0.0000 0.0000 0.0000
# 2 14.7650 60.3989 24.2491 0.0000 0.0000 0.0000
# 3 33.2097 24.2491 113.2998 0.0000 0.0000 0.0000
# 4 0.0000 0.0000 0.0000 22.6434 0.0000 0.0000
# 5 0.0000 0.0000 0.0000 0.0000 29.5655 0.0000
# 6 0.0000 0.0000 0.0000 0.0000 0.0000 16.6036
#
#
#
# Elastic Compliance Matrix: (Units=1/GPa)
#
#
# Indices 1 2 3 4 5 6 
#
# 1 0.012601 -0.001748 -0.003319 0.000000 0.000000 0.000000
# 2 -0.001748 0.018355 -0.003416 0.000000 0.000000 0.000000
# 3 -0.003319 -0.003416 0.010530 0.000000 0.000000 0.000000
# 4 0.000000 0.000000 0.000000 0.044163 0.000000 0.000000
# 5 0.000000 0.000000 0.000000 0.000000 0.033823 0.000000
# 6 0.000000 0.000000 0.000000 0.000000 0.000000 0.060228
#
#
# Mechanical properties :
#
#
# Convention : Reuss Voigt Hill
#
# Bulk Modulus (GPa) = 40.78341 45.36691 43.07516
# Shear Modulus (GPa) = 24.40920 26.53787 25.47354
#
# Velocity S-wave (km/s) = 3.44455 3.59161 3.51885
# Velocity P-wave (km/s) = 5.97026 6.26511 6.11946
#
# Compressibility (1/GPa) = 0.02451977
#
# Stress axis : x y z
#
# Youngs Moduli (GPa) = 79.35965 54.47986 94.96432
#
# Poissons Ratio (x) = 0.09521 0.31523
# Poissons Ratio (y) = 0.13870 0.32442
# Poissons Ratio (z) = 0.26343 0.18612
#
# Static dielectric constant tensor:
#      x y z
#    x 4.050800 0.000000 0.000000 
#    y 0.000000 3.363610 0.000000 
#    z 0.000000 0.000000 3.892240 
# 
# 
# High freq. dielectric constant tensor:
#      x y z
#    x 1.823910 0.000000 0.000000 
#    y 0.000000 1.766090 0.000000 
#    z 0.000000 0.000000 1.822380 
# 
# From -- ./inp_files/3525.got.cif
#   From: 2010.03.12/outbox.cif.g09.slc.cpg/sg54_2_cif.got.tgz:3525.got - 2010.04.16 15:00:50.
