data_PCOD8222920
_publ_section_title
;
Structure prediction by ZEFSAII (Michael W. Deem and Ramdas Pophale) SiO2 
 PCOD8222920
Probable space group: P C C A
;
_chemical_formula_sum "Si O2"
_cell_formula_units_Z 56
_cell_length_a 13.754424
_cell_length_b 20.506989
_cell_length_c 9.632037
_cell_angle_alpha 90.000000
_cell_angle_beta 90.000000
_cell_angle_gamma 90.000000
_cell_volume 2716.829903
_symmetry_space_group_name_H-M "P C C A"
_symmetry_group_IT_number 54
_symmetry_cell_setting 'orthorhombic'
loop_
_space_group_symop_operation_xyz
x,y,z
1/2-x,-y,z
1/2+x,-y,1/2-z
-x,y,1/2-z
-x,-y,-z
1/2+x,y,-z
1/2-x,y,1/2+z
x,-y,1/2+z
loop_
_atom_site_type_symbol
_atom_site_label
_atom_site_fract_x
_atom_site_fract_y
_atom_site_fract_z
Si Si1 0.160626 0.139479 0.499481
Si Si2 0.798515 0.253091 0.519249
Si Si3 0.745435 0.660574 0.272740
Si Si4 0.454003 0.151478 0.392990
Si Si5 0.717980 0.074143 0.221560
Si Si6 0.655708 0.458517 0.389039
Si Si7 0.407902 0.439116 0.822695
O O1 0.197997 0.214074 0.511869
O O2 0.195181 0.114313 0.349879
O O3 0.210767 0.096124 0.619259
O O4 0.043625 0.133203 0.506209
O O5 0.815754 0.301314 0.390321
O O6 0.794251 0.290046 0.665558
O O7 0.890394 0.205313 0.528943
O O8 0.825260 0.616586 0.349921
O O9 0.679325 0.611523 0.185779
O O10 0.500000 0.179329 0.250000
O O11 0.385027 0.089000 0.356807
O O12 0.750000 0.000000 0.213268
O O13 0.750000 0.500000 0.438247
O O14 0.579047 0.457102 0.515910
O O15 0.609079 0.493356 0.257543
O O16 0.500000 0.404898 0.750000
#
# Coordination Sequence:
#
# PCOD8222920 Si02
#       7
#     8   8   8   8   8   8   8
#     4  10  21  40  61  86 125 162 202 249 300 358
#     4  11  22  40  62  85 118 165 200 247 303 353
#     4  11  22  39  62  84 116 155 204 243 298 363
#     4   9  20  39  60  87 122 162 202 242 304 363
#     4  10  20  37  62  91 122 161 203 249 301 353
#     4  10  21  40  62  81 116 159 189 240 307 365
#     4  11  23  39  59  90 120 148 196 254 303 356
#
# _framework density 20.612258000000001
#
# number of rings (size 3 to 8) (size 9 to 14) (size 15 to 20)
#    0.000    1.714    1.429    4.714    2.000    1.714 
#    2.571   10.000    0.000    0.000    0.000    0.000 
#    0.000    0.000    0.000    0.000    0.000    0.000 
#
# Total GULP energy -694310.648226 kJ/mol
# GULP energy per Si atom -12398.404433 kJ/mol
# Density = 2.056534 g / cm^3
# Si number density = 20.612258 Si / 1000 Ang^3
#
#
#
# Elastic Constant Matrix: (Units=GPa)
#
#
# Indices 1 2 3 4 5 6 
#
# 1 97.0453 31.1889 34.0034 0.0000 0.0000 0.0000
# 2 31.1889 109.5222 38.1125 0.0000 0.0000 0.0000
# 3 34.0034 38.1125 89.3389 0.0000 0.0000 0.0000
# 4 0.0000 0.0000 0.0000 32.0154 0.0000 0.0000
# 5 0.0000 0.0000 0.0000 0.0000 31.1347 0.0000
# 6 0.0000 0.0000 0.0000 0.0000 0.0000 16.9392
#
#
#
# Elastic Compliance Matrix: (Units=1/GPa)
#
#
# Indices 1 2 3 4 5 6 
#
# 1 0.012328 -0.002205 -0.003751 0.000000 0.000000 0.000000
# 2 -0.002205 0.011117 -0.003903 0.000000 0.000000 0.000000
# 3 -0.003751 -0.003903 0.014286 0.000000 0.000000 0.000000
# 4 0.000000 0.000000 0.000000 0.031235 0.000000 0.000000
# 5 0.000000 0.000000 0.000000 0.000000 0.032119 0.000000
# 6 0.000000 0.000000 0.000000 0.000000 0.000000 0.059035
#
#
# Mechanical properties :
#
#
# Convention : Reuss Voigt Hill
#
# Bulk Modulus (GPa) = 55.52048 55.83509 55.67779
# Shear Modulus (GPa) = 26.90461 28.85797 27.88129
#
# Velocity S-wave (km/s) = 3.61677 3.74577 3.68184
# Velocity P-wave (km/s) = 6.66600 6.77162 6.71902
#
# Compressibility (1/GPa) = 0.01801137
#
# Stress axis : x y z
#
# Youngs Moduli (GPa) = 81.11902 89.95395 69.99749
#
# Poissons Ratio (x) = 0.19836 0.26258
# Poissons Ratio (y) = 0.17888 0.27321
# Poissons Ratio (z) = 0.30430 0.35111
#
# Static dielectric constant tensor:
#      x y z
#    x 3.811520 0.000000 0.000000 
#    y 0.000000 3.705320 0.000000 
#    z 0.000000 0.000000 3.752040 
# 
# 
# High freq. dielectric constant tensor:
#      x y z
#    x 1.793790 0.000000 0.000000 
#    y 0.000000 1.801530 0.000000 
#    z 0.000000 0.000000 1.816990 
# 
# From -- ./inp_files/3673.got.cif
#   From: 2010.03.12/outbox.cif.g09.slc.cpg/sg54_2_cif.got.tgz:3673.got - 2010.04.16 15:00:50.
