data_PCOD8222178
_publ_section_title
;
Structure prediction by ZEFSAII (Michael W. Deem and Ramdas Pophale) SiO2 
 PCOD8222178
Probable space group: P M N A
;
_chemical_formula_sum "Si O2"
_cell_formula_units_Z 40
_cell_length_a 8.699643
_cell_length_b 25.434850
_cell_length_c 8.912175
_cell_angle_alpha 90.000000
_cell_angle_beta 90.000000
_cell_angle_gamma 90.000000
_cell_volume 1972.033634
_symmetry_space_group_name_H-M "P M N A"
_symmetry_group_IT_number 53
_symmetry_cell_setting 'orthorhombic'
loop_
_space_group_symop_operation_xyz
x,y,z
1/2-x,-y,1/2+z
x,-y,-z
1/2-x,y,1/2-z
-x,-y,-z
1/2+x,y,1/2-z
-x,y,z
1/2+x,-y,1/2+z
loop_
_atom_site_type_symbol
_atom_site_label
_atom_site_fract_x
_atom_site_fract_y
_atom_site_fract_z
Si Si1 0.822738 0.147018 0.588219
Si Si2 0.681356 0.051374 0.413021
Si Si3 0.678063 0.554265 0.914169
Si Si4 0.322164 0.746600 0.909282
Si Si5 0.318496 0.651089 0.414159
O O1 0.750000 0.150250 0.750000
O O2 0.735236 0.103759 0.493428
O O3 0.800339 0.203250 0.513440
O O4 0.000000 0.130871 0.600117
O O5 0.750000 0.049123 0.250000
O O6 0.500000 0.052191 0.401444
O O7 0.740924 0.000000 0.500000
O O8 0.750000 0.550483 0.750000
O O9 0.500000 0.569512 0.898508
O O10 0.701309 0.500000 0.000000
O O11 0.763218 0.597154 0.013590
O O12 0.250000 0.760632 0.750000
O O13 0.500000 0.731135 0.891023
O O14 0.231561 0.698295 0.979514
O O15 0.250000 0.659012 0.250000
O O16 0.500000 0.650230 0.399412
#
# Coordination Sequence:
#
# PCOD8222178 Si02
#       5
#     8   8   8   8   8
#     4  11  24  41  64  92 124 162 204 253 306 363
#     4  11  24  41  63  91 124 162 204 252 305 363
#     4  11  24  42  65  93 126 164 206 253 306 363
#     4  11  24  42  64  92 125 162 205 252 305 363
#     4  12  25  42  65  92 125 163 205 254 307 364
#
# _framework density 20.283629000000001
#
# number of rings (size 3 to 8) (size 9 to 14) (size 15 to 20)
#    0.000    0.800    0.000    7.200    0.000   12.800 
#    0.000    0.000    0.000    0.000    0.000    0.000 
#    0.000    0.000    0.000    0.000    0.000    0.000 
#
# Total GULP energy -496287.577143 kJ/mol
# GULP energy per Si atom -12407.189429 kJ/mol
# Density = 2.023746 g / cm^3
# Si number density = 20.283629 Si / 1000 Ang^3
#
#
#
# Elastic Constant Matrix: (Units=GPa)
#
#
# Indices 1 2 3 4 5 6 
#
# 1 125.8126 48.1413 47.4379 0.0000 0.0000 0.0000
# 2 48.1413 93.8587 26.4849 0.0000 0.0000 0.0000
# 3 47.4379 26.4849 130.5953 0.0000 0.0000 0.0000
# 4 0.0000 0.0000 0.0000 -428.6258 0.0000 0.0000
# 5 0.0000 0.0000 0.0000 0.0000 43.6480 0.0000
# 6 0.0000 0.0000 0.0000 0.0000 0.0000 35.7983
#
#
#
# Elastic Compliance Matrix: (Units=1/GPa)
#
#
# Indices 1 2 3 4 5 6 
#
# 1 0.010892 -0.004741 -0.002995 0.000000 0.000000 0.000000
# 2 -0.004741 0.013365 -0.000988 0.000000 0.000000 0.000000
# 3 -0.002995 -0.000988 0.008945 0.000000 0.000000 0.000000
# 4 0.000000 0.000000 0.000000 -0.002333 0.000000 0.000000
# 5 0.000000 0.000000 0.000000 0.000000 0.022911 0.000000
# 6 0.000000 0.000000 0.000000 0.000000 0.000000 0.027934
#
#
# Mechanical properties :
#
#
# Convention : Reuss Voigt Hill
#
# Bulk Modulus (GPa) = 63.47777 66.04387 64.76082
# Shear Modulus (GPa) = 47.88616 -54.62239 -3.36812
#
# Velocity S-wave (km/s) = 4.86411 -5.19497 -1.29001
# Velocity P-wave (km/s) = 7.93152 1.83107 5.45693
#
# Compressibility (1/GPa) = 0.01575355
#
# Stress axis : x y z
#
# Youngs Moduli (GPa) = 91.81205 74.82162 111.78828
#
# Poissons Ratio (x) = 0.35477 0.33478
# Poissons Ratio (y) = 0.43533 0.11046
# Poissons Ratio (z) = 0.27496 0.07394
#
# Static dielectric constant tensor:
#      x y z
#    x 3.995280 0.000000 0.000000 
#    y 0.000000 3.849060 0.000000 
#    z 0.000000 0.000000 3.856680 
# 
# 
# High freq. dielectric constant tensor:
#      x y z
#    x 1.813080 0.000000 0.000000 
#    y 0.000000 1.812480 0.000000 
#    z 0.000000 0.000000 1.816050 
# 
# From -- ./inp_files/6300.got.cif
#   From: 2010.03.12/outbox.cif.g09.slc.cpg/sg53_4_cif.got.tgz:6300.got - 2010.04.16 14:36:59.
