data_PCOD8222009
_publ_section_title
;
Structure prediction by ZEFSAII (Michael W. Deem and Ramdas Pophale) SiO2 
 PCOD8222009
Probable space group: P M N A
;
_chemical_formula_sum "Si O2"
_cell_formula_units_Z 40
_cell_length_a 8.997039
_cell_length_b 14.018121
_cell_length_c 18.161660
_cell_angle_alpha 90.000000
_cell_angle_beta 90.000000
_cell_angle_gamma 90.000000
_cell_volume 2290.577279
_symmetry_space_group_name_H-M "P M N A"
_symmetry_group_IT_number 53
_symmetry_cell_setting 'orthorhombic'
loop_
_space_group_symop_operation_xyz
x,y,z
1/2-x,-y,1/2+z
x,-y,-z
1/2-x,y,1/2-z
-x,-y,-z
1/2+x,y,1/2-z
-x,y,z
1/2+x,-y,1/2+z
loop_
_atom_site_type_symbol
_atom_site_label
_atom_site_fract_x
_atom_site_fract_y
_atom_site_fract_z
Si Si1 0.666018 0.037898 0.583023
Si Si2 0.165501 0.136225 0.371720
Si Si3 0.663368 0.790711 0.036291
Si Si4 0.324933 0.601200 0.966086
Si Si5 0.823096 0.678879 0.823871
O O1 0.500000 0.039691 0.614678
O O2 0.728272 0.146166 0.586970
O O3 0.667345 0.000000 0.500000
O O4 0.763674 0.969119 0.635159
O O5 0.153598 0.162432 0.456586
O O6 0.270271 0.211620 0.330702
O O7 0.000000 0.136585 0.336433
O O8 0.500000 0.791104 0.073004
O O9 0.721150 0.682016 0.026070
O O10 0.500000 0.610641 0.947745
O O11 0.232972 0.614702 0.891499
O O12 0.282508 0.500000 0.000000
O O13 0.750000 0.635486 0.750000
O O14 0.000000 0.674856 0.819633
#
# Coordination Sequence:
#
# PCOD8222009 Si02
#       5
#     8   8   8   8   8
#     4   9  15  22  35  58  87 117 147 179 216 261
#     4   9  16  27  42  61  87 118 151 186 227 275
#     4   8  14  24  39  60  87 119 151 185 229 278
#     4   9  18  33  51  71  97 128 163 206 255 301
#     4  11  21  33  49  70  97 127 161 199 243 296
#
# _framework density 17.462845999999999
#
# number of rings (size 3 to 8) (size 9 to 14) (size 15 to 20)
#    0.000    2.800    0.000    4.200    0.000    7.600 
#    0.000    0.000    0.000    0.000    0.000    1.400 
#    0.000    3.200    0.000    0.000    0.000    0.000 
#
# Total GULP energy -495806.218138 kJ/mol
# GULP energy per Si atom -12395.155453 kJ/mol
# Density = 1.742310 g / cm^3
# Si number density = 17.462846 Si / 1000 Ang^3
#
#
#
# Elastic Constant Matrix: (Units=GPa)
#
#
# Indices 1 2 3 4 5 6 
#
# 1 135.7689 61.9909 38.8318 0.0000 0.0000 0.0000
# 2 61.9909 144.4323 35.7460 0.0000 0.0000 0.0000
# 3 38.8318 35.7460 43.4489 0.0000 0.0000 0.0000
# 4 0.0000 0.0000 0.0000 9.6623 0.0000 0.0000
# 5 0.0000 0.0000 0.0000 0.0000 17.5804 0.0000
# 6 0.0000 0.0000 0.0000 0.0000 0.0000 23.7747
#
#
#
# Elastic Compliance Matrix: (Units=1/GPa)
#
#
# Indices 1 2 3 4 5 6 
#
# 1 0.010728 -0.002802 -0.007282 0.000000 0.000000 0.000000
# 2 -0.002802 0.009426 -0.005250 0.000000 0.000000 0.000000
# 3 -0.007282 -0.005250 0.033844 0.000000 0.000000 0.000000
# 4 0.000000 0.000000 0.000000 0.103495 0.000000 0.000000
# 5 0.000000 0.000000 0.000000 0.000000 0.056881 0.000000
# 6 0.000000 0.000000 0.000000 0.000000 0.000000 0.042061
#
#
# Mechanical properties :
#
#
# Convention : Reuss Voigt Hill
#
# Bulk Modulus (GPa) = 42.86815 66.30972 54.58893
# Shear Modulus (GPa) = 16.95602 22.67560 19.81581
#
# Velocity S-wave (km/s) = 3.11943 3.60739 3.37225
# Velocity P-wave (km/s) = 6.12992 7.44347 6.81840
#
# Compressibility (1/GPa) = 0.02332734
#
# Stress axis : x y z
#
# Youngs Moduli (GPa) = 93.21653 106.09253 29.54760
#
# Poissons Ratio (x) = 0.29727 0.21518
# Poissons Ratio (y) = 0.26119 0.15514
# Poissons Ratio (z) = 0.67885 0.55703
#
# Static dielectric constant tensor:
#      x y z
#    x 3.415350 0.000000 0.000000 
#    y 0.000000 3.369050 0.000000 
#    z 0.000000 0.000000 2.805040 
# 
# 
# High freq. dielectric constant tensor:
#      x y z
#    x 1.684770 0.000000 0.000000 
#    y 0.000000 1.666030 0.000000 
#    z 0.000000 0.000000 1.616890 
# 
# From -- ./inp_files/26001.got.cif
#   From: 2010.03.12/outbox.cif.g09.slc.cpg/sg53_14_cif.got.tgz:26001.got - 2010.04.16 14:36:59.
