data_PCOD8222786
_publ_section_title
;
Structure prediction by ZEFSAII (Michael W. Deem and Ramdas Pophale) SiO2 
 PCOD8222786
Probable space group: P C C A
;
_chemical_formula_sum "Si O2"
_cell_formula_units_Z 32
_cell_length_a 17.685194
_cell_length_b 9.872026
_cell_length_c 8.983081
_cell_angle_alpha 90.000000
_cell_angle_beta 90.000000
_cell_angle_gamma 90.000000
_cell_volume 1568.344389
_symmetry_space_group_name_H-M "P C C A"
_symmetry_group_IT_number 54
_symmetry_cell_setting 'orthorhombic'
loop_
_space_group_symop_operation_xyz
x,y,z
1/2-x,-y,z
1/2+x,-y,1/2-z
-x,y,1/2-z
-x,-y,-z
1/2+x,y,-z
1/2-x,y,1/2+z
x,-y,1/2+z
loop_
_atom_site_type_symbol
_atom_site_label
_atom_site_fract_x
_atom_site_fract_y
_atom_site_fract_z
Si Si1 0.415969 0.871101 0.798532
Si Si2 0.665344 0.946322 0.989219
Si Si3 0.341076 0.396926 0.283322
Si Si4 0.185068 0.349670 0.441063
O O1 0.500000 0.909042 0.750000
O O2 0.353027 0.924025 0.683246
O O3 0.408975 0.708366 0.814927
O O4 0.395861 0.946481 0.951257
O O5 0.654519 0.803311 0.075473
O O6 0.750000 0.000000 0.004551
O O7 0.270975 0.351771 0.385546
O O8 0.365023 0.548128 0.338136
O O9 0.317785 0.399635 0.111257
#
# Coordination Sequence:
#
# PCOD8222786 Si02
#       4
#     8   8   8   8
#     4  11  24  40  59  89 128 161 195 250 311 358
#     4  11  22  39  63  89 116 160 210 250 292 358
#     4  10  20  36  57  88 118 149 197 246 299 352
#     4  10  20  34  59  88 111 152 200 250 291 341
#
# _framework density 20.403683000000001
#
# number of rings (size 3 to 8) (size 9 to 14) (size 15 to 20)
#    0.000    1.500    2.500    4.500    3.500    2.000 
#    0.000    6.250    0.000    0.000    0.000    0.000 
#    0.000    0.000    0.000    0.000    0.000    0.000 
#
# Total GULP energy -396728.574954 kJ/mol
# GULP energy per Si atom -12397.767967 kJ/mol
# Density = 2.035724 g / cm^3
# Si number density = 20.403683 Si / 1000 Ang^3
#
#
#
# Elastic Constant Matrix: (Units=GPa)
#
#
# Indices 1 2 3 4 5 6 
#
# 1 53.9943 35.3065 14.2336 0.0000 0.0000 0.0000
# 2 35.3065 124.3177 40.6933 0.0000 0.0000 0.0000
# 3 14.2336 40.6933 81.9887 0.0000 0.0000 0.0000
# 4 0.0000 0.0000 0.0000 35.9294 0.0000 0.0000
# 5 0.0000 0.0000 0.0000 0.0000 18.4783 0.0000
# 6 0.0000 0.0000 0.0000 0.0000 0.0000 23.7290
#
#
#
# Elastic Compliance Matrix: (Units=1/GPa)
#
#
# Indices 1 2 3 4 5 6 
#
# 1 0.022798 -0.006184 -0.000889 0.000000 0.000000 0.000000
# 2 -0.006184 0.011282 -0.004526 0.000000 0.000000 0.000000
# 3 -0.000889 -0.004526 0.014597 0.000000 0.000000 0.000000
# 4 0.000000 0.000000 0.000000 0.027832 0.000000 0.000000
# 5 0.000000 0.000000 0.000000 0.000000 0.054118 0.000000
# 6 0.000000 0.000000 0.000000 0.000000 0.000000 0.042143
#
#
# Mechanical properties :
#
#
# Convention : Reuss Voigt Hill
#
# Bulk Modulus (GPa) = 39.24560 48.97417 44.10989
# Shear Modulus (GPa) = 24.45465 26.96515 25.70990
#
# Velocity S-wave (km/s) = 3.46575 3.63930 3.55359
# Velocity P-wave (km/s) = 5.94067 6.45864 6.20506
#
# Compressibility (1/GPa) = 0.02548056
#
# Stress axis : x y z
#
# Youngs Moduli (GPa) = 43.86290 88.63992 68.50552
#
# Poissons Ratio (x) = 0.54814 0.06088
# Poissons Ratio (y) = 0.27124 0.31004
# Poissons Ratio (z) = 0.03898 0.40117
#
# Static dielectric constant tensor:
#      x y z
#    x 3.217150 0.000000 0.000000 
#    y 0.000000 4.325360 0.000000 
#    z 0.000000 0.000000 3.716330 
# 
# 
# High freq. dielectric constant tensor:
#      x y z
#    x 1.755600 0.000000 0.000000 
#    y 0.000000 1.818640 0.000000 
#    z 0.000000 0.000000 1.802690 
# 
# From -- ./inp_files/3250.got.cif
#   From: 2010.03.12/outbox.cif.g09.slc.cpg/sg54_2_cif.got.tgz:3250.got - 2010.04.16 15:00:50.
