data_PCOD8222119
_publ_section_title
;
Structure prediction by ZEFSAII (Michael W. Deem and Ramdas Pophale) SiO2 
 PCOD8222119
Probable space group: P M N A
;
_chemical_formula_sum "Si O2"
_cell_formula_units_Z 64
_cell_length_a 9.115969
_cell_length_b 17.459844
_cell_length_c 19.533453
_cell_angle_alpha 90.000000
_cell_angle_beta 90.000000
_cell_angle_gamma 90.000000
_cell_volume 3109.010728
_symmetry_space_group_name_H-M "P M N A"
_symmetry_group_IT_number 53
_symmetry_cell_setting 'orthorhombic'
loop_
_space_group_symop_operation_xyz
x,y,z
1/2-x,-y,1/2+z
x,-y,-z
1/2-x,y,1/2-z
-x,-y,-z
1/2+x,y,1/2-z
-x,y,z
1/2+x,-y,1/2+z
loop_
_atom_site_type_symbol
_atom_site_label
_atom_site_fract_x
_atom_site_fract_y
_atom_site_fract_z
Si Si1 0.835723 0.451906 0.313794
Si Si2 0.174775 0.921373 0.965958
Si Si3 0.836091 0.714062 0.651507
Si Si4 0.839977 0.649790 0.968368
Si Si5 0.674466 0.133505 0.318046
Si Si6 0.675243 0.307196 0.677612
Si Si7 0.340437 0.207069 0.562352
Si Si8 0.829510 0.451037 0.911267
O O1 0.750000 0.490165 0.250000
O O2 0.836834 0.360558 0.300418
O O3 0.755260 0.471845 0.386241
O O4 0.000000 0.485072 0.315584
O O5 0.227913 0.911037 0.886925
O O6 0.000000 0.915747 0.964086
O O7 0.244622 0.853905 0.013690
O O8 0.230360 0.000000 0.000000
O O9 0.789093 0.681093 0.578308
O O10 0.722740 0.777691 0.677694
O O11 0.000000 0.749639 0.646670
O O12 0.000000 0.639143 0.930979
O O13 0.864527 0.712241 0.026419
O O14 0.797104 0.571176 0.009003
O O15 0.750000 0.096860 0.250000
O O16 0.500000 0.130697 0.309258
O O17 0.750000 0.302313 0.750000
O O18 0.500000 0.304706 0.684069
O O19 0.732068 0.231259 0.634937
O O20 0.727004 0.384592 0.639882
O O21 0.500000 0.169440 0.576632
O O22 0.000000 0.466840 0.901431
#
# Coordination Sequence:
#
# PCOD8222119 Si02
#       8
#     8   8   8   8   8   8   8   8
#     4  11  24  38  51  70 101 140 184 235 289 344
#     4   9  17  32  59  90 113 143 187 225 265 325
#     4  11  23  37  55  81 111 145 187 235 287 339
#     4   9  17  33  56  80 105 140 184 228 278 334
#     4  11  22  38  62  89 118 151 190 236 280 333
#     4   9  17  29  48  73 103 137 178 227 273 322
#     4   8  14  29  51  76 106 139 179 223 263 315
#     4   9  19  34  53  75 102 140 185 232 284 340
#
# _framework density 20.585325000000001
#
# number of rings (size 3 to 8) (size 9 to 14) (size 15 to 20)
#    0.000    2.375    1.250    3.375    0.000    5.500 
#    0.000    5.000    0.000    1.500    0.000    0.000 
#    0.000    0.000    0.000    0.000    0.000    0.000 
#
# Total GULP energy -792933.367022 kJ/mol
# GULP energy per Si atom -12389.583860 kJ/mol
# Density = 2.053847 g / cm^3
# Si number density = 20.585325 Si / 1000 Ang^3
#
#
#
# Elastic Constant Matrix: (Units=GPa)
#
#
# Indices 1 2 3 4 5 6 
#
# 1 71.3194 -0.0104 24.2304 0.0000 0.0000 0.0000
# 2 -0.0104 57.4999 -5.7466 0.0000 0.0000 0.0000
# 3 24.2304 -5.7466 59.3656 0.0000 0.0000 0.0000
# 4 0.0000 0.0000 0.0000 21.2661 0.0000 0.0000
# 5 0.0000 0.0000 0.0000 0.0000 30.4319 0.0000
# 6 0.0000 0.0000 0.0000 0.0000 0.0000 12.2920
#
#
#
# Elastic Compliance Matrix: (Units=1/GPa)
#
#
# Indices 1 2 3 4 5 6 
#
# 1 0.016304 -0.000669 -0.006719 0.000000 0.000000 0.000000
# 2 -0.000669 0.017589 0.001975 0.000000 0.000000 0.000000
# 3 -0.006719 0.001975 0.019779 0.000000 0.000000 0.000000
# 4 0.000000 0.000000 0.000000 0.047023 0.000000 0.000000
# 5 0.000000 0.000000 0.000000 0.000000 0.032860 0.000000
# 6 0.000000 0.000000 0.000000 0.000000 0.000000 0.081354
#
#
# Mechanical properties :
#
#
# Convention : Reuss Voigt Hill
#
# Bulk Modulus (GPa) = 23.33917 25.01463 24.17690
# Shear Modulus (GPa) = 20.83198 24.11210 22.47204
#
# Velocity S-wave (km/s) = 3.18462 3.42617 3.30760
# Velocity P-wave (km/s) = 4.98846 5.27538 5.13393
#
# Compressibility (1/GPa) = 0.04284642
#
# Stress axis : x y z
#
# Youngs Moduli (GPa) = 61.33393 56.85488 50.55982
#
# Poissons Ratio (x) = 0.03801 0.33973
# Poissons Ratio (y) = 0.04101 -0.09988
# Poissons Ratio (z) = 0.41212 -0.11232
#
# Static dielectric constant tensor:
#      x y z
#    x 3.396650 0.000000 0.000000 
#    y 0.000000 3.691970 0.000000 
#    z 0.000000 0.000000 3.959500 
# 
# 
# High freq. dielectric constant tensor:
#      x y z
#    x 1.766140 0.000000 0.000000 
#    y 0.000000 1.785380 0.000000 
#    z 0.000000 0.000000 1.818530 
# 
# From -- ./inp_files/31159.got.cif
#   From: 2010.03.12/outbox.cif.g09.slc.cpg/sg53_16_cif.got.tgz:31159.got - 2010.04.16 14:36:59.
