data_PCOD8222264
_publ_section_title
;
Structure prediction by ZEFSAII (Michael W. Deem and Ramdas Pophale) SiO2 
 PCOD8222264
Probable space group: P M N A
;
_chemical_formula_sum "Si O2"
_cell_formula_units_Z 64
_cell_length_a 9.000000
_cell_length_b 18.000000
_cell_length_c 21.000000
_cell_angle_alpha 90.000000
_cell_angle_beta 90.000000
_cell_angle_gamma 90.000000
_cell_volume 3402.000000
_symmetry_space_group_name_H-M "P M N A"
_symmetry_group_IT_number 53
_symmetry_cell_setting 'orthorhombic'
loop_
_space_group_symop_operation_xyz
x,y,z
1/2-x,-y,1/2+z
x,-y,-z
1/2-x,y,1/2-z
-x,-y,-z
1/2+x,y,1/2-z
-x,y,z
1/2+x,-y,1/2+z
loop_
_atom_site_type_symbol
_atom_site_label
_atom_site_fract_x
_atom_site_fract_y
_atom_site_fract_z
Si Si1 0.668195 0.559901 0.189374
Si Si2 0.165755 0.203188 0.898215
Si Si3 0.668229 0.385278 0.189001
Si Si4 0.171192 0.832010 0.961208
Si Si5 0.822884 0.319317 0.439448
Si Si6 0.325139 0.651879 0.076109
Si Si7 0.327750 0.065928 0.682526
Si Si8 0.325762 0.025529 0.071725
O O1 0.750000 0.595404 0.250000
O O2 0.500000 0.587472 0.194017
O O3 0.682418 0.472715 0.190454
O O4 0.739715 0.589100 0.123268
O O5 0.284356 0.268608 0.894335
O O6 0.183417 0.152776 0.835598
O O7 0.000000 0.237584 0.901080
O O8 0.192551 0.155475 0.962849
O O9 0.750000 0.349914 0.250000
O O10 0.500000 0.357624 0.192982
O O11 0.742012 0.360169 0.122660
O O12 0.264647 0.763072 0.937133
O O13 0.240424 0.897624 0.920225
O O14 0.000000 0.822101 0.942797
O O15 0.761557 0.358469 0.504359
O O16 0.000000 0.320190 0.439152
O O17 0.500000 0.645853 0.072074
O O18 0.250000 0.050778 0.750000
O O19 0.500000 0.040386 0.685612
O O20 0.241069 0.026168 0.625922
O O21 0.500000 0.034532 0.083944
O O22 0.292523 0.000000 0.000000
#
# Coordination Sequence:
#
# PCOD8222264 Si02
#       8
#     8   8   8   8   8   8   8   8
#     4   9  18  32  49  72 100 136 176 215 260 315
#     4   9  19  34  52  74 104 140 175 212 261 315
#     4   9  18  33  53  74 101 135 174 217 265 319
#     4  10  19  34  56  81 107 137 175 218 264 317
#     4   9  18  33  52  77 105 134 171 221 268 313
#     4   9  18  31  50  75 104 135 173 217 262 309
#     4  11  23  39  56  79 112 146 182 224 270 320
#     4  11  22  36  59  86 109 140 181 223 267 320
#
# _framework density 18.812463000000001
#
# number of rings (size 3 to 8) (size 9 to 14) (size 15 to 20)
#    0.000    2.375    1.250    1.125    0.000    4.000 
#    0.000    5.625    0.000    1.500    0.000    7.000 
#    0.000    0.000    0.000    0.000    0.000    0.000 
#
# Total GULP energy -793132.512889 kJ/mol
# GULP energy per Si atom -12392.695514 kJ/mol
# Density = 1.876965 g / cm^3
# Si number density = 18.812463 Si / 1000 Ang^3
#
#
#
# Elastic Constant Matrix: (Units=GPa)
#
#
# Indices 1 2 3 4 5 6 
#
# 1 82.3844 7.0730 78.1899 0.0000 0.0000 0.0000
# 2 7.0730 -47.5447 22.0812 0.0000 0.0000 0.0000
# 3 78.1899 22.0812 162.7436 0.0000 0.0000 0.0000
# 4 0.0000 0.0000 0.0000 29.3847 0.0000 0.0000
# 5 0.0000 0.0000 0.0000 0.0000 28.4068 0.0000
# 6 0.0000 0.0000 0.0000 0.0000 0.0000 18.2977
#
#
#
# Elastic Compliance Matrix: (Units=1/GPa)
#
#
# Indices 1 2 3 4 5 6 
#
# 1 0.022190 -0.001552 -0.010450 0.000000 0.000000 0.000000
# 2 -0.001552 -0.019677 0.003416 0.000000 0.000000 0.000000
# 3 -0.010450 0.003416 0.010702 0.000000 0.000000 0.000000
# 4 0.000000 0.000000 0.000000 0.034031 0.000000 0.000000
# 5 0.000000 0.000000 0.000000 0.000000 0.035203 0.000000
# 6 0.000000 0.000000 0.000000 0.000000 0.000000 0.054652
#
#
# Mechanical properties :
#
#
# Convention : Reuss Voigt Hill
#
# Bulk Modulus (GPa) = -252.53686 45.80795 -103.36446
# Shear Modulus (GPa) = 32.68941 21.23380 26.96161
#
# Velocity S-wave (km/s) = 4.17303 3.36327 3.78984
# Velocity P-wave (km/s) = 10.55043 6.28369 5.99278
#
# Compressibility (1/GPa) = -0.00395982
#
# Stress axis : x y z
#
# Youngs Moduli (GPa) = 45.06560 -50.81959 93.43966
#
# Poissons Ratio (x) = -0.07889 0.97649
# Poissons Ratio (y) = 0.06996 -0.31916
# Poissons Ratio (z) = 0.47096 0.17358
#
# Static dielectric constant tensor:
#      x y z
#    x 3.465580 0.000000 0.000000 
#    y 0.000000 3.292190 0.000000 
#    z 0.000000 0.000000 3.834970 
# 
# 
# High freq. dielectric constant tensor:
#      x y z
#    x 1.723430 0.000000 0.000000 
#    y 0.000000 1.702800 0.000000 
#    z 0.000000 0.000000 1.734240 
# 
# From -- ./inp_files/26817.got.cif
#   From: 2010.03.12/outbox.ucp.g09.slc.cvg/sg53_14_cif.got.tgz:26817.got - 2010.05.04 19:20:06.
