data_PCOD8222633
_publ_section_title
;
Structure prediction by ZEFSAII (Michael W. Deem and Ramdas Pophale) SiO2 
 PCOD8222633
Probable space group: P C C A
;
_chemical_formula_sum "Si O2"
_cell_formula_units_Z 56
_cell_length_a 17.311803
_cell_length_b 9.608358
_cell_length_c 18.214410
_cell_angle_alpha 90.000000
_cell_angle_beta 90.000000
_cell_angle_gamma 90.000000
_cell_volume 3029.748546
_symmetry_space_group_name_H-M "P C C A"
_symmetry_group_IT_number 54
_symmetry_cell_setting 'orthorhombic'
loop_
_space_group_symop_operation_xyz
x,y,z
1/2-x,-y,z
1/2+x,-y,1/2-z
-x,y,1/2-z
-x,-y,-z
1/2+x,y,-z
1/2-x,y,1/2+z
x,-y,1/2+z
loop_
_atom_site_type_symbol
_atom_site_label
_atom_site_fract_x
_atom_site_fract_y
_atom_site_fract_z
Si Si1 0.578008 0.358742 0.852958
Si Si2 0.335668 0.633264 0.442544
Si Si3 0.671973 0.657633 0.499743
Si Si4 0.669053 0.556277 0.214593
Si Si5 0.967001 0.158127 0.076564
Si Si6 0.935171 0.141932 0.566535
Si Si7 0.972343 0.380176 0.672000
O O1 0.623236 0.352986 0.775396
O O2 0.515172 0.233368 0.858018
O O3 0.528972 0.500368 0.859601
O O4 0.641846 0.344815 0.916399
O O5 0.365494 0.476554 0.459208
O O6 0.264691 0.657924 0.498320
O O7 0.309991 0.649054 0.357038
O O8 0.401754 0.743523 0.457973
O O9 0.648194 0.795070 0.545490
O O10 0.750000 0.500000 0.248094
O O11 0.614945 0.433298 0.184089
O O12 0.930446 0.011216 0.104169
O O13 0.023453 0.126813 0.010667
O O14 0.979378 0.248258 0.619210
O O15 0.000000 0.324683 0.750000
#
# Coordination Sequence:
#
# PCOD8222633 Si02
#       7
#     8   8   8   8   8   8   8
#     4  10  21  36  57  85 111 146 188 233 287 330
#     4  11  19  34  55  85 111 145 190 229 283 337
#     4  10  20  34  57  82 112 143 188 232 281 340
#     4  11  20  34  56  84 118 142 181 236 289 335
#     4  10  21  34  58  81 109 149 189 240 272 339
#     4  10  19  37  53  81 113 145 190 231 285 331
#     4  10  19  35  56  81 110 147 185 231 282 338
#
# _framework density 18.483381999999999
#
# number of rings (size 3 to 8) (size 9 to 14) (size 15 to 20)
#    0.000    1.714    4.286    0.857    2.000    2.857 
#    2.571    0.000    0.000    0.000    0.000    0.000 
#    0.000    0.000    0.000    0.000    0.000    0.000 
#
# Total GULP energy -693990.231878 kJ/mol
# GULP energy per Si atom -12392.682712 kJ/mol
# Density = 1.844131 g / cm^3
# Si number density = 18.483382 Si / 1000 Ang^3
#
#
#
# Elastic Constant Matrix: (Units=GPa)
#
#
# Indices 1 2 3 4 5 6 
#
# 1 78.6774 21.3166 0.6636 0.0000 0.0000 0.0000
# 2 21.3166 91.7669 10.7652 0.0000 0.0000 0.0000
# 3 0.6636 10.7652 59.3556 0.0000 0.0000 0.0000
# 4 0.0000 0.0000 0.0000 17.6175 0.0000 0.0000
# 5 0.0000 0.0000 0.0000 0.0000 25.9523 0.0000
# 6 0.0000 0.0000 0.0000 0.0000 0.0000 14.3314
#
#
#
# Elastic Compliance Matrix: (Units=1/GPa)
#
#
# Indices 1 2 3 4 5 6 
#
# 1 0.013574 -0.003204 0.000429 0.000000 0.000000 0.000000
# 2 -0.003204 0.011890 -0.002121 0.000000 0.000000 0.000000
# 3 0.000429 -0.002121 0.017227 0.000000 0.000000 0.000000
# 4 0.000000 0.000000 0.000000 0.056762 0.000000 0.000000
# 5 0.000000 0.000000 0.000000 0.000000 0.038532 0.000000
# 6 0.000000 0.000000 0.000000 0.000000 0.000000 0.069777
#
#
# Mechanical properties :
#
#
# Convention : Reuss Voigt Hill
#
# Bulk Modulus (GPa) = 30.39323 32.81007 31.60165
# Shear Modulus (GPa) = 21.87989 24.71720 23.29854
#
# Velocity S-wave (km/s) = 3.44431 3.66083 3.55422
# Velocity P-wave (km/s) = 5.68304 5.97148 5.82905
#
# Compressibility (1/GPa) = 0.03290206
#
# Stress axis : x y z
#
# Youngs Moduli (GPa) = 73.66770 84.10348 58.04695
#
# Poissons Ratio (x) = 0.26943 -0.02492
# Poissons Ratio (y) = 0.23600 0.12310
# Poissons Ratio (z) = -0.03162 0.17836
#
# Static dielectric constant tensor:
#      x y z
#    x 3.405930 0.000000 0.000000 
#    y 0.000000 3.660400 0.000000 
#    z 0.000000 0.000000 3.428880 
# 
# 
# High freq. dielectric constant tensor:
#      x y z
#    x 1.717840 0.000000 0.000000 
#    y 0.000000 1.694510 0.000000 
#    z 0.000000 0.000000 1.716210 
# 
# From -- ./inp_files/18877.got.cif
#   From: 2010.03.12/outbox.cif.g09.slc.cpg/sg54_10_cif.got.tgz:18877.got - 2010.04.16 15:00:50.
