data_PCOD8222062
_publ_section_title
;
Structure prediction by ZEFSAII (Michael W. Deem and Ramdas Pophale) SiO2 
 PCOD8222062
Probable space group: P M N A
;
_chemical_formula_sum "Si O2"
_cell_formula_units_Z 56
_cell_length_a 19.992876
_cell_length_b 14.688025
_cell_length_c 9.240674
_cell_angle_alpha 90.000000
_cell_angle_beta 90.000000
_cell_angle_gamma 90.000000
_cell_volume 2713.578094
_symmetry_space_group_name_H-M "P M N A"
_symmetry_group_IT_number 53
_symmetry_cell_setting 'orthorhombic'
loop_
_space_group_symop_operation_xyz
x,y,z
1/2-x,-y,1/2+z
x,-y,-z
1/2-x,y,1/2-z
-x,-y,-z
1/2+x,y,1/2-z
-x,y,z
1/2+x,-y,1/2+z
loop_
_atom_site_type_symbol
_atom_site_label
_atom_site_fract_x
_atom_site_fract_y
_atom_site_fract_z
Si Si1 0.302991 0.608735 0.997703
Si Si2 0.500000 0.375426 0.653497
Si Si3 0.617820 0.694936 0.755258
Si Si4 0.782092 0.084965 0.407803
Si Si5 0.000000 0.572001 0.824005
Si Si6 0.801266 0.748553 0.014441
Si Si7 0.924597 0.150598 0.457408
Si Si8 0.381750 0.269416 0.785303
O O1 0.352708 0.649131 0.117617
O O2 0.303222 0.500000 0.000000
O O3 0.320495 0.649960 0.840475
O O4 0.228796 0.646617 0.029593
O O5 0.500000 0.412797 0.493389
O O6 0.500000 0.469868 0.741903
O O7 0.436583 0.314139 0.683802
O O8 0.568247 0.612989 0.731748
O O9 0.643265 0.746958 0.611597
O O10 0.575597 0.766569 0.846770
O O11 0.750000 0.076315 0.250000
O O12 0.757996 0.179694 0.479383
O O13 0.863820 0.083392 0.408580
O O14 0.755193 0.000000 0.500000
O O15 0.829862 0.775252 0.171829
O O16 0.911421 0.187403 0.619425
O O17 0.000000 0.106031 0.451777
#
# Coordination Sequence:
#
# PCOD8222062 Si02
#       8
#     8   4   8   8   4   8   8   8
#     4  11  24  37  57  89 126 169 218 274 332 389
#     4  11  22  37  53  93 132 175 234 275 324 397
#     4  11  21  39  62  89 124 172 220 270 324 387
#     4  12  27  47  75 105 134 172 221 278 344 418
#     4  11  22  35  59  87 130 185 227 274 332 387
#     4  12  23  42  65  92 131 169 221 276 330 400
#     4  11  23  43  71  97 129 172 218 268 333 397
#     4  11  23  38  62  92 129 172 225 274 325 389
#
# _framework density 20.636958
#
# number of rings (size 3 to 8) (size 9 to 14) (size 15 to 20)
#    0.000    0.714    7.143    1.714    2.000    3.714 
#    0.000    2.143    0.000    0.429    0.000    0.000 
#    0.000    0.000    0.000    0.000    0.000    0.000 
#
# Total GULP energy -694195.329268 kJ/mol
# GULP energy per Si atom -12396.345166 kJ/mol
# Density = 2.058999 g / cm^3
# Si number density = 20.636958 Si / 1000 Ang^3
#
#
#
# Elastic Constant Matrix: (Units=GPa)
#
#
# Indices 1 2 3 4 5 6 
#
# 1 115.4909 22.7374 36.7142 0.0000 0.0000 0.0000
# 2 22.7374 79.8073 25.5873 0.0000 0.0000 0.0000
# 3 36.7142 25.5873 94.5667 0.0000 0.0000 0.0000
# 4 0.0000 0.0000 0.0000 20.5285 0.0000 0.0000
# 5 0.0000 0.0000 0.0000 0.0000 13.7729 0.0000
# 6 0.0000 0.0000 0.0000 0.0000 0.0000 -39.6015
#
#
#
# Elastic Compliance Matrix: (Units=1/GPa)
#
#
# Indices 1 2 3 4 5 6 
#
# 1 0.010102 -0.001775 -0.003442 0.000000 0.000000 0.000000
# 2 -0.001775 0.014032 -0.003108 0.000000 0.000000 0.000000
# 3 -0.003442 -0.003108 0.012752 0.000000 0.000000 0.000000
# 4 0.000000 0.000000 0.000000 0.048713 0.000000 0.000000
# 5 0.000000 0.000000 0.000000 0.000000 0.072606 0.000000
# 6 0.000000 0.000000 0.000000 0.000000 0.000000 -0.025252
#
#
# Mechanical properties :
#
#
# Convention : Reuss Voigt Hill
#
# Bulk Modulus (GPa) = 49.41315 51.10474 50.25894
# Shear Modulus (GPa) = 31.97993 12.59506 22.28749
#
# Velocity S-wave (km/s) = 3.94082 2.47314 3.28987
# Velocity P-wave (km/s) = 6.68601 5.74218 6.23199
#
# Compressibility (1/GPa) = 0.02023753
#
# Stress axis : x y z
#
# Youngs Moduli (GPa) = 98.98798 71.26483 78.42100
#
# Poissons Ratio (x) = 0.12647 0.26992
# Poissons Ratio (y) = 0.17567 0.24371
# Poissons Ratio (z) = 0.34070 0.22147
#
# Static dielectric constant tensor:
#      x y z
#    x 3.771950 0.000000 0.000000 
#    y 0.000000 3.699910 0.000000 
#    z 0.000000 0.000000 3.916820 
# 
# 
# High freq. dielectric constant tensor:
#      x y z
#    x 1.815240 0.000000 0.000000 
#    y 0.000000 1.786630 0.000000 
#    z 0.000000 0.000000 1.817910 
# 
# From -- ./inp_files/11134.got.cif
#   From: 2010.03.12/outbox.cif.g09.slc.cpg/sg53_6_cif.got.tgz:11134.got - 2010.04.16 14:36:59.
