data_PCOD8222083
_publ_section_title
;
Structure prediction by ZEFSAII (Michael W. Deem and Ramdas Pophale) SiO2 
 PCOD8222083
Probable space group: P M N A
;
_chemical_formula_sum "Si O2"
_cell_formula_units_Z 64
_cell_length_a 8.934308
_cell_length_b 23.326402
_cell_length_c 17.200522
_cell_angle_alpha 90.000000
_cell_angle_beta 90.000000
_cell_angle_gamma 90.000000
_cell_volume 3584.679260
_symmetry_space_group_name_H-M "P M N A"
_symmetry_group_IT_number 53
_symmetry_cell_setting 'orthorhombic'
loop_
_space_group_symop_operation_xyz
x,y,z
1/2-x,-y,1/2+z
x,-y,-z
1/2-x,y,1/2-z
-x,-y,-z
1/2+x,y,1/2-z
-x,y,z
1/2+x,-y,1/2+z
loop_
_atom_site_type_symbol
_atom_site_label
_atom_site_fract_x
_atom_site_fract_y
_atom_site_fract_z
Si Si1 0.324427 0.545704 0.831023
Si Si2 0.178769 0.136446 0.517758
Si Si3 0.323142 0.629033 0.558190
Si Si4 0.178110 0.734355 0.486316
Si Si5 0.679006 0.069109 0.831898
Si Si6 0.163145 0.964004 0.577843
Si Si7 0.669812 0.320336 0.827997
Si Si8 0.829281 0.430475 0.582108
O O1 0.250000 0.529034 0.750000
O O2 0.500000 0.555294 0.819153
O O3 0.248522 0.603214 0.863635
O O4 0.291583 0.494420 0.891414
O O5 0.233368 0.200758 0.500504
O O6 0.231070 0.115670 0.603492
O O7 0.246271 0.095163 0.448692
O O8 0.000000 0.132393 0.515106
O O9 0.500000 0.632073 0.567074
O O10 0.257850 0.693092 0.548449
O O11 0.281022 0.587930 0.486384
O O12 0.232839 0.715669 0.400677
O O13 0.000000 0.727211 0.494669
O O14 0.750000 0.086748 0.750000
O O15 0.500000 0.067985 0.825137
O O16 0.741412 0.005601 0.858222
O O17 0.000000 0.947762 0.611420
O O18 0.141912 0.000000 0.500000
O O19 0.750000 0.301353 0.750000
O O20 0.500000 0.303510 0.814666
O O21 0.691216 0.387992 0.844582
O O22 0.000000 0.425788 0.550534
#
# Coordination Sequence:
#
# PCOD8222083 Si02
#       8
#     8   8   8   8   8   8   8   8
#     4  11  22  36  55  78 103 128 157 198 248 298
#     4   8  14  27  48  68  86 119 166 203 228 270
#     4  11  22  35  52  74 100 130 165 203 244 291
#     4   9  18  33  50  67  89 122 166 208 244 281
#     4   9  16  26  43  70 101 126 150 186 233 283
#     4   7  11  22  42  66  88 114 153 193 222 259
#     4   9  17  28  42  63  92 123 153 188 231 281
#     4   9  19  35  53  73  98 128 161 198 241 289
#
# _framework density 17.853760000000001
#
# number of rings (size 3 to 8) (size 9 to 14) (size 15 to 20)
#    0.000    2.875    0.000    4.500    0.000    5.000 
#    0.000    0.625    0.000    4.875    0.000    1.750 
#    0.000    0.000    0.000    0.000    0.000    0.000 
#
# Total GULP energy -793068.023349 kJ/mol
# GULP energy per Si atom -12391.687865 kJ/mol
# Density = 1.781312 g / cm^3
# Si number density = 17.853760 Si / 1000 Ang^3
#
#
#
# Elastic Constant Matrix: (Units=GPa)
#
#
# Indices 1 2 3 4 5 6 
#
# 1 56.0876 32.5315 19.9745 0.0000 0.0000 0.0000
# 2 32.5315 131.7225 25.4727 0.0000 0.0000 0.0000
# 3 19.9745 25.4727 33.7214 0.0000 0.0000 0.0000
# 4 0.0000 0.0000 0.0000 17.8247 0.0000 0.0000
# 5 0.0000 0.0000 0.0000 0.0000 26.3441 0.0000
# 6 0.0000 0.0000 0.0000 0.0000 0.0000 12.3322
#
#
#
# Elastic Compliance Matrix: (Units=1/GPa)
#
#
# Indices 1 2 3 4 5 6 
#
# 1 0.024067 -0.003732 -0.011436 0.000000 0.000000 0.000000
# 2 -0.003732 0.009469 -0.004942 0.000000 0.000000 0.000000
# 3 -0.011436 -0.004942 0.040162 0.000000 0.000000 0.000000
# 4 0.000000 0.000000 0.000000 0.056102 0.000000 0.000000
# 5 0.000000 0.000000 0.000000 0.000000 0.037959 0.000000
# 6 0.000000 0.000000 0.000000 0.000000 0.000000 0.081088
#
#
# Mechanical properties :
#
#
# Convention : Reuss Voigt Hill
#
# Bulk Modulus (GPa) = 29.87157 41.94322 35.90740
# Shear Modulus (GPa) = 16.65400 20.87040 18.76220
#
# Velocity S-wave (km/s) = 3.05749 3.42272 3.24525
# Velocity P-wave (km/s) = 5.40665 6.25809 5.84789
#
# Compressibility (1/GPa) = 0.03347664
#
# Stress axis : x y z
#
# Youngs Moduli (GPa) = 41.55097 105.60568 24.89894
#
# Poissons Ratio (x) = 0.39414 0.28476
# Poissons Ratio (y) = 0.15508 0.12306
# Poissons Ratio (z) = 0.47520 0.52192
#
# Static dielectric constant tensor:
#      x y z
#    x 2.963470 0.000000 0.000000 
#    y 0.000000 3.577010 0.000000 
#    z 0.000000 0.000000 3.221580 
# 
# 
# High freq. dielectric constant tensor:
#      x y z
#    x 1.658010 0.000000 0.000000 
#    y 0.000000 1.691470 0.000000 
#    z 0.000000 0.000000 1.671100 
# 
# From -- ./inp_files/27034.got.cif
#   From: 2010.03.12/outbox.cif.g09.slc.cpg/sg53_14_cif.got.tgz:27034.got - 2010.04.16 14:36:59.
