data_PCOD8222309
_publ_section_title
;
Structure prediction by ZEFSAII (Michael W. Deem and Ramdas Pophale) SiO2 
 PCOD8222309
Probable space group: P C C A
;
_chemical_formula_sum "Si O2"
_cell_formula_units_Z 40
_cell_length_a 33.754893
_cell_length_b 15.386058
_cell_length_c 5.218383
_cell_angle_alpha 90.000000
_cell_angle_beta 90.000000
_cell_angle_gamma 90.000000
_cell_volume 2710.191954
_symmetry_space_group_name_H-M "P C C A"
_symmetry_group_IT_number 54
_symmetry_cell_setting 'orthorhombic'
loop_
_space_group_symop_operation_xyz
x,y,z
1/2-x,-y,z
1/2+x,-y,1/2-z
-x,y,1/2-z
-x,-y,-z
1/2+x,y,-z
1/2-x,y,1/2+z
x,-y,1/2+z
loop_
_atom_site_type_symbol
_atom_site_label
_atom_site_fract_x
_atom_site_fract_y
_atom_site_fract_z
Si Si1 0.732867 0.904006 0.712336
Si Si2 0.455728 0.725006 0.250100
Si Si3 0.500000 0.558285 0.250000
Si Si4 0.927774 0.812913 0.249901
Si Si5 0.000000 0.942191 0.250000
Si Si6 0.857964 0.057190 0.740226
O O1 0.745399 0.855161 0.449008
O O2 0.686201 0.906039 0.752239
O O3 0.750000 0.000000 0.662792
O O4 0.500000 0.768771 0.250000
O O5 0.460956 0.620183 0.249906
O O6 0.431614 0.752750 0.500623
O O7 0.431539 0.752904 1.000000
O O8 0.500000 0.500000 0.500000
O O9 0.960761 0.886009 0.249778
O O10 0.885273 0.858259 0.251549
O O11 0.000000 0.000000 0.500000
O O12 0.866561 0.004898 0.480539
#
# Coordination Sequence:
#
# PCOD8222309 Si02
#       6
#     8   8   4   8   4   8
#     4  10  16  30  47  59  82 106 143 211 257 271
#     4  10  20  35  50  62  92 121 140 184 228 279
#     4  10  18  32  56  78  84 106 158 190 208 268
#     4  12  21  34  43  61  89 124 155 182 244 272
#     4  12  20  30  40  52  76 114 158 204 218 234
#     4  12  21  31  45  66  83 116 169 214 225 274
#
# _framework density 14.759102
#
# number of rings (size 3 to 8) (size 9 to 14) (size 15 to 20)
#    0.600    0.400    6.000    4.800    0.000    0.000 
#    0.000    0.000    0.000    0.000    0.000    0.000 
#    0.000    0.000    0.000    0.000    0.000   70.000 
#
# Total GULP energy -495892.870403 kJ/mol
# GULP energy per Si atom -12397.321760 kJ/mol
# Density = 1.472551 g / cm^3
# Si number density = 14.759102 Si / 1000 Ang^3
#
#
#
# Elastic Constant Matrix: (Units=GPa)
#
#
# Indices 1 2 3 4 5 6 
#
# 1 84.8285 35.2048 23.0452 0.0000 0.0000 0.0000
# 2 35.2048 80.0559 49.8057 0.0000 0.0000 0.0000
# 3 23.0452 49.8057 151.2222 0.0000 0.0000 0.0000
# 4 0.0000 0.0000 0.0000 26.4691 0.0000 0.0000
# 5 0.0000 0.0000 0.0000 0.0000 17.0533 0.0000
# 6 0.0000 0.0000 0.0000 0.0000 0.0000 -13.2476
#
#
#
# Elastic Compliance Matrix: (Units=1/GPa)
#
#
# Indices 1 2 3 4 5 6 
#
# 1 0.014422 -0.006257 -0.000137 0.000000 0.000000 0.000000
# 2 -0.006257 0.018425 -0.005115 0.000000 0.000000 0.000000
# 3 -0.000137 -0.005115 0.008318 0.000000 0.000000 0.000000
# 4 0.000000 0.000000 0.000000 0.037780 0.000000 0.000000
# 5 0.000000 0.000000 0.000000 0.000000 0.058640 0.000000
# 6 0.000000 0.000000 0.000000 0.000000 0.000000 -0.075486
#
#
# Mechanical properties :
#
#
# Convention : Reuss Voigt Hill
#
# Bulk Modulus (GPa) = 55.10311 59.13534 57.11922
# Shear Modulus (GPa) = 54.84454 19.92503 37.38478
#
# Velocity S-wave (km/s) = 6.10250 3.67824 5.03835
# Velocity P-wave (km/s) = 9.33113 7.62845 8.52242
#
# Compressibility (1/GPa) = 0.01814780
#
# Stress axis : x y z
#
# Youngs Moduli (GPa) = 69.33618 54.27430 120.21742
#
# Poissons Ratio (x) = 0.33960 0.01648
# Poissons Ratio (y) = 0.43384 0.61489
# Poissons Ratio (z) = 0.00951 0.27760
#
# Static dielectric constant tensor:
#      x y z
#    x 2.790490 0.000000 0.000000 
#    y 0.000000 2.563320 0.000000 
#    z 0.000000 0.000000 3.407030 
# 
# 
# High freq. dielectric constant tensor:
#      x y z
#    x 1.550300 0.000000 0.000000 
#    y 0.000000 1.515750 0.000000 
#    z 0.000000 0.000000 1.600470 
# 
# From -- ./inp_files/2113.got.cif
#   From: 2010.03.12/outbox.cif.g09.slc.cpg/sg54_2_cif.got.tgz:2113.got - 2010.04.16 15:00:50.
