data_PCOD8222170
_publ_section_title
;
Structure prediction by ZEFSAII (Michael W. Deem and Ramdas Pophale) SiO2 
 PCOD8222170
Probable space group: P M N A
;
_chemical_formula_sum "Si O2"
_cell_formula_units_Z 48
_cell_length_a 14.077011
_cell_length_b 9.107342
_cell_length_c 18.636593
_cell_angle_alpha 90.000000
_cell_angle_beta 90.000000
_cell_angle_gamma 90.000000
_cell_volume 2389.288630
_symmetry_space_group_name_H-M "P M N A"
_symmetry_group_IT_number 53
_symmetry_cell_setting 'orthorhombic'
loop_
_space_group_symop_operation_xyz
x,y,z
1/2-x,-y,1/2+z
x,-y,-z
1/2-x,y,1/2-z
-x,-y,-z
1/2+x,y,1/2-z
-x,y,z
1/2+x,-y,1/2+z
loop_
_atom_site_type_symbol
_atom_site_label
_atom_site_fract_x
_atom_site_fract_y
_atom_site_fract_z
Si Si1 0.700462 0.146308 0.957628
Si Si2 0.816849 0.393762 0.439081
Si Si3 0.000000 0.692000 0.785016
Si Si4 0.000000 0.554679 0.637063
Si Si5 0.319454 0.804991 0.314648
Si Si6 0.000000 0.961616 0.235393
Si Si7 0.500000 0.205136 0.887266
Si Si8 0.681789 0.469461 0.315790
O O1 0.769246 0.165861 0.890190
O O2 0.591819 0.162007 0.932920
O O3 0.728417 0.256856 0.021001
O O4 0.719450 0.000000 0.000000
O O5 0.855869 0.500000 0.500000
O O6 0.909297 0.357627 0.392383
O O7 0.738880 0.470793 0.389861
O O8 0.096277 0.647341 0.827001
O O9 0.000000 0.575880 0.721025
O O10 0.000000 0.861170 0.760380
O O11 0.000000 0.379836 0.625049
O O12 0.250000 0.848231 0.250000
O O13 0.409200 0.911539 0.309989
O O14 0.353516 0.636473 0.304659
O O15 0.000000 0.887215 0.313684
O O16 0.750000 0.420224 0.250000
#
# Coordination Sequence:
#
# PCOD8222170 Si02
#       8
#     8   8   4   4   8   4   4   8
#     4  12  27  41  68 103 143 178 216 278 348 405
#     4  12  23  42  68 103 136 173 223 277 339 394
#     4  12  28  42  68 106 132 176 228 288 327 387
#     4  12  22  41  70 100 140 173 222 282 331 405
#     4  11  23  46  72  95 133 183 228 271 329 409
#     4  12  28  42  68  99 140 176 228 277 337 399
#     4  12  22  44  66 101 140 181 216 271 341 414
#     4  11  23  44  72  98 131 178 233 276 326 401
#
# _framework density 20.089662000000001
#
# number of rings (size 3 to 8) (size 9 to 14) (size 15 to 20)
#    0.000    0.333    6.667    2.500    4.667    0.667 
#    0.000    1.667    0.000    0.000    0.000    0.000 
#    0.000    0.000    0.000    0.000    0.000    0.000 
#
# Total GULP energy -595128.467658 kJ/mol
# GULP energy per Si atom -12398.509743 kJ/mol
# Density = 2.004394 g / cm^3
# Si number density = 20.089662 Si / 1000 Ang^3
#
#
#
# Elastic Constant Matrix: (Units=GPa)
#
#
# Indices 1 2 3 4 5 6 
#
# 1 110.1408 34.6183 33.7098 0.0000 0.0000 0.0000
# 2 34.6183 113.2916 29.5836 0.0000 0.0000 0.0000
# 3 33.7098 29.5836 86.5979 0.0000 0.0000 0.0000
# 4 0.0000 0.0000 0.0000 28.9443 0.0000 0.0000
# 5 0.0000 0.0000 0.0000 0.0000 82.8112 0.0000
# 6 0.0000 0.0000 0.0000 0.0000 0.0000 26.3935
#
#
#
# Elastic Compliance Matrix: (Units=1/GPa)
#
#
# Indices 1 2 3 4 5 6 
#
# 1 0.010888 -0.002438 -0.003405 0.000000 0.000000 0.000000
# 2 -0.002438 0.010237 -0.002548 0.000000 0.000000 0.000000
# 3 -0.003405 -0.002548 0.013744 0.000000 0.000000 0.000000
# 4 0.000000 0.000000 0.000000 0.034549 0.000000 0.000000
# 5 0.000000 0.000000 0.000000 0.000000 0.012076 0.000000
# 6 0.000000 0.000000 0.000000 0.000000 0.000000 0.037888
#
#
# Mechanical properties :
#
#
# Convention : Reuss Voigt Hill
#
# Bulk Modulus (GPa) = 55.29215 56.20594 55.74904
# Shear Modulus (GPa) = 35.16345 41.77104 38.46725
#
# Velocity S-wave (km/s) = 4.18823 4.56481 4.38057
# Velocity P-wave (km/s) = 7.13938 7.47138 7.30727
#
# Compressibility (1/GPa) = 0.01808575
#
# Stress axis : x y z
#
# Youngs Moduli (GPa) = 91.84622 97.68403 72.75998
#
# Poissons Ratio (x) = 0.23812 0.24778
# Poissons Ratio (y) = 0.22389 0.18541
# Poissons Ratio (z) = 0.31278 0.24893
#
# Static dielectric constant tensor:
#      x y z
#    x 3.846310 0.000000 0.000000 
#    y 0.000000 3.559490 0.000000 
#    z 0.000000 0.000000 3.707460 
# 
# 
# High freq. dielectric constant tensor:
#      x y z
#    x 1.783220 0.000000 0.000000 
#    y 0.000000 1.785690 0.000000 
#    z 0.000000 0.000000 1.792530 
# 
# From -- ./inp_files/28357.got.cif
#   From: 2010.03.12/outbox.cif.g09.slc.cpg/sg53_15_cif.got.tgz:28357.got - 2010.04.16 14:36:59.
