data_PCOD8222189
_publ_section_title
;
Structure prediction by ZEFSAII (Michael W. Deem and Ramdas Pophale) SiO2 
 PCOD8222189
Probable space group: P M N A
;
_chemical_formula_sum "Si O2"
_cell_formula_units_Z 20
_cell_length_a 11.156195
_cell_length_b 4.956259
_cell_length_c 15.926433
_cell_angle_alpha 90.000000
_cell_angle_beta 90.000000
_cell_angle_gamma 90.000000
_cell_volume 880.620130
_symmetry_space_group_name_H-M "P M N A"
_symmetry_group_IT_number 53
_symmetry_cell_setting 'orthorhombic'
loop_
_space_group_symop_operation_xyz
x,y,z
1/2-x,-y,1/2+z
x,-y,-z
1/2-x,y,1/2-z
-x,-y,-z
1/2+x,y,1/2-z
-x,y,z
1/2+x,-y,1/2+z
loop_
_atom_site_type_symbol
_atom_site_label
_atom_site_fract_x
_atom_site_fract_y
_atom_site_fract_z
Si Si1 0.000000 0.247456 0.938265
Si Si2 0.860846 0.359943 0.413760
Si Si3 0.243002 0.844199 0.155479
O O1 0.887549 0.245564 0.875404
O O2 0.000000 0.500000 0.000000
O O3 0.000000 0.000000 0.000000
O O4 0.819600 0.500000 0.500000
O O5 0.828414 0.580279 0.343286
O O6 0.000000 0.287685 0.411689
O O7 0.790324 0.080725 0.404941
O O8 0.250000 0.958155 0.250000
#
# Coordination Sequence:
#
# PCOD8222189 Si02
#       3
#     4   8   8
#     4  12  26  46  74 100 141 192 237 284 352 434
#     4  11  24  44  72 100 138 183 232 286 351 428
#     4  12  26  44  70 104 144 181 237 296 353 414
#
# _framework density 22.711269000000001
#
# number of rings (size 3 to 8) (size 9 to 14) (size 15 to 20)
#    0.000    0.400    0.000    9.600    5.600    3.200 
#    0.000    0.000    0.000    0.000    0.000    0.000 
#    0.000    0.000    0.000    0.000    0.000    0.000 
#
# Total GULP energy -248106.868354 kJ/mol
# GULP energy per Si atom -12405.343418 kJ/mol
# Density = 2.265958 g / cm^3
# Si number density = 22.711269 Si / 1000 Ang^3
#
#
#
# Elastic Constant Matrix: (Units=GPa)
#
#
# Indices 1 2 3 4 5 6 
#
# 1 134.5706 63.9310 71.4859 0.0000 0.0000 0.0000
# 2 63.9310 154.8670 29.3508 0.0000 0.0000 0.0000
# 3 71.4859 29.3508 120.9001 0.0000 0.0000 0.0000
# 4 0.0000 0.0000 0.0000 36.0072 0.0000 0.0000
# 5 0.0000 0.0000 0.0000 0.0000 27.0226 0.0000
# 6 0.0000 0.0000 0.0000 0.0000 0.0000 34.9765
#
#
#
# Elastic Compliance Matrix: (Units=1/GPa)
#
#
# Indices 1 2 3 4 5 6 
#
# 1 0.012883 -0.004062 -0.006632 0.000000 0.000000 0.000000
# 2 -0.004062 0.008049 0.000447 0.000000 0.000000 0.000000
# 3 -0.006632 0.000447 0.012084 0.000000 0.000000 0.000000
# 4 0.000000 0.000000 0.000000 0.027772 0.000000 0.000000
# 5 0.000000 0.000000 0.000000 0.000000 0.037006 0.000000
# 6 0.000000 0.000000 0.000000 0.000000 0.000000 0.028591
#
#
# Mechanical properties :
#
#
# Convention : Reuss Voigt Hill
#
# Bulk Modulus (GPa) = 79.84218 82.20811 81.02515
# Shear Modulus (GPa) = 33.10124 35.97261 34.53693
#
# Velocity S-wave (km/s) = 3.82184 3.98415 3.90384
# Velocity P-wave (km/s) = 7.39641 7.57894 7.48823
#
# Compressibility (1/GPa) = 0.01252471
#
# Stress axis : x y z
#
# Youngs Moduli (GPa) = 77.61888 124.23879 82.75500
#
# Poissons Ratio (x) = 0.50461 0.54881
# Poissons Ratio (y) = 0.31526 -0.03703
# Poissons Ratio (z) = 0.51475 -0.05560
#
# Static dielectric constant tensor:
#      x y z
#    x 4.208510 0.000000 0.000000 
#    y 0.000000 4.146880 0.000000 
#    z 0.000000 0.000000 4.107650 
# 
# 
# High freq. dielectric constant tensor:
#      x y z
#    x 1.905030 0.000000 0.000000 
#    y 0.000000 1.915640 0.000000 
#    z 0.000000 0.000000 1.897690 
# 
# From -- ./inp_files/21086.got.cif
#   From: 2010.03.12/outbox.cif.g09.slc.cpg/sg53_11_cif.got.tgz:21086.got - 2010.04.16 14:36:59.
