data_PCOD8222117
_publ_section_title
;
Structure prediction by ZEFSAII (Michael W. Deem and Ramdas Pophale) SiO2 
 PCOD8222117
Probable space group: P M N A
;
_chemical_formula_sum "Si O2"
_cell_formula_units_Z 64
_cell_length_a 18.377829
_cell_length_b 14.570366
_cell_length_c 11.821536
_cell_angle_alpha 90.000000
_cell_angle_beta 90.000000
_cell_angle_gamma 90.000000
_cell_volume 3165.472730
_symmetry_space_group_name_H-M "P M N A"
_symmetry_group_IT_number 53
_symmetry_cell_setting 'orthorhombic'
loop_
_space_group_symop_operation_xyz
x,y,z
1/2-x,-y,1/2+z
x,-y,-z
1/2-x,y,1/2-z
-x,-y,-z
1/2+x,y,1/2-z
-x,y,z
1/2+x,-y,1/2+z
loop_
_atom_site_type_symbol
_atom_site_label
_atom_site_fract_x
_atom_site_fract_y
_atom_site_fract_z
Si Si1 0.829102 0.536831 0.300570
Si Si2 0.914572 0.170353 0.733847
Si Si3 0.825389 0.326166 0.315027
Si Si4 0.658745 0.743663 0.435087
Si Si5 0.916278 0.203998 0.151361
Si Si6 0.822841 0.279054 0.567163
Si Si7 0.578968 0.576860 0.409939
Si Si8 0.083420 0.998675 0.872360
O O1 0.750000 0.555390 0.250000
O O2 0.835642 0.433169 0.347863
O O3 0.842351 0.617139 0.392874
O O4 0.891646 0.539102 0.207840
O O5 0.892661 0.246602 0.825301
O O6 0.876319 0.201211 0.617218
O O7 0.000000 0.165867 0.709690
O O8 0.882435 0.075032 0.787292
O O9 0.750000 0.310118 0.250000
O O10 0.888604 0.280283 0.239284
O O11 0.826838 0.271871 0.432277
O O12 0.633223 0.805510 0.539009
O O13 0.741915 0.752964 0.398260
O O14 0.639512 0.640069 0.471155
O O15 0.910207 0.098645 0.193811
O O16 0.000000 0.228820 0.121818
O O17 0.566581 0.500000 0.500000
O O18 0.500000 0.623893 0.388342
O O19 0.000000 0.028421 0.888985
O O20 0.118547 0.000000 0.000000
#
# Coordination Sequence:
#
# PCOD8222117 Si02
#       8
#     8   8   8   8   8   8   8   8
#     4  11  22  38  61  88 123 171 219 261 317 390
#     4  11  22  39  65  98 129 164 213 266 323 392
#     4  11  25  42  61  87 128 176 221 267 322 391
#     4  12  21  37  63  93 129 163 208 268 327 386
#     4  11  22  41  69  96 126 165 217 276 330 388
#     4  12  24  41  63  91 135 177 217 264 328 398
#     4  11  23  36  56  92 128 159 207 273 326 371
#     4   9  18  36  66  99 126 159 207 265 331 392
#
# _framework density 20.218149
#
# number of rings (size 3 to 8) (size 9 to 14) (size 15 to 20)
#    0.000    1.000    5.000    2.625    1.750    2.000 
#    0.000    1.875    2.750    4.500    0.000    0.000 
#    0.000    0.000    0.000    0.000    0.000    0.000 
#
# Total GULP energy -793073.113273 kJ/mol
# GULP energy per Si atom -12391.767395 kJ/mol
# Density = 2.017213 g / cm^3
# Si number density = 20.218149 Si / 1000 Ang^3
#
#
#
# Elastic Constant Matrix: (Units=GPa)
#
#
# Indices 1 2 3 4 5 6 
#
# 1 109.1746 38.7121 40.7812 0.0000 0.0000 0.0000
# 2 38.7121 89.6994 37.9485 0.0000 0.0000 0.0000
# 3 40.7812 37.9485 114.4730 0.0000 0.0000 0.0000
# 4 0.0000 0.0000 0.0000 23.4525 0.0000 0.0000
# 5 0.0000 0.0000 0.0000 0.0000 37.1828 0.0000
# 6 0.0000 0.0000 0.0000 0.0000 0.0000 23.0387
#
#
#
# Elastic Compliance Matrix: (Units=1/GPa)
#
#
# Indices 1 2 3 4 5 6 
#
# 1 0.011572 -0.003780 -0.002869 0.000000 0.000000 0.000000
# 2 -0.003780 0.014202 -0.003361 0.000000 0.000000 0.000000
# 3 -0.002869 -0.003361 0.010872 0.000000 0.000000 0.000000
# 4 0.000000 0.000000 0.000000 0.042639 0.000000 0.000000
# 5 0.000000 0.000000 0.000000 0.000000 0.026894 0.000000
# 6 0.000000 0.000000 0.000000 0.000000 0.000000 0.043405
#
#
# Mechanical properties :
#
#
# Convention : Reuss Voigt Hill
#
# Bulk Modulus (GPa) = 60.15328 60.91451 60.53390
# Shear Modulus (GPa) = 28.54734 29.79516 29.17125
#
# Velocity S-wave (km/s) = 3.76169 3.84302 3.80257
# Velocity P-wave (km/s) = 6.97738 7.06299 7.02031
#
# Compressibility (1/GPa) = 0.01662420
#
# Stress axis : x y z
#
# Youngs Moduli (GPa) = 86.41640 70.41350 91.97792
#
# Poissons Ratio (x) = 0.26618 0.26392
# Poissons Ratio (y) = 0.32667 0.30916
# Poissons Ratio (z) = 0.24796 0.23668
#
# Static dielectric constant tensor:
#      x y z
#    x 3.628050 0.000000 0.000000 
#    y 0.000000 3.779750 0.000000 
#    z 0.000000 0.000000 3.575820 
# 
# 
# High freq. dielectric constant tensor:
#      x y z
#    x 1.777440 0.000000 0.000000 
#    y 0.000000 1.794740 0.000000 
#    z 0.000000 0.000000 1.775960 
# 
# From -- ./inp_files/17074.got.cif
#   From: 2010.03.12/outbox.cif.g09.slc.cpg/sg53_9_cif.got.tgz:17074.got - 2010.04.16 14:36:59.
