data_PCOD8222480
_publ_section_title
;
Structure prediction by ZEFSAII (Michael W. Deem and Ramdas Pophale) SiO2 
 PCOD8222480
Probable space group: P C C A
;
_chemical_formula_sum "Si O2"
_cell_formula_units_Z 48
_cell_length_a 18.541058
_cell_length_b 8.602422
_cell_length_c 16.265538
_cell_angle_alpha 90.000000
_cell_angle_beta 90.000000
_cell_angle_gamma 90.000000
_cell_volume 2594.320865
_symmetry_space_group_name_H-M "P C C A"
_symmetry_group_IT_number 54
_symmetry_cell_setting 'orthorhombic'
loop_
_space_group_symop_operation_xyz
x,y,z
1/2-x,-y,z
1/2+x,-y,1/2-z
-x,y,1/2-z
-x,-y,-z
1/2+x,y,-z
1/2-x,y,1/2+z
x,-y,1/2+z
loop_
_atom_site_type_symbol
_atom_site_label
_atom_site_fract_x
_atom_site_fract_y
_atom_site_fract_z
Si Si1 0.926175 0.612729 0.722319
Si Si2 0.818948 0.193482 0.650827
Si Si3 0.561857 0.609474 0.574427
Si Si4 0.322715 0.400294 0.186937
Si Si5 0.841272 0.844229 0.619373
Si Si6 0.408036 0.677891 0.532081
O O1 0.953082 0.494327 0.653367
O O2 0.887160 0.518906 0.794281
O O3 0.870791 0.740620 0.692760
O O4 0.000000 0.696584 0.750000
O O5 0.870884 0.280340 0.588800
O O6 0.814233 0.271805 0.740956
O O7 0.741824 0.200552 0.606469
O O8 0.848714 0.018296 0.653653
O O9 0.490628 0.715300 0.558593
O O10 0.586836 0.499489 0.499750
O O11 0.250000 0.500000 0.173976
O O12 0.348313 0.311953 0.104323
O O13 0.884363 0.805715 0.535656
#
# Coordination Sequence:
#
# PCOD8222480 Si02
#       6
#     8   8   8   8   8   8
#     4  10  18  36  58  83 114 153 194 238 282 339
#     4  10  22  40  58  80 116 162 191 227 290 364
#     4   9  20  36  59  83 117 147 191 242 289 340
#     4  11  21  36  62  88 109 145 200 248 276 332
#     4  10  22  40  56  81 123 159 188 228 300 354
#     4  10  21  36  59  89 112 144 191 250 291 334
#
# _framework density 18.501951999999999
#
# number of rings (size 3 to 8) (size 9 to 14) (size 15 to 20)
#    0.000    2.000    3.333    0.000    2.333    0.667 
#    3.000    5.000    0.000    0.000    0.000    0.000 
#    0.000    0.000    0.000    0.000    0.000    0.000 
#
# Total GULP energy -594957.099343 kJ/mol
# GULP energy per Si atom -12394.939570 kJ/mol
# Density = 1.845984 g / cm^3
# Si number density = 18.501952 Si / 1000 Ang^3
#
#
#
# Elastic Constant Matrix: (Units=GPa)
#
#
# Indices 1 2 3 4 5 6 
#
# 1 86.4310 39.2104 17.0436 0.0000 0.0000 0.0000
# 2 39.2104 75.5540 12.5557 0.0000 0.0000 0.0000
# 3 17.0436 12.5557 55.7478 0.0000 0.0000 0.0000
# 4 0.0000 0.0000 0.0000 15.4739 0.0000 0.0000
# 5 0.0000 0.0000 0.0000 0.0000 30.3596 0.0000
# 6 0.0000 0.0000 0.0000 0.0000 0.0000 23.0137
#
#
#
# Elastic Compliance Matrix: (Units=1/GPa)
#
#
# Indices 1 2 3 4 5 6 
#
# 1 0.015621 -0.007598 -0.003065 0.000000 0.000000 0.000000
# 2 -0.007598 0.017445 -0.001606 0.000000 0.000000 0.000000
# 3 -0.003065 -0.001606 0.019237 0.000000 0.000000 0.000000
# 4 0.000000 0.000000 0.000000 0.064625 0.000000 0.000000
# 5 0.000000 0.000000 0.000000 0.000000 0.032939 0.000000
# 6 0.000000 0.000000 0.000000 0.000000 0.000000 0.043452
#
#
# Mechanical properties :
#
#
# Convention : Reuss Voigt Hill
#
# Bulk Modulus (GPa) = 36.01520 39.48356 37.74938
# Shear Modulus (GPa) = 22.01563 23.69763 22.85663
#
# Velocity S-wave (km/s) = 3.45325 3.58273 3.51859
# Velocity P-wave (km/s) = 5.95044 6.20493 6.07902
#
# Compressibility (1/GPa) = 0.02776605
#
# Stress axis : x y z
#
# Youngs Moduli (GPa) = 64.01657 57.32160 51.98408
#
# Poissons Ratio (x) = 0.43550 0.15931
# Poissons Ratio (y) = 0.48637 0.08351
# Poissons Ratio (z) = 0.19618 0.09208
#
# Static dielectric constant tensor:
#      x y z
#    x 3.643400 0.000000 0.000000 
#    y 0.000000 3.290380 0.000000 
#    z 0.000000 0.000000 3.358630 
# 
# 
# High freq. dielectric constant tensor:
#      x y z
#    x 1.739610 0.000000 0.000000 
#    y 0.000000 1.694890 0.000000 
#    z 0.000000 0.000000 1.713920 
# 
# From -- ./inp_files/14142.got.cif
#   From: 2010.03.12/outbox.cif.g09.slc.cpg/sg54_8_cif.got.tgz:14142.got - 2010.04.16 15:00:50.
