data_PCOD8222535
_publ_section_title
;
Structure prediction by ZEFSAII (Michael W. Deem and Ramdas Pophale) SiO2 
 PCOD8222535
Probable space group: P C C A
;
_chemical_formula_sum "Si O2"
_cell_formula_units_Z 48
_cell_length_a 4.994133
_cell_length_b 18.372880
_cell_length_c 26.064566
_cell_angle_alpha 90.000000
_cell_angle_beta 90.000000
_cell_angle_gamma 90.000000
_cell_volume 2391.596121
_symmetry_space_group_name_H-M "P C C A"
_symmetry_group_IT_number 54
_symmetry_cell_setting 'orthorhombic'
loop_
_space_group_symop_operation_xyz
x,y,z
1/2-x,-y,z
1/2+x,-y,1/2-z
-x,y,1/2-z
-x,-y,-z
1/2+x,y,-z
1/2-x,y,1/2+z
x,-y,1/2+z
loop_
_atom_site_type_symbol
_atom_site_label
_atom_site_fract_x
_atom_site_fract_y
_atom_site_fract_z
Si Si1 0.493328 0.167444 0.128724
Si Si2 0.773078 0.085812 0.969186
Si Si3 0.978561 0.667522 0.694135
Si Si4 0.978563 0.167522 0.194135
Si Si5 0.273078 0.414188 0.030814
Si Si6 0.006673 0.332555 0.628724
O O1 0.381694 0.119278 0.082840
O O2 0.763531 0.132646 0.154011
O O3 0.542477 0.250000 0.108829
O O4 0.274423 0.165268 0.172724
O O5 0.750000 0.000000 0.961823
O O6 0.476543 0.111489 0.985475
O O7 0.874137 0.750000 0.702320
O O8 0.763529 0.632646 0.654012
O O9 0.000000 0.628426 0.750000
O O10 0.274419 0.665268 0.672724
O O11 0.000000 0.128426 0.250000
O O12 0.250000 0.500000 0.038177
O O13 0.381695 0.380722 0.082840
O O14 0.476543 0.388512 0.985475
#
# Coordination Sequence:
#
# PCOD8222535 Si02
#       6
#     8   8   8   8   8   8
#     4  10  19  31  51  77 101 130 168 208 249 293
#     4  10  21  36  52  71  98 134 171 207 254 306
#     4   9  17  30  49  75 105 132 161 200 247 300
#     4   9  17  30  49  75 105 132 161 200 247 300
#     4  10  21  36  52  71  98 134 171 207 254 306
#     4  10  19  31  51  77 101 130 168 208 249 293
#
# _framework density 20.070278999999999
#
# number of rings (size 3 to 8) (size 9 to 14) (size 15 to 20)
#    0.000    2.333    0.000    3.000    0.000    5.333 
#    0.000    0.000    0.000    4.000    0.000    0.000 
#    0.000    0.000    0.000    0.000    0.000    0.000 
#
# Total GULP energy -594807.466413 kJ/mol
# GULP energy per Si atom -12391.822217 kJ/mol
# Density = 2.002460 g / cm^3
# Si number density = 20.070279 Si / 1000 Ang^3
#
#
#
# Elastic Constant Matrix: (Units=GPa)
#
#
# Indices 1 2 3 4 5 6 
#
# 1 91.5337 21.6820 12.4612 0.0000 0.0000 0.0000
# 2 21.6820 18.9549 25.3600 0.0000 0.0000 0.0000
# 3 12.4612 25.3600 101.4162 0.0000 0.0000 0.0000
# 4 0.0000 0.0000 0.0000 3121.5366 0.0000 0.0000
# 5 0.0000 0.0000 0.0000 0.0000 46.3242 0.0000
# 6 0.0000 0.0000 0.0000 0.0000 0.0000 16.8317
#
#
#
# Elastic Compliance Matrix: (Units=1/GPa)
#
#
# Indices 1 2 3 4 5 6 
#
# 1 0.015955 -0.023485 0.003912 0.000000 0.000000 0.000000
# 2 -0.023485 0.113849 -0.025583 0.000000 0.000000 0.000000
# 3 0.003912 -0.025583 0.015777 0.000000 0.000000 0.000000
# 4 0.000000 0.000000 0.000000 0.000320 0.000000 0.000000
# 5 0.000000 0.000000 0.000000 0.000000 0.021587 0.000000
# 6 0.000000 0.000000 0.000000 0.000000 0.000000 0.059412
#
#
# Mechanical properties :
#
#
# Convention : Reuss Voigt Hill
#
# Bulk Modulus (GPa) = 18.09332 36.76793 27.43062
# Shear Modulus (GPa) = 14.89706 647.09861 330.99783
#
# Velocity S-wave (km/s) = 2.72737 17.97544 12.85603
# Velocity P-wave (km/s) = 4.35346 21.19389 15.29924
#
# Compressibility (1/GPa) = 0.05526902
#
# Stress axis : x y z
#
# Youngs Moduli (GPa) = 62.67469 8.78353 63.38328
#
# Poissons Ratio (x) = 0.20628 -0.24797
# Poissons Ratio (y) = 1.47193 1.62156
# Poissons Ratio (z) = -0.24520 0.22471
#
# Static dielectric constant tensor:
#      x y z
#    x 4.078360 0.000000 0.000000 
#    y 0.000000 3.224020 0.000000 
#    z 0.000000 0.000000 3.645460 
# 
# 
# High freq. dielectric constant tensor:
#      x y z
#    x 1.809870 0.000000 0.000000 
#    y 0.000000 1.720430 0.000000 
#    z 0.000000 0.000000 1.793400 
# 
# From -- ./inp_files/22927.got.cif
#   From: 2010.03.12/outbox.cif.g09.slc.cpg/sg54_12_cif.got.tgz:22927.got - 2010.04.16 15:00:50.
