data_PCOD8222586
_publ_section_title
;
Structure prediction by ZEFSAII (Michael W. Deem and Ramdas Pophale) SiO2 
 PCOD8222586
Probable space group: P C C A
;
_chemical_formula_sum "Si O2"
_cell_formula_units_Z 48
_cell_length_a 25.393284
_cell_length_b 10.481510
_cell_length_c 8.540602
_cell_angle_alpha 90.000000
_cell_angle_beta 90.000000
_cell_angle_gamma 90.000000
_cell_volume 2273.166288
_symmetry_space_group_name_H-M "P C C A"
_symmetry_group_IT_number 54
_symmetry_cell_setting 'orthorhombic'
loop_
_space_group_symop_operation_xyz
x,y,z
1/2-x,-y,z
1/2+x,-y,1/2-z
-x,y,1/2-z
-x,-y,-z
1/2+x,y,-z
1/2-x,y,1/2+z
x,-y,1/2+z
loop_
_atom_site_type_symbol
_atom_site_label
_atom_site_fract_x
_atom_site_fract_y
_atom_site_fract_z
Si Si1 0.201137 0.077157 0.588447
Si Si2 0.890185 0.446374 0.939772
Si Si3 0.734769 0.229505 0.686513
Si Si4 0.165828 0.357166 0.854396
Si Si5 0.560696 0.666689 0.233159
Si Si6 0.357458 0.172158 0.605413
O O1 0.217844 0.131720 0.758546
O O2 0.196086 0.186719 0.455866
O O3 0.250000 0.000000 0.517709
O O4 0.150901 0.981692 0.604703
O O5 0.857588 0.357137 0.821329
O O6 0.925432 0.546018 0.842402
O O7 0.848345 0.514559 0.053294
O O8 0.927597 0.360942 0.050202
O O9 0.769832 0.353446 0.646655
O O10 0.694795 0.247048 0.830349
O O11 0.137770 0.233229 0.933323
O O12 0.500000 0.700487 0.250000
O O13 0.592317 0.792696 0.288936
#
# Coordination Sequence:
#
# PCOD8222586 Si02
#       6
#     8   8   8   8   8   8
#     4  10  19  33  55  85 113 148 192 229 285 346
#     4   9  21  38  59  86 115 160 198 247 295 360
#     4  11  20  35  58  85 117 156 189 234 286 362
#     4  10  20  38  54  84 121 151 194 231 296 353
#     4  10  20  39  62  86 116 156 205 256 305 352
#     4  10  22  34  56  89 115 148 198 244 292 354
#
# _framework density 21.115919999999999
#
# number of rings (size 3 to 8) (size 9 to 14) (size 15 to 20)
#    0.000    2.000    3.333    2.000    2.333    0.000 
#    0.000   14.167    0.000    1.000    0.000    0.000 
#    0.000    0.000    0.000    0.000    0.000    0.000 
#
# Total GULP energy -594759.047006 kJ/mol
# GULP energy per Si atom -12390.813479 kJ/mol
# Density = 2.106786 g / cm^3
# Si number density = 21.115920 Si / 1000 Ang^3
#
#
#
# Elastic Constant Matrix: (Units=GPa)
#
#
# Indices 1 2 3 4 5 6 
#
# 1 125.2760 45.4006 43.4614 0.0000 0.0000 0.0000
# 2 45.4006 53.1258 35.2765 0.0000 0.0000 0.0000
# 3 43.4614 35.2765 122.0919 0.0000 0.0000 0.0000
# 4 0.0000 0.0000 0.0000 27.1152 0.0000 0.0000
# 5 0.0000 0.0000 0.0000 0.0000 23.9240 0.0000
# 6 0.0000 0.0000 0.0000 0.0000 0.0000 29.3892
#
#
#
# Elastic Compliance Matrix: (Units=1/GPa)
#
#
# Indices 1 2 3 4 5 6 
#
# 1 0.011809 -0.009034 -0.001594 0.000000 0.000000 0.000000
# 2 -0.009034 0.030203 -0.005511 0.000000 0.000000 0.000000
# 3 -0.001594 -0.005511 0.010350 0.000000 0.000000 0.000000
# 4 0.000000 0.000000 0.000000 0.036880 0.000000 0.000000
# 5 0.000000 0.000000 0.000000 0.000000 0.041799 0.000000
# 6 0.000000 0.000000 0.000000 0.000000 0.000000 0.034026
#
#
# Mechanical properties :
#
#
# Convention : Reuss Voigt Hill
#
# Bulk Modulus (GPa) = 49.78694 60.97454 55.38074
# Shear Modulus (GPa) = 24.50524 27.84269 26.17396
#
# Velocity S-wave (km/s) = 3.41032 3.63514 3.52453
# Velocity P-wave (km/s) = 6.25589 6.82333 6.54576
#
# Compressibility (1/GPa) = 0.02008559
#
# Stress axis : x y z
#
# Youngs Moduli (GPa) = 84.68047 33.10972 96.61774
#
# Poissons Ratio (x) = 0.29910 0.15397
# Poissons Ratio (y) = 0.76498 0.53244
# Poissons Ratio (z) = 0.13494 0.18246
#
# Static dielectric constant tensor:
#      x y z
#    x 3.475100 0.000000 0.000000 
#    y 0.000000 3.796330 0.000000 
#    z 0.000000 0.000000 4.011280 
# 
# 
# High freq. dielectric constant tensor:
#      x y z
#    x 1.781080 0.000000 0.000000 
#    y 0.000000 1.804100 0.000000 
#    z 0.000000 0.000000 1.853830 
# 
# From -- ./inp_files/5144.got.cif
#   From: 2010.03.12/outbox.cif.g09.slc.cpg/sg54_3_cif.got.tgz:5144.got - 2010.04.16 15:00:50.
