data_PCOD8222345
_publ_section_title
;
Structure prediction by ZEFSAII (Michael W. Deem and Ramdas Pophale) SiO2 
 PCOD8222345
Probable space group: P C C A
;
_chemical_formula_sum "Si O2"
_cell_formula_units_Z 48
_cell_length_a 12.546175
_cell_length_b 11.461560
_cell_length_c 17.695288
_cell_angle_alpha 90.000000
_cell_angle_beta 90.000000
_cell_angle_gamma 90.000000
_cell_volume 2544.560075
_symmetry_space_group_name_H-M "P C C A"
_symmetry_group_IT_number 54
_symmetry_cell_setting 'orthorhombic'
loop_
_space_group_symop_operation_xyz
x,y,z
1/2-x,-y,z
1/2+x,-y,1/2-z
-x,y,1/2-z
-x,-y,-z
1/2+x,y,-z
1/2-x,y,1/2+z
x,-y,1/2+z
loop_
_atom_site_type_symbol
_atom_site_label
_atom_site_fract_x
_atom_site_fract_y
_atom_site_fract_z
Si Si1 0.864245 0.313781 0.587306
Si Si2 0.160903 0.902502 0.670262
Si Si3 0.734351 0.865097 0.481938
Si Si4 0.886115 0.306402 0.908455
Si Si5 0.750000 0.500000 0.487085
Si Si6 0.675536 0.229735 0.244250
Si Si7 0.000000 0.953689 0.250000
O O1 0.816142 0.193803 0.555218
O O2 0.821908 0.423254 0.541704
O O3 0.824575 0.320499 0.674801
O O4 0.989853 0.318530 0.577319
O O5 0.153284 0.839834 0.588761
O O6 0.204652 0.817646 0.737283
O O7 0.250000 0.000000 0.656329
O O8 0.046694 0.959642 0.686399
O O9 0.845935 0.804816 0.457013
O O10 0.750000 0.000000 0.502584
O O11 0.870592 0.289723 0.818967
O O12 0.824922 0.422963 0.933405
O O13 0.596831 0.124075 0.218086
#
# Coordination Sequence:
#
# PCOD8222345 Si02
#       7
#     8   8   8   8   4   8   4
#     4  11  21  37  58  85 111 143 191 234 278 330
#     4   8  17  32  50  74 116 152 183 215 256 330
#     4   9  20  35  52  84 120 149 178 221 273 337
#     4  10  20  40  60  76 108 152 188 223 285 333
#     4  10  24  40  58  80 106 146 188 248 282 316
#     4  10  19  34  56  83 108 143 189 230 269 329
#     4  10  16  32  54  80 112 156 186 210 270 330
#
# _framework density 18.863771
#
# number of rings (size 3 to 8) (size 9 to 14) (size 15 to 20)
#    0.000    2.333    1.667    1.500    0.000    3.333 
#    6.000    0.000    0.000    0.000    0.000    0.000 
#    0.000    0.000    0.000    0.000    0.000    0.000 
#
# Total GULP energy -594943.053033 kJ/mol
# GULP energy per Si atom -12394.646938 kJ/mol
# Density = 1.882084 g / cm^3
# Si number density = 18.863771 Si / 1000 Ang^3
#
#
#
# Elastic Constant Matrix: (Units=GPa)
#
#
# Indices 1 2 3 4 5 6 
#
# 1 85.6826 55.0499 68.4528 0.0000 0.0000 0.0000
# 2 55.0499 109.8520 46.4839 0.0000 0.0000 0.0000
# 3 68.4528 46.4839 106.3605 0.0000 0.0000 0.0000
# 4 0.0000 0.0000 0.0000 12.1836 0.0000 0.0000
# 5 0.0000 0.0000 0.0000 0.0000 17.2910 0.0000
# 6 0.0000 0.0000 0.0000 0.0000 0.0000 21.5122
#
#
#
# Elastic Compliance Matrix: (Units=1/GPa)
#
#
# Indices 1 2 3 4 5 6 
#
# 1 0.028925 -0.008119 -0.015068 0.000000 0.000000 0.000000
# 2 -0.008119 0.013448 -0.000652 0.000000 0.000000 0.000000
# 3 -0.015068 -0.000652 0.019384 0.000000 0.000000 0.000000
# 4 0.000000 0.000000 0.000000 0.082078 0.000000 0.000000
# 5 0.000000 0.000000 0.000000 0.000000 0.057833 0.000000
# 6 0.000000 0.000000 0.000000 0.000000 0.000000 0.046485
#
#
# Mechanical properties :
#
#
# Convention : Reuss Voigt Hill
#
# Bulk Modulus (GPa) = 71.02298 71.31871 71.17085
# Shear Modulus (GPa) = 16.63760 18.99126 17.81443
#
# Velocity S-wave (km/s) = 2.97305 3.17639 3.07640
# Velocity P-wave (km/s) = 7.03687 7.16533 7.10139
#
# Compressibility (1/GPa) = 0.01407995
#
# Stress axis : x y z
#
# Youngs Moduli (GPa) = 34.57191 74.36185 51.58861
#
# Poissons Ratio (x) = 0.60377 0.77731
# Poissons Ratio (y) = 0.28070 0.03362
# Poissons Ratio (z) = 0.52091 0.04846
#
# Static dielectric constant tensor:
#      x y z
#    x 3.366620 0.000000 0.000000 
#    y 0.000000 3.449650 0.000000 
#    z 0.000000 0.000000 3.569680 
# 
# 
# High freq. dielectric constant tensor:
#      x y z
#    x 1.721980 0.000000 0.000000 
#    y 0.000000 1.719810 0.000000 
#    z 0.000000 0.000000 1.736940 
# 
# From -- ./inp_files/13441.got.cif
#   From: 2010.03.12/outbox.cif.g09.slc.cpg/sg54_7_cif.got.tgz:13441.got - 2010.04.16 15:00:50.
