data_PCOD8222661
_publ_section_title
;
Structure prediction by ZEFSAII (Michael W. Deem and Ramdas Pophale) SiO2 
 PCOD8222661
Probable space group: P C C A
;
_chemical_formula_sum "Si O2"
_cell_formula_units_Z 48
_cell_length_a 13.328337
_cell_length_b 19.904009
_cell_length_c 8.763925
_cell_angle_alpha 90.000000
_cell_angle_beta 90.000000
_cell_angle_gamma 90.000000
_cell_volume 2324.958348
_symmetry_space_group_name_H-M "P C C A"
_symmetry_group_IT_number 54
_symmetry_cell_setting 'orthorhombic'
loop_
_space_group_symop_operation_xyz
x,y,z
1/2-x,-y,z
1/2+x,-y,1/2-z
-x,y,1/2-z
-x,-y,-z
1/2+x,y,-z
1/2-x,y,1/2+z
x,-y,1/2+z
loop_
_atom_site_type_symbol
_atom_site_label
_atom_site_fract_x
_atom_site_fract_y
_atom_site_fract_z
Si Si1 0.504823 0.326544 0.928012
Si Si2 0.846745 0.414080 0.950319
Si Si3 0.285106 0.713855 0.088177
Si Si4 0.853246 0.218360 0.113745
Si Si5 0.883569 0.931566 0.716430
Si Si6 0.250000 0.000000 0.035285
Si Si7 0.750000 0.500000 0.706483
O O1 0.500000 0.345657 0.750000
O O2 0.615484 0.314122 0.995275
O O3 0.450420 0.254548 0.957468
O O4 0.461167 0.390648 0.020816
O O5 0.792880 0.345674 0.906390
O O6 0.836300 0.467628 0.814294
O O7 0.802455 0.443079 0.107164
O O8 0.314134 0.731799 0.257905
O O9 0.237423 0.780866 0.009320
O O10 0.882452 0.146873 0.180260
O O11 0.837773 0.967345 0.566934
O O12 0.810323 0.946789 0.859398
O O13 0.000000 0.953681 0.750000
#
# Coordination Sequence:
#
# PCOD8222661 Si02
#       7
#     8   8   8   8   8   4   4
#     4   9  18  34  55  79 105 137 174 222 281 332
#     4  10  20  36  54  74 105 140 175 221 273 324
#     4  10  19  36  56  80 107 137 176 228 283 335
#     4  10  20  34  59  84 108 142 181 226 282 333
#     4  11  21  39  61  87 122 161 202 245 290 347
#     4  10  24  38  58  88 122 166 206 240 288 340
#     4  10  20  36  54  74 104 142 182 222 264 328
#
# _framework density 20.645530000000001
#
# number of rings (size 3 to 8) (size 9 to 14) (size 15 to 20)
#    0.000    2.000    0.000    6.000    0.000    0.000 
#    0.000   16.667    0.000    6.000    0.000    0.000 
#    0.000    0.000    0.000    0.000    0.000    0.000 
#
# Total GULP energy -594815.877889 kJ/mol
# GULP energy per Si atom -12391.997456 kJ/mol
# Density = 2.059854 g / cm^3
# Si number density = 20.645530 Si / 1000 Ang^3
#
#
#
# Elastic Constant Matrix: (Units=GPa)
#
#
# Indices 1 2 3 4 5 6 
#
# 1 53.7927 -23.4645 -8.8918 0.0000 0.0000 0.0000
# 2 -23.4645 55.4125 0.7712 0.0000 0.0000 0.0000
# 3 -8.8918 0.7712 46.0581 0.0000 0.0000 0.0000
# 4 0.0000 0.0000 0.0000 29.0208 0.0000 0.0000
# 5 0.0000 0.0000 0.0000 0.0000 32.6981 0.0000
# 6 0.0000 0.0000 0.0000 0.0000 0.0000 30.8400
#
#
#
# Elastic Compliance Matrix: (Units=1/GPa)
#
#
# Indices 1 2 3 4 5 6 
#
# 1 0.023661 0.009958 0.004401 0.000000 0.000000 0.000000
# 2 0.009958 0.022242 0.001550 0.000000 0.000000 0.000000
# 3 0.004401 0.001550 0.022535 0.000000 0.000000 0.000000
# 4 0.000000 0.000000 0.000000 0.034458 0.000000 0.000000
# 5 0.000000 0.000000 0.000000 0.000000 0.030583 0.000000
# 6 0.000000 0.000000 0.000000 0.000000 0.000000 0.032425
#
#
# Mechanical properties :
#
#
# Convention : Reuss Voigt Hill
#
# Bulk Modulus (GPa) = 9.97435 10.23254 10.10344
# Shear Modulus (GPa) = 29.84989 30.96834 30.40911
#
# Velocity S-wave (km/s) = 3.80653 3.87719 3.84202
# Velocity P-wave (km/s) = 4.91541 5.00105 4.95842
#
# Compressibility (1/GPa) = 0.10025715
#
# Stress axis : x y z
#
# Youngs Moduli (GPa) = 42.26335 44.96064 44.37454
#
# Poissons Ratio (x) = -0.44772 -0.19530
# Poissons Ratio (y) = -0.42086 -0.06878
# Poissons Ratio (z) = -0.18601 -0.06969
#
# Static dielectric constant tensor:
#      x y z
#    x 4.251670 0.000000 0.000000 
#    y 0.000000 3.622220 0.000000 
#    z 0.000000 0.000000 3.806650 
# 
# 
# High freq. dielectric constant tensor:
#      x y z
#    x 1.813710 0.000000 0.000000 
#    y 0.000000 1.801380 0.000000 
#    z 0.000000 0.000000 1.803910 
# 
# From -- ./inp_files/3620.got.cif
#   From: 2010.03.12/outbox.cif.g09.slc.cpg/sg54_2_cif.got.tgz:3620.got - 2010.04.16 15:00:50.
