data_PCOD8222735
_publ_section_title
;
Structure prediction by ZEFSAII (Michael W. Deem and Ramdas Pophale) SiO2 
 PCOD8222735
Probable space group: P C C A
;
_chemical_formula_sum "Si O2"
_cell_formula_units_Z 48
_cell_length_a 13.580594
_cell_length_b 15.467081
_cell_length_c 10.691351
_cell_angle_alpha 90.000000
_cell_angle_beta 90.000000
_cell_angle_gamma 90.000000
_cell_volume 2245.741236
_symmetry_space_group_name_H-M "P C C A"
_symmetry_group_IT_number 54
_symmetry_cell_setting 'orthorhombic'
loop_
_space_group_symop_operation_xyz
x,y,z
1/2-x,-y,z
1/2+x,-y,1/2-z
-x,y,1/2-z
-x,-y,-z
1/2+x,y,-z
1/2-x,y,1/2+z
x,-y,1/2+z
loop_
_atom_site_type_symbol
_atom_site_label
_atom_site_fract_x
_atom_site_fract_y
_atom_site_fract_z
Si Si1 0.791138 0.095320 0.202849
Si Si2 0.500000 0.843520 0.250000
Si Si3 0.000000 0.565197 0.250000
Si Si4 0.413055 0.338551 0.037951
Si Si5 0.600220 0.693413 0.393491
Si Si6 0.729502 0.194880 0.452032
Si Si7 0.155903 0.441724 0.323097
O O1 0.746633 0.148500 0.319194
O O2 0.754454 0.132284 0.069895
O O3 0.910696 0.095591 0.201548
O O4 0.750000 0.000000 0.215962
O O5 0.545312 0.781094 0.353292
O O6 0.919748 0.622676 0.323606
O O7 0.936885 0.504543 0.158981
O O8 0.522837 0.352630 0.983513
O O9 0.379200 0.238180 0.045301
O O10 0.333891 0.391674 0.954557
O O11 0.696628 0.723957 0.467508
O O12 0.633524 0.630497 0.282067
O O13 0.250000 0.500000 0.290745
#
# Coordination Sequence:
#
# PCOD8222735 Si02
#       7
#     8   4   4   8   8   8   8
#     4  11  24  47  72 109 141 174 226 293 358 426
#     4  10  19  46  73  94 132 196 216 264 361 432
#     4  12  27  40  59  98 134 174 234 298 343 396
#     4  12  24  43  65  93 137 179 235 284 345 410
#     4  11  21  44  70  93 134 185 230 277 346 419
#     4  11  25  43  73 102 134 186 233 282 346 436
#     4  12  25  43  66  96 136 185 233 293 352 399
#
# _framework density 21.37379
#
# number of rings (size 3 to 8) (size 9 to 14) (size 15 to 20)
#    0.000    0.667    5.000    3.000    4.667    0.667 
#    3.000    2.500    0.000    0.000    0.000    0.000 
#    0.000    0.000    0.000    0.000    0.000    0.000 
#
# Total GULP energy -594971.323119 kJ/mol
# GULP energy per Si atom -12395.235898 kJ/mol
# Density = 2.132514 g / cm^3
# Si number density = 21.373790 Si / 1000 Ang^3
#
#
#
# Elastic Constant Matrix: (Units=GPa)
#
#
# Indices 1 2 3 4 5 6 
#
# 1 102.8944 58.6907 35.4639 0.0000 0.0000 0.0000
# 2 58.6907 122.1376 43.4484 0.0000 0.0000 0.0000
# 3 35.4639 43.4484 108.5488 0.0000 0.0000 0.0000
# 4 0.0000 0.0000 0.0000 28.0048 0.0000 0.0000
# 5 0.0000 0.0000 0.0000 0.0000 26.6144 0.0000
# 6 0.0000 0.0000 0.0000 0.0000 0.0000 46.1878
#
#
#
# Elastic Compliance Matrix: (Units=1/GPa)
#
#
# Indices 1 2 3 4 5 6 
#
# 1 0.013811 -0.005867 -0.002164 0.000000 0.000000 0.000000
# 2 -0.005867 0.012039 -0.002902 0.000000 0.000000 0.000000
# 3 -0.002164 -0.002902 0.011081 0.000000 0.000000 0.000000
# 4 0.000000 0.000000 0.000000 0.035708 0.000000 0.000000
# 5 0.000000 0.000000 0.000000 0.000000 0.037574 0.000000
# 6 0.000000 0.000000 0.000000 0.000000 0.000000 0.021651
#
#
# Mechanical properties :
#
#
# Convention : Reuss Voigt Hill
#
# Bulk Modulus (GPa) = 66.37701 67.64297 67.00999
# Shear Modulus (GPa) = 31.49589 33.22657 32.36123
#
# Velocity S-wave (km/s) = 3.84288 3.94705 3.89532
# Velocity P-wave (km/s) = 7.12833 7.24490 7.18685
#
# Compressibility (1/GPa) = 0.01506546
#
# Stress axis : x y z
#
# Youngs Moduli (GPa) = 72.40649 83.06325 90.24450
#
# Poissons Ratio (x) = 0.48731 0.19528
# Poissons Ratio (y) = 0.42479 0.26190
# Poissons Ratio (z) = 0.15668 0.24106
#
# Static dielectric constant tensor:
#      x y z
#    x 4.335950 0.000000 0.000000 
#    y 0.000000 3.824740 0.000000 
#    z 0.000000 0.000000 3.746130 
# 
# 
# High freq. dielectric constant tensor:
#      x y z
#    x 1.847270 0.000000 0.000000 
#    y 0.000000 1.835180 0.000000 
#    z 0.000000 0.000000 1.835120 
# 
# From -- ./inp_files/3599.got.cif
#   From: 2010.03.12/outbox.cif.g09.slc.cpg/sg54_2_cif.got.tgz:3599.got - 2010.04.16 15:00:50.
