data_PCOD8222556
_publ_section_title
;
Structure prediction by ZEFSAII (Michael W. Deem and Ramdas Pophale) SiO2 
 PCOD8222556
Probable space group: P C C A
;
_chemical_formula_sum "Si O2"
_cell_formula_units_Z 56
_cell_length_a 5.177036
_cell_length_b 15.661050
_cell_length_c 32.481706
_cell_angle_alpha 90.000000
_cell_angle_beta 90.000000
_cell_angle_gamma 90.000000
_cell_volume 2633.545901
_symmetry_space_group_name_H-M "P C C A"
_symmetry_group_IT_number 54
_symmetry_cell_setting 'orthorhombic'
loop_
_space_group_symop_operation_xyz
x,y,z
1/2-x,-y,z
1/2+x,-y,1/2-z
-x,y,1/2-z
-x,-y,-z
1/2+x,y,-z
1/2-x,y,1/2+z
x,-y,1/2+z
loop_
_atom_site_type_symbol
_atom_site_label
_atom_site_fract_x
_atom_site_fract_y
_atom_site_fract_z
Si Si1 0.501286 0.444360 0.394769
Si Si2 0.652975 0.909939 0.141785
Si Si3 0.106731 0.241628 0.294117
Si Si4 0.611329 0.306765 0.329713
Si Si5 0.298989 0.181857 0.515380
Si Si6 0.349422 0.155064 0.106562
Si Si7 0.612522 0.629396 0.519584
O O1 0.250000 0.500000 0.386604
O O2 0.555576 0.395002 0.352526
O O3 0.440444 0.378969 0.431930
O O4 0.750000 0.500000 0.406720
O O5 0.635103 0.843297 0.178909
O O6 0.372029 0.912695 0.120231
O O7 0.867648 0.887466 0.106915
O O8 0.750000 0.000000 0.160627
O O9 0.386005 0.288312 0.295850
O O10 0.000000 0.211215 0.250000
O O11 0.893517 0.310452 0.309162
O O12 0.632114 0.232890 0.362771
O O13 0.570322 0.131683 0.509092
O O14 0.225726 0.193583 0.562644
O O15 0.377440 0.271190 0.492980
O O16 0.381855 0.584712 0.493195
#
# Coordination Sequence:
#
# PCOD8222556 Si02
#       7
#     8   8   8   8   8   8   8
#     4  12  25  39  58  85 120 158 196 248 307 355
#     4  10  21  38  61  91 123 153 186 231 293 356
#     4  10  21  39  66  95 118 149 190 236 289 349
#     4  10  21  39  61  85 118 156 200 239 281 352
#     4  10  19  32  54  80 107 145 202 254 288 327
#     4  10  20  36  60  84 113 160 205 239 279 347
#     4  10  21  35  52  78 113 149 192 241 295 344
#
# _framework density 21.264106000000002
#
# number of rings (size 3 to 8) (size 9 to 14) (size 15 to 20)
#    0.000    1.714    0.000    5.143    0.000    8.571 
#    0.000    4.286    0.000   17.143    0.000    0.000 
#    0.000    0.000    0.000    0.000    0.000    0.000 
#
# Total GULP energy -693892.697134 kJ/mol
# GULP energy per Si atom -12390.941020 kJ/mol
# Density = 2.121571 g / cm^3
# Si number density = 21.264106 Si / 1000 Ang^3
#
#
#
# Elastic Constant Matrix: (Units=GPa)
#
#
# Indices 1 2 3 4 5 6 
#
# 1 158.8921 19.3041 43.4678 0.0000 0.0000 0.0000
# 2 19.3041 58.5996 30.2285 0.0000 0.0000 0.0000
# 3 43.4678 30.2285 101.2654 0.0000 0.0000 0.0000
# 4 0.0000 0.0000 0.0000 21.2053 0.0000 0.0000
# 5 0.0000 0.0000 0.0000 0.0000 34.5025 0.0000
# 6 0.0000 0.0000 0.0000 0.0000 0.0000 26.7945
#
#
#
# Elastic Compliance Matrix: (Units=1/GPa)
#
#
# Indices 1 2 3 4 5 6 
#
# 1 0.007172 -0.000916 -0.002805 0.000000 0.000000 0.000000
# 2 -0.000916 0.020288 -0.005663 0.000000 0.000000 0.000000
# 3 -0.002805 -0.005663 0.012770 0.000000 0.000000 0.000000
# 4 0.000000 0.000000 0.000000 0.047158 0.000000 0.000000
# 5 0.000000 0.000000 0.000000 0.000000 0.028983 0.000000
# 6 0.000000 0.000000 0.000000 0.000000 0.000000 0.037321
#
#
# Mechanical properties :
#
#
# Convention : Reuss Voigt Hill
#
# Bulk Modulus (GPa) = 46.59442 56.08421 51.33931
# Shear Modulus (GPa) = 27.83744 31.55092 29.69418
#
# Velocity S-wave (km/s) = 3.62211 3.85615 3.74096
# Velocity P-wave (km/s) = 6.28114 6.80138 6.54643
#
# Compressibility (1/GPa) = 0.02146180
#
# Stress axis : x y z
#
# Youngs Moduli (GPa) = 139.42582 49.29059 78.31034
#
# Poissons Ratio (x) = 0.04513 0.21969
# Poissons Ratio (y) = 0.12765 0.44348
# Poissons Ratio (z) = 0.39114 0.27914
#
# Static dielectric constant tensor:
#      x y z
#    x 5.233620 0.000000 0.000000 
#    y 0.000000 3.492510 0.000000 
#    z 0.000000 0.000000 3.679950 
# 
# 
# High freq. dielectric constant tensor:
#      x y z
#    x 1.876450 0.000000 0.000000 
#    y 0.000000 1.797540 0.000000 
#    z 0.000000 0.000000 1.815290 
# 
# From -- ./inp_files/27224.got.cif
#   From: 2010.03.12/outbox.cif.g09.slc.cpg/sg54_14_cif.got.tgz:27224.got - 2010.04.16 15:00:50.
