data_PCOD8222646
_publ_section_title
;
Structure prediction by ZEFSAII (Michael W. Deem and Ramdas Pophale) SiO2 
 PCOD8222646
Probable space group: P C C A
;
_chemical_formula_sum "Si O2"
_cell_formula_units_Z 56
_cell_length_a 18.611305
_cell_length_b 9.133588
_cell_length_c 16.719379
_cell_angle_alpha 90.000000
_cell_angle_beta 90.000000
_cell_angle_gamma 90.000000
_cell_volume 2842.093664
_symmetry_space_group_name_H-M "P C C A"
_symmetry_group_IT_number 54
_symmetry_cell_setting 'orthorhombic'
loop_
_space_group_symop_operation_xyz
x,y,z
1/2-x,-y,z
1/2+x,-y,1/2-z
-x,y,1/2-z
-x,-y,-z
1/2+x,y,-z
1/2-x,y,1/2+z
x,-y,1/2+z
loop_
_atom_site_type_symbol
_atom_site_label
_atom_site_fract_x
_atom_site_fract_y
_atom_site_fract_z
Si Si1 0.323280 0.911851 0.813663
Si Si2 0.566941 0.839043 0.149600
Si Si3 0.827901 0.971922 0.364630
Si Si4 0.667699 0.533284 0.420845
Si Si5 0.907626 0.245168 0.316292
Si Si6 0.862334 0.240734 0.996035
Si Si7 0.222197 0.339841 0.924304
O O1 0.330630 0.880774 0.718706
O O2 0.319839 0.752825 0.856736
O O3 0.250000 0.000000 0.831365
O O4 0.393833 0.001551 0.844715
O O5 0.599688 0.736675 0.220241
O O6 0.481686 0.837131 0.161908
O O7 0.576201 0.768958 0.062626
O O8 0.872019 0.893599 0.434732
O O9 0.750000 0.000000 0.399929
O O10 0.849055 0.136860 0.349110
O O11 0.750000 0.500000 0.390763
O O12 0.613792 0.599996 0.354853
O O13 0.627837 0.384350 0.443180
O O14 0.669947 0.634564 0.499968
O O15 0.787710 0.240568 0.044540
O O16 0.250000 0.500000 0.892672
#
# Coordination Sequence:
#
# PCOD8222646 Si02
#       7
#     8   8   8   8   8   8   8
#     4  10  19  35  58  87 111 157 202 243 300 358
#     4  10  22  37  62  83 122 158 200 243 305 360
#     4  10  21  35  58  84 113 145 197 250 297 350
#     4   9  20  38  58  86 117 150 199 250 299 356
#     4  10  22  41  58  86 120 158 196 244 305 368
#     4  10  20  36  55  86 113 148 195 244 292 357
#     4   9  19  36  55  87 120 148 193 250 301 345
#
# _framework density 19.703783999999999
#
# number of rings (size 3 to 8) (size 9 to 14) (size 15 to 20)
#    0.000    2.571    1.429    1.714    4.000    1.143 
#    5.143    1.429    0.000    1.714    0.000    0.000 
#    0.000    0.000    0.000    0.000    0.000    0.000 
#
# Total GULP energy -693776.269108 kJ/mol
# GULP energy per Si atom -12388.861948 kJ/mol
# Density = 1.965894 g / cm^3
# Si number density = 19.703784 Si / 1000 Ang^3
#
#
#
# Elastic Constant Matrix: (Units=GPa)
#
#
# Indices 1 2 3 4 5 6 
#
# 1 66.1542 23.0486 26.3452 0.0000 0.0000 0.0000
# 2 23.0486 57.8279 48.6422 0.0000 0.0000 0.0000
# 3 26.3452 48.6422 106.0682 0.0000 0.0000 0.0000
# 4 0.0000 0.0000 0.0000 31.4930 0.0000 0.0000
# 5 0.0000 0.0000 0.0000 0.0000 63.5215 0.0000
# 6 0.0000 0.0000 0.0000 0.0000 0.0000 25.5553
#
#
#
# Elastic Compliance Matrix: (Units=1/GPa)
#
#
# Indices 1 2 3 4 5 6 
#
# 1 0.017786 -0.005491 -0.001899 0.000000 0.000000 0.000000
# 2 -0.005491 0.029848 -0.012324 0.000000 0.000000 0.000000
# 3 -0.001899 -0.012324 0.015551 0.000000 0.000000 0.000000
# 4 0.000000 0.000000 0.000000 0.031753 0.000000 0.000000
# 5 0.000000 0.000000 0.000000 0.000000 0.015743 0.000000
# 6 0.000000 0.000000 0.000000 0.000000 0.000000 0.039131
#
#
# Mechanical properties :
#
#
# Convention : Reuss Voigt Hill
#
# Bulk Modulus (GPa) = 42.09538 47.34692 44.72115
# Shear Modulus (GPa) = 25.36015 32.91490 29.13753
#
# Velocity S-wave (km/s) = 3.59147 4.09159 3.84966
# Velocity P-wave (km/s) = 6.21359 6.81198 6.51965
#
# Compressibility (1/GPa) = 0.02375558
#
# Stress axis : x y z
#
# Youngs Moduli (GPa) = 56.22463 33.50327 64.30273
#
# Poissons Ratio (x) = 0.18397 0.12214
# Poissons Ratio (y) = 0.30874 0.79247
# Poissons Ratio (z) = 0.10679 0.41290
#
# Static dielectric constant tensor:
#      x y z
#    x 3.378350 0.000000 0.000000 
#    y 0.000000 3.595650 0.000000 
#    z 0.000000 0.000000 3.768870 
# 
# 
# High freq. dielectric constant tensor:
#      x y z
#    x 1.741490 0.000000 0.000000 
#    y 0.000000 1.753900 0.000000 
#    z 0.000000 0.000000 1.776530 
# 
# From -- ./inp_files/18892.got.cif
#   From: 2010.03.12/outbox.cif.g09.slc.cpg/sg54_10_cif.got.tgz:18892.got - 2010.04.16 15:00:50.
