data_PCOD8222806
_publ_section_title
;
Structure prediction by ZEFSAII (Michael W. Deem and Ramdas Pophale) SiO2 
 PCOD8222806
Probable space group: P C C A
;
_chemical_formula_sum "Si O2"
_cell_formula_units_Z 60
_cell_length_a 14.910699
_cell_length_b 7.421226
_cell_length_c 25.006692
_cell_angle_alpha 90.000000
_cell_angle_beta 90.000000
_cell_angle_gamma 90.000000
_cell_volume 2767.132185
_symmetry_space_group_name_H-M "P C C A"
_symmetry_group_IT_number 54
_symmetry_cell_setting 'orthorhombic'
loop_
_space_group_symop_operation_xyz
x,y,z
1/2-x,-y,z
1/2+x,-y,1/2-z
-x,y,1/2-z
-x,-y,-z
1/2+x,y,-z
1/2-x,y,1/2+z
x,-y,1/2+z
loop_
_atom_site_type_symbol
_atom_site_label
_atom_site_fract_x
_atom_site_fract_y
_atom_site_fract_z
Si Si1 0.969295 0.798907 0.045058
Si Si2 0.654351 0.306143 0.485487
Si Si3 0.093991 0.438079 0.407174
Si Si4 0.250000 0.500000 0.831251
Si Si5 0.157018 0.109623 0.158728
Si Si6 0.679925 0.845433 0.224222
Si Si7 0.034784 0.924900 0.864587
Si Si8 0.155815 0.709442 0.548673
O O1 0.964395 0.596048 0.067514
O O2 0.074635 0.829053 0.032398
O O3 0.931219 0.945606 0.087124
O O4 0.917963 0.811734 0.988108
O O5 0.654982 0.339030 0.548891
O O6 0.748521 0.215025 0.471704
O O7 0.645654 0.496498 0.455751
O O8 0.160283 0.531138 0.365168
O O9 0.028341 0.284974 0.383194
O O10 0.265411 0.324682 0.796260
O O11 0.144978 0.205541 0.216450
O O12 0.150406 0.253238 0.111460
O O13 0.063150 0.997264 0.152762
O O14 0.250000 0.000000 0.153570
O O15 0.603581 0.923115 0.184971
O O16 0.750000 0.000000 0.233497
#
# Coordination Sequence:
#
# PCOD8222806 Si02
#       8
#     8   8   8   4   8   8   8   8
#     4  11  21  37  60  87 122 160 197 241 302 369
#     4  10  20  35  56  86 124 158 193 243 301 362
#     4  10  20  37  59  88 123 153 194 249 298 359
#     4  10  20  38  64  88 112 154 204 248 304 362
#     4  11  23  40  59  84 122 160 201 252 301 360
#     4  10  23  42  63  88 118 154 202 257 306 356
#     4  11  23  39  63  89 118 158 203 251 304 359
#     4  10  21  36  56  85 120 158 198 242 301 364
#
# _framework density 21.683098999999999
#
# number of rings (size 3 to 8) (size 9 to 14) (size 15 to 20)
#    0.000    1.600    0.000    6.800    0.000    5.333 
#    0.000    2.667    0.000    6.400    0.000    0.000 
#    0.000    0.000    0.000    0.000    0.000    0.000 
#
# Total GULP energy -743593.484503 kJ/mol
# GULP energy per Si atom -12393.224742 kJ/mol
# Density = 2.163375 g / cm^3
# Si number density = 21.683099 Si / 1000 Ang^3
#
#
#
# Elastic Constant Matrix: (Units=GPa)
#
#
# Indices 1 2 3 4 5 6 
#
# 1 124.4527 33.6775 46.0456 0.0000 0.0000 0.0000
# 2 33.6775 53.0284 39.9827 0.0000 0.0000 0.0000
# 3 46.0456 39.9827 164.0149 0.0000 0.0000 0.0000
# 4 0.0000 0.0000 0.0000 23.0605 0.0000 0.0000
# 5 0.0000 0.0000 0.0000 0.0000 26.4361 0.0000
# 6 0.0000 0.0000 0.0000 0.0000 0.0000 20.7255
#
#
#
# Elastic Compliance Matrix: (Units=1/GPa)
#
#
# Indices 1 2 3 4 5 6 
#
# 1 0.010012 -0.005194 -0.001545 0.000000 0.000000 0.000000
# 2 -0.005194 0.025799 -0.004831 0.000000 0.000000 0.000000
# 3 -0.001545 -0.004831 0.007708 0.000000 0.000000 0.000000
# 4 0.000000 0.000000 0.000000 0.043364 0.000000 0.000000
# 5 0.000000 0.000000 0.000000 0.000000 0.037827 0.000000
# 6 0.000000 0.000000 0.000000 0.000000 0.000000 0.048250
#
#
# Mechanical properties :
#
#
# Convention : Reuss Voigt Hill
#
# Bulk Modulus (GPa) = 49.06710 64.54529 56.80620
# Shear Modulus (GPa) = 24.64354 28.83044 26.73699
#
# Velocity S-wave (km/s) = 3.37491 3.65036 3.51533
# Velocity P-wave (km/s) = 6.15345 6.89921 6.53697
#
# Compressibility (1/GPa) = 0.02038025
#
# Stress axis : x y z
#
# Youngs Moduli (GPa) = 99.87828 38.76138 129.72983
#
# Poissons Ratio (x) = 0.20132 0.20039
# Poissons Ratio (y) = 0.51876 0.62672
# Poissons Ratio (z) = 0.15428 0.18726
#
# Static dielectric constant tensor:
#      x y z
#    x 4.218920 0.000000 0.000000 
#    y 0.000000 3.596480 0.000000 
#    z 0.000000 0.000000 4.173970 
# 
# 
# High freq. dielectric constant tensor:
#      x y z
#    x 1.866970 0.000000 0.000000 
#    y 0.000000 1.833850 0.000000 
#    z 0.000000 0.000000 1.859290 
# 
# From -- ./inp_files/24461.got.cif
#   From: 2010.03.12/outbox.cif.g09.slc.cpg/sg54_13_cif.got.tgz:24461.got - 2010.04.16 15:00:50.
