data_PCOD8222691
_publ_section_title
;
Structure prediction by ZEFSAII (Michael W. Deem and Ramdas Pophale) SiO2 
 PCOD8222691
Probable space group: P C C A
;
_chemical_formula_sum "Si O2"
_cell_formula_units_Z 40
_cell_length_a 8.357115
_cell_length_b 16.114987
_cell_length_c 13.905569
_cell_angle_alpha 90.000000
_cell_angle_beta 90.000000
_cell_angle_gamma 90.000000
_cell_volume 1872.729718
_symmetry_space_group_name_H-M "P C C A"
_symmetry_group_IT_number 54
_symmetry_cell_setting 'orthorhombic'
loop_
_space_group_symop_operation_xyz
x,y,z
1/2-x,-y,z
1/2+x,-y,1/2-z
-x,y,1/2-z
-x,-y,-z
1/2+x,y,-z
1/2-x,y,1/2+z
x,-y,1/2+z
loop_
_atom_site_type_symbol
_atom_site_label
_atom_site_fract_x
_atom_site_fract_y
_atom_site_fract_z
Si Si1 0.124754 0.559139 0.050921
Si Si2 0.366759 0.184106 0.575012
Si Si3 0.309527 0.906840 0.416830
Si Si4 0.144423 0.671562 0.430569
Si Si5 0.814153 0.789777 0.231651
O O1 0.250000 0.500000 0.111434
O O2 0.228659 0.607056 0.971392
O O3 0.000000 0.500000 0.000000
O O4 0.017699 0.625475 0.109954
O O5 0.228899 0.138047 0.516775
O O6 0.503341 0.115197 0.597084
O O7 0.420744 0.263716 0.511870
O O8 0.293835 0.218284 0.674217
O O9 0.215848 0.876113 0.322775
O O10 0.250000 0.000000 0.428549
O O11 0.233593 0.716291 0.342092
O O12 0.000000 0.784034 0.250000
#
# Coordination Sequence:
#
# PCOD8222691 Si02
#       5
#     8   8   8   8   8
#     4   9  18  33  60  89 117 157 197 244 307 361
#     4  11  22  40  63  88 120 163 209 253 309 370
#     4  11  24  40  60  89 121 159 205 258 312 366
#     4  10  19  37  61  87 119 159 206 251 301 367
#     4  11  23  38  60  91 122 162 209 254 306 366
#
# _framework density 21.359195
#
# number of rings (size 3 to 8) (size 9 to 14) (size 15 to 20)
#    0.000    1.600    0.000    7.200    0.000    2.400 
#    0.000    0.000    0.000   45.600    0.000    0.000 
#    0.000    0.000    0.000    0.000    0.000    0.000 
#
# Total GULP energy -495525.435449 kJ/mol
# GULP energy per Si atom -12388.135886 kJ/mol
# Density = 2.131058 g / cm^3
# Si number density = 21.359195 Si / 1000 Ang^3
#
#
#
# Elastic Constant Matrix: (Units=GPa)
#
#
# Indices 1 2 3 4 5 6 
#
# 1 105.0381 52.3575 25.0397 0.0000 0.0000 0.0000
# 2 52.3575 110.3488 48.1963 0.0000 0.0000 0.0000
# 3 25.0397 48.1963 107.1953 0.0000 0.0000 0.0000
# 4 0.0000 0.0000 0.0000 -32.5312 0.0000 0.0000
# 5 0.0000 0.0000 0.0000 0.0000 29.5939 0.0000
# 6 0.0000 0.0000 0.0000 0.0000 0.0000 39.8118
#
#
#
# Elastic Compliance Matrix: (Units=1/GPa)
#
#
# Indices 1 2 3 4 5 6 
#
# 1 0.012478 -0.005783 -0.000315 0.000000 0.000000 0.000000
# 2 -0.005783 0.013957 -0.004924 0.000000 0.000000 0.000000
# 3 -0.000315 -0.004924 0.011616 0.000000 0.000000 0.000000
# 4 0.000000 0.000000 0.000000 -0.030740 0.000000 0.000000
# 5 0.000000 0.000000 0.000000 0.000000 0.033791 0.000000
# 6 0.000000 0.000000 0.000000 0.000000 0.000000 0.025118
#
#
# Mechanical properties :
#
#
# Convention : Reuss Voigt Hill
#
# Bulk Modulus (GPa) = 62.47194 63.75214 63.11204
# Shear Modulus (GPa) = 53.41883 20.50747 36.96315
#
# Velocity S-wave (km/s) = 5.00640 3.10195 4.16450
# Velocity P-wave (km/s) = 7.92026 6.53773 7.26197
#
# Compressibility (1/GPa) = 0.01600719
#
# Stress axis : x y z
#
# Youngs Moduli (GPa) = 80.14116 71.64954 86.08613
#
# Poissons Ratio (x) = 0.41435 0.02708
# Poissons Ratio (y) = 0.46346 0.42391
# Poissons Ratio (z) = 0.02521 0.35282
#
# Static dielectric constant tensor:
#      x y z
#    x 4.224180 0.000000 0.000000 
#    y 0.000000 4.313030 0.000000 
#    z 0.000000 0.000000 3.824140 
# 
# 
# High freq. dielectric constant tensor:
#      x y z
#    x 1.855980 0.000000 0.000000 
#    y 0.000000 1.851250 0.000000 
#    z 0.000000 0.000000 1.806880 
# 
# From -- ./inp_files/11461.got.cif
#   From: 2010.03.12/outbox.cif.g09.slc.cpg/sg54_6_cif.got.tgz:11461.got - 2010.04.16 15:00:50.
