data_PCOD8222667
_publ_section_title
;
Structure prediction by ZEFSAII (Michael W. Deem and Ramdas Pophale) SiO2 
 PCOD8222667
Probable space group: P C C A
;
_chemical_formula_sum "Si O2"
_cell_formula_units_Z 32
_cell_length_a 4.944375
_cell_length_b 21.779652
_cell_length_c 13.841173
_cell_angle_alpha 90.000000
_cell_angle_beta 90.000000
_cell_angle_gamma 90.000000
_cell_volume 1490.511170
_symmetry_space_group_name_H-M "P C C A"
_symmetry_group_IT_number 54
_symmetry_cell_setting 'orthorhombic'
loop_
_space_group_symop_operation_xyz
x,y,z
1/2-x,-y,z
1/2+x,-y,1/2-z
-x,y,1/2-z
-x,-y,-z
1/2+x,y,-z
1/2-x,y,1/2+z
x,-y,1/2+z
loop_
_atom_site_type_symbol
_atom_site_label
_atom_site_fract_x
_atom_site_fract_y
_atom_site_fract_z
Si Si1 0.059577 0.611422 0.435678
Si Si2 0.500000 0.041264 0.250000
Si Si3 0.750000 0.500000 0.691069
Si Si4 0.671328 0.258421 0.062187
Si Si5 0.441115 0.873666 0.931238
O O1 0.250362 0.606896 0.530065
O O2 0.118484 0.555083 0.367395
O O3 0.105116 0.677623 0.381659
O O4 0.594461 0.080739 0.158024
O O5 0.750000 0.000000 0.283499
O O6 0.500000 0.471330 0.750000
O O7 0.593155 0.194904 0.115894
O O8 0.488234 0.258643 0.964202
O O9 0.726602 0.884137 0.983107
#
# Coordination Sequence:
#
# PCOD8222667 Si02
#       5
#     8   4   4   8   8
#     4  10  19  36  60  80 104 150 198 233 281 348
#     4  12  26  40  60  92 124 158 206 240 288 370
#     4  12  24  36  50  80 124 148 184 240 292 344
#     4   8  16  32  58  83 105 139 190 238 281 338
#     4  10  21  40  63  87 121 158 196 249 299 345
#
# _framework density 21.469142999999999
#
# number of rings (size 3 to 8) (size 9 to 14) (size 15 to 20)
#    0.000    2.000    0.000    3.750    0.000    3.000 
#    2.250    0.000    2.750    0.000    0.000    0.000 
#    0.000    0.000    0.000    0.000    0.000    0.000 
#
# Total GULP energy -396511.246558 kJ/mol
# GULP energy per Si atom -12390.976455 kJ/mol
# Density = 2.142028 g / cm^3
# Si number density = 21.469143 Si / 1000 Ang^3
#
#
#
# Elastic Constant Matrix: (Units=GPa)
#
#
# Indices 1 2 3 4 5 6 
#
# 1 87.7290 12.9812 4.4394 0.0000 0.0000 0.0000
# 2 12.9812 157.5082 45.2082 0.0000 0.0000 0.0000
# 3 4.4394 45.2082 51.4978 0.0000 0.0000 0.0000
# 4 0.0000 0.0000 0.0000 -6.3648 0.0000 0.0000
# 5 0.0000 0.0000 0.0000 0.0000 -48.5638 0.0000
# 6 0.0000 0.0000 0.0000 0.0000 0.0000 33.8394
#
#
#
# Elastic Compliance Matrix: (Units=1/GPa)
#
#
# Indices 1 2 3 4 5 6 
#
# 1 0.011541 -0.000890 -0.000214 0.000000 0.000000 0.000000
# 2 -0.000890 0.008556 -0.007434 0.000000 0.000000 0.000000
# 3 -0.000214 -0.007434 0.025963 0.000000 0.000000 0.000000
# 4 0.000000 0.000000 0.000000 -0.157114 0.000000 0.000000
# 5 0.000000 0.000000 0.000000 0.000000 -0.020591 0.000000
# 6 0.000000 0.000000 0.000000 0.000000 0.000000 0.029551
#
#
# Mechanical properties :
#
#
# Convention : Reuss Voigt Hill
#
# Bulk Modulus (GPa) = 34.50124 46.88808 40.69466
# Shear Modulus (GPa) = -66.35111 11.38924 -27.48094
#
# Velocity S-wave (km/s) = -5.56529 2.30574 -3.58162
# Velocity P-wave (km/s) = 5.01912 5.38291 1.37554
#
# Compressibility (1/GPa) = 0.02898446
#
# Stress axis : x y z
#
# Youngs Moduli (GPa) = 86.64592 116.87662 38.51618
#
# Poissons Ratio (x) = 0.10400 0.00823
# Poissons Ratio (y) = 0.07710 0.28634
# Poissons Ratio (z) = 0.01852 0.86890
#
# Static dielectric constant tensor:
#      x y z
#    x 4.257620 0.000000 0.000000 
#    y 0.000000 4.378450 0.000000 
#    z 0.000000 0.000000 3.227580 
# 
# 
# High freq. dielectric constant tensor:
#      x y z
#    x 1.868930 0.000000 0.000000 
#    y 0.000000 1.872070 0.000000 
#    z 0.000000 0.000000 1.774780 
# 
# From -- ./inp_files/6271.got.cif
#   From: 2010.03.12/outbox.cif.g09.slc.cpg/sg54_4_cif.got.tgz:6271.got - 2010.04.16 15:00:50.
