data_PCOD8222791
_publ_section_title
;
Structure prediction by ZEFSAII (Michael W. Deem and Ramdas Pophale) SiO2 
 PCOD8222791
Probable space group: P C C A
;
_chemical_formula_sum "Si O2"
_cell_formula_units_Z 44
_cell_length_a 13.211553
_cell_length_b 12.073668
_cell_length_c 13.804744
_cell_angle_alpha 90.000000
_cell_angle_beta 90.000000
_cell_angle_gamma 90.000000
_cell_volume 2202.021009
_symmetry_space_group_name_H-M "P C C A"
_symmetry_group_IT_number 54
_symmetry_cell_setting 'orthorhombic'
loop_
_space_group_symop_operation_xyz
x,y,z
1/2-x,-y,z
1/2+x,-y,1/2-z
-x,y,1/2-z
-x,-y,-z
1/2+x,y,-z
1/2-x,y,1/2+z
x,-y,1/2+z
loop_
_atom_site_type_symbol
_atom_site_label
_atom_site_fract_x
_atom_site_fract_y
_atom_site_fract_z
Si Si1 0.966846 0.344850 0.519417
Si Si2 0.887805 0.632258 0.217874
Si Si3 0.861118 0.515403 0.404687
Si Si4 0.413231 0.910211 0.979368
Si Si5 0.118665 0.128294 0.768340
Si Si6 0.250000 0.000000 0.116741
O O1 0.893127 0.397191 0.603582
O O2 0.927762 0.403829 0.421017
O O3 0.962250 0.212550 0.511977
O O4 0.082806 0.380456 0.543367
O O5 0.846175 0.536055 0.288530
O O6 0.830095 0.749339 0.230352
O O7 0.000000 0.660572 0.250000
O O8 0.750000 0.500000 0.450207
O O9 0.366424 0.929568 0.872778
O O10 0.318827 0.918829 0.052161
O O11 0.500000 0.000000 0.000000
O O12 0.000000 0.129288 0.750000
O O13 0.172934 0.065934 0.682673
#
# Coordination Sequence:
#
# PCOD8222791 Si02
#       6
#     8   8   8   8   8   4
#     4   9  21  39  57  90 124 158 203 263 317 370
#     4   8  17  35  60  78 112 161 194 244 314 377
#     4  10  20  34  62  85 117 158 212 250 310 375
#     4  11  23  40  66  94 131 173 214 265 327 398
#     4  10  20  40  61  89 125 167 210 258 325 388
#     4  12  24  36  70  92 128 168 218 264 322 396
#
# _framework density 19.981642999999998
#
# number of rings (size 3 to 8) (size 9 to 14) (size 15 to 20)
#    0.000    2.182    1.818    1.636    2.545    0.727 
#    0.000    0.000   20.000    0.000    0.000    0.000 
#    0.000    0.000    0.000    0.000    0.000    0.000 
#
# Total GULP energy -545093.272965 kJ/mol
# GULP energy per Si atom -12388.483476 kJ/mol
# Density = 1.993616 g / cm^3
# Si number density = 19.981643 Si / 1000 Ang^3
#
#
#
# Elastic Constant Matrix: (Units=GPa)
#
#
# Indices 1 2 3 4 5 6 
#
# 1 105.5706 48.8684 40.1563 0.0000 0.0000 0.0000
# 2 48.8684 117.7289 57.6131 0.0000 0.0000 0.0000
# 3 40.1563 57.6131 125.0216 0.0000 0.0000 0.0000
# 4 0.0000 0.0000 0.0000 41.8598 0.0000 0.0000
# 5 0.0000 0.0000 0.0000 0.0000 27.7776 0.0000
# 6 0.0000 0.0000 0.0000 0.0000 0.0000 12.1135
#
#
#
# Elastic Compliance Matrix: (Units=1/GPa)
#
#
# Indices 1 2 3 4 5 6 
#
# 1 0.012112 -0.004033 -0.002032 0.000000 0.000000 0.000000
# 2 -0.004033 0.012311 -0.004378 0.000000 0.000000 0.000000
# 3 -0.002032 -0.004378 0.010668 0.000000 0.000000 0.000000
# 4 0.000000 0.000000 0.000000 0.023889 0.000000 0.000000
# 5 0.000000 0.000000 0.000000 0.000000 0.036000 0.000000
# 6 0.000000 0.000000 0.000000 0.000000 0.000000 0.082553
#
#
# Mechanical properties :
#
#
# Convention : Reuss Voigt Hill
#
# Bulk Modulus (GPa) = 70.39285 71.28853 70.84069
# Shear Modulus (GPa) = 24.61187 29.79573 27.20380
#
# Velocity S-wave (km/s) = 3.51340 3.86574 3.69377
# Velocity P-wave (km/s) = 7.19471 7.46188 7.32951
#
# Compressibility (1/GPa) = 0.01420599
#
# Stress axis : x y z
#
# Youngs Moduli (GPa) = 82.56145 81.23102 93.73446
#
# Poissons Ratio (x) = 0.32764 0.19044
# Poissons Ratio (y) = 0.33301 0.41032
# Poissons Ratio (z) = 0.16774 0.35559
#
# Static dielectric constant tensor:
#      x y z
#    x 3.362490 0.000000 0.000000 
#    y 0.000000 3.752510 0.000000 
#    z 0.000000 0.000000 4.144830 
# 
# 
# High freq. dielectric constant tensor:
#      x y z
#    x 1.761960 0.000000 0.000000 
#    y 0.000000 1.771040 0.000000 
#    z 0.000000 0.000000 1.786310 
# 
# From -- ./inp_files/13354.got.cif
#   From: 2010.03.12/outbox.cif.g09.slc.cpg/sg54_7_cif.got.tgz:13354.got - 2010.04.16 15:00:50.
