data_PCOD8222532
_publ_section_title
;
Structure prediction by ZEFSAII (Michael W. Deem and Ramdas Pophale) SiO2 
 PCOD8222532
Probable space group: P C C A
;
_chemical_formula_sum "Si O2"
_cell_formula_units_Z 40
_cell_length_a 13.209645
_cell_length_b 11.314465
_cell_length_c 16.456482
_cell_angle_alpha 90.000000
_cell_angle_beta 90.000000
_cell_angle_gamma 90.000000
_cell_volume 2459.586886
_symmetry_space_group_name_H-M "P C C A"
_symmetry_group_IT_number 54
_symmetry_cell_setting 'orthorhombic'
loop_
_space_group_symop_operation_xyz
x,y,z
1/2-x,-y,z
1/2+x,-y,1/2-z
-x,y,1/2-z
-x,-y,-z
1/2+x,y,-z
1/2-x,y,1/2+z
x,-y,1/2+z
loop_
_atom_site_type_symbol
_atom_site_label
_atom_site_fract_x
_atom_site_fract_y
_atom_site_fract_z
Si Si1 0.619737 0.190341 0.415190
Si Si2 0.271428 0.624656 0.032548
Si Si3 0.116230 0.198816 0.925595
Si Si4 0.250000 0.000000 0.000918
Si Si5 0.250000 0.500000 0.186980
Si Si6 0.884012 0.696160 0.247398
O O1 0.666645 0.300521 0.465263
O O2 0.502117 0.173237 0.435337
O O3 0.676430 0.071398 0.439767
O O4 0.638167 0.211515 0.319602
O O5 0.250000 0.500000 0.985816
O O6 0.307314 0.592486 0.125393
O O7 0.359444 0.696940 0.989002
O O8 0.146726 0.240139 0.835721
O O9 0.181586 0.082502 0.943677
O O10 0.324700 0.427254 0.244563
O O11 0.000000 0.657981 0.250000
#
# Coordination Sequence:
#
# PCOD8222532 Si02
#       6
#     8   8   8   4   4   8
#     4   9  18  34  50  68  97 128 156 196 239 281
#     4   8  17  31  47  72  97 123 156 186 234 282
#     4  10  19  31  51  73  96 122 164 199 232 277
#     4  10  20  34  50  70  92 128 166 200 236 274
#     4   8  16  32  46  66 104 126 152 186 232 290
#     4   9  18  32  48  72  95 126 156 192 239 282
#
# _framework density 16.262893999999999
#
# number of rings (size 3 to 8) (size 9 to 14) (size 15 to 20)
#    0.600    2.400    0.000    0.600    1.400    1.600 
#    0.000    0.000    0.000    0.000    0.000    0.000 
#    0.000    0.000    0.000    0.000    0.000    0.000 
#
# Total GULP energy -495689.294510 kJ/mol
# GULP energy per Si atom -12392.232363 kJ/mol
# Density = 1.622588 g / cm^3
# Si number density = 16.262894 Si / 1000 Ang^3
#
#
#
# Elastic Constant Matrix: (Units=GPa)
#
#
# Indices 1 2 3 4 5 6 
#
# 1 108.0949 73.3469 63.6082 0.0000 0.0000 0.0000
# 2 73.3469 132.3435 60.4045 0.0000 0.0000 0.0000
# 3 63.6082 60.4045 97.5176 0.0000 0.0000 0.0000
# 4 0.0000 0.0000 0.0000 23.6878 0.0000 0.0000
# 5 0.0000 0.0000 0.0000 0.0000 21.1319 0.0000
# 6 0.0000 0.0000 0.0000 0.0000 0.0000 24.9464
#
#
#
# Elastic Compliance Matrix: (Units=1/GPa)
#
#
# Indices 1 2 3 4 5 6 
#
# 1 0.018360 -0.006566 -0.007909 0.000000 0.000000 0.000000
# 2 -0.006566 0.012882 -0.003697 0.000000 0.000000 0.000000
# 3 -0.007909 -0.003697 0.017703 0.000000 0.000000 0.000000
# 4 0.000000 0.000000 0.000000 0.042216 0.000000 0.000000
# 5 0.000000 0.000000 0.000000 0.000000 0.047322 0.000000
# 6 0.000000 0.000000 0.000000 0.000000 0.000000 0.040086
#
#
# Mechanical properties :
#
#
# Convention : Reuss Voigt Hill
#
# Bulk Modulus (GPa) = 79.34838 81.40835 80.37837
# Shear Modulus (GPa) = 22.81921 23.32630 23.07275
#
# Velocity S-wave (km/s) = 3.74992 3.79136 3.77070
# Velocity P-wave (km/s) = 8.22473 8.32660 8.27582
#
# Compressibility (1/GPa) = 0.01260265
#
# Stress axis : x y z
#
# Youngs Moduli (GPa) = 54.46543 77.62606 56.48656
#
# Poissons Ratio (x) = 0.50967 0.44675
# Poissons Ratio (y) = 0.35760 0.20883
# Poissons Ratio (z) = 0.43077 0.28698
#
# Static dielectric constant tensor:
#      x y z
#    x 2.962820 0.000000 0.000000 
#    y 0.000000 3.102550 0.000000 
#    z 0.000000 0.000000 3.087710 
# 
# 
# High freq. dielectric constant tensor:
#      x y z
#    x 1.616140 0.000000 0.000000 
#    y 0.000000 1.630020 0.000000 
#    z 0.000000 0.000000 1.619670 
# 
# From -- ./inp_files/12519.got.cif
#   From: 2010.03.12/outbox.cif.g09.slc.cpg/sg54_7_cif.got.tgz:12519.got - 2010.04.16 15:00:50.
