data_PCOD8222248
_publ_section_title
;
Structure prediction by ZEFSAII (Michael W. Deem and Ramdas Pophale) SiO2 
 PCOD8222248
Probable space group: P M N A
;
_chemical_formula_sum "Si O2"
_cell_formula_units_Z 64
_cell_length_a 9.636073
_cell_length_b 28.240122
_cell_length_c 14.011462
_cell_angle_alpha 90.000000
_cell_angle_beta 90.000000
_cell_angle_gamma 90.000000
_cell_volume 3812.853364
_symmetry_space_group_name_H-M "P M N A"
_symmetry_group_IT_number 53
_symmetry_cell_setting 'orthorhombic'
loop_
_space_group_symop_operation_xyz
x,y,z
1/2-x,-y,1/2+z
x,-y,-z
1/2-x,y,1/2-z
-x,-y,-z
1/2+x,y,1/2-z
-x,y,z
1/2+x,-y,1/2+z
loop_
_atom_site_type_symbol
_atom_site_label
_atom_site_fract_x
_atom_site_fract_y
_atom_site_fract_z
Si Si1 0.336130 0.425296 0.000029
Si Si2 0.165156 0.680086 0.500021
Si Si3 0.342477 0.830889 0.000021
Si Si4 0.661212 0.753014 0.155504
Si Si5 0.838548 0.999982 0.844894
Si Si6 0.664087 0.499987 0.845765
Si Si7 0.338882 0.076341 0.500032
Si Si8 0.338783 0.753040 0.844498
O O1 0.500000 0.421249 0.000036
O O2 0.290714 0.453573 0.094658
O O3 0.269837 0.372750 0.000043
O O4 0.290725 0.453559 0.905381
O O5 0.214051 0.707629 0.405052
O O6 0.214055 0.707649 0.594964
O O7 0.000000 0.679509 0.500022
O O8 0.500000 0.849139 0.000021
O O9 0.243820 0.875448 0.000056
O O10 0.313623 0.800112 0.905963
O O11 0.313644 0.800090 0.094050
O O12 0.750000 0.756786 0.250000
O O13 0.500000 0.747660 0.182592
O O14 0.750000 0.999965 0.750000
O O15 0.800698 0.953574 0.906024
O O16 0.000000 0.999911 0.817677
O O17 0.800984 0.046476 0.905842
O O18 0.750000 0.499972 0.750000
O O19 0.500000 0.499987 0.824343
O O20 0.500000 0.089113 0.499887
O O21 0.250000 0.756820 0.750000
O O22 0.500000 0.747692 0.817418
#
# Coordination Sequence:
#
# PCOD8222248 Si02
#       8
#     8   8   8   8   8   8   8   8
#     4   8  15  29  47  65  89 124 158 184 223 283
#     4   8  15  30  49  66  89 123 158 189 225 275
#     4   9  19  34  49  68  95 125 156 188 226 276
#     4   9  18  32  49  69  93 121 154 192 231 272
#     4   9  19  35  52  72  98 125 155 191 230 272
#     4   9  17  29  46  68  92 119 153 191 230 274
#     4   9  19  35  52  71  97 126 155 191 232 270
#     4   9  18  32  49  69  93 121 154 192 231 272
#
# _framework density 16.785329000000001
#
# number of rings (size 3 to 8) (size 9 to 14) (size 15 to 20)
#    0.000    3.250    0.000    3.000    0.000    4.000 
#    0.000    9.375    0.000    1.500    0.000    0.000 
#    0.000    0.000    0.000    0.000    0.000    0.000 
#
# Total GULP energy -793366.104855 kJ/mol
# GULP energy per Si atom -12396.345388 kJ/mol
# Density = 1.674713 g / cm^3
# Si number density = 16.785329 Si / 1000 Ang^3
#
#
#
# Elastic Constant Matrix: (Units=GPa)
#
#
# Indices 1 2 3 4 5 6 
#
# 1 61.3035 58.0054 71.4877 0.0000 0.0000 0.0000
# 2 58.0054 150.7544 70.8605 0.0000 0.0000 0.0000
# 3 71.4877 70.8605 160.6492 0.0000 0.0000 0.0000
# 4 0.0000 0.0000 0.0000 11.0930 0.0000 0.0000
# 5 0.0000 0.0000 0.0000 0.0000 37.6222 0.0000
# 6 0.0000 0.0000 0.0000 0.0000 0.0000 20.2523
#
#
#
# Elastic Compliance Matrix: (Units=1/GPa)
#
#
# Indices 1 2 3 4 5 6 
#
# 1 0.042324 -0.009376 -0.014698 0.000000 0.000000 0.000000
# 2 -0.009376 0.010445 -0.000435 0.000000 0.000000 0.000000
# 3 -0.014698 -0.000435 0.012957 0.000000 0.000000 0.000000
# 4 0.000000 0.000000 0.000000 0.090147 0.000000 0.000000
# 5 0.000000 0.000000 0.000000 0.000000 0.026580 0.000000
# 6 0.000000 0.000000 0.000000 0.000000 0.000000 0.049377
#
#
# Mechanical properties :
#
#
# Convention : Reuss Voigt Hill
#
# Bulk Modulus (GPa) = 59.85193 85.93492 72.89342
# Shear Modulus (GPa) = 17.45695 25.28373 21.37034
#
# Velocity S-wave (km/s) = 3.22842 3.88532 3.57200
# Velocity P-wave (km/s) = 7.04497 8.45193 7.78032
#
# Compressibility (1/GPa) = 0.01670790
#
# Stress axis : x y z
#
# Youngs Moduli (GPa) = 23.62732 95.73565 77.17729
#
# Poissons Ratio (x) = 0.89763 1.13436
# Poissons Ratio (y) = 0.22153 0.03357
# Poissons Ratio (z) = 0.34728 0.04165
#
# Static dielectric constant tensor:
#      x y z
#    x 2.841360 0.000000 0.000000 
#    y 0.000000 3.483360 0.000000 
#    z 0.000000 0.000000 3.077450 
# 
# 
# High freq. dielectric constant tensor:
#      x y z
#    x 1.620480 0.000000 0.000000 
#    y 0.000000 1.654660 0.000000 
#    z 0.000000 0.000000 1.650340 
# 
# From -- ./inp_files/21077.got.cif
#   From: 2010.03.12/outbox.cif.g09.slc.cpg/sg53_11_cif.got.tgz:21077.got - 2010.04.16 14:36:59.
