data_PCOD8222767
_publ_section_title
;
Structure prediction by ZEFSAII (Michael W. Deem and Ramdas Pophale) SiO2 
 PCOD8222767
Probable space group: P C C A
;
_chemical_formula_sum "Si O2"
_cell_formula_units_Z 48
_cell_length_a 10.729595
_cell_length_b 24.487934
_cell_length_c 8.901086
_cell_angle_alpha 90.000000
_cell_angle_beta 90.000000
_cell_angle_gamma 90.000000
_cell_volume 2338.721308
_symmetry_space_group_name_H-M "P C C A"
_symmetry_group_IT_number 54
_symmetry_cell_setting 'orthorhombic'
loop_
_space_group_symop_operation_xyz
x,y,z
1/2-x,-y,z
1/2+x,-y,1/2-z
-x,y,1/2-z
-x,-y,-z
1/2+x,y,-z
1/2-x,y,1/2+z
x,-y,1/2+z
loop_
_atom_site_type_symbol
_atom_site_label
_atom_site_fract_x
_atom_site_fract_y
_atom_site_fract_z
Si Si1 0.141731 0.073517 0.742396
Si Si2 0.142443 0.427174 0.751299
Si Si3 0.750000 0.000000 0.006371
Si Si4 0.858066 0.336721 0.256874
Si Si5 0.857303 0.192135 0.747465
Si Si6 0.749556 0.735051 0.002069
Si Si7 0.250000 0.500000 0.500775
O O1 0.162392 0.036890 0.596466
O O2 0.172164 0.041038 0.892813
O O3 0.212529 0.132829 0.735106
O O4 0.000000 0.088168 0.750000
O O5 0.249351 0.381444 0.754346
O O6 0.160055 0.462879 0.601970
O O7 0.158098 0.463798 0.899332
O O8 0.000000 0.403395 0.750000
O O9 0.843210 0.306249 0.416690
O O10 0.000000 0.360909 0.250000
O O11 0.842363 0.296239 0.115983
O O12 0.831863 0.234629 0.878902
O O13 0.826071 0.218937 0.588282
O O14 0.000000 0.179076 0.750000
#
# Coordination Sequence:
#
# PCOD8222767 Si02
#       7
#     8   8   4   8   8   8   4
#     4  10  20  34  54  79 108 144 185 230 281 337
#     4  11  24  42  65  91 120 156 196 238 286 341
#     4  10  20  34  52  78 112 142 180 230 284 338
#     4  11  24  40  60  88 120 153 192 239 290 344
#     4  10  20  36  57  80 108 146 190 233 281 338
#     4  10  22  38  58  82 114 150 190 236 286 338
#     4  10  24  42  64  90 122 154 194 240 286 336
#
# _framework density 20.524035999999999
#
# number of rings (size 3 to 8) (size 9 to 14) (size 15 to 20)
#    0.000    1.667    0.000    4.000    0.000   10.667 
#    0.000    0.000    0.000   16.000    0.000    0.000 
#    0.000    0.000    0.000    0.000    0.000    0.000 
#
# Total GULP energy -594956.477240 kJ/mol
# GULP energy per Si atom -12394.926609 kJ/mol
# Density = 2.047732 g / cm^3
# Si number density = 20.524036 Si / 1000 Ang^3
#
#
#
# Elastic Constant Matrix: (Units=GPa)
#
#
# Indices 1 2 3 4 5 6 
#
# 1 125.2329 46.7786 27.6211 0.0000 0.0000 0.0000
# 2 46.7786 119.5863 35.9174 0.0000 0.0000 0.0000
# 3 27.6211 35.9174 116.7082 0.0000 0.0000 0.0000
# 4 0.0000 0.0000 0.0000 -70.5113 0.0000 0.0000
# 5 0.0000 0.0000 0.0000 0.0000 12.0899 0.0000
# 6 0.0000 0.0000 0.0000 0.0000 0.0000 28.4487
#
#
#
# Elastic Compliance Matrix: (Units=1/GPa)
#
#
# Indices 1 2 3 4 5 6 
#
# 1 0.009506 -0.003353 -0.001218 0.000000 0.000000 0.000000
# 2 -0.003353 0.010396 -0.002406 0.000000 0.000000 0.000000
# 3 -0.001218 -0.002406 0.009597 0.000000 0.000000 0.000000
# 4 0.000000 0.000000 0.000000 -0.014182 0.000000 0.000000
# 5 0.000000 0.000000 0.000000 0.000000 0.082714 0.000000
# 6 0.000000 0.000000 0.000000 0.000000 0.000000 0.035151
#
#
# Mechanical properties :
#
#
# Convention : Reuss Voigt Hill
#
# Bulk Modulus (GPa) = 64.32487 64.68462 64.50475
# Shear Modulus (GPa) = 32.82615 10.75280 21.78947
#
# Velocity S-wave (km/s) = 4.00359 2.29140 3.26184
# Velocity P-wave (km/s) = 7.26505 6.21173 6.75894
#
# Compressibility (1/GPa) = 0.01554609
#
# Stress axis : x y z
#
# Youngs Moduli (GPa) = 105.19567 96.18829 104.19814
#
# Poissons Ratio (x) = 0.32249 0.12691
# Poissons Ratio (y) = 0.35269 0.25070
# Poissons Ratio (z) = 0.12813 0.23143
#
# Static dielectric constant tensor:
#      x y z
#    x 3.406470 0.000000 0.000000 
#    y 0.000000 3.932540 0.000000 
#    z 0.000000 0.000000 1.019910 
# 
# 
# High freq. dielectric constant tensor:
#      x y z
#    x 1.784950 0.000000 0.000000 
#    y 0.000000 1.819530 0.000000 
#    z 0.000000 0.000000 1.820800 
# 
# From -- ./inp_files/3047.got.cif
#   From: 2010.03.12/outbox.cif.g09.slc.cpg/sg54_2_cif.got.tgz:3047.got - 2010.04.16 15:00:50.
