data_PCOD8222731
_publ_section_title
;
Structure prediction by ZEFSAII (Michael W. Deem and Ramdas Pophale) SiO2 
 PCOD8222731
Probable space group: P C C A
;
_chemical_formula_sum "Si O2"
_cell_formula_units_Z 64
_cell_length_a 14.482660
_cell_length_b 9.220377
_cell_length_c 22.089286
_cell_angle_alpha 90.000000
_cell_angle_beta 90.000000
_cell_angle_gamma 90.000000
_cell_volume 2949.705732
_symmetry_space_group_name_H-M "P C C A"
_symmetry_group_IT_number 54
_symmetry_cell_setting 'orthorhombic'
loop_
_space_group_symop_operation_xyz
x,y,z
1/2-x,-y,z
1/2+x,-y,1/2-z
-x,y,1/2-z
-x,-y,-z
1/2+x,y,-z
1/2-x,y,1/2+z
x,-y,1/2+z
loop_
_atom_site_type_symbol
_atom_site_label
_atom_site_fract_x
_atom_site_fract_y
_atom_site_fract_z
Si Si1 0.214752 0.150510 0.590249
Si Si2 0.016462 0.966773 0.070703
Si Si3 0.306111 0.365497 0.680278
Si Si4 0.259563 0.168187 0.955426
Si Si5 0.729323 0.846164 0.217366
Si Si6 0.416578 0.205995 0.877380
Si Si7 0.116620 0.251579 0.867735
Si Si8 0.997735 0.481271 0.177910
O O1 0.105613 0.130840 0.581908
O O2 0.241982 0.287467 0.630508
O O3 0.264056 0.179073 0.526172
O O4 0.250000 0.000000 0.619189
O O5 0.932537 0.885954 0.102573
O O6 0.012999 0.120201 0.108537
O O7 0.000000 0.000000 0.000000
O O8 0.250000 0.500000 0.706958
O O9 0.323039 0.256291 0.735221
O O10 0.401794 0.430113 0.654100
O O11 0.364574 0.222711 0.942219
O O12 0.193285 0.282156 0.919608
O O13 0.250000 0.000000 0.934756
O O14 0.658343 0.880976 0.163214
O O15 0.827088 0.778795 0.194427
O O16 0.750000 0.000000 0.249411
O O17 0.429229 0.355172 0.842205
O O18 0.040432 0.375488 0.855369
O O19 0.000000 0.504127 0.250000
#
# Coordination Sequence:
#
# PCOD8222731 Si02
#       8
#     8   8   8   8   8   8   8   8
#     4  11  23  42  67  99 137 182 230 285 360 419
#     4  12  21  41  72 104 138 175 230 301 357 413
#     4  12  26  47  64  93 144 191 227 289 357 421
#     4  10  19  42  71 102 135 174 228 294 350 409
#     4  11  22  42  73 102 135 177 241 293 352 421
#     4  11  21  41  69 102 137 173 223 292 350 419
#     4  11  23  41  70 103 131 180 236 283 345 434
#     4  12  26  45  65 100 143 186 235 288 354 418
#
# _framework density 21.697078000000001
#
# number of rings (size 3 to 8) (size 9 to 14) (size 15 to 20)
#    0.000    0.750    5.000    4.125    0.000    1.500 
#    2.250    1.875    0.000    0.000    0.000    0.000 
#    0.000    0.000    0.000    0.000    0.000    0.000 
#
# Total GULP energy -792971.303577 kJ/mol
# GULP energy per Si atom -12390.176618 kJ/mol
# Density = 2.164769 g / cm^3
# Si number density = 21.697078 Si / 1000 Ang^3
#
#
#
# Elastic Constant Matrix: (Units=GPa)
#
#
# Indices 1 2 3 4 5 6 
#
# 1 109.3987 36.7668 31.7510 0.0000 0.0000 0.0000
# 2 36.7668 106.2297 50.7180 0.0000 0.0000 0.0000
# 3 31.7510 50.7180 96.2420 0.0000 0.0000 0.0000
# 4 0.0000 0.0000 0.0000 22.3902 0.0000 0.0000
# 5 0.0000 0.0000 0.0000 0.0000 31.7080 0.0000
# 6 0.0000 0.0000 0.0000 0.0000 0.0000 48.4390
#
#
#
# Elastic Compliance Matrix: (Units=1/GPa)
#
#
# Indices 1 2 3 4 5 6 
#
# 1 0.010652 -0.002684 -0.002100 0.000000 0.000000 0.000000
# 2 -0.002684 0.013255 -0.006099 0.000000 0.000000 0.000000
# 3 -0.002100 -0.006099 0.014297 0.000000 0.000000 0.000000
# 4 0.000000 0.000000 0.000000 0.044662 0.000000 0.000000
# 5 0.000000 0.000000 0.000000 0.000000 0.031538 0.000000
# 6 0.000000 0.000000 0.000000 0.000000 0.000000 0.020645
#
#
# Mechanical properties :
#
#
# Convention : Reuss Voigt Hill
#
# Bulk Modulus (GPa) = 60.83608 61.14913 60.99261
# Shear Modulus (GPa) = 30.80796 33.34974 32.07885
#
# Velocity S-wave (km/s) = 3.77226 3.92479 3.84928
# Velocity P-wave (km/s) = 6.86098 6.98448 6.92300
#
# Compressibility (1/GPa) = 0.01643761
#
# Stress axis : x y z
#
# Youngs Moduli (GPa) = 93.87512 75.44461 69.94235
#
# Poissons Ratio (x) = 0.20253 0.14686
# Poissons Ratio (y) = 0.25200 0.42661
# Poissons Ratio (z) = 0.19711 0.46017
#
# Static dielectric constant tensor:
#      x y z
#    x 4.028970 0.000000 0.000000 
#    y 0.000000 3.826470 0.000000 
#    z 0.000000 0.000000 3.817360 
# 
# 
# High freq. dielectric constant tensor:
#      x y z
#    x 1.862560 0.000000 0.000000 
#    y 0.000000 1.839710 0.000000 
#    z 0.000000 0.000000 1.846990 
# 
# From -- ./inp_files/24533.got.cif
#   From: 2010.03.12/outbox.cif.g09.slc.cpg/sg54_13_cif.got.tgz:24533.got - 2010.04.16 15:00:50.
