data_PCOD8222858
_publ_section_title
;
Structure prediction by ZEFSAII (Michael W. Deem and Ramdas Pophale) SiO2 
 PCOD8222858
Probable space group: P C C A
;
_chemical_formula_sum "Si O2"
_cell_formula_units_Z 40
_cell_length_a 9.193445
_cell_length_b 7.999826
_cell_length_c 26.208966
_cell_angle_alpha 90.000000
_cell_angle_beta 90.000000
_cell_angle_gamma 90.000000
_cell_volume 1927.563574
_symmetry_space_group_name_H-M "P C C A"
_symmetry_group_IT_number 54
_symmetry_cell_setting 'orthorhombic'
loop_
_space_group_symop_operation_xyz
x,y,z
1/2-x,-y,z
1/2+x,-y,1/2-z
-x,y,1/2-z
-x,-y,-z
1/2+x,y,-z
1/2-x,y,1/2+z
x,-y,1/2+z
loop_
_atom_site_type_symbol
_atom_site_label
_atom_site_fract_x
_atom_site_fract_y
_atom_site_fract_z
Si Si1 0.635949 0.240421 0.637978
Si Si2 0.057033 0.674564 0.544773
Si Si3 0.117065 0.717135 0.049445
Si Si4 0.250000 0.500000 0.284349
Si Si5 0.000000 0.290270 0.750000
Si Si6 0.455077 0.875166 0.856880
O O1 0.552135 0.323784 0.591941
O O2 0.645155 0.378087 0.682707
O O3 0.800206 0.192118 0.623924
O O4 0.544449 0.074427 0.651028
O O5 0.212684 0.766646 0.548948
O O6 0.092256 0.479642 0.541575
O O7 0.975401 0.777743 0.499537
O O8 0.065405 0.804877 0.101300
O O9 0.353948 0.398168 0.247073
O O10 0.999453 0.183808 0.801140
#
# Coordination Sequence:
#
# PCOD8222858 Si02
#       6
#     8   8   8   4   4   8
#     4  10  21  39  61  84 115 153 193 240 298 351
#     4  10  20  36  60  87 118 157 194 237 290 355
#     4  10  21  36  58  88 119 153 197 240 289 352
#     4  10  22  40  64  86 112 156 202 244 292 356
#     4  10  22  40  62  86 118 154 198 246 292 346
#     4  10  22  39  58  86 119 153 194 245 297 347
#
# _framework density 20.751586
#
# number of rings (size 3 to 8) (size 9 to 14) (size 15 to 20)
#    0.000    2.000    0.000    3.600    0.000    8.800 
#    0.000    6.000    0.000    0.000    0.000    0.000 
#    0.000    0.000    0.000    0.000    0.000    0.000 
#
# Total GULP energy -495554.463121 kJ/mol
# GULP energy per Si atom -12388.861578 kJ/mol
# Density = 2.070435 g / cm^3
# Si number density = 20.751586 Si / 1000 Ang^3
#
#
#
# Elastic Constant Matrix: (Units=GPa)
#
#
# Indices 1 2 3 4 5 6 
#
# 1 113.5789 14.9942 81.8293 0.0000 0.0000 0.0000
# 2 14.9942 50.7775 17.4393 0.0000 0.0000 0.0000
# 3 81.8293 17.4393 101.6688 0.0000 0.0000 0.0000
# 4 0.0000 0.0000 0.0000 -3.8870 0.0000 0.0000
# 5 0.0000 0.0000 0.0000 0.0000 41.8703 0.0000
# 6 0.0000 0.0000 0.0000 0.0000 0.0000 24.3913
#
#
#
# Elastic Compliance Matrix: (Units=1/GPa)
#
#
# Indices 1 2 3 4 5 6 
#
# 1 0.020965 -0.000420 -0.016802 0.000000 0.000000 0.000000
# 2 -0.000420 0.020935 -0.003253 0.000000 0.000000 0.000000
# 3 -0.016802 -0.003253 0.023917 0.000000 0.000000 0.000000
# 4 0.000000 0.000000 0.000000 -0.257266 0.000000 0.000000
# 5 0.000000 0.000000 0.000000 0.000000 0.023883 0.000000
# 6 0.000000 0.000000 0.000000 0.000000 0.000000 0.040998
#
#
# Mechanical properties :
#
#
# Convention : Reuss Voigt Hill
#
# Bulk Modulus (GPa) = 40.21347 54.95009 47.58178
# Shear Modulus (GPa) = -64.65903 22.59241 -21.03331
#
# Velocity S-wave (km/s) = -5.58804 3.30314 -3.18712
# Velocity P-wave (km/s) = 4.71322 6.40976 3.07170
#
# Compressibility (1/GPa) = 0.02486729
#
# Stress axis : x y z
#
# Youngs Moduli (GPa) = 47.69844 47.76686 41.81134
#
# Poissons Ratio (x) = 0.02008 0.70251
# Poissons Ratio (y) = 0.02005 0.13600
# Poissons Ratio (z) = 0.80142 0.15537
#
# Static dielectric constant tensor:
#      x y z
#    x 3.981900 0.000000 0.000000 
#    y 0.000000 3.844950 0.000000 
#    z 0.000000 0.000000 3.645400 
# 
# 
# High freq. dielectric constant tensor:
#      x y z
#    x 1.823870 0.000000 0.000000 
#    y 0.000000 1.813410 0.000000 
#    z 0.000000 0.000000 1.805880 
# 
# From -- ./inp_files/23303.got.cif
#   From: 2010.03.12/outbox.cif.g09.slc.cpg/sg54_12_cif.got.tgz:23303.got - 2010.04.16 15:00:50.
