data_PCOD8222159
_publ_section_title
;
Structure prediction by ZEFSAII (Michael W. Deem and Ramdas Pophale) SiO2 
 PCOD8222159
Probable space group: P M N A
;
_chemical_formula_sum "Si O2"
_cell_formula_units_Z 64
_cell_length_a 14.848059
_cell_length_b 11.323094
_cell_length_c 17.394730
_cell_angle_alpha 90.000000
_cell_angle_beta 90.000000
_cell_angle_gamma 90.000000
_cell_volume 2924.505815
_symmetry_space_group_name_H-M "P M N A"
_symmetry_group_IT_number 53
_symmetry_cell_setting 'orthorhombic'
loop_
_space_group_symop_operation_xyz
x,y,z
1/2-x,-y,1/2+z
x,-y,-z
1/2-x,y,1/2-z
-x,-y,-z
1/2+x,y,1/2-z
-x,y,z
1/2+x,-y,1/2+z
loop_
_atom_site_type_symbol
_atom_site_label
_atom_site_fract_x
_atom_site_fract_y
_atom_site_fract_z
Si Si1 0.601433 0.961365 0.851334
Si Si2 0.319107 0.199396 0.816211
Si Si3 0.239821 0.177326 0.073800
Si Si4 0.397091 0.946223 0.672293
Si Si5 0.278150 0.550549 0.923338
Si Si6 0.338724 0.186956 0.588356
Si Si7 0.101179 0.556864 0.292049
Si Si8 0.598510 0.562748 0.384061
O O1 0.500000 0.931794 0.879442
O O2 0.672151 0.902729 0.910115
O O3 0.615071 0.926019 0.762817
O O4 0.616779 0.100807 0.851898
O O5 0.250000 0.153760 0.750000
O O6 0.255291 0.245259 0.884212
O O7 0.383692 0.303143 0.790106
O O8 0.166488 0.155748 0.139685
O O9 0.275467 0.309366 0.074215
O O10 0.183361 0.142406 0.997438
O O11 0.500000 0.925133 0.647190
O O12 0.368901 0.076479 0.641472
O O13 0.329687 0.511805 0.846378
O O14 0.176690 0.501236 0.930361
O O15 0.328074 0.500000 0.000000
O O16 0.407080 0.296076 0.597589
O O17 0.116220 0.523255 0.203892
O O18 0.000000 0.528432 0.319849
O O19 0.500000 0.513917 0.408462
#
# Coordination Sequence:
#
# PCOD8222159 Si02
#       8
#     8   8   8   8   8   8   8   8
#     4  11  24  43  67 100 139 181 224 273 337 411
#     4  12  18  37  70  98 133 174 217 271 338 401
#     4  12  26  43  66  96 138 181 228 276 346 407
#     4  11  24  42  68 101 135 176 224 276 343 421
#     4  12  25  47  65  92 135 187 230 283 343 406
#     4  12  22  41  68 100 137 174 217 279 347 412
#     4  11  23  40  68 103 132 171 230 288 341 403
#     4  11  23  41  69 102 132 171 226 292 349 404
#
# _framework density 21.884039999999999
#
# number of rings (size 3 to 8) (size 9 to 14) (size 15 to 20)
#    0.000    0.500    6.250    1.875    0.000    7.000 
#    0.000    5.625    0.000    0.000    0.000    0.000 
#    0.000    0.000    0.000    0.000    0.000    0.000 
#
# Total GULP energy -793182.956944 kJ/mol
# GULP energy per Si atom -12393.483702 kJ/mol
# Density = 2.183423 g / cm^3
# Si number density = 21.884040 Si / 1000 Ang^3
#
#
#
# Elastic Constant Matrix: (Units=GPa)
#
#
# Indices 1 2 3 4 5 6 
#
# 1 104.1749 -3.2710 35.2267 0.0000 0.0000 0.0000
# 2 -3.2710 55.6529 2.4203 0.0000 0.0000 0.0000
# 3 35.2267 2.4203 64.3448 0.0000 0.0000 0.0000
# 4 0.0000 0.0000 0.0000 24.4072 0.0000 0.0000
# 5 0.0000 0.0000 0.0000 0.0000 8.7000 0.0000
# 6 0.0000 0.0000 0.0000 0.0000 0.0000 11.3803
#
#
#
# Elastic Compliance Matrix: (Units=1/GPa)
#
#
# Indices 1 2 3 4 5 6 
#
# 1 0.011833 0.000979 -0.006515 0.000000 0.000000 0.000000
# 2 0.000979 0.018079 -0.001216 0.000000 0.000000 0.000000
# 3 -0.006515 -0.001216 0.019154 0.000000 0.000000 0.000000
# 4 0.000000 0.000000 0.000000 0.040972 0.000000 0.000000
# 5 0.000000 0.000000 0.000000 0.000000 0.114942 0.000000
# 6 0.000000 0.000000 0.000000 0.000000 0.000000 0.087871
#
#
# Mechanical properties :
#
#
# Convention : Reuss Voigt Hill
#
# Bulk Modulus (GPa) = 28.12028 32.54716 30.33372
# Shear Modulus (GPa) = 15.71295 21.55060 18.63177
#
# Velocity S-wave (km/s) = 2.68248 3.14150 2.92102
# Velocity P-wave (km/s) = 4.74044 5.29750 5.02670
#
# Compressibility (1/GPa) = 0.03556152
#
# Stress axis : x y z
#
# Youngs Moduli (GPa) = 84.50923 55.31301 52.20903
#
# Poissons Ratio (x) = -0.05414 0.34014
# Poissons Ratio (y) = -0.08272 0.06348
# Poissons Ratio (z) = 0.55058 0.06726
#
# Static dielectric constant tensor:
#      x y z
#    x 4.119620 0.000000 0.000000 
#    y 0.000000 3.699370 0.000000 
#    z 0.000000 0.000000 4.177840 
# 
# 
# High freq. dielectric constant tensor:
#      x y z
#    x 1.865750 0.000000 0.000000 
#    y 0.000000 1.845800 0.000000 
#    z 0.000000 0.000000 1.867680 
# 
# From -- ./inp_files/28571.got.cif
#   From: 2010.03.12/outbox.cif.g09.slc.cpg/sg53_15_cif.got.tgz:28571.got - 2010.04.16 14:36:59.
