data_PCOD8222106
_publ_section_title
;
Structure prediction by ZEFSAII (Michael W. Deem and Ramdas Pophale) SiO2 
 PCOD8222106
Probable space group: P M N A
;
_chemical_formula_sum "Si O2"
_cell_formula_units_Z 64
_cell_length_a 8.761865
_cell_length_b 24.445120
_cell_length_c 15.383673
_cell_angle_alpha 90.000000
_cell_angle_beta 90.000000
_cell_angle_gamma 90.000000
_cell_volume 3294.949561
_symmetry_space_group_name_H-M "P M N A"
_symmetry_group_IT_number 53
_symmetry_cell_setting 'orthorhombic'
loop_
_space_group_symop_operation_xyz
x,y,z
1/2-x,-y,1/2+z
x,-y,-z
1/2-x,y,1/2-z
-x,-y,-z
1/2+x,y,1/2-z
-x,y,z
1/2+x,-y,1/2+z
loop_
_atom_site_type_symbol
_atom_site_label
_atom_site_fract_x
_atom_site_fract_y
_atom_site_fract_z
Si Si1 0.682246 0.806944 0.999996
Si Si2 0.818451 0.387774 0.339233
Si Si3 0.320148 0.500003 0.398879
Si Si4 0.680524 0.118499 0.154932
Si Si5 0.177985 0.000001 0.657444
Si Si6 0.681548 0.612230 0.160766
Si Si7 0.819471 0.118504 0.654933
Si Si8 0.818906 0.683987 0.500001
O O1 0.500000 0.808023 0.999995
O O2 0.744054 0.837103 0.086628
O O3 0.747485 0.745383 0.999996
O O4 0.744056 0.837105 0.913367
O O5 0.750000 0.364018 0.250000
O O6 0.753497 0.447863 0.353992
O O7 0.759538 0.347743 0.415119
O O8 0.000000 0.390251 0.335104
O O9 0.278053 0.500000 0.500000
O O10 0.500000 0.500012 0.382437
O O11 0.246468 0.552137 0.353994
O O12 0.750000 0.129043 0.250000
O O13 0.500000 0.123857 0.164868
O O14 0.725225 0.058168 0.114139
O O15 0.250000 0.999967 0.750000
O O16 0.000000 0.000023 0.670266
O O17 0.225288 0.058171 0.614168
O O18 0.750000 0.635984 0.250000
O O19 0.500000 0.609765 0.164896
O O20 0.740475 0.652258 0.084877
O O21 0.750000 0.129057 0.750000
O O22 0.000000 0.123854 0.664856
O O23 0.000000 0.685714 0.499995
#
# Coordination Sequence:
#
# PCOD8222106 Si02
#       8
#     8   8   8   8   8   8   8   8
#     4   9  18  33  52  75 100 135 178 219 260 308
#     4  11  22  38  59  83 110 143 179 216 262 316
#     4  11  22  37  60  88 116 142 172 215 261 311
#     4   9  17  30  50  73 102 134 170 213 261 313
#     4   8  14  25  43  71 100 130 164 207 259 311
#     4  11  22  38  59  83 110 143 179 216 262 316
#     4   9  17  30  50  73 102 134 170 213 261 313
#     4   9  20  37  55  75 105 141 178 217 264 314
#
# _framework density 19.423665
#
# number of rings (size 3 to 8) (size 9 to 14) (size 15 to 20)
#    0.000    2.375    1.250    1.500    0.000    2.000 
#    0.000    3.125    0.000    4.500    0.000    8.750 
#    0.000    0.000    0.000    0.000    0.000    0.000 
#
# Total GULP energy -793131.565645 kJ/mol
# GULP energy per Si atom -12392.680713 kJ/mol
# Density = 1.937946 g / cm^3
# Si number density = 19.423665 Si / 1000 Ang^3
#
#
#
# Elastic Constant Matrix: (Units=GPa)
#
#
# Indices 1 2 3 4 5 6 
#
# 1 34.5292 24.2474 31.5144 0.0000 0.0000 0.0000
# 2 24.2474 181.4770 90.4021 0.0000 0.0000 0.0000
# 3 31.5144 90.4021 160.6234 0.0000 0.0000 0.0000
# 4 0.0000 0.0000 0.0000 18.2473 0.0000 0.0000
# 5 0.0000 0.0000 0.0000 0.0000 26.7418 0.0000
# 6 0.0000 0.0000 0.0000 0.0000 0.0000 9.5366
#
#
#
# Elastic Compliance Matrix: (Units=1/GPa)
#
#
# Indices 1 2 3 4 5 6 
#
# 1 0.035687 -0.001779 -0.006001 0.000000 0.000000 0.000000
# 2 -0.001779 0.007746 -0.004010 0.000000 0.000000 0.000000
# 3 -0.006001 -0.004010 0.009660 0.000000 0.000000 0.000000
# 4 0.000000 0.000000 0.000000 0.054803 0.000000 0.000000
# 5 0.000000 0.000000 0.000000 0.000000 0.037395 0.000000
# 6 0.000000 0.000000 0.000000 0.000000 0.000000 0.104859
#
#
# Mechanical properties :
#
#
# Convention : Reuss Voigt Hill
#
# Bulk Modulus (GPa) = 33.88344 74.32859 54.10601
# Shear Modulus (GPa) = 17.63253 26.26952 21.95102
#
# Velocity S-wave (km/s) = 3.01622 3.68156 3.36537
# Velocity P-wave (km/s) = 5.44172 7.51145 6.55874
#
# Compressibility (1/GPa) = 0.02951294
#
# Stress axis : x y z
#
# Youngs Moduli (GPa) = 28.02145 129.10158 103.51740
#
# Poissons Ratio (x) = 0.22968 0.62116
# Poissons Ratio (y) = 0.04985 0.41515
# Poissons Ratio (z) = 0.16814 0.51776
#
# Static dielectric constant tensor:
#      x y z
#    x 3.332070 0.000000 0.000000 
#    y 0.000000 4.308380 0.000000 
#    z 0.000000 0.000000 3.677080 
# 
# 
# High freq. dielectric constant tensor:
#      x y z
#    x 1.728270 0.000000 0.000000 
#    y 0.000000 1.765370 0.000000 
#    z 0.000000 0.000000 1.758570 
# 
# From -- ./inp_files/20844.got.cif
#   From: 2010.03.12/outbox.cif.g09.slc.cpg/sg53_11_cif.got.tgz:20844.got - 2010.04.16 14:36:59.
