data_PCOD8222686
_publ_section_title
;
Structure prediction by ZEFSAII (Michael W. Deem and Ramdas Pophale) SiO2 
 PCOD8222686
Probable space group: P C C A
;
_chemical_formula_sum "Si O2"
_cell_formula_units_Z 56
_cell_length_a 22.085257
_cell_length_b 8.599259
_cell_length_c 14.413306
_cell_angle_alpha 90.000000
_cell_angle_beta 90.000000
_cell_angle_gamma 90.000000
_cell_volume 2737.329602
_symmetry_space_group_name_H-M "P C C A"
_symmetry_group_IT_number 54
_symmetry_cell_setting 'orthorhombic'
loop_
_space_group_symop_operation_xyz
x,y,z
1/2-x,-y,z
1/2+x,-y,1/2-z
-x,y,1/2-z
-x,-y,-z
1/2+x,y,-z
1/2-x,y,1/2+z
x,-y,1/2+z
loop_
_atom_site_type_symbol
_atom_site_label
_atom_site_fract_x
_atom_site_fract_y
_atom_site_fract_z
Si Si1 0.652125 0.360163 0.371699
Si Si2 0.917198 0.116169 0.986910
Si Si3 0.058673 0.405437 0.199174
Si Si4 0.863197 0.253251 0.159293
Si Si5 0.766264 0.672550 0.202609
Si Si6 0.348868 0.562365 0.952650
Si Si7 0.952023 0.224723 0.480790
O O1 0.629825 0.207610 0.423989
O O2 0.599120 0.442728 0.315138
O O3 0.697182 0.282103 0.295803
O O4 0.675292 0.492078 0.447582
O O5 0.918590 0.936966 0.956885
O O6 0.892155 0.121805 0.093113
O O7 0.983512 0.191682 0.971180
O O8 0.095918 0.267881 0.249652
O O9 0.032740 0.324578 0.108539
O O10 0.000000 0.469377 0.250000
O O11 0.793166 0.218694 0.188439
O O12 0.868272 0.418844 0.109540
O O13 0.750000 0.500000 0.231512
O O14 0.799257 0.667029 0.101725
O O15 0.407820 0.670400 0.957612
#
# Coordination Sequence:
#
# PCOD8222686 Si02
#       7
#     8   8   8   8   8   8   8
#     4  10  21  34  62  88 118 148 201 248 293 358
#     4  10  22  40  58  86 118 163 192 243 296 367
#     4  11  20  35  60  90 117 151 191 252 299 349
#     4  10  20  38  61  85 117 151 198 246 299 351
#     4  10  19  37  58  90 117 151 196 246 302 342
#     4   9  20  36  61  89 112 153 193 248 291 355
#     4  10  22  40  59  83 125 157 198 234 306 363
#
# _framework density 20.457895000000001
#
# number of rings (size 3 to 8) (size 9 to 14) (size 15 to 20)
#    0.000    2.000    4.286    0.000    2.000    4.571 
#    2.571    1.429    0.000    0.000    0.000    0.000 
#    0.000    0.000    0.000    0.000    0.000    0.000 
#
# Total GULP energy -693852.734042 kJ/mol
# GULP energy per Si atom -12390.227394 kJ/mol
# Density = 2.041133 g / cm^3
# Si number density = 20.457895 Si / 1000 Ang^3
#
#
#
# Elastic Constant Matrix: (Units=GPa)
#
#
# Indices 1 2 3 4 5 6 
#
# 1 95.5978 15.4119 38.0649 0.0000 0.0000 0.0000
# 2 15.4119 42.8302 0.9115 0.0000 0.0000 0.0000
# 3 38.0649 0.9115 75.7463 0.0000 0.0000 0.0000
# 4 0.0000 0.0000 0.0000 4.8910 0.0000 0.0000
# 5 0.0000 0.0000 0.0000 0.0000 38.2033 0.0000
# 6 0.0000 0.0000 0.0000 0.0000 0.0000 21.4283
#
#
#
# Elastic Compliance Matrix: (Units=1/GPa)
#
#
# Indices 1 2 3 4 5 6 
#
# 1 0.014036 -0.004902 -0.006994 0.000000 0.000000 0.000000
# 2 -0.004902 0.025066 0.002162 0.000000 0.000000 0.000000
# 3 -0.006994 0.002162 0.016691 0.000000 0.000000 0.000000
# 4 0.000000 0.000000 0.000000 0.204456 0.000000 0.000000
# 5 0.000000 0.000000 0.000000 0.000000 0.026176 0.000000
# 6 0.000000 0.000000 0.000000 0.000000 0.000000 0.046667
#
#
# Mechanical properties :
#
#
# Convention : Reuss Voigt Hill
#
# Bulk Modulus (GPa) = 27.53046 35.88344 31.70695
# Shear Modulus (GPa) = 13.71108 23.55692 18.63400
#
# Velocity S-wave (km/s) = 2.59165 3.39703 3.02130
# Velocity P-wave (km/s) = 4.73729 5.74149 5.26339
#
# Compressibility (1/GPa) = 0.03632340
#
# Stress axis : x y z
#
# Youngs Moduli (GPa) = 71.24663 39.89501 59.91300
#
# Poissons Ratio (x) = 0.19555 0.41906
# Poissons Ratio (y) = 0.34923 -0.12951
# Poissons Ratio (z) = 0.49833 -0.08624
#
# Static dielectric constant tensor:
#      x y z
#    x 4.037300 0.000000 0.000000 
#    y 0.000000 3.335740 0.000000 
#    z 0.000000 0.000000 3.973960 
# 
# 
# High freq. dielectric constant tensor:
#      x y z
#    x 1.806080 0.000000 0.000000 
#    y 0.000000 1.760570 0.000000 
#    z 0.000000 0.000000 1.807090 
# 
# From -- ./inp_files/14693.got.cif
#   From: 2010.03.12/outbox.cif.g09.slc.cpg/sg54_8_cif.got.tgz:14693.got - 2010.04.16 15:00:50.
