data_PCOD8222315
_publ_section_title
;
Structure prediction by ZEFSAII (Michael W. Deem and Ramdas Pophale) SiO2 
 PCOD8222315
Probable space group: P C C A
;
_chemical_formula_sum "Si O2"
_cell_formula_units_Z 56
_cell_length_a 14.369878
_cell_length_b 32.772596
_cell_length_c 5.258211
_cell_angle_alpha 90.000000
_cell_angle_beta 90.000000
_cell_angle_gamma 90.000000
_cell_volume 2476.292456
_symmetry_space_group_name_H-M "P C C A"
_symmetry_group_IT_number 54
_symmetry_cell_setting 'orthorhombic'
loop_
_space_group_symop_operation_xyz
x,y,z
1/2-x,-y,z
1/2+x,-y,1/2-z
-x,y,1/2-z
-x,-y,-z
1/2+x,y,-z
1/2-x,y,1/2+z
x,-y,1/2+z
loop_
_atom_site_type_symbol
_atom_site_label
_atom_site_fract_x
_atom_site_fract_y
_atom_site_fract_z
Si Si1 0.145641 0.017316 0.488212
Si Si2 0.105006 0.807289 0.014254
Si Si3 0.189492 0.890905 0.010653
Si Si4 0.396519 0.772491 0.016316
Si Si5 0.893370 0.519333 0.786128
Si Si6 0.690676 0.308377 0.884904
Si Si7 0.192168 0.399403 0.084455
O O1 0.140123 0.065537 0.530689
O O2 0.250000 0.000000 0.451289
O O3 0.094516 0.995145 0.725033
O O4 0.156446 0.793621 0.754509
O O5 0.110048 0.856278 0.039219
O O6 0.155228 0.785899 0.256181
O O7 0.000439 0.790140 0.999414
O O8 0.262990 0.886258 0.236925
O O9 0.392621 0.723644 0.059166
O O10 0.845935 0.507146 0.515617
O O11 0.886084 0.567140 0.853917
O O12 0.000000 0.506856 0.750000
O O13 0.731258 0.301717 0.602135
O O14 0.648371 0.354042 0.897279
O O15 0.272379 0.405300 0.296292
#
# Coordination Sequence:
#
# PCOD8222315 Si02
#       7
#     8   8   8   8   8   8   8
#     4  10  16  30  48  73 114 144 176 229 271 322
#     4  10  23  37  56  81 111 154 186 232 277 342
#     4  12  21  32  53  86 118 144 189 234 276 323
#     4  10  21  42  57  76 115 150 188 228 287 355
#     4  10  21  37  57  83 123 164 200 240 286 348
#     4  10  21  37  63  87 112 147 184 248 296 342
#     4  10  21  37  58  90 120 145 198 248 298 348
#
# _framework density 22.614455
#
# number of rings (size 3 to 8) (size 9 to 14) (size 15 to 20)
#    0.000    1.714    2.857    2.571    0.000    5.143 
#    2.571    0.000    6.286    0.000    0.000   12.000 
#    0.000    0.000    0.000    0.000    0.000    0.000 
#
# Total GULP energy -693903.738815 kJ/mol
# GULP energy per Si atom -12391.138193 kJ/mol
# Density = 2.256298 g / cm^3
# Si number density = 22.614455 Si / 1000 Ang^3
#
#
#
# Elastic Constant Matrix: (Units=GPa)
#
#
# Indices 1 2 3 4 5 6 
#
# 1 40.8484 49.4869 17.7677 0.0000 0.0000 0.0000
# 2 49.4869 238.4563 81.6390 0.0000 0.0000 0.0000
# 3 17.7677 81.6390 229.7021 0.0000 0.0000 0.0000
# 4 0.0000 0.0000 0.0000 36.5163 0.0000 0.0000
# 5 0.0000 0.0000 0.0000 0.0000 1.8045 0.0000
# 6 0.0000 0.0000 0.0000 0.0000 0.0000 31.0118
#
#
#
# Elastic Compliance Matrix: (Units=1/GPa)
#
#
# Indices 1 2 3 4 5 6 
#
# 1 0.032706 -0.006742 -0.000134 0.000000 0.000000 0.000000
# 2 -0.006742 0.006164 -0.001669 0.000000 0.000000 0.000000
# 3 -0.000134 -0.001669 0.004957 0.000000 0.000000 0.000000
# 4 0.000000 0.000000 0.000000 0.027385 0.000000 0.000000
# 5 0.000000 0.000000 0.000000 0.000000 0.554164 0.000000
# 6 0.000000 0.000000 0.000000 0.000000 0.000000 0.032246
#
#
# Mechanical properties :
#
#
# Convention : Reuss Voigt Hill
#
# Bulk Modulus (GPa) = 37.39989 89.64377 63.52183
# Shear Modulus (GPa) = 7.31395 37.87408 22.59401
#
# Velocity S-wave (km/s) = 1.80034 4.09684 3.16428
# Velocity P-wave (km/s) = 4.57117 7.88066 6.44207
#
# Compressibility (1/GPa) = 0.02673804
#
# Stress axis : x y z
#
# Youngs Moduli (GPa) = 30.57499 162.22431 201.72947
#
# Poissons Ratio (x) = 1.09368 0.02698
# Poissons Ratio (y) = 0.20613 0.33676
# Poissons Ratio (z) = 0.00409 0.27082
#
# Static dielectric constant tensor:
#      x y z
#    x 3.336590 0.000000 0.000000 
#    y 0.000000 4.290770 0.000000 
#    z 0.000000 0.000000 7.805190 
# 
# 
# High freq. dielectric constant tensor:
#      x y z
#    x 1.828280 0.000000 0.000000 
#    y 0.000000 1.903370 0.000000 
#    z 0.000000 0.000000 1.937900 
# 
# From -- ./inp_files/705.got.cif
#   From: 2010.03.12/outbox.cif.g09.slc.cpg/sg54_1_cif.got.tgz:705.got - 2010.04.16 15:00:50.
