data_PCOD8222555
_publ_section_title
;
Structure prediction by ZEFSAII (Michael W. Deem and Ramdas Pophale) SiO2 
 PCOD8222555
Probable space group: P C C A
;
_chemical_formula_sum "Si O2"
_cell_formula_units_Z 56
_cell_length_a 5.039680
_cell_length_b 16.564380
_cell_length_c 33.406038
_cell_angle_alpha 90.000000
_cell_angle_beta 90.000000
_cell_angle_gamma 90.000000
_cell_volume 2788.708479
_symmetry_space_group_name_H-M "P C C A"
_symmetry_group_IT_number 54
_symmetry_cell_setting 'orthorhombic'
loop_
_space_group_symop_operation_xyz
x,y,z
1/2-x,-y,z
1/2+x,-y,1/2-z
-x,y,1/2-z
-x,-y,-z
1/2+x,y,-z
1/2-x,y,1/2+z
x,-y,1/2+z
loop_
_atom_site_type_symbol
_atom_site_label
_atom_site_fract_x
_atom_site_fract_y
_atom_site_fract_z
Si Si1 0.491520 0.053659 0.389437
Si Si2 0.105607 0.130305 0.974512
Si Si3 0.407141 0.318712 0.474808
Si Si4 0.382915 0.632575 0.887779
Si Si5 0.911036 0.261241 0.295451
Si Si6 0.098242 0.791019 0.338683
Si Si7 0.115276 0.419198 0.155614
O O1 0.451251 0.080413 0.434915
O O2 0.506835 0.128929 0.359681
O O3 0.250000 0.000000 0.374580
O O4 0.750000 0.000000 0.385199
O O5 0.097678 0.224427 0.963802
O O6 0.893294 0.106811 0.008569
O O7 0.195554 0.341699 0.508725
O O8 0.341126 0.369844 0.435317
O O9 0.358134 0.723665 0.872365
O O10 0.682286 0.606719 0.879007
O O11 0.170110 0.572602 0.866450
O O12 0.612327 0.231849 0.303926
O O13 0.924732 0.354460 0.309257
O O14 0.000000 0.258586 0.250000
O O15 0.112909 0.201351 0.318519
O O16 0.250000 0.500000 0.174552
#
# Coordination Sequence:
#
# PCOD8222555 Si02
#       7
#     8   8   8   8   8   8   8
#     4  12  24  37  57  82 117 157 194 242 296 338
#     4  10  21  35  52  78 115 151 192 242 296 343
#     4  10  19  32  54  80 107 145 199 249 281 317
#     4  10  19  36  59  79 112 156 194 233 275 331
#     4  10  21  39  66  90 114 147 182 227 283 341
#     4  10  21  39  59  85 114 147 199 233 273 347
#     4  10  21  36  59  90 120 146 178 221 283 348
#
# _framework density 20.08098
#
# number of rings (size 3 to 8) (size 9 to 14) (size 15 to 20)
#    0.000    1.714    1.429    3.429    0.000    1.714 
#    0.000    4.286    0.000   17.143    0.000    0.000 
#    0.000    0.000    0.000    0.000    0.000    0.000 
#
# Total GULP energy -694277.821819 kJ/mol
# GULP energy per Si atom -12397.818247 kJ/mol
# Density = 2.003527 g / cm^3
# Si number density = 20.080980 Si / 1000 Ang^3
#
#
#
# Elastic Constant Matrix: (Units=GPa)
#
#
# Indices 1 2 3 4 5 6 
#
# 1 102.5504 14.3752 18.5859 0.0000 0.0000 0.0000
# 2 14.3752 66.3239 30.7705 0.0000 0.0000 0.0000
# 3 18.5859 30.7705 84.7779 0.0000 0.0000 0.0000
# 4 0.0000 0.0000 0.0000 13.5502 0.0000 0.0000
# 5 0.0000 0.0000 0.0000 0.0000 13.3071 0.0000
# 6 0.0000 0.0000 0.0000 0.0000 0.0000 34.2993
#
#
#
# Elastic Compliance Matrix: (Units=1/GPa)
#
#
# Indices 1 2 3 4 5 6 
#
# 1 0.010265 -0.001420 -0.001735 0.000000 0.000000 0.000000
# 2 -0.001420 0.018327 -0.006341 0.000000 0.000000 0.000000
# 3 -0.001735 -0.006341 0.014477 0.000000 0.000000 0.000000
# 4 0.000000 0.000000 0.000000 0.073800 0.000000 0.000000
# 5 0.000000 0.000000 0.000000 0.000000 0.075148 0.000000
# 6 0.000000 0.000000 0.000000 0.000000 0.000000 0.029155
#
#
# Mechanical properties :
#
#
# Convention : Reuss Voigt Hill
#
# Bulk Modulus (GPa) = 41.53158 42.34616 41.93887
# Shear Modulus (GPa) = 20.14595 24.89268 22.51932
#
# Velocity S-wave (km/s) = 3.17083 3.52464 3.35240
# Velocity P-wave (km/s) = 5.84230 6.13983 5.99291
#
# Compressibility (1/GPa) = 0.02407806
#
# Stress axis : x y z
#
# Youngs Moduli (GPa) = 97.42050 54.56450 69.07401
#
# Poissons Ratio (x) = 0.07747 0.11984
# Poissons Ratio (y) = 0.13832 0.43797
# Poissons Ratio (z) = 0.16902 0.34597
#
# Static dielectric constant tensor:
#      x y z
#    x 3.877590 0.000000 0.000000 
#    y 0.000000 3.600700 0.000000 
#    z 0.000000 0.000000 3.381280 
# 
# 
# High freq. dielectric constant tensor:
#      x y z
#    x 1.805660 0.000000 0.000000 
#    y 0.000000 1.769540 0.000000 
#    z 0.000000 0.000000 1.767450 
# 
# From -- ./inp_files/27206.got.cif
#   From: 2010.03.12/outbox.cif.g09.slc.cpg/sg54_14_cif.got.tgz:27206.got - 2010.04.16 15:00:50.
