data_PCOD8222367
_publ_section_title
;
Structure prediction by ZEFSAII (Michael W. Deem and Ramdas Pophale) SiO2 
 PCOD8222367
Probable space group: P C C A
;
_chemical_formula_sum "Si O2"
_cell_formula_units_Z 56
_cell_length_a 17.730470
_cell_length_b 5.280520
_cell_length_c 29.015281
_cell_angle_alpha 90.000000
_cell_angle_beta 90.000000
_cell_angle_gamma 90.000000
_cell_volume 2716.587642
_symmetry_space_group_name_H-M "P C C A"
_symmetry_group_IT_number 54
_symmetry_cell_setting 'orthorhombic'
loop_
_space_group_symop_operation_xyz
x,y,z
1/2-x,-y,z
1/2+x,-y,1/2-z
-x,y,1/2-z
-x,-y,-z
1/2+x,y,-z
1/2-x,y,1/2+z
x,-y,1/2+z
loop_
_atom_site_type_symbol
_atom_site_label
_atom_site_fract_x
_atom_site_fract_y
_atom_site_fract_z
Si Si1 0.033831 0.750000 0.476950
Si Si2 0.948821 0.249999 0.180714
Si Si3 0.822610 0.250000 0.921803
Si Si4 0.854121 0.750000 0.324985
Si Si5 0.020409 0.750000 0.368112
Si Si6 0.614526 0.750000 0.277156
Si Si7 0.840289 0.750000 0.959615
O O1 0.022768 0.750000 0.422826
O O2 0.124340 0.750000 0.489160
O O3 0.000000 0.500000 0.500000
O O4 0.000000 0.000000 0.500000
O O5 0.936443 0.500877 0.150254
O O6 0.887651 0.250000 0.221805
O O7 0.031303 0.249999 0.202566
O O8 0.936443 0.999121 0.150254
O O9 0.795857 0.250000 0.868254
O O10 0.871562 0.500700 0.932741
O O11 0.750602 0.250000 0.956375
O O12 0.871562 0.999301 0.932741
O O13 0.841534 0.501336 0.293905
O O14 0.935220 0.750001 0.349919
O O15 0.841534 0.998664 0.293905
#
# Coordination Sequence:
#
# PCOD8222367 Si02
#       7
#     8   8   8   8   8   8   8
#     4  12  23  35  52  76 108 145 183 226 276 334
#     4   9  17  30  43  66 100 136 169 204 249 302
#     4  10  20  35  54  73 103 136 174 224 263 315
#     4  10  17  28  46  72  98 131 171 205 254 309
#     4  10  19  29  46  68 100 140 173 208 258 315
#     4   9  17  27  45  68  99 133 166 203 246 304
#     4  10  21  36  52  73 104 139 174 219 272 314
#
# _framework density 20.614097000000001
#
# number of rings (size 3 to 8) (size 9 to 14) (size 15 to 20)
#    0.000    2.000    0.000    5.143    0.000    5.714 
#    0.000    0.000    0.000    0.000    0.000    0.000 
#    0.000   91.429    0.000    0.000    0.000    0.000 
#
# Total GULP energy -693921.124958 kJ/mol
# GULP energy per Si atom -12391.448660 kJ/mol
# Density = 2.056718 g / cm^3
# Si number density = 20.614097 Si / 1000 Ang^3
#
#
#
# Elastic Constant Matrix: (Units=GPa)
#
#
# Indices 1 2 3 4 5 6 
#
# 1 41.7224 9.6951 25.2085 0.0000 0.0000 0.0000
# 2 9.6951 229.6334 76.3751 0.0000 0.0000 0.0000
# 3 25.2085 76.3751 151.7280 0.0000 0.0000 0.0000
# 4 0.0000 0.0000 0.0000 75.4473 0.0000 0.0000
# 5 0.0000 0.0000 0.0000 0.0000 15.7788 0.0000
# 6 0.0000 0.0000 0.0000 0.0000 0.0000 0.0612
#
#
#
# Elastic Compliance Matrix: (Units=1/GPa)
#
#
# Indices 1 2 3 4 5 6 
#
# 1 0.026676 0.000418 -0.004642 0.000000 0.000000 0.000000
# 2 0.000418 0.005237 -0.002706 0.000000 0.000000 0.000000
# 3 -0.004642 -0.002706 0.008724 0.000000 0.000000 0.000000
# 4 0.000000 0.000000 0.000000 0.013254 0.000000 0.000000
# 5 0.000000 0.000000 0.000000 0.000000 0.063376 0.000000
# 6 0.000000 0.000000 0.000000 0.000000 0.000000 16.335730
#
#
# Mechanical properties :
#
#
# Convention : Reuss Voigt Hill
#
# Bulk Modulus (GPa) = 37.34622 71.73791 54.54206
# Shear Modulus (GPa) = 0.30348 39.04448 19.67398
#
# Velocity S-wave (km/s) = 0.38411 4.35681 3.09268
# Velocity P-wave (km/s) = 4.28403 7.75790 6.26649
#
# Compressibility (1/GPa) = 0.02677647
#
# Stress axis : x y z
#
# Youngs Moduli (GPa) = 37.48735 190.94970 114.62763
#
# Poissons Ratio (x) = -0.07977 0.53213
# Poissons Ratio (y) = -0.01566 0.31013
# Poissons Ratio (z) = 0.17403 0.51662
#
# Static dielectric constant tensor:
#      x y z
#    x 3.314770 0.000000 0.000000 
#    y 0.000000 5.065960 0.000000 
#    z 0.000000 0.000000 3.827630 
# 
# 
# High freq. dielectric constant tensor:
#      x y z
#    x 1.750590 0.000000 0.000000 
#    y 0.000000 1.845870 0.000000 
#    z 0.000000 0.000000 1.793420 
# 
# From -- ./inp_files/24725.got.cif
#   From: 2010.03.12/outbox.cif.g09.slc.cpg/sg54_13_cif.got.tgz:24725.got - 2010.04.16 15:00:50.
