data_PCOD8222892
_publ_section_title
;
Structure prediction by ZEFSAII (Michael W. Deem and Ramdas Pophale) SiO2 
 PCOD8222892
Probable space group: P C C A
;
_chemical_formula_sum "Si O2"
_cell_formula_units_Z 48
_cell_length_a 16.095875
_cell_length_b 5.475861
_cell_length_c 26.108959
_cell_angle_alpha 90.000000
_cell_angle_beta 90.000000
_cell_angle_gamma 90.000000
_cell_volume 2301.211641
_symmetry_space_group_name_H-M "P C C A"
_symmetry_group_IT_number 54
_symmetry_cell_setting 'orthorhombic'
loop_
_space_group_symop_operation_xyz
x,y,z
1/2-x,-y,z
1/2+x,-y,1/2-z
-x,y,1/2-z
-x,-y,-z
1/2+x,y,-z
1/2-x,y,1/2+z
x,-y,1/2+z
loop_
_atom_site_type_symbol
_atom_site_label
_atom_site_fract_x
_atom_site_fract_y
_atom_site_fract_z
Si Si1 0.977068 0.907110 0.847746
Si Si2 0.151830 0.011625 0.070544
Si Si3 0.896459 0.720277 0.183212
Si Si4 0.750000 0.000000 0.147265
Si Si5 0.347928 0.512325 0.515205
Si Si6 0.500000 0.413396 0.750000
Si Si7 0.123445 0.345530 0.402148
O O1 0.888387 0.958553 0.873370
O O2 0.966921 0.739258 0.798004
O O3 0.038593 0.796228 0.890276
O O4 0.014928 0.160233 0.828732
O O5 0.250000 0.000000 0.077901
O O6 0.122336 0.249810 0.037613
O O7 0.121624 0.751944 0.046917
O O8 0.916778 0.563354 0.233829
O O9 0.865259 0.569162 0.135305
O O10 0.819249 0.905834 0.188415
O O11 0.794728 0.181805 0.107285
O O12 0.250000 0.500000 0.512682
O O13 0.384274 0.548031 0.458817
#
# Coordination Sequence:
#
# PCOD8222892 Si02
#       7
#     8   8   8   4   8   4   8
#     4  10  23  41  66  91 121 172 214 273 332 383
#     4  10  24  42  65  92 134 176 220 261 315 390
#     4  10  21  39  65  92 127 164 206 271 329 387
#     4  10  20  36  64  98 126 162 208 264 326 386
#     4  10  22  38  62  95 135 178 213 262 320 382
#     4  10  22  42  68  86 120 170 210 270 336 388
#     4  10  22  36  64  95 132 166 211 262 322 387
#
# _framework density 20.858577
#
# number of rings (size 3 to 8) (size 9 to 14) (size 15 to 20)
#    0.000    2.000    0.000    2.000   12.833    1.333 
#    0.000    0.000   44.000    0.000    0.000    0.000 
#    0.000    0.000    0.000    0.000    0.000    0.000 
#
# Total GULP energy -594849.383398 kJ/mol
# GULP energy per Si atom -12392.695487 kJ/mol
# Density = 2.081110 g / cm^3
# Si number density = 20.858577 Si / 1000 Ang^3
#
#
#
# Elastic Constant Matrix: (Units=GPa)
#
#
# Indices 1 2 3 4 5 6 
#
# 1 75.8273 42.9408 62.4811 0.0000 0.0000 0.0000
# 2 42.9408 138.6581 62.2177 0.0000 0.0000 0.0000
# 3 62.4811 62.2177 140.4051 0.0000 0.0000 0.0000
# 4 0.0000 0.0000 0.0000 178.0290 0.0000 0.0000
# 5 0.0000 0.0000 0.0000 0.0000 41.9169 0.0000
# 6 0.0000 0.0000 0.0000 0.0000 0.0000 8.6522
#
#
#
# Elastic Compliance Matrix: (Units=1/GPa)
#
#
# Indices 1 2 3 4 5 6 
#
# 1 0.021773 -0.002990 -0.008364 0.000000 0.000000 0.000000
# 2 -0.002990 0.009412 -0.002841 0.000000 0.000000 0.000000
# 3 -0.008364 -0.002841 0.012103 0.000000 0.000000 0.000000
# 4 0.000000 0.000000 0.000000 0.005617 0.000000 0.000000
# 5 0.000000 0.000000 0.000000 0.000000 0.023857 0.000000
# 6 0.000000 0.000000 0.000000 0.000000 0.000000 0.115577
#
#
# Mechanical properties :
#
#
# Convention : Reuss Voigt Hill
#
# Bulk Modulus (GPa) = 67.11591 76.68552 71.90072
# Shear Modulus (GPa) = 22.55354 58.20303 40.37828
#
# Velocity S-wave (km/s) = 3.29182 5.28812 4.40456
# Velocity P-wave (km/s) = 6.83334 8.60987 7.77253
#
# Compressibility (1/GPa) = 0.01489960
#
# Stress axis : x y z
#
# Youngs Moduli (GPa) = 45.92843 106.24256 82.62337
#
# Poissons Ratio (x) = 0.31763 0.69109
# Poissons Ratio (y) = 0.13731 0.23469
# Poissons Ratio (z) = 0.38416 0.30178
#
# Static dielectric constant tensor:
#      x y z
#    x 3.611190 0.000000 0.000000 
#    y 0.000000 4.274700 0.000000 
#    z 0.000000 0.000000 3.660210 
# 
# 
# High freq. dielectric constant tensor:
#      x y z
#    x 1.807840 0.000000 0.000000 
#    y 0.000000 1.838850 0.000000 
#    z 0.000000 0.000000 1.800260 
# 
# From -- ./inp_files/26528.got.cif
#   From: 2010.03.12/outbox.cif.g09.slc.cpg/sg54_14_cif.got.tgz:26528.got - 2010.04.16 15:00:50.
