data_PCOD8222441
_publ_section_title
;
Structure prediction by ZEFSAII (Michael W. Deem and Ramdas Pophale) SiO2 
 PCOD8222441
Probable space group: P C C A
;
_chemical_formula_sum "Si O2"
_cell_formula_units_Z 64
_cell_length_a 16.256918
_cell_length_b 9.164487
_cell_length_c 21.955351
_cell_angle_alpha 90.000000
_cell_angle_beta 90.000000
_cell_angle_gamma 90.000000
_cell_volume 3271.046811
_symmetry_space_group_name_H-M "P C C A"
_symmetry_group_IT_number 54
_symmetry_cell_setting 'orthorhombic'
loop_
_space_group_symop_operation_xyz
x,y,z
1/2-x,-y,z
1/2+x,-y,1/2-z
-x,y,1/2-z
-x,-y,-z
1/2+x,y,-z
1/2-x,y,1/2+z
x,-y,1/2+z
loop_
_atom_site_type_symbol
_atom_site_label
_atom_site_fract_x
_atom_site_fract_y
_atom_site_fract_z
Si Si1 0.451383 0.642940 0.018815
Si Si2 0.915982 0.840810 0.719690
Si Si3 0.589131 0.186359 0.228066
Si Si4 0.070219 0.140654 0.418185
Si Si5 0.243584 0.826507 0.707437
Si Si6 0.890217 0.818310 0.091763
Si Si7 0.763582 0.844431 0.517307
Si Si8 0.708013 0.352196 0.911299
O O1 0.496319 0.780357 0.048532
O O2 0.384733 0.605868 0.070582
O O3 0.500000 0.500000 0.000000
O O4 0.417360 0.694359 0.954303
O O5 0.917467 0.795363 0.649286
O O6 0.831651 0.777274 0.748474
O O7 0.000000 0.777931 0.750000
O O8 0.913630 0.013180 0.728287
O O9 0.500000 0.248713 0.250000
O O10 0.667692 0.236837 0.269300
O O11 0.603272 0.244905 0.159757
O O12 0.146151 0.182695 0.459649
O O13 0.055190 0.966018 0.415325
O O14 0.218889 0.764774 0.641881
O O15 0.250000 0.000000 0.702262
O O16 0.795408 0.853162 0.076687
O O17 0.747930 0.712017 0.472197
O O18 0.750000 0.000000 0.482786
O O19 0.750000 0.500000 0.889546
#
# Coordination Sequence:
#
# PCOD8222441 Si02
#       8
#     8   8   8   8   8   8   8   8
#     4  11  23  37  54  79 110 147 188 232 281 331
#     4   9  17  31  53  82 111 137 173 221 273 329
#     4   9  18  31  52  82 111 140 174 219 273 328
#     4  10  18  33  58  83 107 138 177 224 275 330
#     4  10  20  36  59  84 111 144 183 230 282 338
#     4   9  19  35  55  81 111 139 177 223 272 333
#     4   9  18  33  55  80 104 135 175 221 272 325
#     4  11  23  38  53  75 110 146 184 228 277 332
#
# _framework density 19.565602999999999
#
# number of rings (size 3 to 8) (size 9 to 14) (size 15 to 20)
#    0.000    2.250    0.000    3.000    0.000    6.000 
#    0.000    1.250    0.000    3.000    0.000    0.000 
#    0.000    0.000    0.000    0.000    0.000    0.000 
#
# Total GULP energy -793213.397937 kJ/mol
# GULP energy per Si atom -12393.959343 kJ/mol
# Density = 1.952107 g / cm^3
# Si number density = 19.565603 Si / 1000 Ang^3
#
#
#
# Elastic Constant Matrix: (Units=GPa)
#
#
# Indices 1 2 3 4 5 6 
#
# 1 123.3741 18.4247 35.5741 0.0000 0.0000 0.0000
# 2 18.4247 44.4939 13.1394 0.0000 0.0000 0.0000
# 3 35.5741 13.1394 101.3131 0.0000 0.0000 0.0000
# 4 0.0000 0.0000 0.0000 8.6839 0.0000 0.0000
# 5 0.0000 0.0000 0.0000 0.0000 13.1843 0.0000
# 6 0.0000 0.0000 0.0000 0.0000 0.0000 23.3408
#
#
#
# Elastic Compliance Matrix: (Units=1/GPa)
#
#
# Indices 1 2 3 4 5 6 
#
# 1 0.009396 -0.003033 -0.002906 0.000000 0.000000 0.000000
# 2 -0.003033 0.024349 -0.002093 0.000000 0.000000 0.000000
# 3 -0.002906 -0.002093 0.011162 0.000000 0.000000 0.000000
# 4 0.000000 0.000000 0.000000 0.115155 0.000000 0.000000
# 5 0.000000 0.000000 0.000000 0.000000 0.075848 0.000000
# 6 0.000000 0.000000 0.000000 0.000000 0.000000 0.042843
#
#
# Mechanical properties :
#
#
# Convention : Reuss Voigt Hill
#
# Bulk Modulus (GPa) = 34.66927 44.82861 39.74894
# Shear Modulus (GPa) = 16.42402 22.51133 19.46767
#
# Velocity S-wave (km/s) = 2.90044 3.39566 3.15778
# Velocity P-wave (km/s) = 5.38282 6.19159 5.80131
#
# Compressibility (1/GPa) = 0.02884398
#
# Stress axis : x y z
#
# Youngs Moduli (GPa) = 106.42525 41.06955 89.58797
#
# Poissons Ratio (x) = 0.12456 0.26034
# Poissons Ratio (y) = 0.32276 0.18750
# Poissons Ratio (z) = 0.30927 0.08596
#
# Static dielectric constant tensor:
#      x y z
#    x 3.853270 0.000000 0.000000 
#    y 0.000000 3.194740 0.000000 
#    z 0.000000 0.000000 3.600350 
# 
# 
# High freq. dielectric constant tensor:
#      x y z
#    x 1.774190 0.000000 0.000000 
#    y 0.000000 1.725560 0.000000 
#    z 0.000000 0.000000 1.768410 
# 
# From -- ./inp_files/21946.got.cif
#   From: 2010.03.12/outbox.cif.g09.slc.cpg/sg54_11_cif.got.tgz:21946.got - 2010.04.16 15:00:50.
