data_PCOD8222419
_publ_section_title
;
Structure prediction by ZEFSAII (Michael W. Deem and Ramdas Pophale) SiO2 
 PCOD8222419
Probable space group: P C C A
;
_chemical_formula_sum "Si O2"
_cell_formula_units_Z 40
_cell_length_a 5.246391
_cell_length_b 22.629354
_cell_length_c 16.551671
_cell_angle_alpha 90.000000
_cell_angle_beta 90.000000
_cell_angle_gamma 90.000000
_cell_volume 1965.054753
_symmetry_space_group_name_H-M "P C C A"
_symmetry_group_IT_number 54
_symmetry_cell_setting 'orthorhombic'
loop_
_space_group_symop_operation_xyz
x,y,z
1/2-x,-y,z
1/2+x,-y,1/2-z
-x,y,1/2-z
-x,-y,-z
1/2+x,y,-z
1/2-x,y,1/2+z
x,-y,1/2+z
loop_
_atom_site_type_symbol
_atom_site_label
_atom_site_fract_x
_atom_site_fract_y
_atom_site_fract_z
Si Si1 0.759949 0.882419 0.345570
Si Si2 0.497475 0.466193 0.154425
Si Si3 0.874914 0.776208 0.449789
Si Si4 0.745277 0.068148 0.668891
Si Si5 0.387281 0.640786 0.548967
O O1 0.802183 0.814393 0.370654
O O2 0.502681 0.911916 0.382343
O O3 0.751169 0.890737 0.248905
O O4 0.000968 0.918425 0.382519
O O5 0.250000 0.500000 0.121067
O O6 0.500000 0.463761 0.250000
O O7 0.472140 0.399272 0.124018
O O8 0.750000 0.500000 0.121875
O O9 0.655900 0.790586 0.515793
O O10 0.884542 0.708397 0.421565
O O11 0.750000 0.000000 0.695228
O O12 0.599973 0.627519 0.480528
#
# Coordination Sequence:
#
# PCOD8222419 Si02
#       5
#     8   8   8   8   8
#     4  10  18  32  54  77 102 135 176 211 269 328
#     4  10  21  37  57  83 118 149 179 230 291 327
#     4  10  21  37  55  75 108 146 177 221 269 314
#     4  10  19  33  56  79 104 134 170 231 275 312
#     4  10  21  37  58  82 110 148 194 229 268 326
#
# _framework density 20.355665999999999
#
# number of rings (size 3 to 8) (size 9 to 14) (size 15 to 20)
#    0.000    2.000    0.000    5.400    0.000    2.400 
#    3.600    0.000    8.800   20.400    0.000    0.000 
#    0.000    0.000    0.000    0.000    0.000    0.000 
#
# Total GULP energy -495595.902883 kJ/mol
# GULP energy per Si atom -12389.897572 kJ/mol
# Density = 2.030934 g / cm^3
# Si number density = 20.355666 Si / 1000 Ang^3
#
#
#
# Elastic Constant Matrix: (Units=GPa)
#
#
# Indices 1 2 3 4 5 6 
#
# 1 199.9706 57.8730 18.1315 0.0000 0.0000 0.0000
# 2 57.8730 147.7234 50.5646 0.0000 0.0000 0.0000
# 3 18.1315 50.5646 27.8003 0.0000 0.0000 0.0000
# 4 0.0000 0.0000 0.0000 22.6711 0.0000 0.0000
# 5 0.0000 0.0000 0.0000 0.0000 11.8795 0.0000
# 6 0.0000 0.0000 0.0000 0.0000 0.0000 32.1301
#
#
#
# Elastic Compliance Matrix: (Units=1/GPa)
#
#
# Indices 1 2 3 4 5 6 
#
# 1 0.005649 -0.002522 0.000903 0.000000 0.000000 0.000000
# 2 -0.002522 0.019062 -0.033026 0.000000 0.000000 0.000000
# 3 0.000903 -0.033026 0.095452 0.000000 0.000000 0.000000
# 4 0.000000 0.000000 0.000000 0.044109 0.000000 0.000000
# 5 0.000000 0.000000 0.000000 0.000000 0.084179 0.000000
# 6 0.000000 0.000000 0.000000 0.000000 0.000000 0.031123
#
#
# Mechanical properties :
#
#
# Convention : Reuss Voigt Hill
#
# Bulk Modulus (GPa) = 19.65701 69.84805 44.75253
# Shear Modulus (GPa) = 13.66786 29.93115 21.79950
#
# Velocity S-wave (km/s) = 2.59405 3.83875 3.27606
# Velocity P-wave (km/s) = 4.31855 7.35094 6.02852
#
# Compressibility (1/GPa) = 0.05087244
#
# Stress axis : x y z
#
# Youngs Moduli (GPa) = 177.02953 52.45982 10.47649
#
# Poissons Ratio (x) = 0.13232 -0.00946
# Poissons Ratio (y) = 0.44651 0.34600
# Poissons Ratio (z) = -0.15993 1.73256
#
# Static dielectric constant tensor:
#      x y z
#    x 5.479880 0.000000 0.000000 
#    y 0.000000 3.716820 0.000000 
#    z 0.000000 0.000000 3.034510 
# 
# 
# High freq. dielectric constant tensor:
#      x y z
#    x 1.839490 0.000000 0.000000 
#    y 0.000000 1.795790 0.000000 
#    z 0.000000 0.000000 1.737930 
# 
# From -- ./inp_files/15794.got.cif
#   From: 2010.03.12/outbox.cif.g09.slc.cpg/sg54_8_cif.got.tgz:15794.got - 2010.04.16 15:00:50.
