data_PCOD8222893
_publ_section_title
;
Structure prediction by ZEFSAII (Michael W. Deem and Ramdas Pophale) SiO2 
 PCOD8222893
Probable space group: P C C A
;
_chemical_formula_sum "Si O2"
_cell_formula_units_Z 60
_cell_length_a 18.060850
_cell_length_b 12.257803
_cell_length_c 13.276078
_cell_angle_alpha 90.000000
_cell_angle_beta 90.000000
_cell_angle_gamma 90.000000
_cell_volume 2939.142335
_symmetry_space_group_name_H-M "P C C A"
_symmetry_group_IT_number 54
_symmetry_cell_setting 'orthorhombic'
loop_
_space_group_symop_operation_xyz
x,y,z
1/2-x,-y,z
1/2+x,-y,1/2-z
-x,y,1/2-z
-x,-y,-z
1/2+x,y,-z
1/2-x,y,1/2+z
x,-y,1/2+z
loop_
_atom_site_type_symbol
_atom_site_label
_atom_site_fract_x
_atom_site_fract_y
_atom_site_fract_z
Si Si1 0.989702 0.090897 0.865319
Si Si2 0.250000 0.500000 0.912921
Si Si3 0.936224 0.872846 0.932732
Si Si4 0.724692 0.880772 0.466813
Si Si5 0.387428 0.569672 0.545246
Si Si6 0.334497 0.708980 0.877980
Si Si7 0.148679 0.222929 0.658586
Si Si8 0.957602 0.644495 0.965557
O O1 0.913886 0.150187 0.896312
O O2 0.000000 0.124566 0.750000
O O3 0.987106 0.959750 0.876157
O O4 0.052325 0.128921 0.944243
O O5 0.284375 0.601825 0.849865
O O6 0.184416 0.551316 0.978267
O O7 0.852115 0.902495 0.909307
O O8 0.954992 0.751179 0.893869
O O9 0.714304 0.791655 0.554357
O O10 0.775770 0.827539 0.381836
O O11 0.750000 0.000000 0.507786
O O12 0.363094 0.650380 0.632906
O O13 0.417023 0.455320 0.592028
O O14 0.456469 0.619338 0.483526
O O15 0.354156 0.779206 0.779296
O O16 0.410013 0.668212 0.932229
#
# Coordination Sequence:
#
# PCOD8222893 Si02
#       8
#     8   4   8   8   8   8   8   8
#     4  11  22  39  65  92 119 160 208 256 304 369
#     4  10  20  42  58  90 128 162 210 248 324 372
#     4  10  21  40  62  86 124 161 197 256 306 364
#     4  11  22  42  60  90 127 165 205 254 316 375
#     4  10  20  36  65  86 120 164 198 257 305 368
#     4  10  23  39  63  91 126 163 207 262 304 378
#     4  12  23  39  64  92 123 164 210 255 312 374
#     4   9  19  39  63  87 118 162 207 248 308 362
#
# _framework density 20.414117999999998
#
# number of rings (size 3 to 8) (size 9 to 14) (size 15 to 20)
#    0.000    1.600    4.000    1.600    0.000    1.067 
#    2.400    0.000    5.867    0.000    0.000    0.000 
#    0.000    0.000    0.000    0.000    0.000    0.000 
#
# Total GULP energy -743447.948679 kJ/mol
# GULP energy per Si atom -12390.799145 kJ/mol
# Density = 2.036765 g / cm^3
# Si number density = 20.414118 Si / 1000 Ang^3
#
#
#
# Elastic Constant Matrix: (Units=GPa)
#
#
# Indices 1 2 3 4 5 6 
#
# 1 117.1414 28.6061 13.4480 0.0000 0.0000 0.0000
# 2 28.6061 138.7654 4.3963 0.0000 0.0000 0.0000
# 3 13.4480 4.3963 52.5718 0.0000 0.0000 0.0000
# 4 0.0000 0.0000 0.0000 17.9462 0.0000 0.0000
# 5 0.0000 0.0000 0.0000 0.0000 119.0946 0.0000
# 6 0.0000 0.0000 0.0000 0.0000 0.0000 37.8539
#
#
#
# Elastic Compliance Matrix: (Units=1/GPa)
#
#
# Indices 1 2 3 4 5 6 
#
# 1 0.009238 -0.001834 -0.002210 0.000000 0.000000 0.000000
# 2 -0.001834 0.007590 -0.000165 0.000000 0.000000 0.000000
# 3 -0.002210 -0.000165 0.019601 0.000000 0.000000 0.000000
# 4 0.000000 0.000000 0.000000 0.055722 0.000000 0.000000
# 5 0.000000 0.000000 0.000000 0.000000 0.008397 0.000000
# 6 0.000000 0.000000 0.000000 0.000000 0.000000 0.026417
#
#
# Mechanical properties :
#
#
# Convention : Reuss Voigt Hill
#
# Bulk Modulus (GPa) = 35.70215 44.59771 40.14993
# Shear Modulus (GPa) = 34.54929 52.44748 43.49839
#
# Velocity S-wave (km/s) = 4.11837 5.07420 4.62107
# Velocity P-wave (km/s) = 6.33573 7.49827 6.94138
#
# Compressibility (1/GPa) = 0.02800952
#
# Stress axis : x y z
#
# Youngs Moduli (GPa) = 108.24443 131.75545 51.01858
#
# Poissons Ratio (x) = 0.24170 0.11274
# Poissons Ratio (y) = 0.19857 0.00844
# Poissons Ratio (z) = 0.23920 0.02180
#
# Static dielectric constant tensor:
#      x y z
#    x 3.857180 0.000000 0.000000 
#    y 0.000000 4.204080 0.000000 
#    z 0.000000 0.000000 3.082440 
# 
# 
# High freq. dielectric constant tensor:
#      x y z
#    x 1.812860 0.000000 0.000000 
#    y 0.000000 1.832690 0.000000 
#    z 0.000000 0.000000 1.739100 
# 
# From -- ./inp_files/14281.got.cif
#   From: 2010.03.12/outbox.cif.g09.slc.cpg/sg54_8_cif.got.tgz:14281.got - 2010.04.16 15:00:50.
