data_PCOD8222529
_publ_section_title
;
Structure prediction by ZEFSAII (Michael W. Deem and Ramdas Pophale) SiO2 
 PCOD8222529
Probable space group: P C C A
;
_chemical_formula_sum "Si O2"
_cell_formula_units_Z 32
_cell_length_a 5.198610
_cell_length_b 7.508699
_cell_length_c 34.958663
_cell_angle_alpha 90.000000
_cell_angle_beta 90.000000
_cell_angle_gamma 90.000000
_cell_volume 1364.604338
_symmetry_space_group_name_H-M "P C C A"
_symmetry_group_IT_number 54
_symmetry_cell_setting 'orthorhombic'
loop_
_space_group_symop_operation_xyz
x,y,z
1/2-x,-y,z
1/2+x,-y,1/2-z
-x,y,1/2-z
-x,-y,-z
1/2+x,y,-z
1/2-x,y,1/2+z
x,-y,1/2+z
loop_
_atom_site_type_symbol
_atom_site_label
_atom_site_fract_x
_atom_site_fract_y
_atom_site_fract_z
Si Si1 0.245084 0.788517 0.902506
Si Si2 0.250945 0.210976 0.142247
Si Si3 0.248422 0.212362 0.728078
Si Si4 0.572781 0.303325 0.515276
O O1 0.512626 0.721091 0.884057
O O2 0.190210 0.692013 0.942468
O O3 0.018292 0.723921 0.874768
O O4 0.250000 0.000000 0.908880
O O5 0.267936 0.288951 0.185046
O O6 0.250000 0.000000 0.144051
O O7 0.500000 0.284579 0.750000
O O8 0.000000 0.285922 0.750000
O O9 0.250000 0.000000 0.727405
O O10 0.500000 0.500000 0.500000
O O11 0.293969 0.206173 0.511272
#
# Coordination Sequence:
#
# PCOD8222529 Si02
#       4
#     8   8   8   8
#     4  10  19  31  48  69  95 128 165 205 250 298
#     4   9  17  28  42  65  96 129 167 206 241 285
#     4   9  15  23  37  58  88 129 169 198 230 277
#     4  10  21  36  52  70  93 124 158 204 255 301
#
# _framework density 23.450023000000002
#
# number of rings (size 3 to 8) (size 9 to 14) (size 15 to 20)
#    0.000    2.500    0.000    3.000    0.000    7.000 
#    0.000    0.000    0.000    0.000    0.000    0.000 
#    0.000    0.000    0.000  252.000    0.000  112.000 
#
# Total GULP energy -396512.467421 kJ/mol
# GULP energy per Si atom -12391.014607 kJ/mol
# Density = 2.339665 g / cm^3
# Si number density = 23.450023 Si / 1000 Ang^3
#
#
#
# Elastic Constant Matrix: (Units=GPa)
#
#
# Indices 1 2 3 4 5 6 
#
# 1 249.1670 10.0954 103.3227 0.0000 0.0000 0.0000
# 2 10.0954 33.3819 17.3486 0.0000 0.0000 0.0000
# 3 103.3227 17.3486 217.9987 0.0000 0.0000 0.0000
# 4 0.0000 0.0000 0.0000 -184.6045 0.0000 0.0000
# 5 0.0000 0.0000 0.0000 0.0000 54.7871 0.0000
# 6 0.0000 0.0000 0.0000 0.0000 0.0000 0.2320
#
#
#
# Elastic Compliance Matrix: (Units=1/GPa)
#
#
# Indices 1 2 3 4 5 6 
#
# 1 0.004998 -0.000292 -0.002345 0.000000 0.000000 0.000000
# 2 -0.000292 0.031266 -0.002350 0.000000 0.000000 0.000000
# 3 -0.002345 -0.002350 0.005886 0.000000 0.000000 0.000000
# 4 0.000000 0.000000 0.000000 -0.005417 0.000000 0.000000
# 5 0.000000 0.000000 0.000000 0.000000 0.018252 0.000000
# 6 0.000000 0.000000 0.000000 0.000000 0.000000 4.310256
#
#
# Mechanical properties :
#
#
# Convention : Reuss Voigt Hill
#
# Bulk Modulus (GPa) = 31.08058 84.67570 57.87814
# Shear Modulus (GPa) = 1.14001 -1.26502 -0.06251
#
# Velocity S-wave (km/s) = 0.69800 -0.73527 -0.16344
# Velocity P-wave (km/s) = 3.73260 5.95538 4.96985
#
# Compressibility (1/GPa) = 0.03217443
#
# Stress axis : x y z
#
# Youngs Moduli (GPa) = 200.08659 31.98378 169.89945
#
# Poissons Ratio (x) = 0.00936 0.39850
# Poissons Ratio (y) = 0.05853 0.39919
# Poissons Ratio (z) = 0.46930 0.07515
#
# Static dielectric constant tensor:
#      x y z
#    x 3.132270 0.000000 0.000000 
#    y 0.000000 -15.405100 0.000000 
#    z 0.000000 0.000000 4.359100 
# 
# 
# High freq. dielectric constant tensor:
#      x y z
#    x 1.958870 0.000000 0.000000 
#    y 0.000000 1.875550 0.000000 
#    z 0.000000 0.000000 1.934870 
# 
# From -- ./inp_files/26851.got.cif
#   From: 2010.03.12/outbox.cif.g09.slc.cpg/sg54_14_cif.got.tgz:26851.got - 2010.04.16 15:00:50.
