data_PCOD8222400
_publ_section_title
;
Structure prediction by ZEFSAII (Michael W. Deem and Ramdas Pophale) SiO2 
 PCOD8222400
Probable space group: P C C A
;
_chemical_formula_sum "Si O2"
_cell_formula_units_Z 60
_cell_length_a 10.628759
_cell_length_b 15.649368
_cell_length_c 18.628728
_cell_angle_alpha 90.000000
_cell_angle_beta 90.000000
_cell_angle_gamma 90.000000
_cell_volume 3098.578939
_symmetry_space_group_name_H-M "P C C A"
_symmetry_group_IT_number 54
_symmetry_cell_setting 'orthorhombic'
loop_
_space_group_symop_operation_xyz
x,y,z
1/2-x,-y,z
1/2+x,-y,1/2-z
-x,y,1/2-z
-x,-y,-z
1/2+x,y,-z
1/2-x,y,1/2+z
x,-y,1/2+z
loop_
_atom_site_type_symbol
_atom_site_label
_atom_site_fract_x
_atom_site_fract_y
_atom_site_fract_z
Si Si1 0.750000 0.500000 0.484044
Si Si2 0.750807 0.183970 0.080534
Si Si3 0.638564 0.438021 0.747793
Si Si4 0.853934 0.364140 0.091700
Si Si5 0.744774 0.820913 0.417505
Si Si6 0.000097 0.898467 0.084596
Si Si7 0.004155 0.905935 0.913639
Si Si8 0.865697 0.645691 0.893134
O O1 0.666420 0.438280 0.533540
O O2 0.662365 0.556554 0.432661
O O3 0.755966 0.286881 0.081696
O O4 0.620649 0.152294 0.116598
O O5 0.872481 0.141364 0.118992
O O6 0.748563 0.149372 0.999624
O O7 0.750000 0.500000 0.771197
O O8 0.500000 0.483307 0.750000
O O9 0.669423 0.401553 0.670162
O O10 0.635845 0.363353 0.807055
O O11 0.994463 0.326616 0.081907
O O12 0.874660 0.854050 0.382023
O O13 0.622555 0.863892 0.380236
O O14 0.735220 0.718117 0.413208
O O15 0.992442 0.995922 0.110397
O O16 0.002595 0.893370 0.998896
#
# Coordination Sequence:
#
# PCOD8222400 Si02
#       8
#     4   8   8   8   8   8   8   8
#     4  12  22  34  60  82 114 140 188 240 282 328
#     4  10  18  30  50  76 111 141 179 229 270 327
#     4  10  22  42  60  78 109 149 196 230 275 337
#     4  11  22  38  56  83 111 151 188 228 282 335
#     4  10  18  30  50  76 111 141 179 229 270 327
#     4   9  18  28  46  79 106 145 177 218 280 329
#     4   9  16  30  48  71 112 145 177 218 278 335
#     4  11  22  38  56  83 111 151 188 228 282 335
#
# _framework density 19.363714999999999
#
# number of rings (size 3 to 8) (size 9 to 14) (size 15 to 20)
#    0.000    1.867    4.000    1.200    0.000    3.200 
#    4.800    0.000    0.000    0.000    0.000    5.600 
#    0.000    0.000    0.000    0.000    0.000    0.000 
#
# Total GULP energy -743845.820335 kJ/mol
# GULP energy per Si atom -12397.430339 kJ/mol
# Density = 1.931964 g / cm^3
# Si number density = 19.363715 Si / 1000 Ang^3
#
#
#
# Elastic Constant Matrix: (Units=GPa)
#
#
# Indices 1 2 3 4 5 6 
#
# 1 164.4704 65.7022 10.4895 0.0000 0.0000 0.0000
# 2 65.7022 122.3311 6.4737 0.0000 0.0000 0.0000
# 3 10.4895 6.4737 45.7220 0.0000 0.0000 0.0000
# 4 0.0000 0.0000 0.0000 7.8251 0.0000 0.0000
# 5 0.0000 0.0000 0.0000 0.0000 13.8932 0.0000
# 6 0.0000 0.0000 0.0000 0.0000 0.0000 42.4221
#
#
#
# Elastic Compliance Matrix: (Units=1/GPa)
#
#
# Indices 1 2 3 4 5 6 
#
# 1 0.007806 -0.004129 -0.001206 0.000000 0.000000 0.000000
# 2 -0.004129 0.010420 -0.000528 0.000000 0.000000 0.000000
# 3 -0.001206 -0.000528 0.022223 0.000000 0.000000 0.000000
# 4 0.000000 0.000000 0.000000 0.127794 0.000000 0.000000
# 5 0.000000 0.000000 0.000000 0.000000 0.071978 0.000000
# 6 0.000000 0.000000 0.000000 0.000000 0.000000 0.023573
#
#
# Mechanical properties :
#
#
# Convention : Reuss Voigt Hill
#
# Bulk Modulus (GPa) = 34.81572 55.31713 45.06643
# Shear Modulus (GPa) = 17.53806 29.48530 23.51168
#
# Velocity S-wave (km/s) = 3.01278 3.90642 3.48834
# Velocity P-wave (km/s) = 5.48829 6.99831 6.28879
#
# Compressibility (1/GPa) = 0.02872266
#
# Stress axis : x y z
#
# Youngs Moduli (GPa) = 128.09908 95.96885 44.99874
#
# Poissons Ratio (x) = 0.39624 0.05428
# Poissons Ratio (y) = 0.52891 0.02376
# Poissons Ratio (z) = 0.15453 0.05068
#
# Static dielectric constant tensor:
#      x y z
#    x 3.922150 0.000000 0.000000 
#    y 0.000000 3.399940 0.000000 
#    z 0.000000 0.000000 3.016420 
# 
# 
# High freq. dielectric constant tensor:
#      x y z
#    x 1.770950 0.000000 0.000000 
#    y 0.000000 1.754020 0.000000 
#    z 0.000000 0.000000 1.695070 
# 
# From -- ./inp_files/21268.got.cif
#   From: 2010.03.12/outbox.cif.g09.slc.cpg/sg54_11_cif.got.tgz:21268.got - 2010.04.16 15:00:50.
