data_PCOD8222451
_publ_section_title
;
Structure prediction by ZEFSAII (Michael W. Deem and Ramdas Pophale) SiO2 
 PCOD8222451
Probable space group: P C C A
;
_chemical_formula_sum "Si O2"
_cell_formula_units_Z 52
_cell_length_a 14.396871
_cell_length_b 20.937211
_cell_length_c 9.256260
_cell_angle_alpha 90.000000
_cell_angle_beta 90.000000
_cell_angle_gamma 90.000000
_cell_volume 2790.117468
_symmetry_space_group_name_H-M "P C C A"
_symmetry_group_IT_number 54
_symmetry_cell_setting 'orthorhombic'
loop_
_space_group_symop_operation_xyz
x,y,z
1/2-x,-y,z
1/2+x,-y,1/2-z
-x,y,1/2-z
-x,-y,-z
1/2+x,y,-z
1/2-x,y,1/2+z
x,-y,1/2+z
loop_
_atom_site_type_symbol
_atom_site_label
_atom_site_fract_x
_atom_site_fract_y
_atom_site_fract_z
Si Si1 0.482505 0.239539 0.581688
Si Si2 0.167455 0.661766 0.605693
Si Si3 0.250000 0.000000 0.790819
Si Si4 0.366740 0.028243 0.044260
Si Si5 0.139728 0.329750 0.442527
Si Si6 0.988747 0.435001 0.416044
Si Si7 0.468567 0.905765 0.084626
O O1 0.500000 0.248391 0.750000
O O2 0.392955 0.280775 0.536121
O O3 0.579767 0.265911 0.513593
O O4 0.455918 0.167423 0.539454
O O5 0.271379 0.663029 0.544808
O O6 0.174548 0.670721 0.777724
O O7 0.113495 0.596516 0.562125
O O8 0.190308 0.047847 0.687806
O O9 0.313034 0.043497 0.895559
O O10 0.378901 0.950608 0.061751
O O11 0.460815 0.067039 0.035890
O O12 0.070003 0.388256 0.469584
O O13 0.000000 0.451625 0.250000
O O14 0.000000 0.500000 0.500000
O O15 0.500000 0.912843 0.250000
#
# Coordination Sequence:
#
# PCOD8222451 Si02
#       7
#     8   8   4   8   8   8   8
#     4   8  17  35  54  75 103 138 172 211 258 310
#     4   9  18  35  55  75 105 138 173 210 255 301
#     4  10  20  36  48  78 104 132 164 214 262 312
#     4  10  20  34  54  72 106 132 168 212 266 308
#     4   9  18  35  55  75 105 138 173 210 255 301
#     4   9  19  34  53  78 106 140 170 208 253 301
#     4  10  18  34  55  76  96 140 171 208 263 321
#
# _framework density 18.637208000000001
#
# number of rings (size 3 to 8) (size 9 to 14) (size 15 to 20)
#    0.000    2.769    1.538    1.846    0.000    1.846 
#    5.538    5.385    3.385    0.000    0.000    0.000 
#    0.000    0.000    0.000    0.000    0.000    0.000 
#
# Total GULP energy -644185.104055 kJ/mol
# GULP energy per Si atom -12388.175078 kJ/mol
# Density = 1.859479 g / cm^3
# Si number density = 18.637208 Si / 1000 Ang^3
#
#
#
# Elastic Constant Matrix: (Units=GPa)
#
#
# Indices 1 2 3 4 5 6 
#
# 1 100.1408 32.8250 27.5691 0.0000 0.0000 0.0000
# 2 32.8250 117.6117 26.2913 0.0000 0.0000 0.0000
# 3 27.5691 26.2913 63.5182 0.0000 0.0000 0.0000
# 4 0.0000 0.0000 0.0000 19.2379 0.0000 0.0000
# 5 0.0000 0.0000 0.0000 0.0000 34.3810 0.0000
# 6 0.0000 0.0000 0.0000 0.0000 0.0000 12.8833
#
#
#
# Elastic Compliance Matrix: (Units=1/GPa)
#
#
# Indices 1 2 3 4 5 6 
#
# 1 0.011922 -0.002392 -0.004184 0.000000 0.000000 0.000000
# 2 -0.002392 0.009849 -0.003039 0.000000 0.000000 0.000000
# 3 -0.004184 -0.003039 0.018817 0.000000 0.000000 0.000000
# 4 0.000000 0.000000 0.000000 0.051981 0.000000 0.000000
# 5 0.000000 0.000000 0.000000 0.000000 0.029086 0.000000
# 6 0.000000 0.000000 0.000000 0.000000 0.000000 0.077620
#
#
# Mechanical properties :
#
#
# Convention : Reuss Voigt Hill
#
# Bulk Modulus (GPa) = 46.81936 50.51573 48.66755
# Shear Modulus (GPa) = 22.16066 26.27280 24.21673
#
# Velocity S-wave (km/s) = 3.45201 3.75867 3.60860
# Velocity P-wave (km/s) = 6.40816 6.78236 6.59791
#
# Compressibility (1/GPa) = 0.02135868
#
# Stress axis : x y z
#
# Youngs Moduli (GPa) = 83.87853 101.52882 53.14213
#
# Poissons Ratio (x) = 0.24285 0.22237
# Poissons Ratio (y) = 0.20064 0.16148
# Poissons Ratio (z) = 0.35099 0.30851
#
# Static dielectric constant tensor:
#      x y z
#    x 3.557220 0.000000 0.000000 
#    y 0.000000 3.416310 0.000000 
#    z 0.000000 0.000000 3.254580 
# 
# 
# High freq. dielectric constant tensor:
#      x y z
#    x 1.733200 0.000000 0.000000 
#    y 0.000000 1.702850 0.000000 
#    z 0.000000 0.000000 1.709780 
# 
# From -- ./inp_files/3660.got.cif
#   From: 2010.03.12/outbox.cif.g09.slc.cpg/sg54_2_cif.got.tgz:3660.got - 2010.04.16 15:00:50.
