data_PCOD8222394
_publ_section_title
;
Structure prediction by ZEFSAII (Michael W. Deem and Ramdas Pophale) SiO2 
 PCOD8222394
Probable space group: P C C A
;
_chemical_formula_sum "Si O2"
_cell_formula_units_Z 36
_cell_length_a 5.351946
_cell_length_b 19.214665
_cell_length_c 12.763613
_cell_angle_alpha 90.000000
_cell_angle_beta 90.000000
_cell_angle_gamma 90.000000
_cell_volume 1312.556985
_symmetry_space_group_name_H-M "P C C A"
_symmetry_group_IT_number 54
_symmetry_cell_setting 'orthorhombic'
loop_
_space_group_symop_operation_xyz
x,y,z
1/2-x,-y,z
1/2+x,-y,1/2-z
-x,y,1/2-z
-x,-y,-z
1/2+x,y,-z
1/2-x,y,1/2+z
x,-y,1/2+z
loop_
_atom_site_type_symbol
_atom_site_label
_atom_site_fract_x
_atom_site_fract_y
_atom_site_fract_z
Si Si1 0.656638 0.703679 0.390416
Si Si2 0.245971 0.137542 0.126015
Si Si3 0.157757 0.648605 0.375432
Si Si4 0.250000 0.500000 0.431951
Si Si5 0.751938 0.919624 0.147143
O O1 0.739577 0.782680 0.408262
O O2 0.386432 0.696825 0.331359
O O3 0.606399 0.666247 0.501667
O O4 0.881639 0.665020 0.324774
O O5 0.499953 0.101243 0.081274
O O6 0.248592 0.128890 0.250873
O O7 0.997261 0.098818 0.080818
O O8 0.236401 0.568391 0.359043
O O9 0.500000 0.500000 0.500000
O O10 0.750000 0.000000 0.180516
#
# Coordination Sequence:
#
# PCOD8222394 Si02
#       5
#     8   8   8   4   8
#     4  10  18  29  43  68  98 126 148 182 232 276
#     4  10  18  29  48  70  95 119 146 187 245 280
#     4  10  19  30  45  69  99 123 156 187 217 271
#     4  12  16  30  48  68  94 130 154 194 234 244
#     4  10  19  33  50  73  91 111 152 203 239 277
#
# _framework density 27.427381
#
# number of rings (size 3 to 8) (size 9 to 14) (size 15 to 20)
#    0.000    1.778    4.444    4.667    0.000    0.000 
#    0.000    0.000    0.000    0.000    0.000  105.778 
#    0.000  120.889    0.000    0.000    0.000    0.000 
#
# Total GULP energy -446163.066282 kJ/mol
# GULP energy per Si atom -12393.418508 kJ/mol
# Density = 2.736495 g / cm^3
# Si number density = 27.427381 Si / 1000 Ang^3
#
#
#
# Elastic Constant Matrix: (Units=GPa)
#
#
# Indices 1 2 3 4 5 6 
#
# 1 348.3709 62.4100 -9.7639 0.0000 0.0000 0.0000
# 2 62.4100 172.0625 -7.7956 0.0000 0.0000 0.0000
# 3 -9.7639 -7.7956 45.0541 0.0000 0.0000 0.0000
# 4 0.0000 0.0000 0.0000 21.5582 0.0000 0.0000
# 5 0.0000 0.0000 0.0000 0.0000 -72.5148 0.0000
# 6 0.0000 0.0000 0.0000 0.0000 0.0000 49.7264
#
#
#
# Elastic Compliance Matrix: (Units=1/GPa)
#
#
# Indices 1 2 3 4 5 6 
#
# 1 0.003080 -0.001096 0.000478 0.000000 0.000000 0.000000
# 2 -0.001096 0.006247 0.000844 0.000000 0.000000 0.000000
# 3 0.000478 0.000844 0.022445 0.000000 0.000000 0.000000
# 4 0.000000 0.000000 0.000000 0.046386 0.000000 0.000000
# 5 0.000000 0.000000 0.000000 0.000000 -0.013790 0.000000
# 6 0.000000 0.000000 0.000000 0.000000 0.000000 0.020110
#
#
# Mechanical properties :
#
#
# Convention : Reuss Voigt Hill
#
# Bulk Modulus (GPa) = 31.03226 72.79874 51.91550
# Shear Modulus (GPa) = 52.76037 34.46310 43.61173
#
# Velocity S-wave (km/s) = 4.39069 3.54859 3.99191
# Velocity P-wave (km/s) = 6.08630 6.58711 6.34165
#
# Compressibility (1/GPa) = 0.03222454
#
# Stress axis : x y z
#
# Youngs Moduli (GPa) = 324.65745 160.06544 44.55324
#
# Poissons Ratio (x) = 0.17536 -0.02129
# Poissons Ratio (y) = 0.35569 -0.03758
# Poissons Ratio (z) = -0.15517 -0.13502
#
# Static dielectric constant tensor:
#      x y z
#    x 8.986270 0.000000 0.000000 
#    y 0.000000 4.636670 0.000000 
#    z 0.000000 0.000000 4.438800 
# 
# 
# High freq. dielectric constant tensor:
#      x y z
#    x 2.159670 0.000000 0.000000 
#    y 0.000000 2.082610 0.000000 
#    z 0.000000 0.000000 2.103790 
# 
# From -- ./inp_files/19603.got.cif
#   From: 2010.03.12/outbox.cif.g09.slc.cpg/sg54_10_cif.got.tgz:19603.got - 2010.04.16 15:00:50.
