data_PCOD8222438
_publ_section_title
;
Structure prediction by ZEFSAII (Michael W. Deem and Ramdas Pophale) SiO2 
 PCOD8222438
Probable space group: P C C A
;
_chemical_formula_sum "Si O2"
_cell_formula_units_Z 64
_cell_length_a 13.301135
_cell_length_b 12.526391
_cell_length_c 21.833432
_cell_angle_alpha 90.000000
_cell_angle_beta 90.000000
_cell_angle_gamma 90.000000
_cell_volume 3637.782027
_symmetry_space_group_name_H-M "P C C A"
_symmetry_group_IT_number 54
_symmetry_cell_setting 'orthorhombic'
loop_
_space_group_symop_operation_xyz
x,y,z
1/2-x,-y,z
1/2+x,-y,1/2-z
-x,y,1/2-z
-x,-y,-z
1/2+x,y,-z
1/2-x,y,1/2+z
x,-y,1/2+z
loop_
_atom_site_type_symbol
_atom_site_label
_atom_site_fract_x
_atom_site_fract_y
_atom_site_fract_z
Si Si1 0.080218 0.244269 0.295207
Si Si2 0.752349 0.625729 0.143162
Si Si3 0.772061 0.123982 0.289391
Si Si4 0.805438 0.112820 0.428901
Si Si5 0.393786 0.762639 0.779015
Si Si6 0.969685 0.874348 0.586283
Si Si7 0.342026 0.937312 0.871375
Si Si8 0.223954 0.217003 0.459568
O O1 0.153497 0.333675 0.321791
O O2 0.139611 0.153255 0.257790
O O3 0.019637 0.184958 0.348700
O O4 0.000000 0.300571 0.250000
O O5 0.750000 0.500000 0.138693
O O6 0.849362 0.663146 0.182235
O O7 0.752397 0.671132 0.073381
O O8 0.799524 0.149380 0.359103
O O9 0.677412 0.200679 0.276329
O O10 0.750000 0.000000 0.281761
O O11 0.756826 0.208054 0.469676
O O12 0.923433 0.107516 0.446249
O O13 0.750000 0.000000 0.441733
O O14 0.500000 0.729306 0.750000
O O15 0.402300 0.863344 0.824421
O O16 0.895925 0.804172 0.543481
O O17 0.924842 0.991168 0.596498
O O18 0.283381 0.874029 0.923604
O O19 0.250000 0.000000 0.836695
#
# Coordination Sequence:
#
# PCOD8222438 Si02
#       8
#     8   8   8   8   8   8   8   8
#     4  10  18  33  55  79 104 138 170 215 257 309
#     4   9  20  39  60  75  90 127 182 227 269 317
#     4  10  20  31  46  80 120 146 171 197 238 308
#     4  11  22  31  47  81 112 141 177 205 241 301
#     4  10  20  31  50  79 111 135 159 213 271 308
#     4  10  19  32  52  75 105 149 182 197 245 307
#     4   9  17  31  49  70 102 145 181 202 234 300
#     4   9  20  37  51  70 100 134 181 226 253 293
#
# _framework density 17.593138
#
# number of rings (size 3 to 8) (size 9 to 14) (size 15 to 20)
#    0.000    2.250    1.250    4.500    3.500    3.500 
#    2.250    0.000    0.000    6.000    0.000    0.000 
#    0.000    0.000    0.000    0.000    0.000    0.000 
#
# Total GULP energy -793281.362550 kJ/mol
# GULP energy per Si atom -12395.021290 kJ/mol
# Density = 1.755309 g / cm^3
# Si number density = 17.593138 Si / 1000 Ang^3
#
#
#
# Elastic Constant Matrix: (Units=GPa)
#
#
# Indices 1 2 3 4 5 6 
#
# 1 113.9007 35.2778 34.8315 0.0000 0.0000 0.0000
# 2 35.2778 108.0844 35.1488 0.0000 0.0000 0.0000
# 3 34.8315 35.1488 80.3051 0.0000 0.0000 0.0000
# 4 0.0000 0.0000 0.0000 14.5489 0.0000 0.0000
# 5 0.0000 0.0000 0.0000 0.0000 22.4420 0.0000
# 6 0.0000 0.0000 0.0000 0.0000 0.0000 11.6635
#
#
#
# Elastic Compliance Matrix: (Units=1/GPa)
#
#
# Indices 1 2 3 4 5 6 
#
# 1 0.010586 -0.002288 -0.003590 0.000000 0.000000 0.000000
# 2 -0.002288 0.011282 -0.003946 0.000000 0.000000 0.000000
# 3 -0.003590 -0.003946 0.015737 0.000000 0.000000 0.000000
# 4 0.000000 0.000000 0.000000 0.068733 0.000000 0.000000
# 5 0.000000 0.000000 0.000000 0.000000 0.044559 0.000000
# 6 0.000000 0.000000 0.000000 0.000000 0.000000 0.085737
#
#
# Mechanical properties :
#
#
# Convention : Reuss Voigt Hill
#
# Bulk Modulus (GPa) = 55.68756 56.97849 56.33302
# Shear Modulus (GPa) = 19.06448 22.86637 20.96543
#
# Velocity S-wave (km/s) = 3.29543 3.60909 3.45582
# Velocity P-wave (km/s) = 6.79717 7.05864 6.92914
#
# Compressibility (1/GPa) = 0.01795733
#
# Stress axis : x y z
#
# Youngs Moduli (GPa) = 94.46389 88.63813 63.54538
#
# Poissons Ratio (x) = 0.20277 0.22815
# Poissons Ratio (y) = 0.21610 0.25073
# Poissons Ratio (z) = 0.33916 0.34974
#
# Static dielectric constant tensor:
#      x y z
#    x 3.390740 0.000000 0.000000 
#    y 0.000000 2.884750 0.000000 
#    z 0.000000 0.000000 3.404930 
# 
# 
# High freq. dielectric constant tensor:
#      x y z
#    x 1.685180 0.000000 0.000000 
#    y 0.000000 1.634860 0.000000 
#    z 0.000000 0.000000 1.683450 
# 
# From -- ./inp_files/24259.got.cif
#   From: 2010.03.12/outbox.cif.g09.slc.cpg/sg54_13_cif.got.tgz:24259.got - 2010.04.16 15:00:50.
