data_PCOD8222432
_publ_section_title
;
Structure prediction by ZEFSAII (Michael W. Deem and Ramdas Pophale) SiO2 
 PCOD8222432
Probable space group: P C C A
;
_chemical_formula_sum "Si O2"
_cell_formula_units_Z 48
_cell_length_a 17.267398
_cell_length_b 5.021092
_cell_length_c 29.351626
_cell_angle_alpha 90.000000
_cell_angle_beta 90.000000
_cell_angle_gamma 90.000000
_cell_volume 2544.821019
_symmetry_space_group_name_H-M "P C C A"
_symmetry_group_IT_number 54
_symmetry_cell_setting 'orthorhombic'
loop_
_space_group_symop_operation_xyz
x,y,z
1/2-x,-y,z
1/2+x,-y,1/2-z
-x,y,1/2-z
-x,-y,-z
1/2+x,y,-z
1/2-x,y,1/2+z
x,-y,1/2+z
loop_
_atom_site_type_symbol
_atom_site_label
_atom_site_fract_x
_atom_site_fract_y
_atom_site_fract_z
Si Si1 0.336683 0.966713 0.947201
Si Si2 0.023203 0.516573 0.359944
Si Si3 0.619940 0.981783 0.152950
Si Si4 0.924073 0.429749 0.279305
Si Si5 0.166093 0.927450 0.248999
Si Si6 0.561801 0.462531 0.539277
O O1 0.329367 0.993844 0.892609
O O2 0.370860 0.682560 0.961313
O O3 0.250000 0.000000 0.967325
O O4 0.394812 0.183979 0.967964
O O5 0.046696 0.820722 0.350718
O O6 0.012998 0.465317 0.413734
O O7 0.943531 0.460062 0.333056
O O8 0.089518 0.319129 0.340549
O O9 0.671379 0.058391 0.196241
O O10 0.855286 0.630190 0.266293
O O11 0.000000 0.501436 0.250000
O O12 0.898193 0.128654 0.270216
O O13 0.250000 0.000000 0.228762
O O14 0.500000 0.500000 0.500000
#
# Coordination Sequence:
#
# PCOD8222432 Si02
#       6
#     8   8   8   8   8   8
#     4  10  20  34  56  83 114 139 170 220 278 335
#     4  10  20  33  56  79 101 140 182 221 258 312
#     4  10  18  33  51  81 109 138 170 213 273 326
#     4  12  21  36  56  76 107 146 190 213 257 325
#     4  12  23  34  52  79 114 146 180 227 269 311
#     4  10  21  37  58  81 110 140 181 223 274 317
#
# _framework density 18.861837000000001
#
# number of rings (size 3 to 8) (size 9 to 14) (size 15 to 20)
#    0.000    1.333    3.333    3.500    0.000    0.000 
#    0.000    5.000    0.000    6.000    0.000    0.000 
#    0.000    0.000    0.000    0.000    0.000    0.000 
#
# Total GULP energy -595359.984127 kJ/mol
# GULP energy per Si atom -12403.333003 kJ/mol
# Density = 1.881891 g / cm^3
# Si number density = 18.861837 Si / 1000 Ang^3
#
#
#
# Elastic Constant Matrix: (Units=GPa)
#
#
# Indices 1 2 3 4 5 6 
#
# 1 69.1707 -0.5506 33.9167 0.0000 0.0000 0.0000
# 2 -0.5506 70.5138 7.3780 0.0000 0.0000 0.0000
# 3 33.9167 7.3780 78.1411 0.0000 0.0000 0.0000
# 4 0.0000 0.0000 0.0000 20.1435 0.0000 0.0000
# 5 0.0000 0.0000 0.0000 0.0000 17.7717 0.0000
# 6 0.0000 0.0000 0.0000 0.0000 0.0000 22.4922
#
#
#
# Elastic Compliance Matrix: (Units=1/GPa)
#
#
# Indices 1 2 3 4 5 6 
#
# 1 0.018434 0.000991 -0.008095 0.000000 0.000000 0.000000
# 2 0.000991 0.014376 -0.001788 0.000000 0.000000 0.000000
# 3 -0.008095 -0.001788 0.016480 0.000000 0.000000 0.000000
# 4 0.000000 0.000000 0.000000 0.049644 0.000000 0.000000
# 5 0.000000 0.000000 0.000000 0.000000 0.056269 0.000000
# 6 0.000000 0.000000 0.000000 0.000000 0.000000 0.044460
#
#
# Mechanical properties :
#
#
# Convention : Reuss Voigt Hill
#
# Bulk Modulus (GPa) = 31.73864 33.25709 32.49787
# Shear Modulus (GPa) = 21.93483 23.88691 22.91087
#
# Velocity S-wave (km/s) = 3.41386 3.56253 3.48899
# Velocity P-wave (km/s) = 5.69234 5.88153 5.78771
#
# Compressibility (1/GPa) = 0.03150734
#
# Stress axis : x y z
#
# Youngs Moduli (GPa) = 54.24765 69.55851 60.68103
#
# Poissons Ratio (x) = -0.06893 0.49120
# Poissons Ratio (y) = -0.05375 0.10847
# Poissons Ratio (z) = 0.43912 0.12434
#
# Static dielectric constant tensor:
#      x y z
#    x 3.143080 0.000000 0.000000 
#    y 0.000000 3.590810 0.000000 
#    z 0.000000 0.000000 3.436550 
# 
# 
# High freq. dielectric constant tensor:
#      x y z
#    x 1.710150 0.000000 0.000000 
#    y 0.000000 1.754110 0.000000 
#    z 0.000000 0.000000 1.710340 
# 
# From -- ./inp_files/28178.got.cif
#   From: 2010.03.12/outbox.cif.g09.slc.cpg/sg54_15_cif.got.tgz:28178.got - 2010.04.16 15:00:50.
