data_PCOD8222273
_publ_section_title
;
Structure prediction by ZEFSAII (Michael W. Deem and Ramdas Pophale) SiO2 
 PCOD8222273
Probable space group: P C C A
;
_chemical_formula_sum "Si O2"
_cell_formula_units_Z 48
_cell_length_a 18.773292
_cell_length_b 25.899197
_cell_length_c 5.219060
_cell_angle_alpha 90.000000
_cell_angle_beta 90.000000
_cell_angle_gamma 90.000000
_cell_volume 2537.575800
_symmetry_space_group_name_H-M "P C C A"
_symmetry_group_IT_number 54
_symmetry_cell_setting 'orthorhombic'
loop_
_space_group_symop_operation_xyz
x,y,z
1/2-x,-y,z
1/2+x,-y,1/2-z
-x,y,1/2-z
-x,-y,-z
1/2+x,y,-z
1/2-x,y,1/2+z
x,-y,1/2+z
loop_
_atom_site_type_symbol
_atom_site_label
_atom_site_fract_x
_atom_site_fract_y
_atom_site_fract_z
Si Si1 0.331179 0.977913 0.213087
Si Si2 0.279985 0.442760 0.173698
Si Si3 0.920697 0.395664 0.726575
Si Si4 0.292870 0.866431 0.283467
Si Si5 0.702578 0.247517 0.778056
Si Si6 0.580394 0.670128 0.226839
O O1 0.340904 0.916056 0.223054
O O2 0.250000 0.000000 0.206698
O O3 0.370661 0.002469 0.458040
O O4 0.250000 0.500000 0.122934
O O5 0.238770 0.413738 0.406538
O O6 0.364488 0.442059 0.226953
O O7 0.907453 0.373192 0.444131
O O8 0.000000 0.419237 0.750000
O O9 0.907904 0.352421 0.942621
O O10 0.272504 0.870019 0.582581
O O11 0.329233 0.810881 0.232259
O O12 0.755620 0.257839 0.541784
O O13 0.634398 0.283637 0.768422
O O14 0.500000 0.691793 0.250000
#
# Coordination Sequence:
#
# PCOD8222273 Si02
#       6
#     8   8   8   8   8   8
#     4  10  14  20  34  52  77 118 156 186 237 294
#     4  10  21  37  55  82 112 139 169 207 254 302
#     4  10  21  37  58  79 103 136 176 214 247 291
#     4  10  16  25  36  57  89 122 152 197 244 303
#     4  10  21  32  48  73 104 133 162 210 266 303
#     4  10  21  37  55  77 103 136 177 214 249 301
#
# _framework density 18.915690999999999
#
# number of rings (size 3 to 8) (size 9 to 14) (size 15 to 20)
#    0.000    2.000    3.333    2.000    0.000    4.000 
#    0.000    3.333    0.000    0.000    0.000    0.000 
#    0.000    1.333    0.000    0.000    0.000    6.667 
#
# Total GULP energy -594689.156630 kJ/mol
# GULP energy per Si atom -12389.357430 kJ/mol
# Density = 1.887264 g / cm^3
# Si number density = 18.915691 Si / 1000 Ang^3
#
#
#
# Elastic Constant Matrix: (Units=GPa)
#
#
# Indices 1 2 3 4 5 6 
#
# 1 74.1345 40.1712 10.3981 0.0000 0.0000 0.0000
# 2 40.1712 66.1914 0.0643 0.0000 0.0000 0.0000
# 3 10.3981 0.0643 129.8898 0.0000 0.0000 0.0000
# 4 0.0000 0.0000 0.0000 4.1488 0.0000 0.0000
# 5 0.0000 0.0000 0.0000 0.0000 18.4172 0.0000
# 6 0.0000 0.0000 0.0000 0.0000 0.0000 4.6147
#
#
#
# Elastic Compliance Matrix: (Units=1/GPa)
#
#
# Indices 1 2 3 4 5 6 
#
# 1 0.020438 -0.012402 -0.001630 0.000000 0.000000 0.000000
# 2 -0.012402 0.022634 0.000982 0.000000 0.000000 0.000000
# 3 -0.001630 0.000982 0.007829 0.000000 0.000000 0.000000
# 4 0.000000 0.000000 0.000000 0.241031 0.000000 0.000000
# 5 0.000000 0.000000 0.000000 0.000000 0.054297 0.000000
# 6 0.000000 0.000000 0.000000 0.000000 0.000000 0.216699
#
#
# Mechanical properties :
#
#
# Convention : Reuss Voigt Hill
#
# Bulk Modulus (GPa) = 40.32358 41.27587 40.79972
# Shear Modulus (GPa) = 8.37107 20.07496 14.22302
#
# Velocity S-wave (km/s) = 2.10596 3.26127 2.74508
# Velocity P-wave (km/s) = 5.22276 6.00413 5.62702
#
# Compressibility (1/GPa) = 0.02479939
#
# Stress axis : x y z
#
# Youngs Moduli (GPa) = 48.92865 44.18225 127.73301
#
# Poissons Ratio (x) = 0.54795 0.20820
# Poissons Ratio (y) = 0.60682 -0.12539
# Poissons Ratio (z) = 0.07975 -0.04337
#
# Static dielectric constant tensor:
#      x y z
#    x 3.094720 0.000000 0.000000 
#    y 0.000000 3.462870 0.000000 
#    z 0.000000 0.000000 4.705410 
# 
# 
# High freq. dielectric constant tensor:
#      x y z
#    x 1.675520 0.000000 0.000000 
#    y 0.000000 1.723090 0.000000 
#    z 0.000000 0.000000 1.778830 
# 
# From -- ./inp_files/604.got.cif
#   From: 2010.03.12/outbox.cif.g09.slc.cpg/sg54_1_cif.got.tgz:604.got - 2010.04.16 15:00:50.
