data_PCOD8222961
_publ_section_title
;
Structure prediction by ZEFSAII (Michael W. Deem and Ramdas Pophale) SiO2 
 PCOD8222961
Probable space group: P C C A
;
_chemical_formula_sum "Si O2"
_cell_formula_units_Z 48
_cell_length_a 9.190171
_cell_length_b 17.218463
_cell_length_c 13.817043
_cell_angle_alpha 90.000000
_cell_angle_beta 90.000000
_cell_angle_gamma 90.000000
_cell_volume 2186.417442
_symmetry_space_group_name_H-M "P C C A"
_symmetry_group_IT_number 54
_symmetry_cell_setting 'orthorhombic'
loop_
_space_group_symop_operation_xyz
x,y,z
1/2-x,-y,z
1/2+x,-y,1/2-z
-x,y,1/2-z
-x,-y,-z
1/2+x,y,-z
1/2-x,y,1/2+z
x,-y,1/2+z
loop_
_atom_site_type_symbol
_atom_site_label
_atom_site_fract_x
_atom_site_fract_y
_atom_site_fract_z
Si Si1 0.489138 0.852969 0.974077
Si Si2 0.346762 0.812400 0.791721
Si Si3 0.238469 0.088794 0.117178
Si Si4 0.348959 0.568001 0.699523
Si Si5 0.975271 0.669919 0.466940
Si Si6 0.232922 0.656825 0.871753
O O1 0.384595 0.869192 0.881654
O O2 0.638283 0.899744 0.963898
O O3 0.533355 0.762657 0.970918
O O4 0.414950 0.883900 0.071970
O O5 0.500000 0.777799 0.750000
O O6 0.259908 0.859699 0.711970
O O7 0.244367 0.743688 0.829617
O O8 0.250000 0.000000 0.149812
O O9 0.250000 0.500000 0.651755
O O10 0.500000 0.540560 0.750000
O O11 0.378016 0.635140 0.620569
O O12 0.242051 0.598511 0.783336
O O13 0.917285 0.640721 0.571203
O O14 0.140199 0.642550 0.451544
#
# Coordination Sequence:
#
# PCOD8222961 Si02
#       6
#     8   8   8   8   8   8
#     4  10  20  39  61  84 115 156 197 240 295 354
#     4   9  19  37  59  80 111 152 191 234 290 349
#     4  11  22  37  58  86 119 155 194 243 299 355
#     4  10  22  40  61  86 121 159 193 239 305 367
#     4  10  21  39  62  86 115 154 199 248 293 351
#     4  10  20  38  62  86 113 150 196 244 294 352
#
# _framework density 21.953721999999999
#
# number of rings (size 3 to 8) (size 9 to 14) (size 15 to 20)
#    0.000    2.000    0.000    6.000    0.000    2.667 
#    0.000   15.000    0.000    0.000    0.000    0.000 
#    0.000    0.000    0.000    0.000    0.000    0.000 
#
# Total GULP energy -594982.643296 kJ/mol
# GULP energy per Si atom -12395.471735 kJ/mol
# Density = 2.190375 g / cm^3
# Si number density = 21.953722 Si / 1000 Ang^3
#
#
#
# Elastic Constant Matrix: (Units=GPa)
#
#
# Indices 1 2 3 4 5 6 
#
# 1 56.7850 38.1292 35.1531 0.0000 0.0000 0.0000
# 2 38.1292 82.6315 30.5897 0.0000 0.0000 0.0000
# 3 35.1531 30.5897 97.2805 0.0000 0.0000 0.0000
# 4 0.0000 0.0000 0.0000 10.4003 0.0000 0.0000
# 5 0.0000 0.0000 0.0000 0.0000 41.4665 0.0000
# 6 0.0000 0.0000 0.0000 0.0000 0.0000 27.0286
#
#
#
# Elastic Compliance Matrix: (Units=1/GPa)
#
#
# Indices 1 2 3 4 5 6 
#
# 1 0.029376 -0.010893 -0.007190 0.000000 0.000000 0.000000
# 2 -0.010893 0.017736 -0.001641 0.000000 0.000000 0.000000
# 3 -0.007190 -0.001641 0.013393 0.000000 0.000000 0.000000
# 4 0.000000 0.000000 0.000000 0.096151 0.000000 0.000000
# 5 0.000000 0.000000 0.000000 0.000000 0.024116 0.000000
# 6 0.000000 0.000000 0.000000 0.000000 0.000000 0.036998
#
#
# Mechanical properties :
#
#
# Convention : Reuss Voigt Hill
#
# Bulk Modulus (GPa) = 47.48881 49.38232 48.43557
# Shear Modulus (GPa) = 18.92245 24.63409 21.77827
#
# Velocity S-wave (km/s) = 2.93904 3.35340 3.15303
# Velocity P-wave (km/s) = 5.76156 6.12669 5.94693
#
# Compressibility (1/GPa) = 0.02105759
#
# Stress axis : x y z
#
# Youngs Moduli (GPa) = 34.04180 56.38284 74.66318
#
# Poissons Ratio (x) = 0.61420 0.53681
# Poissons Ratio (y) = 0.37083 0.12249
# Poissons Ratio (z) = 0.24475 0.09250
#
# Static dielectric constant tensor:
#      x y z
#    x 3.874650 0.000000 0.000000 
#    y 0.000000 3.752180 0.000000 
#    z 0.000000 0.000000 4.113780 
# 
# 
# High freq. dielectric constant tensor:
#      x y z
#    x 1.852910 0.000000 0.000000 
#    y 0.000000 1.846040 0.000000 
#    z 0.000000 0.000000 1.868170 
# 
# From -- ./inp_files/11705.got.cif
#   From: 2010.03.12/outbox.cif.g09.slc.cpg/sg54_6_cif.got.tgz:11705.got - 2010.04.16 15:00:50.
