data_PCOD8222424
_publ_section_title
;
Structure prediction by ZEFSAII (Michael W. Deem and Ramdas Pophale) SiO2 
 PCOD8222424
Probable space group: P C C A
;
_chemical_formula_sum "Si O2"
_cell_formula_units_Z 40
_cell_length_a 5.017397
_cell_length_b 18.317693
_cell_length_c 22.359544
_cell_angle_alpha 90.000000
_cell_angle_beta 90.000000
_cell_angle_gamma 90.000000
_cell_volume 2055.001694
_symmetry_space_group_name_H-M "P C C A"
_symmetry_group_IT_number 54
_symmetry_cell_setting 'orthorhombic'
loop_
_space_group_symop_operation_xyz
x,y,z
1/2-x,-y,z
1/2+x,-y,1/2-z
-x,y,1/2-z
-x,-y,-z
1/2+x,y,-z
1/2-x,y,1/2+z
x,-y,1/2+z
loop_
_atom_site_type_symbol
_atom_site_label
_atom_site_fract_x
_atom_site_fract_y
_atom_site_fract_z
Si Si1 0.045213 0.920780 0.960971
Si Si2 0.204701 0.342398 0.042564
Si Si3 0.250000 0.000000 0.856340
Si Si4 0.587951 0.152987 0.184379
Si Si5 0.417943 0.205681 0.616170
Si Si6 0.250000 0.500000 0.541578
O O1 0.017211 0.835788 0.943750
O O2 0.017820 0.966390 0.899181
O O3 0.335408 0.940036 0.987954
O O4 0.151365 0.288091 0.097698
O O5 0.221977 0.422385 0.076116
O O6 0.482412 0.331166 0.008373
O O7 0.142014 0.065756 0.815313
O O8 0.500000 0.178218 0.250000
O O9 0.353287 0.168377 0.138059
O O10 0.850394 0.199744 0.166335
O O11 0.500000 0.500000 0.500000
#
# Coordination Sequence:
#
# PCOD8222424 Si02
#       6
#     8   8   4   8   8   4
#     4  11  21  34  50  75 106 134 164 208 258 324
#     4  10  18  32  54  85 121 152 176 210 254 320
#     4  10  24  38  56  74  98 136 180 220 278 330
#     4  11  25  42  57  75  99 134 186 243 280 313
#     4  11  22  37  56  80 105 142 183 216 270 325
#     4   8  16  28  48  80 120 154 178 200 242 304
#
# _framework density 19.464704000000001
#
# number of rings (size 3 to 8) (size 9 to 14) (size 15 to 20)
#    0.000    1.600    0.000    6.000    0.000    9.600 
#    0.000    0.000    0.000    0.000    0.000    2.800 
#    0.000    0.000    0.000    0.000    0.000    0.000 
#
# Total GULP energy -495625.929828 kJ/mol
# GULP energy per Si atom -12390.648246 kJ/mol
# Density = 1.942040 g / cm^3
# Si number density = 19.464704 Si / 1000 Ang^3
#
#
#
# Elastic Constant Matrix: (Units=GPa)
#
#
# Indices 1 2 3 4 5 6 
#
# 1 104.3622 28.0059 14.3122 0.0000 0.0000 0.0000
# 2 28.0059 139.3966 37.4915 0.0000 0.0000 0.0000
# 3 14.3122 37.4915 60.4410 0.0000 0.0000 0.0000
# 4 0.0000 0.0000 0.0000 18.2160 0.0000 0.0000
# 5 0.0000 0.0000 0.0000 0.0000 23.1420 0.0000
# 6 0.0000 0.0000 0.0000 0.0000 0.0000 26.0951
#
#
#
# Elastic Compliance Matrix: (Units=1/GPa)
#
#
# Indices 1 2 3 4 5 6 
#
# 1 0.010223 -0.001684 -0.001376 0.000000 0.000000 0.000000
# 2 -0.001684 0.008888 -0.005114 0.000000 0.000000 0.000000
# 3 -0.001376 -0.005114 0.020043 0.000000 0.000000 0.000000
# 4 0.000000 0.000000 0.000000 0.054897 0.000000 0.000000
# 5 0.000000 0.000000 0.000000 0.000000 0.043211 0.000000
# 6 0.000000 0.000000 0.000000 0.000000 0.000000 0.038321
#
#
# Mechanical properties :
#
#
# Convention : Reuss Voigt Hill
#
# Bulk Modulus (GPa) = 43.84994 51.53545 47.69269
# Shear Modulus (GPa) = 25.05850 28.44998 26.75424
#
# Velocity S-wave (km/s) = 3.59190 3.82726 3.71145
# Velocity P-wave (km/s) = 6.30707 6.78708 6.55147
#
# Compressibility (1/GPa) = 0.02280505
#
# Stress axis : x y z
#
# Youngs Moduli (GPa) = 97.82279 112.51713 49.89193
#
# Poissons Ratio (x) = 0.18944 0.06867
# Poissons Ratio (y) = 0.16470 0.25516
# Poissons Ratio (z) = 0.13463 0.57544
#
# Static dielectric constant tensor:
#      x y z
#    x 3.779500 0.000000 0.000000 
#    y 0.000000 4.196380 0.000000 
#    z 0.000000 0.000000 3.152880 
# 
# 
# High freq. dielectric constant tensor:
#      x y z
#    x 1.780960 0.000000 0.000000 
#    y 0.000000 1.758630 0.000000 
#    z 0.000000 0.000000 1.713690 
# 
# From -- ./inp_files/19711.got.cif
#   From: 2010.03.12/outbox.cif.g09.slc.cpg/sg54_10_cif.got.tgz:19711.got - 2010.04.16 15:00:50.
