data_PCOD8222505
_publ_section_title
;
Structure prediction by ZEFSAII (Michael W. Deem and Ramdas Pophale) SiO2 
 PCOD8222505
Probable space group: P C C A
;
_chemical_formula_sum "Si O2"
_cell_formula_units_Z 40
_cell_length_a 13.349691
_cell_length_b 8.717562
_cell_length_c 17.947274
_cell_angle_alpha 90.000000
_cell_angle_beta 90.000000
_cell_angle_gamma 90.000000
_cell_volume 2088.645581
_symmetry_space_group_name_H-M "P C C A"
_symmetry_group_IT_number 54
_symmetry_cell_setting 'orthorhombic'
loop_
_space_group_symop_operation_xyz
x,y,z
1/2-x,-y,z
1/2+x,-y,1/2-z
-x,y,1/2-z
-x,-y,-z
1/2+x,y,-z
1/2-x,y,1/2+z
x,-y,1/2+z
loop_
_atom_site_type_symbol
_atom_site_label
_atom_site_fract_x
_atom_site_fract_y
_atom_site_fract_z
Si Si1 0.956359 0.565910 0.674726
Si Si2 0.500000 0.955994 0.750000
Si Si3 0.610316 0.706953 0.836862
Si Si4 0.357851 0.065386 0.038599
Si Si5 0.466716 0.128004 0.895765
Si Si6 0.250000 0.500000 0.755209
O O1 0.975482 0.687293 0.609119
O O2 0.837971 0.545977 0.688036
O O3 0.000000 0.639171 0.750000
O O4 0.014569 0.406997 0.657974
O O5 0.586580 0.851280 0.784618
O O6 0.446854 0.057462 0.814063
O O7 0.630765 0.770895 0.919594
O O8 0.709129 0.630580 0.801112
O O9 0.250000 0.000000 0.053956
O O10 0.432227 0.936200 0.069059
O O11 0.374685 0.089583 0.950574
#
# Coordination Sequence:
#
# PCOD8222505 Si02
#       6
#     8   4   8   8   8   4
#     4  10  20  38  61  94 120 156 209 261 305 362
#     4  10  18  38  64  86 120 158 194 268 310 340
#     4  10  21  37  61  89 127 161 205 261 309 367
#     4  10  24  41  58  89 125 170 205 247 312 384
#     4  10  22  40  62  87 123 159 208 258 305 369
#     4  10  20  34  62  94 118 158 206 258 306 366
#
# _framework density 19.151164999999999
#
# number of rings (size 3 to 8) (size 9 to 14) (size 15 to 20)
#    0.000    2.000    4.000    0.000    5.600    2.400 
#    3.600    2.000    0.000    0.000    0.000    0.000 
#    0.000    0.000    0.000    0.000    0.000    0.000 
#
# Total GULP energy -495831.330965 kJ/mol
# GULP energy per Si atom -12395.783274 kJ/mol
# Density = 1.910758 g / cm^3
# Si number density = 19.151165 Si / 1000 Ang^3
#
#
#
# Elastic Constant Matrix: (Units=GPa)
#
#
# Indices 1 2 3 4 5 6 
#
# 1 112.8962 49.8219 35.2827 0.0000 0.0000 0.0000
# 2 49.8219 111.3682 60.5828 0.0000 0.0000 0.0000
# 3 35.2827 60.5828 123.3791 0.0000 0.0000 0.0000
# 4 0.0000 0.0000 0.0000 28.0515 0.0000 0.0000
# 5 0.0000 0.0000 0.0000 0.0000 15.4200 0.0000
# 6 0.0000 0.0000 0.0000 0.0000 0.0000 15.2703
#
#
#
# Elastic Compliance Matrix: (Units=1/GPa)
#
#
# Indices 1 2 3 4 5 6 
#
# 1 0.011127 -0.004430 -0.001007 0.000000 0.000000 0.000000
# 2 -0.004430 0.014016 -0.005615 0.000000 0.000000 0.000000
# 3 -0.001007 -0.005615 0.011150 0.000000 0.000000 0.000000
# 4 0.000000 0.000000 0.000000 0.035649 0.000000 0.000000
# 5 0.000000 0.000000 0.000000 0.000000 0.064851 0.000000
# 6 0.000000 0.000000 0.000000 0.000000 0.000000 0.065487
#
#
# Mechanical properties :
#
#
# Convention : Reuss Voigt Hill
#
# Bulk Modulus (GPa) = 70.47743 71.00202 70.73972
# Shear Modulus (GPa) = 21.82320 25.21209 23.51765
#
# Velocity S-wave (km/s) = 3.37935 3.63227 3.50809
# Velocity P-wave (km/s) = 7.21853 7.39906 7.30935
#
# Compressibility (1/GPa) = 0.01418894
#
# Stress axis : x y z
#
# Youngs Moduli (GPa) = 89.86777 71.34795 89.68435
#
# Poissons Ratio (x) = 0.31610 0.09028
# Poissons Ratio (y) = 0.39815 0.50360
# Poissons Ratio (z) = 0.09047 0.40063
#
# Static dielectric constant tensor:
#      x y z
#    x 3.348040 0.000000 0.000000 
#    y 0.000000 3.556470 0.000000 
#    z 0.000000 0.000000 3.615760 
# 
# 
# High freq. dielectric constant tensor:
#      x y z
#    x 1.735680 0.000000 0.000000 
#    y 0.000000 1.750570 0.000000 
#    z 0.000000 0.000000 1.741150 
# 
# From -- ./inp_files/17131.got.cif
#   From: 2010.03.12/outbox.cif.g09.slc.cpg/sg54_9_cif.got.tgz:17131.got - 2010.04.16 15:00:50.
