data_PCOD8222396
_publ_section_title
;
Structure prediction by ZEFSAII (Michael W. Deem and Ramdas Pophale) SiO2 
 PCOD8222396
Probable space group: P C C A
;
_chemical_formula_sum "Si O2"
_cell_formula_units_Z 48
_cell_length_a 23.216971
_cell_length_b 11.704058
_cell_length_c 8.808178
_cell_angle_alpha 90.000000
_cell_angle_beta 90.000000
_cell_angle_gamma 90.000000
_cell_volume 2393.470652
_symmetry_space_group_name_H-M "P C C A"
_symmetry_group_IT_number 54
_symmetry_cell_setting 'orthorhombic'
loop_
_space_group_symop_operation_xyz
x,y,z
1/2-x,-y,z
1/2+x,-y,1/2-z
-x,y,1/2-z
-x,-y,-z
1/2+x,y,-z
1/2-x,y,1/2+z
x,-y,1/2+z
loop_
_atom_site_type_symbol
_atom_site_label
_atom_site_fract_x
_atom_site_fract_y
_atom_site_fract_z
Si Si1 0.526958 0.332640 0.600036
Si Si2 0.750000 0.000000 0.991204
Si Si3 0.070968 0.574250 0.388031
Si Si4 0.806036 0.372971 0.608453
Si Si5 0.316000 0.131605 0.263206
Si Si6 0.060047 0.781584 0.182071
Si Si7 0.750000 0.500000 0.857954
O O1 0.500000 0.274045 0.750000
O O2 0.475938 0.386427 0.505188
O O3 0.567874 0.438974 0.649301
O O4 0.558060 0.232431 0.501900
O O5 0.719213 0.904611 0.886750
O O6 0.801998 0.953415 0.097153
O O7 0.131333 0.609108 0.463090
O O8 0.065671 0.649060 0.234267
O O9 0.791580 0.251654 0.680493
O O10 0.801767 0.464303 0.746373
O O11 0.763652 0.392879 0.467013
O O12 0.385256 0.140479 0.231394
O O13 0.000000 0.834499 0.250000
#
# Coordination Sequence:
#
# PCOD8222396 Si02
#       7
#     8   4   8   8   8   8   4
#     4  10  18  29  49  81 109 150 195 221 258 334
#     4  10  22  42  68  86 102 144 206 250 308 340
#     4   9  18  30  50  73 113 156 192 219 263 321
#     4  10  21  35  53  79 116 155 182 230 272 332
#     4  10  21  41  64  85 112 145 195 253 292 344
#     4   9  19  36  55  82 119 152 184 236 293 340
#     4  10  22  34  48  80 122 154 192 208 274 340
#
# _framework density 20.054558
#
# number of rings (size 3 to 8) (size 9 to 14) (size 15 to 20)
#    0.000    2.333    0.000    3.500    7.000    0.000 
#    0.000   10.833    0.000    0.000    0.000    0.000 
#    0.000    0.000    0.000    0.000    0.000    0.000 
#
# Total GULP energy -594680.579135 kJ/mol
# GULP energy per Si atom -12389.178732 kJ/mol
# Density = 2.000891 g / cm^3
# Si number density = 20.054558 Si / 1000 Ang^3
#
#
#
# Elastic Constant Matrix: (Units=GPa)
#
#
# Indices 1 2 3 4 5 6 
#
# 1 93.8736 27.9683 12.1427 0.0000 0.0000 0.0000
# 2 27.9683 63.7248 22.7733 0.0000 0.0000 0.0000
# 3 12.1427 22.7733 72.4442 0.0000 0.0000 0.0000
# 4 0.0000 0.0000 0.0000 23.2048 0.0000 0.0000
# 5 0.0000 0.0000 0.0000 0.0000 19.1881 0.0000
# 6 0.0000 0.0000 0.0000 0.0000 0.0000 29.2436
#
#
#
# Elastic Compliance Matrix: (Units=1/GPa)
#
#
# Indices 1 2 3 4 5 6 
#
# 1 0.012266 -0.005237 -0.000410 0.000000 0.000000 0.000000
# 2 -0.005237 0.019914 -0.005382 0.000000 0.000000 0.000000
# 3 -0.000410 -0.005382 0.015564 0.000000 0.000000 0.000000
# 4 0.000000 0.000000 0.000000 0.043094 0.000000 0.000000
# 5 0.000000 0.000000 0.000000 0.000000 0.052116 0.000000
# 6 0.000000 0.000000 0.000000 0.000000 0.000000 0.034196
#
#
# Mechanical properties :
#
#
# Convention : Reuss Voigt Hill
#
# Bulk Modulus (GPa) = 38.93086 39.53457 39.23272
# Shear Modulus (GPa) = 24.06496 25.47118 24.76807
#
# Velocity S-wave (km/s) = 3.46782 3.56770 3.51812
# Velocity P-wave (km/s) = 5.95727 6.06033 6.00902
#
# Compressibility (1/GPa) = 0.02568656
#
# Stress axis : x y z
#
# Youngs Moduli (GPa) = 81.52678 50.21469 64.24918
#
# Poissons Ratio (x) = 0.26297 0.02632
# Poissons Ratio (y) = 0.42696 0.34582
# Poissons Ratio (z) = 0.03340 0.27028
#
# Static dielectric constant tensor:
#      x y z
#    x 3.846360 0.000000 0.000000 
#    y 0.000000 3.413280 0.000000 
#    z 0.000000 0.000000 3.854560 
# 
# 
# High freq. dielectric constant tensor:
#      x y z
#    x 1.782380 0.000000 0.000000 
#    y 0.000000 1.738150 0.000000 
#    z 0.000000 0.000000 1.795560 
# 
# From -- ./inp_files/5199.got.cif
#   From: 2010.03.12/outbox.cif.g09.slc.cpg/sg54_3_cif.got.tgz:5199.got - 2010.04.16 15:00:50.
