data_PCOD8222230
_publ_section_title
;
Structure prediction by ZEFSAII (Michael W. Deem and Ramdas Pophale) SiO2 
 PCOD8222230
Probable space group: P M N A
;
_chemical_formula_sum "Si O2"
_cell_formula_units_Z 24
_cell_length_a 14.358312
_cell_length_b 8.919787
_cell_length_c 7.863945
_cell_angle_alpha 90.000000
_cell_angle_beta 90.000000
_cell_angle_gamma 90.000000
_cell_volume 1007.159694
_symmetry_space_group_name_H-M "P M N A"
_symmetry_group_IT_number 53
_symmetry_cell_setting 'orthorhombic'
loop_
_space_group_symop_operation_xyz
x,y,z
1/2-x,-y,1/2+z
x,-y,-z
1/2-x,y,1/2-z
-x,-y,-z
1/2+x,y,1/2-z
-x,y,z
1/2+x,-y,1/2+z
loop_
_atom_site_type_symbol
_atom_site_label
_atom_site_fract_x
_atom_site_fract_y
_atom_site_fract_z
Si Si1 0.674086 0.374431 0.382201
Si Si2 0.000000 0.407702 0.322905
Si Si3 0.671236 0.884769 0.374726
Si Si4 0.500000 0.046421 0.191100
O O1 0.723067 0.500000 0.500000
O O2 0.750000 0.308143 0.250000
O O3 0.591481 0.456691 0.279733
O O4 0.631753 0.247669 0.506450
O O5 0.000000 0.500000 0.500000
O O6 0.000000 0.226392 0.324934
O O7 0.750000 0.819104 0.250000
O O8 0.724020 0.000000 0.500000
O O9 0.589284 0.976356 0.283800
O O10 0.500000 0.000000 0.000000
#
# Coordination Sequence:
#
# PCOD8222230 Si02
#       4
#     8   4   8   4
#     4  12  27  48  73 106 146 191 243 296 362 437
#     4  12  28  48  74 104 146 191 244 298 363 432
#     4  12  25  46  74 106 145 186 240 301 363 431
#     4  12  28  45  74 110 142 187 242 303 364 430
#
# _framework density 23.82939
#
# number of rings (size 3 to 8) (size 9 to 14) (size 15 to 20)
#    0.000    0.000    3.333    6.000    9.333    0.000 
#    0.000    0.000    0.000    0.000    0.000    0.000 
#    0.000    0.000    0.000    0.000    0.000    0.000 
#
# Total GULP energy -297435.691814 kJ/mol
# GULP energy per Si atom -12393.153826 kJ/mol
# Density = 2.377515 g / cm^3
# Si number density = 23.829390 Si / 1000 Ang^3
#
#
#
# Elastic Constant Matrix: (Units=GPa)
#
#
# Indices 1 2 3 4 5 6 
#
# 1 129.1857 23.7171 66.8425 0.0000 0.0000 0.0000
# 2 23.7171 130.7174 74.5599 0.0000 0.0000 0.0000
# 3 66.8425 74.5599 174.6612 0.0000 0.0000 0.0000
# 4 0.0000 0.0000 0.0000 65.3943 0.0000 0.0000
# 5 0.0000 0.0000 0.0000 0.0000 32.1359 0.0000
# 6 0.0000 0.0000 0.0000 0.0000 0.0000 59.9744
#
#
#
# Elastic Compliance Matrix: (Units=1/GPa)
#
#
# Indices 1 2 3 4 5 6 
#
# 1 0.009674 0.000471 -0.003903 0.000000 0.000000 0.000000
# 2 0.000471 0.010135 -0.004507 0.000000 0.000000 0.000000
# 3 -0.003903 -0.004507 0.009143 0.000000 0.000000 0.000000
# 4 0.000000 0.000000 0.000000 0.015292 0.000000 0.000000
# 5 0.000000 0.000000 0.000000 0.000000 0.031118 0.000000
# 6 0.000000 0.000000 0.000000 0.000000 0.000000 0.016674
#
#
# Mechanical properties :
#
#
# Convention : Reuss Voigt Hill
#
# Bulk Modulus (GPa) = 76.48636 84.97814 80.73225
# Shear Modulus (GPa) = 44.53468 49.46390 46.99929
#
# Velocity S-wave (km/s) = 4.32776 4.56098 4.44590
# Velocity P-wave (km/s) = 7.55909 7.96714 7.76580
#
# Compressibility (1/GPa) = 0.01307423
#
# Stress axis : x y z
#
# Youngs Moduli (GPa) = 103.37056 98.66504 109.37203
#
# Poissons Ratio (x) = -0.04649 0.42692
# Poissons Ratio (y) = -0.04871 0.49293
# Poissons Ratio (z) = 0.40349 0.44468
#
# Static dielectric constant tensor:
#      x y z
#    x 4.036980 0.000000 0.000000 
#    y 0.000000 4.256490 0.000000 
#    z 0.000000 0.000000 4.706770 
# 
# 
# High freq. dielectric constant tensor:
#      x y z
#    x 1.933600 0.000000 0.000000 
#    y 0.000000 1.952540 0.000000 
#    z 0.000000 0.000000 1.974730 
# 
# From -- ./inp_files/7797.got.cif
#   From: 2010.03.12/outbox.cif.g09.slc.cpg/sg53_4_cif.got.tgz:7797.got - 2010.04.16 14:36:59.
