data_PCOD8222882
_publ_section_title
;
Structure prediction by ZEFSAII (Michael W. Deem and Ramdas Pophale) SiO2 
 PCOD8222882
Probable space group: P C C A
;
_chemical_formula_sum "Si O2"
_cell_formula_units_Z 36
_cell_length_a 4.975614
_cell_length_b 15.286003
_cell_length_c 22.483526
_cell_angle_alpha 90.000000
_cell_angle_beta 90.000000
_cell_angle_gamma 90.000000
_cell_volume 1710.035170
_symmetry_space_group_name_H-M "P C C A"
_symmetry_group_IT_number 54
_symmetry_cell_setting 'orthorhombic'
loop_
_space_group_symop_operation_xyz
x,y,z
1/2-x,-y,z
1/2+x,-y,1/2-z
-x,y,1/2-z
-x,-y,-z
1/2+x,y,-z
1/2-x,y,1/2+z
x,-y,1/2+z
loop_
_atom_site_type_symbol
_atom_site_label
_atom_site_fract_x
_atom_site_fract_y
_atom_site_fract_z
Si Si1 0.589804 0.816690 0.315234
Si Si2 0.250000 0.000000 0.143465
Si Si3 0.246768 0.600689 0.461181
Si Si4 0.583898 0.753464 0.616491
Si Si5 0.456442 0.905088 0.539380
O O1 0.500000 0.786681 0.250000
O O2 0.647295 0.920937 0.315205
O O3 0.353423 0.799962 0.361419
O O4 0.851003 0.758938 0.333395
O O5 0.484459 0.039381 0.100539
O O6 0.250000 0.500000 0.441176
O O7 0.544545 0.622433 0.484518
O O8 0.161555 0.655079 0.402538
O O9 0.483038 0.803392 0.557084
O O10 0.664643 0.927631 0.487860
#
# Coordination Sequence:
#
# PCOD8222882 Si02
#       5
#     8   4   8   8   8
#     4  11  25  42  60  81 111 154 208 258 295 336
#     4  10  24  38  56  80 110 154 200 246 296 340
#     4  10  20  36  62  97 130 157 187 228 287 364
#     4  11  22  39  60  86 117 157 195 237 296 349
#     4  11  21  34  52  79 115 149 185 228 284 356
#
# _framework density 21.052198000000001
#
# number of rings (size 3 to 8) (size 9 to 14) (size 15 to 20)
#    0.000    1.333    0.000    6.667    0.000   10.667 
#    0.000    0.000    0.000    2.667    0.000    0.000 
#    0.000    0.000    0.000    0.000    0.000    0.000 
#
# Total GULP energy -446333.470114 kJ/mol
# GULP energy per Si atom -12398.151948 kJ/mol
# Density = 2.100428 g / cm^3
# Si number density = 21.052198 Si / 1000 Ang^3
#
#
#
# Elastic Constant Matrix: (Units=GPa)
#
#
# Indices 1 2 3 4 5 6 
#
# 1 114.9102 35.7009 22.3712 0.0000 0.0000 0.0000
# 2 35.7009 112.0169 46.4374 0.0000 0.0000 0.0000
# 3 22.3712 46.4374 77.4266 0.0000 0.0000 0.0000
# 4 0.0000 0.0000 0.0000 22.4252 0.0000 0.0000
# 5 0.0000 0.0000 0.0000 0.0000 28.6549 0.0000
# 6 0.0000 0.0000 0.0000 0.0000 0.0000 28.6358
#
#
#
# Elastic Compliance Matrix: (Units=1/GPa)
#
#
# Indices 1 2 3 4 5 6 
#
# 1 0.009752 -0.002582 -0.001269 0.000000 0.000000 0.000000
# 2 -0.002582 0.012565 -0.006790 0.000000 0.000000 0.000000
# 3 -0.001269 -0.006790 0.017354 0.000000 0.000000 0.000000
# 4 0.000000 0.000000 0.000000 0.044593 0.000000 0.000000
# 5 0.000000 0.000000 0.000000 0.000000 0.034898 0.000000
# 6 0.000000 0.000000 0.000000 0.000000 0.000000 0.034921
#
#
# Mechanical properties :
#
#
# Convention : Reuss Voigt Hill
#
# Bulk Modulus (GPa) = 54.37952 57.04140 55.71046
# Shear Modulus (GPa) = 27.54902 29.26613 28.40757
#
# Velocity S-wave (km/s) = 3.62139 3.73254 3.67739
# Velocity P-wave (km/s) = 6.58581 6.76239 6.67468
#
# Compressibility (1/GPa) = 0.01838927
#
# Stress axis : x y z
#
# Youngs Moduli (GPa) = 102.54666 79.58673 57.62196
#
# Poissons Ratio (x) = 0.20548 0.07313
# Poissons Ratio (y) = 0.26476 0.39125
# Poissons Ratio (z) = 0.13014 0.54039
#
# Static dielectric constant tensor:
#      x y z
#    x 3.997380 0.000000 0.000000 
#    y 0.000000 3.861410 0.000000 
#    z 0.000000 0.000000 3.506130 
# 
# 
# High freq. dielectric constant tensor:
#      x y z
#    x 1.841740 0.000000 0.000000 
#    y 0.000000 1.815560 0.000000 
#    z 0.000000 0.000000 1.800540 
# 
# From -- ./inp_files/19594.got.cif
#   From: 2010.03.12/outbox.cif.g09.slc.cpg/sg54_10_cif.got.tgz:19594.got - 2010.04.16 15:00:50.
