data_PCOD8222176
_publ_section_title
;
Structure prediction by ZEFSAII (Michael W. Deem and Ramdas Pophale) SiO2 
 PCOD8222176
Probable space group: P M N A
;
_chemical_formula_sum "Si O2"
_cell_formula_units_Z 40
_cell_length_a 10.025792
_cell_length_b 24.110417
_cell_length_c 8.700254
_cell_angle_alpha 90.000000
_cell_angle_beta 90.000000
_cell_angle_gamma 90.000000
_cell_volume 2103.077824
_symmetry_space_group_name_H-M "P M N A"
_symmetry_group_IT_number 53
_symmetry_cell_setting 'orthorhombic'
loop_
_space_group_symop_operation_xyz
x,y,z
1/2-x,-y,1/2+z
x,-y,-z
1/2-x,y,1/2-z
-x,-y,-z
1/2+x,y,1/2-z
-x,y,z
1/2+x,-y,1/2+z
loop_
_atom_site_type_symbol
_atom_site_label
_atom_site_fract_x
_atom_site_fract_y
_atom_site_fract_z
Si Si1 0.755094 0.623091 0.432340
Si Si2 0.348210 0.828244 0.112401
Si Si3 0.500000 0.559622 0.929227
Si Si4 0.657482 0.271739 0.101566
Si Si5 0.000000 0.562600 0.936523
Si Si6 0.352710 0.952751 0.123491
O O1 0.750000 0.616215 0.250000
O O2 0.782577 0.687013 0.473668
O O3 0.623020 0.598468 0.505781
O O4 0.871179 0.588920 0.508296
O O5 0.250000 0.811228 0.250000
O O6 0.500000 0.820768 0.172049
O O7 0.319638 0.891418 0.057628
O O8 0.323849 0.789938 0.964563
O O9 0.500000 0.558704 0.746120
O O10 0.500000 0.500000 0.000000
O O11 0.750000 0.278237 0.250000
O O12 0.500000 0.284138 0.137474
O O13 0.000000 0.500000 0.000000
O O14 0.250000 0.971188 0.250000
O O15 0.500000 0.951845 0.196857
O O16 0.341304 0.000000 0.000000
#
# Coordination Sequence:
#
# PCOD8222176 Si02
#       6
#     8   8   4   8   4   8
#     4  12  25  43  65  92 122 160 202 246 298 361
#     4   9  19  37  58  83 117 155 201 248 299 359
#     4  12  24  44  66  92 128 158 199 246 295 356
#     4  11  24  41  61  88 121 157 197 248 303 359
#     4  12  26  44  68  96 124 162 199 246 301 354
#     4   9  18  33  54  81 115 156 198 248 301 356
#
# _framework density 19.019742999999998
#
# number of rings (size 3 to 8) (size 9 to 14) (size 15 to 20)
#    0.000    1.400    1.000    4.800    1.400    2.000 
#    0.000    0.000    0.000    0.000    0.000    0.000 
#    0.000    0.000    0.000    0.000    0.000    0.000 
#
# Total GULP energy -495895.825199 kJ/mol
# GULP energy per Si atom -12397.395630 kJ/mol
# Density = 1.897645 g / cm^3
# Si number density = 19.019743 Si / 1000 Ang^3
#
#
#
# Elastic Constant Matrix: (Units=GPa)
#
#
# Indices 1 2 3 4 5 6 
#
# 1 141.2643 53.1318 68.1933 0.0000 0.0000 0.0000
# 2 53.1318 86.0092 42.8277 0.0000 0.0000 0.0000
# 3 68.1933 42.8277 146.7466 0.0000 0.0000 0.0000
# 4 0.0000 0.0000 0.0000 -45.7379 0.0000 0.0000
# 5 0.0000 0.0000 0.0000 0.0000 36.5015 0.0000
# 6 0.0000 0.0000 0.0000 0.0000 0.0000 33.6112
#
#
#
# Elastic Compliance Matrix: (Units=1/GPa)
#
#
# Indices 1 2 3 4 5 6 
#
# 1 0.010576 -0.004781 -0.003519 0.000000 0.000000 0.000000
# 2 -0.004781 0.015765 -0.002379 0.000000 0.000000 0.000000
# 3 -0.003519 -0.002379 0.009144 0.000000 0.000000 0.000000
# 4 0.000000 0.000000 0.000000 -0.021864 0.000000 0.000000
# 5 0.000000 0.000000 0.000000 0.000000 0.027396 0.000000
# 6 0.000000 0.000000 0.000000 0.000000 0.000000 0.029752
#
#
# Mechanical properties :
#
#
# Convention : Reuss Voigt Hill
#
# Bulk Modulus (GPa) = 70.79096 78.03618 74.41357
# Shear Modulus (GPa) = 51.63305 18.86610 35.24958
#
# Velocity S-wave (km/s) = 5.21594 3.15290 4.30969
# Velocity P-wave (km/s) = 8.57760 7.37377 7.99836
#
# Compressibility (1/GPa) = 0.01412610
#
# Stress axis : x y z
#
# Youngs Moduli (GPa) = 94.55352 63.43276 109.35750
#
# Poissons Ratio (x) = 0.30326 0.38487
# Poissons Ratio (y) = 0.45204 0.26019
# Poissons Ratio (z) = 0.33277 0.15092
#
# Static dielectric constant tensor:
#      x y z
#    x 3.830870 0.000000 0.000000 
#    y 0.000000 3.693780 0.000000 
#    z 0.000000 0.000000 3.457060 
# 
# 
# High freq. dielectric constant tensor:
#      x y z
#    x 1.760080 0.000000 0.000000 
#    y 0.000000 1.761140 0.000000 
#    z 0.000000 0.000000 1.729320 
# 
# From -- ./inp_files/6471.got.cif
#   From: 2010.03.12/outbox.cif.g09.slc.cpg/sg53_4_cif.got.tgz:6471.got - 2010.04.16 14:36:59.
