data_PCOD8222864
_publ_section_title
;
Structure prediction by ZEFSAII (Michael W. Deem and Ramdas Pophale) SiO2 
 PCOD8222864
Probable space group: P C C A
;
_chemical_formula_sum "Si O2"
_cell_formula_units_Z 40
_cell_length_a 5.061543
_cell_length_b 14.553530
_cell_length_c 27.093355
_cell_angle_alpha 90.000000
_cell_angle_beta 90.000000
_cell_angle_gamma 90.000000
_cell_volume 1995.786422
_symmetry_space_group_name_H-M "P C C A"
_symmetry_group_IT_number 54
_symmetry_cell_setting 'orthorhombic'
loop_
_space_group_symop_operation_xyz
x,y,z
1/2-x,-y,z
1/2+x,-y,1/2-z
-x,y,1/2-z
-x,-y,-z
1/2+x,y,-z
1/2-x,y,1/2+z
x,-y,1/2+z
loop_
_atom_site_type_symbol
_atom_site_label
_atom_site_fract_x
_atom_site_fract_y
_atom_site_fract_z
Si Si1 0.500000 0.560605 0.250000
Si Si2 0.762520 0.108135 0.968540
Si Si3 0.750000 0.500000 0.086098
Si Si4 0.323361 0.752152 0.614773
Si Si5 0.679008 0.327633 0.656518
Si Si6 0.408488 0.610399 0.530322
O O1 0.250000 0.500000 0.229486
O O2 0.369159 0.625151 0.291047
O O3 0.818809 0.151412 0.914665
O O4 0.750000 0.000000 0.959846
O O5 0.487688 0.140339 0.992863
O O6 0.786227 0.409570 0.117865
O O7 0.022016 0.506384 0.051870
O O8 0.564536 0.738737 0.653467
O O9 0.328245 0.672904 0.575008
O O10 0.058573 0.741527 0.645932
O O11 0.211785 0.631519 0.486099
#
# Coordination Sequence:
#
# PCOD8222864 Si02
#       6
#     4   8   4   8   8   8
#     4  12  24  42  64  82 110 144 198 248 314 352
#     4  10  20  36  60  89 122 158 195 234 281 337
#     4  10  22  36  48  74 102 146 192 230 270 330
#     4  11  22  37  55  81 115 146 193 233 286 338
#     4  11  24  38  57  81 107 148 186 245 294 348
#     4  11  21  32  46  67 102 146 185 224 259 313
#
# _framework density 20.042225999999999
#
# number of rings (size 3 to 8) (size 9 to 14) (size 15 to 20)
#    0.000    1.200    1.000    6.600    2.800    3.200 
#    0.000    0.000    0.000    0.000    0.000    2.800 
#    0.000    0.000    0.000    0.000    0.000    0.000 
#
# Total GULP energy -495602.945672 kJ/mol
# GULP energy per Si atom -12390.073642 kJ/mol
# Density = 1.999661 g / cm^3
# Si number density = 20.042226 Si / 1000 Ang^3
#
#
#
# Elastic Constant Matrix: (Units=GPa)
#
#
# Indices 1 2 3 4 5 6 
#
# 1 137.1039 27.8684 24.5627 0.0000 0.0000 0.0000
# 2 27.8684 56.1639 20.7567 0.0000 0.0000 0.0000
# 3 24.5627 20.7567 79.4502 0.0000 0.0000 0.0000
# 4 0.0000 0.0000 0.0000 82.0899 0.0000 0.0000
# 5 0.0000 0.0000 0.0000 0.0000 26.5465 0.0000
# 6 0.0000 0.0000 0.0000 0.0000 0.0000 21.9863
#
#
#
# Elastic Compliance Matrix: (Units=1/GPa)
#
#
# Indices 1 2 3 4 5 6 
#
# 1 0.008303 -0.003510 -0.001650 0.000000 0.000000 0.000000
# 2 -0.003510 0.021192 -0.004451 0.000000 0.000000 0.000000
# 3 -0.001650 -0.004451 0.014259 0.000000 0.000000 0.000000
# 4 0.000000 0.000000 0.000000 0.012182 0.000000 0.000000
# 5 0.000000 0.000000 0.000000 0.000000 0.037670 0.000000
# 6 0.000000 0.000000 0.000000 0.000000 0.000000 0.045483
#
#
# Mechanical properties :
#
#
# Convention : Reuss Voigt Hill
#
# Bulk Modulus (GPa) = 40.76368 46.56597 43.66483
# Shear Modulus (GPa) = 30.03217 39.42654 34.72936
#
# Velocity S-wave (km/s) = 3.87517 4.44010 4.16722
# Velocity P-wave (km/s) = 6.35655 7.04062 6.70731
#
# Compressibility (1/GPa) = 0.02453164
#
# Stress axis : x y z
#
# Youngs Moduli (GPa) = 120.44135 47.18811 70.12881
#
# Poissons Ratio (x) = 0.16563 0.11570
# Poissons Ratio (y) = 0.42276 0.31216
# Poissons Ratio (z) = 0.19871 0.21005
#
# Static dielectric constant tensor:
#      x y z
#    x 4.489510 0.000000 0.000000 
#    y 0.000000 3.517120 0.000000 
#    z 0.000000 0.000000 3.667270 
# 
# 
# High freq. dielectric constant tensor:
#      x y z
#    x 1.820490 0.000000 0.000000 
#    y 0.000000 1.749490 0.000000 
#    z 0.000000 0.000000 1.759960 
# 
# From -- ./inp_files/25292.got.cif
#   From: 2010.03.12/outbox.cif.g09.slc.cpg/sg54_13_cif.got.tgz:25292.got - 2010.04.16 15:00:50.
