data_PCOD8222825
_publ_section_title
;
Structure prediction by ZEFSAII (Michael W. Deem and Ramdas Pophale) SiO2 
 PCOD8222825
Probable space group: P C C A
;
_chemical_formula_sum "Si O2"
_cell_formula_units_Z 32
_cell_length_a 8.942456
_cell_length_b 13.501774
_cell_length_c 12.848650
_cell_angle_alpha 90.000000
_cell_angle_beta 90.000000
_cell_angle_gamma 90.000000
_cell_volume 1551.333408
_symmetry_space_group_name_H-M "P C C A"
_symmetry_group_IT_number 54
_symmetry_cell_setting 'orthorhombic'
loop_
_space_group_symop_operation_xyz
x,y,z
1/2-x,-y,z
1/2+x,-y,1/2-z
-x,y,1/2-z
-x,-y,-z
1/2+x,y,-z
1/2-x,y,1/2+z
x,-y,1/2+z
loop_
_atom_site_type_symbol
_atom_site_label
_atom_site_fract_x
_atom_site_fract_y
_atom_site_fract_z
Si Si1 0.750000 0.500000 0.993081
Si Si2 0.681969 0.097407 0.914952
Si Si3 0.998699 0.396983 0.631367
Si Si4 0.000000 0.010129 0.750000
Si Si5 0.496260 0.826843 0.594559
O O1 0.658990 0.577726 0.920797
O O2 0.634264 0.445344 0.067076
O O3 0.816535 0.173574 0.898280
O O4 0.750000 0.000000 0.973542
O O5 0.622134 0.060927 0.802641
O O6 0.550849 0.151971 0.977274
O O7 0.000000 0.436415 0.750000
O O8 0.957291 0.281000 0.632502
O O9 0.930069 0.085733 0.664179
#
# Coordination Sequence:
#
# PCOD8222825 Si02
#       5
#     4   8   8   4   8
#     4  10  24  42  70  94 126 162 200 266 322 382
#     4  10  22  37  58  84 124 165 206 252 298 358
#     4  11  22  44  67  96 127 161 209 256 322 376
#     4  10  20  36  54  86 120 162 202 244 302 354
#     4  11  22  39  60  89 121 162 206 256 296 367
#
# _framework density 20.627417000000001
#
# number of rings (size 3 to 8) (size 9 to 14) (size 15 to 20)
#    0.000    1.500    1.250    5.250    0.000    9.000 
#    4.500    0.000    5.500    0.000    0.000    0.000 
#    0.000    0.000    0.000    0.000    0.000    0.000 
#
# Total GULP energy -396589.703472 kJ/mol
# GULP energy per Si atom -12393.428233 kJ/mol
# Density = 2.058047 g / cm^3
# Si number density = 20.627417 Si / 1000 Ang^3
#
#
#
# Elastic Constant Matrix: (Units=GPa)
#
#
# Indices 1 2 3 4 5 6 
#
# 1 115.9735 38.8650 69.7796 0.0000 0.0000 0.0000
# 2 38.8650 72.3734 42.0548 0.0000 0.0000 0.0000
# 3 69.7796 42.0548 145.2467 0.0000 0.0000 0.0000
# 4 0.0000 0.0000 0.0000 6.9960 0.0000 0.0000
# 5 0.0000 0.0000 0.0000 0.0000 34.5789 0.0000
# 6 0.0000 0.0000 0.0000 0.0000 0.0000 24.5223
#
#
#
# Elastic Compliance Matrix: (Units=1/GPa)
#
#
# Indices 1 2 3 4 5 6 
#
# 1 0.013044 -0.004044 -0.005096 0.000000 0.000000 0.000000
# 2 -0.004044 0.017866 -0.003230 0.000000 0.000000 0.000000
# 3 -0.005096 -0.003230 0.010268 0.000000 0.000000 0.000000
# 4 0.000000 0.000000 0.000000 0.142938 0.000000 0.000000
# 5 0.000000 0.000000 0.000000 0.000000 0.028919 0.000000
# 6 0.000000 0.000000 0.000000 0.000000 0.000000 0.040779
#
#
# Mechanical properties :
#
#
# Convention : Reuss Voigt Hill
#
# Bulk Modulus (GPa) = 60.83232 70.55469 65.69351
# Shear Modulus (GPa) = 17.60358 25.41239 21.50799
#
# Velocity S-wave (km/s) = 2.92448 3.51375 3.23257
# Velocity P-wave (km/s) = 6.39988 7.12324 6.77123
#
# Compressibility (1/GPa) = 0.01643863
#
# Stress axis : x y z
#
# Youngs Moduli (GPa) = 76.66501 55.97331 97.38792
#
# Poissons Ratio (x) = 0.22633 0.49626
# Poissons Ratio (y) = 0.31000 0.31458
# Poissons Ratio (z) = 0.39066 0.18081
#
# Static dielectric constant tensor:
#      x y z
#    x 3.849400 0.000000 0.000000 
#    y 0.000000 3.594940 0.000000 
#    z 0.000000 0.000000 3.913960 
# 
# 
# High freq. dielectric constant tensor:
#      x y z
#    x 1.806400 0.000000 0.000000 
#    y 0.000000 1.797090 0.000000 
#    z 0.000000 0.000000 1.811120 
# 
# From -- ./inp_files/6737.got.cif
#   From: 2010.03.12/outbox.cif.g09.slc.cpg/sg54_4_cif.got.tgz:6737.got - 2010.04.16 15:00:50.
