data_PCOD8222809
_publ_section_title
;
Structure prediction by ZEFSAII (Michael W. Deem and Ramdas Pophale) SiO2 
 PCOD8222809
Probable space group: P C C A
;
_chemical_formula_sum "Si O2"
_cell_formula_units_Z 48
_cell_length_a 9.654457
_cell_length_b 15.432960
_cell_length_c 15.853067
_cell_angle_alpha 90.000000
_cell_angle_beta 90.000000
_cell_angle_gamma 90.000000
_cell_volume 2362.057025
_symmetry_space_group_name_H-M "P C C A"
_symmetry_group_IT_number 54
_symmetry_cell_setting 'orthorhombic'
loop_
_space_group_symop_operation_xyz
x,y,z
1/2-x,-y,z
1/2+x,-y,1/2-z
-x,y,1/2-z
-x,-y,-z
1/2+x,y,-z
1/2-x,y,1/2+z
x,-y,1/2+z
loop_
_atom_site_type_symbol
_atom_site_label
_atom_site_fract_x
_atom_site_fract_y
_atom_site_fract_z
Si Si1 0.632676 0.059305 0.497949
Si Si2 0.765214 0.824956 0.359716
Si Si3 0.292035 0.733268 0.801607
Si Si4 0.535883 0.224712 0.594476
Si Si5 0.529807 0.305520 0.426017
Si Si6 0.125198 0.564786 0.196700
O O1 0.680757 0.085698 0.402174
O O2 0.617051 0.145136 0.552523
O O3 0.750000 0.000000 0.540119
O O4 0.500000 0.000000 0.500000
O O5 0.810149 0.815792 0.261340
O O6 0.599662 0.814364 0.362208
O O7 0.828858 0.746413 0.412831
O O8 0.136601 0.730498 0.837909
O O9 0.404725 0.741012 0.875460
O O10 0.316957 0.646167 0.748747
O O11 0.495016 0.298892 0.525421
O O12 0.558823 0.403122 0.392661
O O13 0.250000 0.500000 0.178084
O O14 0.000000 0.520318 0.250000
#
# Coordination Sequence:
#
# PCOD8222809 Si02
#       6
#     8   8   8   8   8   8
#     4  11  22  39  59  83 118 157 191 241 301 349
#     4  10  20  35  58  84 114 149 197 235 288 352
#     4  10  21  38  60  87 117 153 200 244 293 355
#     4  11  21  36  63  85 114 152 199 242 294 358
#     4   9  19  36  58  85 111 152 197 234 290 350
#     4   9  19  36  58  86 121 157 194 244 302 352
#
# _framework density 20.321270999999999
#
# number of rings (size 3 to 8) (size 9 to 14) (size 15 to 20)
#    0.000    2.000    1.667    4.000    2.333    2.667 
#    0.000    1.667    3.667    8.000    0.000    0.000 
#    0.000    0.000    0.000    0.000    0.000    0.000 
#
# Total GULP energy -594835.225476 kJ/mol
# GULP energy per Si atom -12392.400531 kJ/mol
# Density = 2.027502 g / cm^3
# Si number density = 20.321271 Si / 1000 Ang^3
#
#
#
# Elastic Constant Matrix: (Units=GPa)
#
#
# Indices 1 2 3 4 5 6 
#
# 1 133.8478 30.8688 25.5790 0.0000 0.0000 0.0000
# 2 30.8688 55.6873 17.3262 0.0000 0.0000 0.0000
# 3 25.5790 17.3262 77.4417 0.0000 0.0000 0.0000
# 4 0.0000 0.0000 0.0000 14.8137 0.0000 0.0000
# 5 0.0000 0.0000 0.0000 0.0000 32.1773 0.0000
# 6 0.0000 0.0000 0.0000 0.0000 0.0000 42.8316
#
#
#
# Elastic Compliance Matrix: (Units=1/GPa)
#
#
# Indices 1 2 3 4 5 6 
#
# 1 0.008834 -0.004288 -0.001959 0.000000 0.000000 0.000000
# 2 -0.004288 0.021382 -0.003368 0.000000 0.000000 0.000000
# 3 -0.001959 -0.003368 0.014313 0.000000 0.000000 0.000000
# 4 0.000000 0.000000 0.000000 0.067505 0.000000 0.000000
# 5 0.000000 0.000000 0.000000 0.000000 0.031078 0.000000
# 6 0.000000 0.000000 0.000000 0.000000 0.000000 0.023347
#
#
# Mechanical properties :
#
#
# Convention : Reuss Voigt Hill
#
# Bulk Modulus (GPa) = 39.52308 46.05833 42.79070
# Shear Modulus (GPa) = 25.75708 30.84473 28.30090
#
# Velocity S-wave (km/s) = 3.56405 3.90019 3.73590
# Velocity P-wave (km/s) = 6.03556 6.55715 6.30175
#
# Compressibility (1/GPa) = 0.02530167
#
# Stress axis : x y z
#
# Youngs Moduli (GPa) = 113.19472 46.76839 69.86486
#
# Poissons Ratio (x) = 0.20053 0.13684
# Poissons Ratio (y) = 0.48534 0.23528
# Poissons Ratio (z) = 0.22171 0.15750
#
# Static dielectric constant tensor:
#      x y z
#    x 3.823460 0.000000 0.000000 
#    y 0.000000 3.478910 0.000000 
#    z 0.000000 0.000000 3.860400 
# 
# 
# High freq. dielectric constant tensor:
#      x y z
#    x 1.813330 0.000000 0.000000 
#    y 0.000000 1.760220 0.000000 
#    z 0.000000 0.000000 1.784340 
# 
# From -- ./inp_files/11699.got.cif
#   From: 2010.03.12/outbox.cif.g09.slc.cpg/sg54_6_cif.got.tgz:11699.got - 2010.04.16 15:00:50.
