data_PCOD8222191
_publ_section_title
;
Structure prediction by ZEFSAII (Michael W. Deem and Ramdas Pophale) SiO2 
 PCOD8222191
Probable space group: P M N A
;
_chemical_formula_sum "Si O2"
_cell_formula_units_Z 56
_cell_length_a 14.546459
_cell_length_b 12.748294
_cell_length_c 13.774335
_cell_angle_alpha 90.000000
_cell_angle_beta 90.000000
_cell_angle_gamma 90.000000
_cell_volume 2554.347614
_symmetry_space_group_name_H-M "P M N A"
_symmetry_group_IT_number 53
_symmetry_cell_setting 'orthorhombic'
loop_
_space_group_symop_operation_xyz
x,y,z
1/2-x,-y,1/2+z
x,-y,-z
1/2-x,y,1/2-z
-x,-y,-z
1/2+x,y,1/2-z
-x,y,z
1/2+x,-y,1/2+z
loop_
_atom_site_type_symbol
_atom_site_label
_atom_site_fract_x
_atom_site_fract_y
_atom_site_fract_z
Si Si1 0.649483 0.803834 0.790236
Si Si2 0.103332 0.580182 0.745491
Si Si3 0.391012 0.122762 0.997715
Si Si4 0.896473 0.045549 0.135672
Si Si5 0.266183 0.744056 0.141567
Si Si6 0.107309 0.836178 0.047698
Si Si7 0.744746 0.508378 0.113096
O O1 0.750000 0.784238 0.750000
O O2 0.591306 0.706316 0.748380
O O3 0.642757 0.818858 0.904982
O O4 0.612625 0.913467 0.744902
O O5 0.161763 0.527479 0.832419
O O6 0.158954 0.564606 0.644541
O O7 0.000000 0.531946 0.745098
O O8 0.500000 0.135223 0.985299
O O9 0.342765 0.182124 0.908143
O O10 0.362751 0.000000 0.000000
O O11 0.000000 0.029975 0.101110
O O12 0.856632 0.929459 0.120212
O O13 0.857841 0.131951 0.060066
O O14 0.250000 0.786262 0.250000
O O15 0.169653 0.739913 0.081691
O O16 0.293352 0.622336 0.143953
O O17 0.000000 0.805519 0.055535
O O18 0.763996 0.500000 0.000000
#
# Coordination Sequence:
#
# PCOD8222191 Si02
#       7
#     8   8   8   8   8   8   8
#     4  12  23  40  71 100 133 178 225 285 338 405
#     4  11  24  46  71 101 136 176 228 283 347 407
#     4  11  28  47  67 104 146 184 234 284 338 413
#     4   9  19  36  60  94 130 167 217 268 324 403
#     4  12  26  44  67  97 133 181 228 278 345 412
#     4   9  21  38  60  95 134 173 219 269 330 407
#     4  11  25  48  70 101 136 173 230 291 339 409
#
# _framework density 21.923407000000001
#
# number of rings (size 3 to 8) (size 9 to 14) (size 15 to 20)
#    0.000    1.286    2.857    3.857    8.000    2.286 
#    0.000    0.000    0.000    0.000    0.000    0.000 
#    0.000    0.000    0.000    0.000    0.000    0.000 
#
# Total GULP energy -694057.256732 kJ/mol
# GULP energy per Si atom -12393.879585 kJ/mol
# Density = 2.187351 g / cm^3
# Si number density = 21.923407 Si / 1000 Ang^3
#
#
#
# Elastic Constant Matrix: (Units=GPa)
#
#
# Indices 1 2 3 4 5 6 
#
# 1 131.5950 24.8452 35.9350 0.0000 0.0000 0.0000
# 2 24.8452 79.8974 29.9081 0.0000 0.0000 0.0000
# 3 35.9350 29.9081 137.0872 0.0000 0.0000 0.0000
# 4 0.0000 0.0000 0.0000 34.2721 0.0000 0.0000
# 5 0.0000 0.0000 0.0000 0.0000 20.0656 0.0000
# 6 0.0000 0.0000 0.0000 0.0000 0.0000 12.2586
#
#
#
# Elastic Compliance Matrix: (Units=1/GPa)
#
#
# Indices 1 2 3 4 5 6 
#
# 1 0.008458 -0.001960 -0.001789 0.000000 0.000000 0.000000
# 2 -0.001960 0.014083 -0.002559 0.000000 0.000000 0.000000
# 3 -0.001789 -0.002559 0.008322 0.000000 0.000000 0.000000
# 4 0.000000 0.000000 0.000000 0.029178 0.000000 0.000000
# 5 0.000000 0.000000 0.000000 0.000000 0.049837 0.000000
# 6 0.000000 0.000000 0.000000 0.000000 0.000000 0.081575
#
#
# Mechanical properties :
#
#
# Convention : Reuss Voigt Hill
#
# Bulk Modulus (GPa) = 54.80525 58.88403 56.84464
# Shear Modulus (GPa) = 23.79231 30.51202 27.15216
#
# Velocity S-wave (km/s) = 3.29788 3.73467 3.52305
# Velocity P-wave (km/s) = 6.28921 6.74643 6.52183
#
# Compressibility (1/GPa) = 0.01824643
#
# Stress axis : x y z
#
# Youngs Moduli (GPa) = 118.23400 71.00541 120.16458
#
# Poissons Ratio (x) = 0.13919 0.21502
# Poissons Ratio (y) = 0.23177 0.30747
# Poissons Ratio (z) = 0.21157 0.18168
#
# Static dielectric constant tensor:
#      x y z
#    x 3.903260 0.000000 0.000000 
#    y 0.000000 3.986260 0.000000 
#    z 0.000000 0.000000 4.007650 
# 
# 
# High freq. dielectric constant tensor:
#      x y z
#    x 1.862680 0.000000 0.000000 
#    y 0.000000 1.861610 0.000000 
#    z 0.000000 0.000000 1.862850 
# 
# From -- ./inp_files/22863.got.cif
#   From: 2010.03.12/outbox.cif.g09.slc.cpg/sg53_12_cif.got.tgz:22863.got - 2010.04.16 14:36:59.
