data_PCOD8222203
_publ_section_title
;
Structure prediction by ZEFSAII (Michael W. Deem and Ramdas Pophale) SiO2 
 PCOD8222203
Probable space group: P M N A
;
_chemical_formula_sum "Si O2"
_cell_formula_units_Z 24
_cell_length_a 21.144368
_cell_length_b 8.778280
_cell_length_c 5.070586
_cell_angle_alpha 90.000000
_cell_angle_beta 90.000000
_cell_angle_gamma 90.000000
_cell_volume 941.157465
_symmetry_space_group_name_H-M "P M N A"
_symmetry_group_IT_number 53
_symmetry_cell_setting 'orthorhombic'
loop_
_space_group_symop_operation_xyz
x,y,z
1/2-x,-y,1/2+z
x,-y,-z
1/2-x,y,1/2-z
-x,-y,-z
1/2+x,y,1/2-z
-x,y,z
1/2+x,-y,1/2+z
loop_
_atom_site_type_symbol
_atom_site_label
_atom_site_fract_x
_atom_site_fract_y
_atom_site_fract_z
Si Si1 0.367259 0.398760 0.744794
Si Si2 0.929623 0.169972 0.094733
Si Si3 0.693290 0.174377 0.069079
O O1 0.343358 0.500000 0.500000
O O2 0.425465 0.292582 0.644041
O O3 0.387117 0.500000 0.000000
O O4 0.309278 0.282182 0.811224
O O5 0.875835 0.205396 0.307313
O O6 0.000000 0.181448 0.219115
O O7 0.915962 0.000000 0.000000
O O8 0.750000 0.233300 0.250000
O O9 0.705677 0.000000 0.000000
#
# Coordination Sequence:
#
# PCOD8222203 Si02
#       3
#     8   8   8
#     4  12  27  52  77 117 162 207 257 330 400 471
#     4  11  25  49  80 117 158 211 271 327 385 468
#     4  12  27  50  84 116 156 210 272 325 390 471
#
# _framework density 25.500516000000001
#
# number of rings (size 3 to 8) (size 9 to 14) (size 15 to 20)
#    0.000    0.333    6.667    1.000    0.000    3.333 
#    6.000    0.000    0.000    0.000    0.000    0.000 
#    0.000    0.000    0.000    0.000    0.000    0.000 
#
# Total GULP energy -297459.761183 kJ/mol
# GULP energy per Si atom -12394.156716 kJ/mol
# Density = 2.544248 g / cm^3
# Si number density = 25.500516 Si / 1000 Ang^3
#
#
#
# Elastic Constant Matrix: (Units=GPa)
#
#
# Indices 1 2 3 4 5 6 
#
# 1 145.7724 25.9424 48.9412 0.0000 0.0000 0.0000
# 2 25.9424 190.7373 64.4497 0.0000 0.0000 0.0000
# 3 48.9412 64.4497 142.2577 0.0000 0.0000 0.0000
# 4 0.0000 0.0000 0.0000 55.8325 0.0000 0.0000
# 5 0.0000 0.0000 0.0000 0.0000 21.6770 0.0000
# 6 0.0000 0.0000 0.0000 0.0000 0.0000 -19.9733
#
#
#
# Elastic Compliance Matrix: (Units=1/GPa)
#
#
# Indices 1 2 3 4 5 6 
#
# 1 0.007761 -0.000181 -0.002588 0.000000 0.000000 0.000000
# 2 -0.000181 0.006195 -0.002744 0.000000 0.000000 0.000000
# 3 -0.002588 -0.002744 0.009163 0.000000 0.000000 0.000000
# 4 0.000000 0.000000 0.000000 0.017911 0.000000 0.000000
# 5 0.000000 0.000000 0.000000 0.000000 0.046132 0.000000
# 6 0.000000 0.000000 0.000000 0.000000 0.000000 -0.050067
#
#
# Mechanical properties :
#
#
# Convention : Reuss Voigt Hill
#
# Bulk Modulus (GPa) = 82.69732 84.15931 83.42832
# Shear Modulus (GPa) = 95.87324 34.13618 65.00471
#
# Velocity S-wave (km/s) = 6.13826 3.66272 5.05439
# Velocity P-wave (km/s) = 9.09603 7.13877 8.17617
#
# Compressibility (1/GPa) = 0.01209229
#
# Stress axis : x y z
#
# Youngs Moduli (GPa) = 128.84717 161.42828 109.13319
#
# Poissons Ratio (x) = 0.02924 0.28244
# Poissons Ratio (y) = 0.02334 0.29948
# Poissons Ratio (z) = 0.33346 0.44299
#
# Static dielectric constant tensor:
#      x y z
#    x 4.303580 0.000000 0.000000 
#    y 0.000000 5.304960 0.000000 
#    z 0.000000 0.000000 4.790600 
# 
# 
# High freq. dielectric constant tensor:
#      x y z
#    x 1.998560 0.000000 0.000000 
#    y 0.000000 2.052560 0.000000 
#    z 0.000000 0.000000 2.019310 
# 
# From -- ./inp_files/3246.got.cif
#   From: 2010.03.12/outbox.cif.g09.slc.cpg/sg53_2_cif.got.tgz:3246.got - 2010.04.16 14:36:59.
