data_PCOD8222145
_publ_section_title
;
Structure prediction by ZEFSAII (Michael W. Deem and Ramdas Pophale) SiO2 
 PCOD8222145
Probable space group: P M N A
;
_chemical_formula_sum "Si O2"
_cell_formula_units_Z 48
_cell_length_a 15.487557
_cell_length_b 15.128620
_cell_length_c 9.902821
_cell_angle_alpha 90.000000
_cell_angle_beta 90.000000
_cell_angle_gamma 90.000000
_cell_volume 2320.284085
_symmetry_space_group_name_H-M "P M N A"
_symmetry_group_IT_number 53
_symmetry_cell_setting 'orthorhombic'
loop_
_space_group_symop_operation_xyz
x,y,z
1/2-x,-y,1/2+z
x,-y,-z
1/2-x,y,1/2-z
-x,-y,-z
1/2+x,y,1/2-z
-x,y,z
1/2+x,-y,1/2+z
loop_
_atom_site_type_symbol
_atom_site_label
_atom_site_fract_x
_atom_site_fract_y
_atom_site_fract_z
Si Si1 0.096071 0.282000 0.469582
Si Si2 0.096570 0.289801 0.019012
Si Si3 0.351253 0.841194 0.735723
Si Si4 0.899006 0.974743 0.148795
Si Si5 0.750709 0.415187 0.406529
Si Si6 0.848116 0.787794 0.248164
O O1 0.099544 0.209537 0.353014
O O2 0.165912 0.357777 0.444265
O O3 0.109984 0.229380 0.607757
O O4 0.000000 0.324331 0.469430
O O5 0.117388 0.196805 0.091832
O O6 0.162217 0.363721 0.068407
O O7 0.000000 0.322228 0.054327
O O8 0.102116 0.272550 0.859767
O O9 0.250000 0.825247 0.750000
O O10 0.376958 0.943539 0.746803
O O11 0.000000 0.953384 0.145042
O O12 0.850426 0.890719 0.209397
O O13 0.863989 0.000000 0.000000
O O14 0.752750 0.500000 0.500000
O O15 0.750000 0.443520 0.250000
O O16 0.750000 0.755525 0.250000
#
# Coordination Sequence:
#
# PCOD8222145 Si02
#       6
#     8   8   8   8   8   8
#     4  12  25  45  71 100 139 180 221 280 348 404
#     4  12  23  45  75  99 134 185 230 270 332 414
#     4  12  22  43  68  98 134 186 231 275 337 396
#     4  11  23  38  62  99 136 181 240 285 324 388
#     4  12  28  49  74 105 139 174 221 283 346 414
#     4  12  24  43  67 101 140 183 231 284 334 397
#
# _framework density 20.687121000000001
#
# number of rings (size 3 to 8) (size 9 to 14) (size 15 to 20)
#    0.000    0.167    6.667    3.500    2.333    1.333 
#    0.000    1.667    0.000    0.000    0.000    0.000 
#    0.000    0.000    0.000    0.000    0.000    0.000 
#
# Total GULP energy -595498.267056 kJ/mol
# GULP energy per Si atom -12406.213897 kJ/mol
# Density = 2.064004 g / cm^3
# Si number density = 20.687121 Si / 1000 Ang^3
#
#
#
# Elastic Constant Matrix: (Units=GPa)
#
#
# Indices 1 2 3 4 5 6 
#
# 1 158.2983 37.1854 26.3308 0.0000 0.0000 0.0000
# 2 37.1854 103.6096 46.2683 0.0000 0.0000 0.0000
# 3 26.3308 46.2683 105.3935 0.0000 0.0000 0.0000
# 4 0.0000 0.0000 0.0000 -89.3859 0.0000 0.0000
# 5 0.0000 0.0000 0.0000 0.0000 23.1798 0.0000
# 6 0.0000 0.0000 0.0000 0.0000 0.0000 7.3556
#
#
#
# Elastic Compliance Matrix: (Units=1/GPa)
#
#
# Indices 1 2 3 4 5 6 
#
# 1 0.006952 -0.002139 -0.000798 0.000000 0.000000 0.000000
# 2 -0.002139 0.012663 -0.005025 0.000000 0.000000 0.000000
# 3 -0.000798 -0.005025 0.011894 0.000000 0.000000 0.000000
# 4 0.000000 0.000000 0.000000 -0.011187 0.000000 0.000000
# 5 0.000000 0.000000 0.000000 0.000000 0.043141 0.000000
# 6 0.000000 0.000000 0.000000 0.000000 0.000000 0.135951
#
#
# Mechanical properties :
#
#
# Convention : Reuss Voigt Hill
#
# Bulk Modulus (GPa) = 64.16119 65.20782 64.68450
# Shear Modulus (GPa) = 22.67242 5.39771 14.03506
#
# Velocity S-wave (km/s) = 3.31413 1.61706 2.60752
# Velocity P-wave (km/s) = 6.76217 5.92249 6.35621
#
# Compressibility (1/GPa) = 0.01558575
#
# Stress axis : x y z
#
# Youngs Moduli (GPa) = 143.83630 78.96922 84.07928
#
# Poissons Ratio (x) = 0.16890 0.06709
# Poissons Ratio (y) = 0.30764 0.42249
# Poissons Ratio (z) = 0.11478 0.39681
#
# Static dielectric constant tensor:
#      x y z
#    x 3.826490 0.000000 0.000000 
#    y 0.000000 3.667460 0.000000 
#    z 0.000000 0.000000 3.952690 
# 
# 
# High freq. dielectric constant tensor:
#      x y z
#    x 1.825530 0.000000 0.000000 
#    y 0.000000 1.794750 0.000000 
#    z 0.000000 0.000000 1.823990 
# 
# From -- ./inp_files/8673.got.cif
#   From: 2010.03.12/outbox.cif.g09.slc.cpg/sg53_5_cif.got.tgz:8673.got - 2010.04.16 14:36:59.
