data_PCOD8222262
_publ_section_title
;
Structure prediction by ZEFSAII (Michael W. Deem and Ramdas Pophale) SiO2 
 PCOD8222262
Probable space group: P M N A
;
_chemical_formula_sum "Si O2"
_cell_formula_units_Z 56
_cell_length_a 9.000000
_cell_length_b 18.000000
_cell_length_c 21.000000
_cell_angle_alpha 90.000000
_cell_angle_beta 90.000000
_cell_angle_gamma 90.000000
_cell_volume 3402.000000
_symmetry_space_group_name_H-M "P M N A"
_symmetry_group_IT_number 53
_symmetry_cell_setting 'orthorhombic'
loop_
_space_group_symop_operation_xyz
x,y,z
1/2-x,-y,1/2+z
x,-y,-z
1/2-x,y,1/2-z
-x,-y,-z
1/2+x,y,1/2-z
-x,y,z
1/2+x,-y,1/2+z
loop_
_atom_site_type_symbol
_atom_site_label
_atom_site_fract_x
_atom_site_fract_y
_atom_site_fract_z
Si Si1 0.662726 0.706344 0.004658
Si Si2 0.166668 0.975115 0.572889
Si Si3 0.833612 0.569785 0.045765
Si Si4 0.833987 0.750579 0.350558
Si Si5 0.165657 0.161045 0.033193
Si Si6 0.675013 0.397274 0.686569
Si Si7 0.832674 0.887647 0.113193
O O1 0.500000 0.700760 0.973982
O O2 0.729427 0.625044 0.008000
O O3 0.653542 0.740045 0.074490
O O4 0.760989 0.758154 0.959184
O O5 0.245803 0.895756 0.577891
O O6 0.000000 0.967755 0.598605
O O7 0.168314 0.000000 0.500000
O O8 0.251509 0.033213 0.617959
O O9 0.783978 0.558313 0.120418
O O10 0.000000 0.602836 0.049039
O O11 0.827507 0.500000 0.000000
O O12 0.736052 0.686526 0.318555
O O13 0.752120 0.829423 0.340807
O O14 0.000000 0.751426 0.320534
O O15 0.000000 0.165197 0.059966
O O16 0.167241 0.137616 0.959820
O O17 0.750000 0.434204 0.750000
O O18 0.500000 0.395991 0.698021
O O19 0.000000 0.895700 0.138552
#
# Coordination Sequence:
#
# PCOD8222262 Si02
#       7
#     8   8   8   8   8   8   8
#     4   9  16  25  38  56  77 102 134 172 212 255
#     4   9  15  21  29  43  65  94 129 168 207 245
#     4   9  18  32  48  65  86 114 147 181 220 270
#     4   9  16  26  39  55  76 103 136 172 209 249
#     4   9  15  22  32  46  67  97 132 168 205 247
#     4  10  19  31  47  66  88 114 145 181 220 263
#     4   9  15  22  32  47  68  96 131 168 205 244
#
# _framework density 16.460905
#
# number of rings (size 3 to 8) (size 9 to 14) (size 15 to 20)
#    0.000    2.857    0.000    2.571    0.000    9.429 
#    0.000    0.000    0.000    0.000    0.000    0.000 
#    0.000    0.000    0.000    1.286    0.000   20.571 
#
# Total GULP energy -693943.333304 kJ/mol
# GULP energy per Si atom -12391.845238 kJ/mol
# Density = 1.642344 g / cm^3
# Si number density = 16.460905 Si / 1000 Ang^3
#
#
#
# Elastic Constant Matrix: (Units=GPa)
#
#
# Indices 1 2 3 4 5 6 
#
# 1 128.0081 49.9065 22.1075 0.0000 0.0000 0.0000
# 2 49.9065 55.9713 27.5359 0.0000 0.0000 0.0000
# 3 22.1075 27.5359 46.9636 0.0000 0.0000 0.0000
# 4 0.0000 0.0000 0.0000 11.9298 0.0000 0.0000
# 5 0.0000 0.0000 0.0000 0.0000 14.6270 0.0000
# 6 0.0000 0.0000 0.0000 0.0000 0.0000 22.8036
#
#
#
# Elastic Compliance Matrix: (Units=1/GPa)
#
#
# Indices 1 2 3 4 5 6 
#
# 1 0.012000 -0.011132 0.000878 0.000000 0.000000 0.000000
# 2 -0.011132 0.035436 -0.015536 0.000000 0.000000 0.000000
# 3 0.000878 -0.015536 0.029989 0.000000 0.000000 0.000000
# 4 0.000000 0.000000 0.000000 0.083824 0.000000 0.000000
# 5 0.000000 0.000000 0.000000 0.000000 0.068367 0.000000
# 6 0.000000 0.000000 0.000000 0.000000 0.000000 0.043853
#
#
# Mechanical properties :
#
#
# Convention : Reuss Voigt Hill
#
# Bulk Modulus (GPa) = 38.69360 47.78253 43.23807
# Shear Modulus (GPa) = 14.98512 18.63161 16.80836
#
# Velocity S-wave (km/s) = 3.02047 3.36798 3.19894
# Velocity P-wave (km/s) = 5.97676 6.64946 6.32206
#
# Compressibility (1/GPa) = 0.02584407
#
# Stress axis : x y z
#
# Youngs Moduli (GPa) = 83.33027 28.22023 33.34532
#
# Poissons Ratio (x) = 0.31415 -0.02928
# Poissons Ratio (y) = 0.92764 0.51807
# Poissons Ratio (z) = -0.07316 0.43844
#
# Static dielectric constant tensor:
#      x y z
#    x 3.382500 0.000000 0.000000 
#    y 0.000000 2.939120 0.000000 
#    z 0.000000 0.000000 2.683840 
# 
# 
# High freq. dielectric constant tensor:
#      x y z
#    x 1.652830 0.000000 0.000000 
#    y 0.000000 1.610020 0.000000 
#    z 0.000000 0.000000 1.566350 
# 
# From -- ./inp_files/30989.got.cif
#   From: 2010.03.12/outbox.ucp.g09.slc.cvg/sg53_16_cif.got.tgz:30989.got - 2010.05.04 19:20:06.
