data_PCOD8222707
_publ_section_title
;
Structure prediction by ZEFSAII (Michael W. Deem and Ramdas Pophale) SiO2 
 PCOD8222707
Probable space group: P C C A
;
_chemical_formula_sum "Si O2"
_cell_formula_units_Z 64
_cell_length_a 8.767629
_cell_length_b 14.214386
_cell_length_c 22.813744
_cell_angle_alpha 90.000000
_cell_angle_beta 90.000000
_cell_angle_gamma 90.000000
_cell_volume 2843.196220
_symmetry_space_group_name_H-M "P C C A"
_symmetry_group_IT_number 54
_symmetry_cell_setting 'orthorhombic'
loop_
_space_group_symop_operation_xyz
x,y,z
1/2-x,-y,z
1/2+x,-y,1/2-z
-x,y,1/2-z
-x,-y,-z
1/2+x,y,-z
1/2-x,y,1/2+z
x,-y,1/2+z
loop_
_atom_site_type_symbol
_atom_site_label
_atom_site_fract_x
_atom_site_fract_y
_atom_site_fract_z
Si Si1 0.876714 0.706397 0.647288
Si Si2 0.176950 0.900260 0.065217
Si Si3 0.758911 0.760366 0.025784
Si Si4 0.125207 0.149820 0.167445
Si Si5 0.341208 0.186202 0.273853
Si Si6 0.538369 0.358653 0.469259
Si Si7 0.585106 0.972120 0.634149
Si Si8 0.419695 0.529383 0.419682
O O1 0.840281 0.751526 0.584173
O O2 0.736673 0.727483 0.690932
O O3 0.908473 0.593738 0.639252
O O4 0.026431 0.755684 0.672671
O O5 0.258027 0.835420 0.113960
O O6 0.997914 0.914828 0.081145
O O7 0.250000 0.000000 0.070663
O O8 0.216000 0.861760 0.000588
O O9 0.934957 0.736124 0.038143
O O10 0.707464 0.682609 0.976518
O O11 0.225608 0.142600 0.225999
O O12 0.014503 0.059513 0.158742
O O13 0.500000 0.228794 0.250000
O O14 0.385339 0.097675 0.312846
O O15 0.514386 0.430321 0.413909
O O16 0.495598 0.413045 0.529156
O O17 0.750000 0.000000 0.608299
O O18 0.250000 0.500000 0.439599
#
# Coordination Sequence:
#
# PCOD8222707 Si02
#       8
#     8   8   8   8   8   8   8   8
#     4  11  24  41  63  99 131 176 215 275 353 399
#     4  10  23  42  62  97 145 182 223 267 328 401
#     4  11  23  41  66  97 143 178 221 269 330 414
#     4  11  24  43  62  97 132 174 227 286 328 391
#     4  12  26  42  70  96 128 170 235 289 336 385
#     4  10  20  36  64  96 125 175 223 271 324 382
#     4  11  24  39  67  97 127 174 234 285 331 378
#     4  10  19  38  62  96 129 163 216 277 333 392
#
# _framework density 22.509878
#
# number of rings (size 3 to 8) (size 9 to 14) (size 15 to 20)
#    0.000    1.250    5.000    1.875    3.500    0.000 
#    2.250    1.875    0.000    1.500    0.000    0.000 
#    0.000    0.000    0.000    0.000    0.000    0.000 
#
# Total GULP energy -792989.274193 kJ/mol
# GULP energy per Si atom -12390.457409 kJ/mol
# Density = 2.245864 g / cm^3
# Si number density = 22.509878 Si / 1000 Ang^3
#
#
#
# Elastic Constant Matrix: (Units=GPa)
#
#
# Indices 1 2 3 4 5 6 
#
# 1 109.1970 29.5302 27.9194 0.0000 0.0000 0.0000
# 2 29.5302 60.7270 29.1975 0.0000 0.0000 0.0000
# 3 27.9194 29.1975 62.2686 0.0000 0.0000 0.0000
# 4 0.0000 0.0000 0.0000 22.1657 0.0000 0.0000
# 5 0.0000 0.0000 0.0000 0.0000 17.2683 0.0000
# 6 0.0000 0.0000 0.0000 0.0000 0.0000 20.6267
#
#
#
# Elastic Compliance Matrix: (Units=1/GPa)
#
#
# Indices 1 2 3 4 5 6 
#
# 1 0.010997 -0.003843 -0.003129 0.000000 0.000000 0.000000
# 2 -0.003843 0.022603 -0.008875 0.000000 0.000000 0.000000
# 3 -0.003129 -0.008875 0.021624 0.000000 0.000000 0.000000
# 4 0.000000 0.000000 0.000000 0.045115 0.000000 0.000000
# 5 0.000000 0.000000 0.000000 0.000000 0.057910 0.000000
# 6 0.000000 0.000000 0.000000 0.000000 0.000000 0.048481
#
#
# Mechanical properties :
#
#
# Convention : Reuss Voigt Hill
#
# Bulk Modulus (GPa) = 42.49978 45.05412 43.77695
# Shear Modulus (GPa) = 20.30313 21.71516 21.00914
#
# Velocity S-wave (km/s) = 3.00653 3.10932 3.05836
# Velocity P-wave (km/s) = 5.56541 5.74014 5.65345
#
# Compressibility (1/GPa) = 0.02352953
#
# Stress axis : x y z
#
# Youngs Moduli (GPa) = 90.93351 44.24121 46.24524
#
# Poissons Ratio (x) = 0.17004 0.14468
# Poissons Ratio (y) = 0.34949 0.41044
# Poissons Ratio (z) = 0.28449 0.39266
#
# Static dielectric constant tensor:
#      x y z
#    x 4.653800 0.000000 0.000000 
#    y 0.000000 4.327370 0.000000 
#    z 0.000000 0.000000 3.972030 
# 
# 
# High freq. dielectric constant tensor:
#      x y z
#    x 1.900590 0.000000 0.000000 
#    y 0.000000 1.882740 0.000000 
#    z 0.000000 0.000000 1.853950 
# 
# From -- ./inp_files/23657.got.cif
#   From: 2010.03.12/outbox.cif.g09.slc.cpg/sg54_12_cif.got.tgz:23657.got - 2010.04.16 15:00:50.
