data_PCOD8222204
_publ_section_title
;
Structure prediction by ZEFSAII (Michael W. Deem and Ramdas Pophale) SiO2 
 PCOD8222204
Probable space group: P M N A
;
_chemical_formula_sum "Si O2"
_cell_formula_units_Z 32
_cell_length_a 10.252765
_cell_length_b 10.384606
_cell_length_c 14.959814
_cell_angle_alpha 90.000000
_cell_angle_beta 90.000000
_cell_angle_gamma 90.000000
_cell_volume 1592.785233
_symmetry_space_group_name_H-M "P M N A"
_symmetry_group_IT_number 53
_symmetry_cell_setting 'orthorhombic'
loop_
_space_group_symop_operation_xyz
x,y,z
1/2-x,-y,1/2+z
x,-y,-z
1/2-x,y,1/2-z
-x,-y,-z
1/2+x,y,1/2-z
-x,y,z
1/2+x,-y,1/2+z
loop_
_atom_site_type_symbol
_atom_site_label
_atom_site_fract_x
_atom_site_fract_y
_atom_site_fract_z
Si Si1 0.000000 0.458855 0.898463
Si Si2 0.000000 0.507787 0.393561
Si Si3 0.147910 0.953243 0.399893
Si Si4 0.750000 0.864987 0.750000
Si Si5 0.000000 0.689133 0.755905
Si Si6 0.259929 0.684312 0.148519
O O1 0.000000 0.577564 0.830067
O O2 0.125217 0.371419 0.885185
O O3 0.000000 0.500000 0.000000
O O4 0.000000 0.500000 0.500000
O O5 0.000000 0.368624 0.345148
O O6 0.128969 0.578139 0.360898
O O7 0.206597 0.810884 0.406880
O O8 0.000000 0.949134 0.362940
O O9 0.152755 0.000000 0.500000
O O10 0.231479 0.045986 0.336687
O O11 0.626681 0.775579 0.730681
O O12 0.250000 0.728614 0.250000
#
# Coordination Sequence:
#
# PCOD8222204 Si02
#       6
#     4   4   8   4   4   8
#     4  12  28  45  66 102 144 177 217 283 347 404
#     4  12  26  43  74 100 132 187 237 273 327 404
#     4  11  26  46  71 102 134 179 234 283 334 406
#     4  12  26  44  72  98 142 182 218 282 352 400
#     4  12  26  44  66 102 144 176 224 276 346 412
#     4  12  23  46  71  98 137 179 228 284 334 397
#
# _framework density 20.090593999999999
#
# number of rings (size 3 to 8) (size 9 to 14) (size 15 to 20)
#    0.000    0.250    6.250    2.250    7.000    1.000 
#    0.000    1.250    0.000    0.000    0.000    0.000 
#    0.000    0.000    0.000    0.000    0.000    0.000 
#
# Total GULP energy -396990.185841 kJ/mol
# GULP energy per Si atom -12405.943308 kJ/mol
# Density = 2.004487 g / cm^3
# Si number density = 20.090594 Si / 1000 Ang^3
#
#
#
# Elastic Constant Matrix: (Units=GPa)
#
#
# Indices 1 2 3 4 5 6 
#
# 1 177.9839 73.9823 37.7346 0.0000 0.0000 0.0000
# 2 73.9823 126.1881 38.5107 0.0000 0.0000 0.0000
# 3 37.7346 38.5107 114.5204 0.0000 0.0000 0.0000
# 4 0.0000 0.0000 0.0000 27.5773 0.0000 0.0000
# 5 0.0000 0.0000 0.0000 0.0000 29.8958 0.0000
# 6 0.0000 0.0000 0.0000 0.0000 0.0000 53.4703
#
#
#
# Elastic Compliance Matrix: (Units=1/GPa)
#
#
# Indices 1 2 3 4 5 6 
#
# 1 0.007554 -0.004089 -0.001114 0.000000 0.000000 0.000000
# 2 -0.004089 0.011044 -0.002367 0.000000 0.000000 0.000000
# 3 -0.001114 -0.002367 0.009895 0.000000 0.000000 0.000000
# 4 0.000000 0.000000 0.000000 0.036262 0.000000 0.000000
# 5 0.000000 0.000000 0.000000 0.000000 0.033450 0.000000
# 6 0.000000 0.000000 0.000000 0.000000 0.000000 0.018702
#
#
# Mechanical properties :
#
#
# Convention : Reuss Voigt Hill
#
# Bulk Modulus (GPa) = 74.88309 79.90530 77.39420
# Shear Modulus (GPa) = 36.63064 40.08631 38.35848
#
# Velocity S-wave (km/s) = 4.27461 4.47170 4.37427
# Velocity P-wave (km/s) = 7.85600 8.15600 8.00740
#
# Compressibility (1/GPa) = 0.01335415
#
# Stress axis : x y z
#
# Youngs Moduli (GPa) = 132.37378 90.54483 101.06093
#
# Poissons Ratio (x) = 0.37024 0.11260
# Poissons Ratio (y) = 0.54128 0.23917
# Poissons Ratio (z) = 0.14748 0.21428
#
# Static dielectric constant tensor:
#      x y z
#    x 3.901430 0.000000 0.000000 
#    y 0.000000 3.803980 0.000000 
#    z 0.000000 0.000000 3.812130 
# 
# 
# High freq. dielectric constant tensor:
#      x y z
#    x 1.802700 0.000000 0.000000 
#    y 0.000000 1.801220 0.000000 
#    z 0.000000 0.000000 1.794800 
# 
# From -- ./inp_files/19578.got.cif
#   From: 2010.03.12/outbox.cif.g09.slc.cpg/sg53_10_cif.got.tgz:19578.got - 2010.04.16 14:36:59.
