data_PCOD8222271
_publ_section_title
;
Structure prediction by ZEFSAII (Michael W. Deem and Ramdas Pophale) SiO2 
 PCOD8222271
Probable space group: P C C A
;
_chemical_formula_sum "Si O2"
_cell_formula_units_Z 48
_cell_length_a 12.176970
_cell_length_b 27.785176
_cell_length_c 5.357112
_cell_angle_alpha 90.000000
_cell_angle_beta 90.000000
_cell_angle_gamma 90.000000
_cell_volume 1812.521281
_symmetry_space_group_name_H-M "P C C A"
_symmetry_group_IT_number 54
_symmetry_cell_setting 'orthorhombic'
loop_
_space_group_symop_operation_xyz
x,y,z
1/2-x,-y,z
1/2+x,-y,1/2-z
-x,y,1/2-z
-x,-y,-z
1/2+x,y,-z
1/2-x,y,1/2+z
x,-y,1/2+z
loop_
_atom_site_type_symbol
_atom_site_label
_atom_site_fract_x
_atom_site_fract_y
_atom_site_fract_z
Si Si1 0.879202 0.520721 0.986997
Si Si2 0.869132 0.632575 0.893648
Si Si3 0.625077 0.980333 0.891015
Si Si4 0.621486 0.671505 0.894462
Si Si5 0.316681 0.124174 0.094241
Si Si6 0.181942 0.773912 0.002645
O O1 0.820935 0.503325 0.244155
O O2 0.867781 0.577600 0.972458
O O3 0.000000 0.500000 0.000000
O O4 0.931840 0.661786 0.118356
O O5 0.748424 0.655393 0.847841
O O6 0.928029 0.638900 0.621904
O O7 0.612292 0.923625 0.949005
O O8 0.750000 0.000000 0.853220
O O9 0.568475 0.990856 0.621422
O O10 0.605050 0.727626 0.960301
O O11 0.277741 0.123010 0.382022
O O12 0.381606 0.174830 0.045440
O O13 0.275235 0.771693 0.217982
#
# Coordination Sequence:
#
# PCOD8222271 Si02
#       6
#     8   8   8   8   8   8
#     4  10  21  37  52  66  85 109 136 162 188 227
#     4  10  18  30  48  65  84 108 131 156 195 239
#     4  10  14  20  26  35  53  77 112 157 196 232
#     4  10  17  30  43  65  88 106 128 162 203 249
#     4  10  16  20  29  42  57  86 118 149 193 241
#     4  10  16  25  36  51  75  98 123 154 194 250
#
# _framework density 26.482448999999999
#
# number of rings (size 3 to 8) (size 9 to 14) (size 15 to 20)
#    0.000    2.000    6.667    1.000    0.000    0.000 
#    0.000   10.000    0.000    0.000    0.000    0.000 
#    0.000    0.000    0.000    0.000    0.000    0.000 
#
# Total GULP energy -594719.338075 kJ/mol
# GULP energy per Si atom -12389.986210 kJ/mol
# Density = 2.642217 g / cm^3
# Si number density = 26.482449 Si / 1000 Ang^3
#
#
#
# Elastic Constant Matrix: (Units=GPa)
#
#
# Indices 1 2 3 4 5 6 
#
# 1 64.0534 -5.6577 8.5020 0.0000 0.0000 0.0000
# 2 -5.6577 235.2213 36.2596 0.0000 0.0000 0.0000
# 3 8.5020 36.2596 234.9101 0.0000 0.0000 0.0000
# 4 0.0000 0.0000 0.0000 50.1430 0.0000 0.0000
# 5 0.0000 0.0000 0.0000 0.0000 281.0355 0.0000
# 6 0.0000 0.0000 0.0000 0.0000 0.0000 15.3653
#
#
#
# Elastic Compliance Matrix: (Units=1/GPa)
#
#
# Indices 1 2 3 4 5 6 
#
# 1 0.015740 0.000478 -0.000643 0.000000 0.000000 0.000000
# 2 0.000478 0.004369 -0.000692 0.000000 0.000000 0.000000
# 3 -0.000643 -0.000692 0.004387 0.000000 0.000000 0.000000
# 4 0.000000 0.000000 0.000000 0.019943 0.000000 0.000000
# 5 0.000000 0.000000 0.000000 0.000000 0.003558 0.000000
# 6 0.000000 0.000000 0.000000 0.000000 0.000000 0.065082
#
#
# Mechanical properties :
#
#
# Convention : Reuss Voigt Hill
#
# Bulk Modulus (GPa) = 43.89570 68.04362 55.96966
# Shear Modulus (GPa) = 40.85381 102.31415 71.58398
#
# Velocity S-wave (km/s) = 3.93195 6.22243 5.20475
# Velocity P-wave (km/s) = 6.10123 8.79627 7.56966
#
# Compressibility (1/GPa) = 0.02278127
#
# Stress axis : x y z
#
# Youngs Moduli (GPa) = 63.53408 228.86235 227.94589
#
# Poissons Ratio (x) = -0.10934 0.14666
# Poissons Ratio (y) = -0.03035 0.15768
# Poissons Ratio (z) = 0.04088 0.15831
#
# Static dielectric constant tensor:
#      x y z
#    x 4.619490 0.000000 0.000000 
#    y 0.000000 5.237760 0.000000 
#    z 0.000000 0.000000 4.889080 
# 
# 
# High freq. dielectric constant tensor:
#      x y z
#    x 2.065680 0.000000 0.000000 
#    y 0.000000 2.064000 0.000000 
#    z 0.000000 0.000000 2.121240 
# 
# From -- ./inp_files/1044.got.cif
#   From: 2010.03.12/outbox.cif.g09.slc.cpg/sg54_1_cif.got.tgz:1044.got - 2010.04.16 15:00:50.
