data_PCOD8222962
_publ_section_title
;
Structure prediction by ZEFSAII (Michael W. Deem and Ramdas Pophale) SiO2 
 PCOD8222962
Probable space group: P C C A
;
_chemical_formula_sum "Si O2"
_cell_formula_units_Z 64
_cell_length_a 9.214267
_cell_length_b 10.699145
_cell_length_c 28.197200
_cell_angle_alpha 90.000000
_cell_angle_beta 90.000000
_cell_angle_gamma 90.000000
_cell_volume 2779.814722
_symmetry_space_group_name_H-M "P C C A"
_symmetry_group_IT_number 54
_symmetry_cell_setting 'orthorhombic'
loop_
_space_group_symop_operation_xyz
x,y,z
1/2-x,-y,z
1/2+x,-y,1/2-z
-x,y,1/2-z
-x,-y,-z
1/2+x,y,-z
1/2-x,y,1/2+z
x,-y,1/2+z
loop_
_atom_site_type_symbol
_atom_site_label
_atom_site_fract_x
_atom_site_fract_y
_atom_site_fract_z
Si Si1 0.030989 0.212091 0.991736
Si Si2 0.406855 0.461901 0.294761
Si Si3 0.522654 0.039141 0.330676
Si Si4 0.792198 0.818050 0.811223
Si Si5 0.954863 0.314824 0.142817
Si Si6 0.788149 0.789940 0.205509
Si Si7 0.305540 0.357362 0.957004
Si Si8 0.914192 0.986665 0.930846
O O1 0.169810 0.264565 0.963880
O O2 0.955342 0.107223 0.960624
O O3 0.920315 0.327676 0.000931
O O4 0.070222 0.143556 0.041159
O O5 0.250000 0.500000 0.277217
O O6 0.500000 0.496862 0.250000
O O7 0.451988 0.541903 0.340263
O O8 0.405374 0.316427 0.309493
O O9 0.638840 0.152237 0.336465
O O10 0.373995 0.080354 0.304175
O O11 0.487755 0.982097 0.383065
O O12 0.605132 0.936581 0.299106
O O13 0.756148 0.761966 0.759664
O O14 0.878827 0.729099 0.848616
O O15 0.855206 0.219812 0.173530
O O16 0.893006 0.319366 0.090019
O O17 0.250000 0.500000 0.958377
O O18 0.750000 0.000000 0.913405
#
# Coordination Sequence:
#
# PCOD8222962 Si02
#       8
#     8   8   8   8   8   8   8   8
#     4  11  25  43  73 102 133 181 231 293 365 431
#     4  10  20  38  62  86 121 163 213 265 314 380
#     4  11  24  41  64  94 135 174 218 271 333 404
#     4  11  23  39  62  92 131 177 218 273 330 398
#     4  11  24  41  65  93 127 171 223 276 334 394
#     4  11  23  41  62  93 131 175 221 269 329 398
#     4  12  25  45  69 100 139 179 231 293 361 438
#     4  11  21  44  71 100 137 177 232 294 346 420
#
# _framework density 23.023119000000001
#
# number of rings (size 3 to 8) (size 9 to 14) (size 15 to 20)
#    0.000    1.000    2.500    6.000    0.000    4.500 
#    0.000    2.500    0.000    1.500    0.000    0.000 
#    0.000    0.000    0.000    0.000    0.000    0.000 
#
# Total GULP energy -793227.785577 kJ/mol
# GULP energy per Si atom -12394.184150 kJ/mol
# Density = 2.297072 g / cm^3
# Si number density = 23.023119 Si / 1000 Ang^3
#
#
#
# Elastic Constant Matrix: (Units=GPa)
#
#
# Indices 1 2 3 4 5 6 
#
# 1 90.7718 35.4462 33.1809 0.0000 0.0000 0.0000
# 2 35.4462 71.5257 25.8389 0.0000 0.0000 0.0000
# 3 33.1809 25.8389 93.0727 0.0000 0.0000 0.0000
# 4 0.0000 0.0000 0.0000 38.4394 0.0000 0.0000
# 5 0.0000 0.0000 0.0000 0.0000 27.2780 0.0000
# 6 0.0000 0.0000 0.0000 0.0000 0.0000 16.9025
#
#
#
# Elastic Compliance Matrix: (Units=1/GPa)
#
#
# Indices 1 2 3 4 5 6 
#
# 1 0.014653 -0.005973 -0.003565 0.000000 0.000000 0.000000
# 2 -0.005973 0.017975 -0.002861 0.000000 0.000000 0.000000
# 3 -0.003565 -0.002861 0.012810 0.000000 0.000000 0.000000
# 4 0.000000 0.000000 0.000000 0.026015 0.000000 0.000000
# 5 0.000000 0.000000 0.000000 0.000000 0.036660 0.000000
# 6 0.000000 0.000000 0.000000 0.000000 0.000000 0.059163
#
#
# Mechanical properties :
#
#
# Convention : Reuss Voigt Hill
#
# Bulk Modulus (GPa) = 48.45434 49.36693 48.91064
# Shear Modulus (GPa) = 25.13167 27.25091 26.19129
#
# Velocity S-wave (km/s) = 3.30750 3.44413 3.37650
# Velocity P-wave (km/s) = 5.97308 6.10777 6.04080
#
# Compressibility (1/GPa) = 0.02063798
#
# Stress axis : x y z
#
# Youngs Moduli (GPa) = 68.24763 55.63398 78.06693
#
# Poissons Ratio (x) = 0.33232 0.27834
# Poissons Ratio (y) = 0.40767 0.22332
# Poissons Ratio (z) = 0.24333 0.15915
#
# Static dielectric constant tensor:
#      x y z
#    x 4.235060 0.000000 0.000000 
#    y 0.000000 6.344710 0.000000 
#    z 0.000000 0.000000 4.021760 
# 
# 
# High freq. dielectric constant tensor:
#      x y z
#    x 1.916010 0.000000 0.000000 
#    y 0.000000 1.915640 0.000000 
#    z 0.000000 0.000000 1.901200 
# 
# From -- ./inp_files/27947.got.cif
#   From: 2010.03.12/outbox.cif.g09.slc.cpg/sg54_14_cif.got.tgz:27947.got - 2010.04.16 15:00:50.
