data_PCOD8222229
_publ_section_title
;
Structure prediction by ZEFSAII (Michael W. Deem and Ramdas Pophale) SiO2 
 PCOD8222229
Probable space group: P M N A
;
_chemical_formula_sum "Si O2"
_cell_formula_units_Z 20
_cell_length_a 15.877496
_cell_length_b 11.063564
_cell_length_c 4.865532
_cell_angle_alpha 90.000000
_cell_angle_beta 90.000000
_cell_angle_gamma 90.000000
_cell_volume 854.687589
_symmetry_space_group_name_H-M "P M N A"
_symmetry_group_IT_number 53
_symmetry_cell_setting 'orthorhombic'
loop_
_space_group_symop_operation_xyz
x,y,z
1/2-x,-y,1/2+z
x,-y,-z
1/2-x,y,1/2-z
-x,-y,-z
1/2+x,y,1/2-z
-x,y,z
1/2+x,-y,1/2+z
loop_
_atom_site_type_symbol
_atom_site_label
_atom_site_fract_x
_atom_site_fract_y
_atom_site_fract_z
Si Si1 0.343645 0.622154 0.858986
Si Si2 0.903851 0.759558 0.144209
Si Si3 0.310011 0.000000 0.500000
O O1 0.250000 0.601915 0.750000
O O2 0.379104 0.500000 0.000000
O O3 0.346530 0.724202 0.094359
O O4 0.100287 0.660225 0.901268
O O5 0.000000 0.770967 0.242447
O O6 0.870825 0.887156 0.041405
O O7 0.250000 0.032066 0.250000
#
# Coordination Sequence:
#
# PCOD8222229 Si02
#       3
#     8   8   4
#     4  12  25  44  70  98 133 179 225 269 323 395
#     4  12  26  44  68 101 137 171 218 278 337 389
#     4  12  25  44  71  96 130 178 226 270 325 398
#
# _framework density 23.400362999999999
#
# number of rings (size 3 to 8) (size 9 to 14) (size 15 to 20)
#    0.000    0.000    0.000   12.600    0.000    4.800 
#    0.000    6.000    0.000    0.000    0.000    0.000 
#    0.000    0.000    0.000    0.000    0.000    0.000 
#
# Total GULP energy -248141.508010 kJ/mol
# GULP energy per Si atom -12407.075401 kJ/mol
# Density = 2.334710 g / cm^3
# Si number density = 23.400363 Si / 1000 Ang^3
#
#
#
# Elastic Constant Matrix: (Units=GPa)
#
#
# Indices 1 2 3 4 5 6 
#
# 1 84.9524 42.8861 27.5224 0.0000 0.0000 0.0000
# 2 42.8861 95.2343 30.0959 0.0000 0.0000 0.0000
# 3 27.5224 30.0959 148.3951 0.0000 0.0000 0.0000
# 4 0.0000 0.0000 0.0000 41.3287 0.0000 0.0000
# 5 0.0000 0.0000 0.0000 0.0000 31.0763 0.0000
# 6 0.0000 0.0000 0.0000 0.0000 0.0000 -15.3642
#
#
#
# Elastic Compliance Matrix: (Units=1/GPa)
#
#
# Indices 1 2 3 4 5 6 
#
# 1 0.015568 -0.006516 -0.001566 0.000000 0.000000 0.000000
# 2 -0.006516 0.013947 -0.001620 0.000000 0.000000 0.000000
# 3 -0.001566 -0.001620 0.007358 0.000000 0.000000 0.000000
# 4 0.000000 0.000000 0.000000 0.024196 0.000000 0.000000
# 5 0.000000 0.000000 0.000000 0.000000 0.032179 0.000000
# 6 0.000000 0.000000 0.000000 0.000000 0.000000 -0.065087
#
#
# Mechanical properties :
#
#
# Convention : Reuss Voigt Hill
#
# Bulk Modulus (GPa) = 57.24453 58.84339 58.04396
# Shear Modulus (GPa) = 93.65574 26.61334 60.13454
#
# Velocity S-wave (km/s) = 6.33325 3.37605 5.07483
# Velocity P-wave (km/s) = 8.83155 6.35594 7.69397
#
# Compressibility (1/GPa) = 0.01746892
#
# Stress axis : x y z
#
# Youngs Moduli (GPa) = 64.23472 71.70226 135.91115
#
# Poissons Ratio (x) = 0.46719 0.21282
# Poissons Ratio (y) = 0.41854 0.22018
# Poissons Ratio (z) = 0.10058 0.11616
#
# Static dielectric constant tensor:
#      x y z
#    x 4.006030 0.000000 0.000000 
#    y 0.000000 4.299480 0.000000 
#    z 0.000000 0.000000 4.577620 
# 
# 
# High freq. dielectric constant tensor:
#      x y z
#    x 1.919160 0.000000 0.000000 
#    y 0.000000 1.937000 0.000000 
#    z 0.000000 0.000000 1.949890 
# 
# From -- ./inp_files/942.got.cif
#   From: 2010.03.12/outbox.cif.g09.slc.cpg/sg53_1_cif.got.tgz:942.got - 2010.04.16 14:36:59.
