data_PCOD8222330
_publ_section_title
;
Structure prediction by ZEFSAII (Michael W. Deem and Ramdas Pophale) SiO2 
 PCOD8222330
Probable space group: P C C A
;
_chemical_formula_sum "Si O2"
_cell_formula_units_Z 56
_cell_length_a 17.333948
_cell_length_b 28.475131
_cell_length_c 5.257083
_cell_angle_alpha 90.000000
_cell_angle_beta 90.000000
_cell_angle_gamma 90.000000
_cell_volume 2594.824883
_symmetry_space_group_name_H-M "P C C A"
_symmetry_group_IT_number 54
_symmetry_cell_setting 'orthorhombic'
loop_
_space_group_symop_operation_xyz
x,y,z
1/2-x,-y,z
1/2+x,-y,1/2-z
-x,y,1/2-z
-x,-y,-z
1/2+x,y,-z
1/2-x,y,1/2+z
x,-y,1/2+z
loop_
_atom_site_type_symbol
_atom_site_label
_atom_site_fract_x
_atom_site_fract_y
_atom_site_fract_z
Si Si1 0.454432 0.184286 0.499851
Si Si2 0.454500 0.295564 0.499181
Si Si3 0.589280 0.527606 0.249842
Si Si4 0.800304 0.872746 0.017067
Si Si5 0.785602 0.591074 0.595674
Si Si6 0.721315 0.306084 0.042217
Si Si7 0.335914 0.979874 0.966359
O O1 0.500000 0.167044 0.750000
O O2 0.445195 0.239925 0.498801
O O3 0.368758 0.164270 0.502004
O O4 0.500000 0.166764 0.250000
O O5 0.500000 0.313212 0.250000
O O6 0.368798 0.317492 0.492048
O O7 0.500000 0.312731 0.750000
O O8 0.500000 0.538984 0.250000
O O9 0.613517 0.508841 0.527493
O O10 0.628530 0.577660 0.185812
O O11 0.756994 0.864838 0.282409
O O12 0.836890 0.924299 0.003063
O O13 0.768615 0.568939 0.319052
O O14 0.772581 0.646934 0.589380
O O15 0.741020 0.277676 0.303344
O O16 0.250000 0.000000 0.930989
O O17 0.378943 0.995862 0.706453
#
# Coordination Sequence:
#
# PCOD8222330 Si02
#       7
#     8   8   8   8   8   8   8
#     4  10  23  41  57  82 123 158 182 233 304 359
#     4  10  21  40  64  85 114 159 198 228 288 369
#     4  10  21  37  58  83 113 155 201 237 275 339
#     4  12  21  33  59  90 108 147 202 245 285 337
#     4  10  21  37  55  84 118 150 187 237 296 332
#     4  10  21  38  60  89 122 150 189 250 301 342
#     4  10  16  30  49  78 107 143 184 244 281 328
#
# _framework density 21.581419
#
# number of rings (size 3 to 8) (size 9 to 14) (size 15 to 20)
#    0.000    1.714    2.857    2.571    0.000    2.857 
#    0.000    8.571    0.000    2.571    0.000    0.000 
#    0.000    0.000    0.000    0.000    0.000    0.000 
#
# Total GULP energy -694051.879010 kJ/mol
# GULP energy per Si atom -12393.783554 kJ/mol
# Density = 2.153230 g / cm^3
# Si number density = 21.581419 Si / 1000 Ang^3
#
#
#
# Elastic Constant Matrix: (Units=GPa)
#
#
# Indices 1 2 3 4 5 6 
#
# 1 68.7635 14.6396 39.4698 0.0000 0.0000 0.0000
# 2 14.6396 31.5878 10.2563 0.0000 0.0000 0.0000
# 3 39.4698 10.2563 197.1043 0.0000 0.0000 0.0000
# 4 0.0000 0.0000 0.0000 13.3419 0.0000 0.0000
# 5 0.0000 0.0000 0.0000 0.0000 39.4073 0.0000
# 6 0.0000 0.0000 0.0000 0.0000 0.0000 19.9481
#
#
#
# Elastic Compliance Matrix: (Units=1/GPa)
#
#
# Indices 1 2 3 4 5 6 
#
# 1 0.017934 -0.007269 -0.003213 0.000000 0.000000 0.000000
# 2 -0.007269 0.035148 -0.000373 0.000000 0.000000 0.000000
# 3 -0.003213 -0.000373 0.005736 0.000000 0.000000 0.000000
# 4 0.000000 0.000000 0.000000 0.074952 0.000000 0.000000
# 5 0.000000 0.000000 0.000000 0.000000 0.025376 0.000000
# 6 0.000000 0.000000 0.000000 0.000000 0.000000 0.050130
#
#
# Mechanical properties :
#
#
# Convention : Reuss Voigt Hill
#
# Bulk Modulus (GPa) = 26.94817 47.35410 37.15114
# Shear Modulus (GPa) = 20.54605 30.07879 25.31242
#
# Velocity S-wave (km/s) = 3.08884 3.73733 3.42845
# Velocity P-wave (km/s) = 5.02345 6.37285 5.73796
#
# Compressibility (1/GPa) = 0.03710827
#
# Stress axis : x y z
#
# Youngs Moduli (GPa) = 55.75898 28.45142 174.32833
#
# Poissons Ratio (x) = 0.20680 0.56013
# Poissons Ratio (y) = 0.40528 0.06509
# Poissons Ratio (z) = 0.17916 0.01062
#
# Static dielectric constant tensor:
#      x y z
#    x 3.624610 0.000000 0.000000 
#    y 0.000000 3.548140 0.000000 
#    z 0.000000 0.000000 5.723970 
# 
# 
# High freq. dielectric constant tensor:
#      x y z
#    x 1.825590 0.000000 0.000000 
#    y 0.000000 1.815510 0.000000 
#    z 0.000000 0.000000 1.890200 
# 
# From -- ./inp_files/757.got.cif
#   From: 2010.03.12/outbox.cif.g09.slc.cpg/sg54_1_cif.got.tgz:757.got - 2010.04.16 15:00:50.
