data_PCOD8222840
_publ_section_title
;
Structure prediction by ZEFSAII (Michael W. Deem and Ramdas Pophale) SiO2 
 PCOD8222840
Probable space group: P C C A
;
_chemical_formula_sum "Si O2"
_cell_formula_units_Z 56
_cell_length_a 14.703372
_cell_length_b 20.614312
_cell_length_c 9.214999
_cell_angle_alpha 90.000000
_cell_angle_beta 90.000000
_cell_angle_gamma 90.000000
_cell_volume 2793.065256
_symmetry_space_group_name_H-M "P C C A"
_symmetry_group_IT_number 54
_symmetry_cell_setting 'orthorhombic'
loop_
_space_group_symop_operation_xyz
x,y,z
1/2-x,-y,z
1/2+x,-y,1/2-z
-x,y,1/2-z
-x,-y,-z
1/2+x,y,-z
1/2-x,y,1/2+z
x,-y,1/2+z
loop_
_atom_site_type_symbol
_atom_site_label
_atom_site_fract_x
_atom_site_fract_y
_atom_site_fract_z
Si Si1 0.162343 0.638013 0.984755
Si Si2 0.569022 0.516403 0.880064
Si Si3 0.999110 0.841156 0.413711
Si Si4 0.841814 0.381883 0.353625
Si Si5 0.154153 0.941038 0.403466
Si Si6 0.331345 0.925695 0.560979
Si Si7 0.004121 0.282386 0.085939
O O1 0.176924 0.624098 0.816211
O O2 0.092032 0.698116 0.989321
O O3 0.124714 0.579957 0.082125
O O4 0.260088 0.651206 0.056323
O O5 0.500000 0.527956 0.750000
O O6 0.642779 0.458620 0.870463
O O7 0.500000 0.500000 0.000000
O O8 0.898947 0.864940 0.462775
O O9 0.038964 0.780604 0.502223
O O10 0.000000 0.816654 0.250000
O O11 0.062644 0.902891 0.433920
O O12 0.930498 0.344992 0.414684
O O13 0.234047 0.905248 0.494246
O O14 0.176440 0.943962 0.231446
O O15 0.137013 0.012672 0.466060
O O16 0.000000 0.258195 0.250000
#
# Coordination Sequence:
#
# PCOD8222840 Si02
#       7
#     8   8   8   8   8   8   8
#     4  11  25  41  63  91 121 157 201 245 303 358
#     4  12  22  40  66  90 124 155 191 246 300 353
#     4  10  23  39  59  85 116 154 200 241 291 352
#     4  11  24  42  61  90 122 155 201 248 298 362
#     4  10  20  36  58  87 120 151 190 240 290 348
#     4  10  20  36  58  87 120 151 191 239 292 348
#     4  10  23  44  60  81 118 159 199 250 293 349
#
# _framework density 20.049655999999999
#
# number of rings (size 3 to 8) (size 9 to 14) (size 15 to 20)
#    0.000    1.429    2.857    3.000    2.000    6.286 
#    0.000    5.714    0.000    0.000    0.000    0.000 
#    0.000    0.000    0.000    0.000    0.000    0.000 
#
# Total GULP energy -693967.510166 kJ/mol
# GULP energy per Si atom -12392.276967 kJ/mol
# Density = 2.000402 g / cm^3
# Si number density = 20.049656 Si / 1000 Ang^3
#
#
#
# Elastic Constant Matrix: (Units=GPa)
#
#
# Indices 1 2 3 4 5 6 
#
# 1 81.7182 14.1697 45.8813 0.0000 0.0000 0.0000
# 2 14.1697 66.5439 43.0291 0.0000 0.0000 0.0000
# 3 45.8813 43.0291 117.5692 0.0000 0.0000 0.0000
# 4 0.0000 0.0000 0.0000 28.7410 0.0000 0.0000
# 5 0.0000 0.0000 0.0000 0.0000 38.4757 0.0000
# 6 0.0000 0.0000 0.0000 0.0000 0.0000 16.0428
#
#
#
# Elastic Compliance Matrix: (Units=1/GPa)
#
#
# Indices 1 2 3 4 5 6 
#
# 1 0.015704 0.000811 -0.006425 0.000000 0.000000 0.000000
# 2 0.000811 0.019729 -0.007537 0.000000 0.000000 0.000000
# 3 -0.006425 -0.007537 0.013771 0.000000 0.000000 0.000000
# 4 0.000000 0.000000 0.000000 0.034793 0.000000 0.000000
# 5 0.000000 0.000000 0.000000 0.000000 0.025990 0.000000
# 6 0.000000 0.000000 0.000000 0.000000 0.000000 0.062333
#
#
# Mechanical properties :
#
#
# Convention : Reuss Voigt Hill
#
# Bulk Modulus (GPa) = 43.66535 52.44350 48.05442
# Shear Modulus (GPa) = 24.24153 27.50199 25.87176
#
# Velocity S-wave (km/s) = 3.48095 3.70766 3.59609
# Velocity P-wave (km/s) = 6.16294 6.67402 6.42357
#
# Compressibility (1/GPa) = 0.02290145
#
# Stress axis : x y z
#
# Youngs Moduli (GPa) = 63.67768 50.68794 72.61389
#
# Poissons Ratio (x) = -0.04109 0.46656
# Poissons Ratio (y) = -0.05162 0.54728
# Poissons Ratio (z) = 0.40914 0.38203
#
# Static dielectric constant tensor:
#      x y z
#    x 6.195530 0.000000 0.000000 
#    y 0.000000 3.132580 0.000000 
#    z 0.000000 0.000000 3.801910 
# 
# 
# High freq. dielectric constant tensor:
#      x y z
#    x 1.790910 0.000000 0.000000 
#    y 0.000000 1.770180 0.000000 
#    z 0.000000 0.000000 1.797090 
# 
# From -- ./inp_files/3680.got.cif
#   From: 2010.03.12/outbox.cif.g09.slc.cpg/sg54_2_cif.got.tgz:3680.got - 2010.04.16 15:00:50.
