data_PCOD8222959
_publ_section_title
;
Structure prediction by ZEFSAII (Michael W. Deem and Ramdas Pophale) SiO2 
 PCOD8222959
Probable space group: P C C A
;
_chemical_formula_sum "Si O2"
_cell_formula_units_Z 36
_cell_length_a 18.724203
_cell_length_b 9.559117
_cell_length_c 8.328892
_cell_angle_alpha 90.000000
_cell_angle_beta 90.000000
_cell_angle_gamma 90.000000
_cell_volume 1490.762120
_symmetry_space_group_name_H-M "P C C A"
_symmetry_group_IT_number 54
_symmetry_cell_setting 'orthorhombic'
loop_
_space_group_symop_operation_xyz
x,y,z
1/2-x,-y,z
1/2+x,-y,1/2-z
-x,y,1/2-z
-x,-y,-z
1/2+x,y,-z
1/2-x,y,1/2+z
x,-y,1/2+z
loop_
_atom_site_type_symbol
_atom_site_label
_atom_site_fract_x
_atom_site_fract_y
_atom_site_fract_z
Si Si1 0.123759 0.152270 0.909813
Si Si2 0.000000 0.325989 0.750000
Si Si3 0.683513 0.599151 0.718444
Si Si4 0.081827 0.128702 0.270217
Si Si5 0.096926 0.401694 0.483485
O O1 0.193808 0.245804 0.860156
O O2 0.060707 0.220551 0.808028
O O3 0.128948 0.991397 0.855845
O O4 0.115640 0.164770 0.099674
O O5 0.028641 0.422305 0.601916
O O6 0.750000 0.500000 0.684366
O O7 0.611164 0.532736 0.634616
O O8 0.668667 0.611747 0.907720
O O9 0.085217 0.263613 0.380579
O O10 0.000000 0.079351 0.250000
#
# Coordination Sequence:
#
# PCOD8222959 Si02
#       5
#     8   4   8   8   8
#     4  11  22  39  69 103 143 187 227 282 361 419
#     4  10  20  38  62 104 138 180 222 282 358 428
#     4  11  25  47  67  94 137 192 248 297 337 410
#     4  12  22  41  68 109 149 180 220 291 359 443
#     4  11  24  41  68  99 140 185 235 289 367 418
#
# _framework density 24.148720000000001
#
# number of rings (size 3 to 8) (size 9 to 14) (size 15 to 20)
#    0.000    0.889    3.333    5.333    0.000    3.556 
#   10.000    2.222    0.000    8.000    0.000    0.000 
#    0.000    0.000    0.000    0.000    0.000    0.000 
#
# Total GULP energy -446326.213123 kJ/mol
# GULP energy per Si atom -12397.950365 kJ/mol
# Density = 2.409376 g / cm^3
# Si number density = 24.148720 Si / 1000 Ang^3
#
#
#
# Elastic Constant Matrix: (Units=GPa)
#
#
# Indices 1 2 3 4 5 6 
#
# 1 42.4887 7.7295 8.8933 0.0000 0.0000 0.0000
# 2 7.7295 134.9603 44.8391 0.0000 0.0000 0.0000
# 3 8.8933 44.8391 151.5995 0.0000 0.0000 0.0000
# 4 0.0000 0.0000 0.0000 38.5500 0.0000 0.0000
# 5 0.0000 0.0000 0.0000 0.0000 20.4904 0.0000
# 6 0.0000 0.0000 0.0000 0.0000 0.0000 18.2219
#
#
#
# Elastic Compliance Matrix: (Units=1/GPa)
#
#
# Indices 1 2 3 4 5 6 
#
# 1 0.023950 -0.001003 -0.001108 0.000000 0.000000 0.000000
# 2 -0.001003 0.008259 -0.002384 0.000000 0.000000 0.000000
# 3 -0.001108 -0.002384 0.007366 0.000000 0.000000 0.000000
# 4 0.000000 0.000000 0.000000 0.025940 0.000000 0.000000
# 5 0.000000 0.000000 0.000000 0.000000 0.048803 0.000000
# 6 0.000000 0.000000 0.000000 0.000000 0.000000 0.054879
#
#
# Mechanical properties :
#
#
# Convention : Reuss Voigt Hill
#
# Bulk Modulus (GPa) = 32.69635 50.21914 41.45774
# Shear Modulus (GPa) = 26.54147 33.29157 29.91652
#
# Velocity S-wave (km/s) = 3.31884 3.71699 3.52354
# Velocity P-wave (km/s) = 5.31557 6.26596 5.81023
#
# Compressibility (1/GPa) = 0.03058446
#
# Stress axis : x y z
#
# Youngs Moduli (GPa) = 41.75334 121.07849 135.75063
#
# Poissons Ratio (x) = 0.12150 0.15044
# Poissons Ratio (y) = 0.04190 0.32362
# Poissons Ratio (z) = 0.04627 0.28865
#
# Static dielectric constant tensor:
#      x y z
#    x 4.241830 0.000000 0.000000 
#    y 0.000000 4.564310 0.000000 
#    z 0.000000 0.000000 4.633860 
# 
# 
# High freq. dielectric constant tensor:
#      x y z
#    x 1.928050 0.000000 0.000000 
#    y 0.000000 1.968390 0.000000 
#    z 0.000000 0.000000 1.987380 
# 
# From -- ./inp_files/4535.got.cif
#   From: 2010.03.12/outbox.cif.g09.slc.cpg/sg54_3_cif.got.tgz:4535.got - 2010.04.16 15:00:50.
