data_PCOD8222522
_publ_section_title
;
Structure prediction by ZEFSAII (Michael W. Deem and Ramdas Pophale) SiO2 
 PCOD8222522
Probable space group: P C C A
;
_chemical_formula_sum "Si O2"
_cell_formula_units_Z 60
_cell_length_a 29.117807
_cell_length_b 20.415170
_cell_length_c 5.329922
_cell_angle_alpha 90.000000
_cell_angle_beta 90.000000
_cell_angle_gamma 90.000000
_cell_volume 3168.345376
_symmetry_space_group_name_H-M "P C C A"
_symmetry_group_IT_number 54
_symmetry_cell_setting 'orthorhombic'
loop_
_space_group_symop_operation_xyz
x,y,z
1/2-x,-y,z
1/2+x,-y,1/2-z
-x,y,1/2-z
-x,-y,-z
1/2+x,y,-z
1/2-x,y,1/2+z
x,-y,1/2+z
loop_
_atom_site_type_symbol
_atom_site_label
_atom_site_fract_x
_atom_site_fract_y
_atom_site_fract_z
Si Si1 0.137149 0.958023 0.719267
Si Si2 0.000000 0.224200 0.250000
Si Si3 0.377796 0.235968 0.168145
Si Si4 0.767843 0.099789 0.341676
Si Si5 0.909409 0.833185 0.844717
Si Si6 0.455500 0.671056 0.589888
Si Si7 0.948393 0.527197 0.523116
Si Si8 0.770416 0.247367 0.853070
O O1 0.177889 0.904325 0.699812
O O2 0.092803 0.911777 0.691805
O O3 0.138541 0.009798 0.493779
O O4 0.036607 0.180149 0.100830
O O5 0.030946 0.268651 0.421959
O O6 0.382106 0.187754 0.405394
O O7 0.409629 0.300833 0.226587
O O8 0.390703 0.201837 0.905928
O O9 0.324909 0.256213 0.151760
O O10 0.743871 0.063269 0.104562
O O11 0.747339 0.172507 0.367888
O O12 0.500000 0.651584 0.750000
O O13 0.444329 0.605254 0.435869
O O14 0.923479 0.493766 0.762846
O O15 0.000000 0.500000 0.500000
O O16 0.751024 0.281854 0.105805
#
# Coordination Sequence:
#
# PCOD8222522 Si02
#       8
#     8   4   8   8   8   8   8   8
#     4  12  25  39  54  76 102 132 175 225 281 354
#     4  10  22  36  58  82 106 152 190 242 276 332
#     4  11  22  36  60  84 113 148 184 235 283 333
#     4  10  19  33  52  72  98 125 161 203 270 338
#     4  11  22  39  57  78 109 138 186 231 291 331
#     4  11  20  34  55  88 120 152 196 227 267 329
#     4  10  19  30  50  76 121 164 183 214 270 309
#     4  10  19  34  55  77 107 141 176 219 285 340
#
# _framework density 18.937329999999999
#
# number of rings (size 3 to 8) (size 9 to 14) (size 15 to 20)
#    0.000    1.333    2.667    6.400    0.000    1.600 
#    0.000    0.667    0.000    0.000    0.000    0.000 
#    0.000    3.200    0.000    0.000    0.000    0.000 
#
# Total GULP energy -743352.783727 kJ/mol
# GULP energy per Si atom -12389.213062 kJ/mol
# Density = 1.889423 g / cm^3
# Si number density = 18.937330 Si / 1000 Ang^3
#
#
#
# Elastic Constant Matrix: (Units=GPa)
#
#
# Indices 1 2 3 4 5 6 
#
# 1 90.9919 35.3290 24.9218 0.0000 0.0000 0.0000
# 2 35.3290 51.2041 0.4536 0.0000 0.0000 0.0000
# 3 24.9218 0.4536 146.3344 0.0000 0.0000 0.0000
# 4 0.0000 0.0000 0.0000 17.1378 0.0000 0.0000
# 5 0.0000 0.0000 0.0000 0.0000 21.7037 0.0000
# 6 0.0000 0.0000 0.0000 0.0000 0.0000 13.6743
#
#
#
# Elastic Compliance Matrix: (Units=1/GPa)
#
#
# Indices 1 2 3 4 5 6 
#
# 1 0.016006 -0.011020 -0.002692 0.000000 0.000000 0.000000
# 2 -0.011020 0.027117 0.001793 0.000000 0.000000 0.000000
# 3 -0.002692 0.001793 0.007287 0.000000 0.000000 0.000000
# 4 0.000000 0.000000 0.000000 0.058351 0.000000 0.000000
# 5 0.000000 0.000000 0.000000 0.000000 0.046075 0.000000
# 6 0.000000 0.000000 0.000000 0.000000 0.000000 0.073130
#
#
# Mechanical properties :
#
#
# Convention : Reuss Voigt Hill
#
# Bulk Modulus (GPa) = 37.63376 45.54881 41.59129
# Shear Modulus (GPa) = 19.18214 25.69155 22.43685
#
# Velocity S-wave (km/s) = 3.18610 3.68729 3.44582
# Velocity P-wave (km/s) = 5.78368 6.49867 6.15157
#
# Compressibility (1/GPa) = 0.02657189
#
# Stress axis : x y z
#
# Youngs Moduli (GPa) = 62.47762 36.87742 137.23963
#
# Poissons Ratio (x) = 0.40637 0.36941
# Poissons Ratio (y) = 0.68847 -0.24602
# Poissons Ratio (z) = 0.16817 -0.06611
#
# Static dielectric constant tensor:
#      x y z
#    x 3.831000 0.000000 0.000000 
#    y 0.000000 3.302700 0.000000 
#    z 0.000000 0.000000 5.982990 
# 
# 
# High freq. dielectric constant tensor:
#      x y z
#    x 1.712970 0.000000 0.000000 
#    y 0.000000 1.698040 0.000000 
#    z 0.000000 0.000000 1.763440 
# 
# From -- ./inp_files/2220.got.cif
#   From: 2010.03.12/outbox.cif.g09.slc.cpg/sg54_2_cif.got.tgz:2220.got - 2010.04.16 15:00:50.
