data_PCOD8222221
_publ_section_title
;
Structure prediction by ZEFSAII (Michael W. Deem and Ramdas Pophale) SiO2 
 PCOD8222221
Probable space group: P M N A
;
_chemical_formula_sum "Si O2"
_cell_formula_units_Z 28
_cell_length_a 10.534185
_cell_length_b 4.884510
_cell_length_c 22.584653
_cell_angle_alpha 90.000000
_cell_angle_beta 90.000000
_cell_angle_gamma 90.000000
_cell_volume 1162.078233
_symmetry_space_group_name_H-M "P M N A"
_symmetry_group_IT_number 53
_symmetry_cell_setting 'orthorhombic'
loop_
_space_group_symop_operation_xyz
x,y,z
1/2-x,-y,1/2+z
x,-y,-z
1/2-x,y,1/2-z
-x,-y,-z
1/2+x,y,1/2-z
-x,y,z
1/2+x,-y,1/2+z
loop_
_atom_site_type_symbol
_atom_site_label
_atom_site_fract_x
_atom_site_fract_y
_atom_site_fract_z
Si Si1 0.255816 0.078156 0.932700
Si Si2 0.500000 0.811693 0.696265
Si Si3 0.500000 0.297120 0.615788
Si Si4 0.750000 0.388664 0.250000
Si Si5 0.356492 0.443036 0.130560
O O1 0.359376 0.307122 0.915554
O O2 0.271899 0.188508 0.108141
O O3 0.120348 0.224544 0.924646
O O4 0.278933 0.000000 0.000000
O O5 0.500000 0.610756 0.638501
O O6 0.625317 0.790007 0.736420
O O7 0.500000 0.123658 0.675653
O O8 0.788466 0.558205 0.309152
O O9 0.500000 0.344335 0.141428
#
# Coordination Sequence:
#
# PCOD8222221 Si02
#       5
#     8   4   4   4   8
#     4  12  26  46  71 100 139 183 232 287 343 413
#     4  12  26  42  75 100 145 180 232 282 346 420
#     4  12  23  46  68 108 132 182 229 282 346 414
#     4  12  24  48  68 106 136 184 226 286 346 414
#     4  12  27  45  71 102 136 185 232 284 349 412
#
# _framework density 24.094764999999999
#
# number of rings (size 3 to 8) (size 9 to 14) (size 15 to 20)
#    0.000    0.000    7.143    2.143    0.000    8.000 
#    0.000    4.286    0.000    0.000    0.000    0.000 
#    0.000    0.000    0.000    0.000    0.000    0.000 
#
# Total GULP energy -347186.883366 kJ/mol
# GULP energy per Si atom -12399.531549 kJ/mol
# Density = 2.403992 g / cm^3
# Si number density = 24.094765 Si / 1000 Ang^3
#
#
#
# Elastic Constant Matrix: (Units=GPa)
#
#
# Indices 1 2 3 4 5 6 
#
# 1 140.0363 5.9215 45.1018 0.0000 0.0000 0.0000
# 2 5.9215 85.2045 19.4102 0.0000 0.0000 0.0000
# 3 45.1018 19.4102 117.0947 0.0000 0.0000 0.0000
# 4 0.0000 0.0000 0.0000 21.6411 0.0000 0.0000
# 5 0.0000 0.0000 0.0000 0.0000 39.6241 0.0000
# 6 0.0000 0.0000 0.0000 0.0000 0.0000 23.8981
#
#
#
# Elastic Compliance Matrix: (Units=1/GPa)
#
#
# Indices 1 2 3 4 5 6 
#
# 1 0.008154 0.000155 -0.003166 0.000000 0.000000 0.000000
# 2 0.000155 0.012200 -0.002082 0.000000 0.000000 0.000000
# 3 -0.003166 -0.002082 0.010105 0.000000 0.000000 0.000000
# 4 0.000000 0.000000 0.000000 0.046208 0.000000 0.000000
# 5 0.000000 0.000000 0.000000 0.000000 0.025237 0.000000
# 6 0.000000 0.000000 0.000000 0.000000 0.000000 0.041844
#
#
# Mechanical properties :
#
#
# Convention : Reuss Voigt Hill
#
# Bulk Modulus (GPa) = 49.32987 53.68919 51.50953
# Shear Modulus (GPa) = 31.11511 35.15946 33.13728
#
# Velocity S-wave (km/s) = 3.59745 3.82411 3.71251
# Velocity P-wave (km/s) = 6.14600 6.46756 6.30883
#
# Compressibility (1/GPa) = 0.02027169
#
# Stress axis : x y z
#
# Youngs Moduli (GPa) = 122.63473 81.96728 98.96247
#
# Poissons Ratio (x) = -0.01268 0.31336
# Poissons Ratio (y) = -0.01896 0.20603
# Poissons Ratio (z) = 0.38832 0.17065
#
# Static dielectric constant tensor:
#      x y z
#    x 4.544540 0.000000 0.000000 
#    y 0.000000 4.040730 0.000000 
#    z 0.000000 0.000000 4.339640 
# 
# 
# High freq. dielectric constant tensor:
#      x y z
#    x 1.981240 0.000000 0.000000 
#    y 0.000000 1.938810 0.000000 
#    z 0.000000 0.000000 1.956680 
# 
# From -- ./inp_files/31540.got.cif
#   From: 2010.03.12/outbox.cif.g09.slc.cpg/sg53_16_cif.got.tgz:31540.got - 2010.04.16 14:36:59.
