data_PCOD8222304
_publ_section_title
;
Structure prediction by ZEFSAII (Michael W. Deem and Ramdas Pophale) SiO2 
 PCOD8222304
Probable space group: P C C A
;
_chemical_formula_sum "Si O2"
_cell_formula_units_Z 40
_cell_length_a 11.853794
_cell_length_b 23.708012
_cell_length_c 5.479556
_cell_angle_alpha 90.000000
_cell_angle_beta 90.000000
_cell_angle_gamma 90.000000
_cell_volume 1539.919022
_symmetry_space_group_name_H-M "P C C A"
_symmetry_group_IT_number 54
_symmetry_cell_setting 'orthorhombic'
loop_
_space_group_symop_operation_xyz
x,y,z
1/2-x,-y,z
1/2+x,-y,1/2-z
-x,y,1/2-z
-x,-y,-z
1/2+x,y,-z
1/2-x,y,1/2+z
x,-y,1/2+z
loop_
_atom_site_type_symbol
_atom_site_label
_atom_site_fract_x
_atom_site_fract_y
_atom_site_fract_z
Si Si1 0.123272 0.977584 0.871353
Si Si2 0.875147 0.522758 0.883138
Si Si3 0.000000 0.127931 0.250000
Si Si4 0.374129 0.344755 0.617655
Si Si5 0.000000 0.193590 0.750000
Si Si6 0.377916 0.298965 0.121997
O O1 0.108482 0.910268 0.829424
O O2 0.250000 0.000000 0.889056
O O3 0.065506 0.005094 0.629061
O O4 0.750000 0.500000 0.839013
O O5 0.933633 0.509118 0.617867
O O6 0.866823 0.588916 0.923475
O O7 0.963659 0.160401 0.501349
O O8 0.435899 0.320071 0.377450
O O9 0.252127 0.315625 0.637237
O O10 0.432126 0.328957 0.878303
O O11 0.103578 0.231522 0.640585
#
# Coordination Sequence:
#
# PCOD8222304 Si02
#       6
#     8   8   4   8   4   8
#     4  10  21  41  68  98 127 163 201 234 288 361
#     4  10  16  25  46  82 108 129 179 250 305 350
#     4  12  24  43  64  90 128 159 200 256 292 336
#     4  10  19  35  57  80 107 152 194 246 297 352
#     4  12  26  41  60  90 120 161 198 242 292 332
#     4  10  20  37  55  78 112 151 201 237 284 352
#
# _framework density 25.975394999999999
#
# number of rings (size 3 to 8) (size 9 to 14) (size 15 to 20)
#    0.000    1.600    0.000    9.000    0.000    0.000 
#    0.000   24.000    0.000    0.000    0.000   51.800 
#    0.000    0.000    0.000    0.000    0.000    0.000 
#
# Total GULP energy -495719.700897 kJ/mol
# GULP energy per Si atom -12392.992522 kJ/mol
# Density = 2.591627 g / cm^3
# Si number density = 25.975395 Si / 1000 Ang^3
#
#
#
# Elastic Constant Matrix: (Units=GPa)
#
#
# Indices 1 2 3 4 5 6 
#
# 1 109.6591 22.1969 60.9359 0.0000 0.0000 0.0000
# 2 22.1969 178.7632 69.0997 0.0000 0.0000 0.0000
# 3 60.9359 69.0997 273.3637 0.0000 0.0000 0.0000
# 4 0.0000 0.0000 0.0000 47.2388 0.0000 0.0000
# 5 0.0000 0.0000 0.0000 0.0000 47.1611 0.0000
# 6 0.0000 0.0000 0.0000 0.0000 0.0000 32.7522
#
#
#
# Elastic Compliance Matrix: (Units=1/GPa)
#
#
# Indices 1 2 3 4 5 6 
#
# 1 0.010440 -0.000440 -0.002216 0.000000 0.000000 0.000000
# 2 -0.000440 0.006218 -0.001474 0.000000 0.000000 0.000000
# 3 -0.002216 -0.001474 0.004525 0.000000 0.000000 0.000000
# 4 0.000000 0.000000 0.000000 0.021169 0.000000 0.000000
# 5 0.000000 0.000000 0.000000 0.000000 0.021204 0.000000
# 6 0.000000 0.000000 0.000000 0.000000 0.000000 0.030532
#
#
# Mechanical properties :
#
#
# Convention : Reuss Voigt Hill
#
# Bulk Modulus (GPa) = 77.37830 96.25010 86.81420
# Shear Modulus (GPa) = 46.88034 52.73399 49.80716
#
# Velocity S-wave (km/s) = 4.25290 4.51061 4.38365
# Velocity P-wave (km/s) = 7.34642 8.01637 7.68870
#
# Compressibility (1/GPa) = 0.01292352
#
# Stress axis : x y z
#
# Youngs Moduli (GPa) = 95.78962 160.81608 221.01241
#
# Poissons Ratio (x) = 0.07071 0.48975
# Poissons Ratio (y) = 0.04212 0.32573
# Poissons Ratio (z) = 0.21226 0.23701
#
# Static dielectric constant tensor:
#      x y z
#    x 6.161750 0.000000 0.000000 
#    y 0.000000 4.363570 0.000000 
#    z 0.000000 0.000000 7.236440 
# 
# 
# High freq. dielectric constant tensor:
#      x y z
#    x 2.112240 0.000000 0.000000 
#    y 0.000000 2.003540 0.000000 
#    z 0.000000 0.000000 2.122850 
# 
# From -- ./inp_files/949.got.cif
#   From: 2010.03.12/outbox.cif.g09.slc.cpg/sg54_1_cif.got.tgz:949.got - 2010.04.16 15:00:50.
