data_PCOD8222164
_publ_section_title
;
Structure prediction by ZEFSAII (Michael W. Deem and Ramdas Pophale) SiO2 
 PCOD8222164
Probable space group: P M N A
;
_chemical_formula_sum "Si O2"
_cell_formula_units_Z 56
_cell_length_a 15.483815
_cell_length_b 5.137250
_cell_length_c 29.903901
_cell_angle_alpha 90.000000
_cell_angle_beta 90.000000
_cell_angle_gamma 90.000000
_cell_volume 2378.682737
_symmetry_space_group_name_H-M "P M N A"
_symmetry_group_IT_number 53
_symmetry_cell_setting 'orthorhombic'
loop_
_space_group_symop_operation_xyz
x,y,z
1/2-x,-y,1/2+z
x,-y,-z
1/2-x,y,1/2-z
-x,-y,-z
1/2+x,y,1/2-z
-x,y,z
1/2+x,-y,1/2+z
loop_
_atom_site_type_symbol
_atom_site_label
_atom_site_fract_x
_atom_site_fract_y
_atom_site_fract_z
Si Si1 0.186765 0.718062 0.882869
Si Si2 0.597510 0.369902 0.548713
Si Si3 0.404925 0.847302 0.113841
Si Si4 0.845340 0.454899 0.238415
Si Si5 0.100447 0.961224 0.186598
Si Si6 0.265109 0.959574 0.049126
Si Si7 0.853955 0.636027 0.662969
O O1 0.113334 0.543117 0.906429
O O2 0.142279 0.982463 0.862597
O O3 0.248980 0.582165 0.844767
O O4 0.255190 0.774773 0.922837
O O5 0.607763 0.500000 0.500000
O O6 0.500000 0.258320 0.553175
O O7 0.667961 0.146094 0.548856
O O8 0.500000 0.923020 0.095850
O O9 0.338545 0.793909 0.073411
O O10 0.411444 0.567180 0.136278
O O11 0.372623 0.066260 0.148817
O O12 0.750000 0.548323 0.250000
O O13 0.851244 0.169910 0.217337
O O14 0.887979 0.416817 0.286951
O O15 0.888515 0.668805 0.205475
O O16 0.000000 0.027222 0.184140
O O17 0.301214 0.000000 0.000000
#
# Coordination Sequence:
#
# PCOD8222164 Si02
#       7
#     8   8   8   8   8   8   8
#     4  11  24  44  67  99 137 182 232 285 348 420
#     4  11  23  41  68 102 138 183 236 288 350 422
#     4  11  25  44  72 107 138 181 236 290 350 417
#     4  12  26  46  71  99 137 186 234 283 354 426
#     4  12  28  45  69 104 139 180 231 293 353 417
#     4  11  24  43  68  97 141 183 230 286 353 422
#     4  11  24  44  74 100 136 183 233 286 349 419
#
# _framework density 23.542439000000002
#
# number of rings (size 3 to 8) (size 9 to 14) (size 15 to 20)
#    0.000    0.714    4.286    2.571    6.000    5.143 
#    0.000    0.000    0.000    3.000    0.000    0.000 
#    0.000    0.000    0.000    0.000    0.000    0.000 
#
# Total GULP energy -693820.111851 kJ/mol
# GULP energy per Si atom -12389.644854 kJ/mol
# Density = 2.348886 g / cm^3
# Si number density = 23.542439 Si / 1000 Ang^3
#
#
#
# Elastic Constant Matrix: (Units=GPa)
#
#
# Indices 1 2 3 4 5 6 
#
# 1 113.7976 -0.0601 7.8993 0.0000 0.0000 0.0000
# 2 -0.0601 75.1335 12.0097 0.0000 0.0000 0.0000
# 3 7.8993 12.0097 101.9884 0.0000 0.0000 0.0000
# 4 0.0000 0.0000 0.0000 30.5025 0.0000 0.0000
# 5 0.0000 0.0000 0.0000 0.0000 16.6260 0.0000
# 6 0.0000 0.0000 0.0000 0.0000 0.0000 15.7184
#
#
#
# Elastic Compliance Matrix: (Units=1/GPa)
#
#
# Indices 1 2 3 4 5 6 
#
# 1 0.008836 0.000119 -0.000698 0.000000 0.000000 0.000000
# 2 0.000119 0.013567 -0.001607 0.000000 0.000000 0.000000
# 3 -0.000698 -0.001607 0.010048 0.000000 0.000000 0.000000
# 4 0.000000 0.000000 0.000000 0.032784 0.000000 0.000000
# 5 0.000000 0.000000 0.000000 0.000000 0.060147 0.000000
# 6 0.000000 0.000000 0.000000 0.000000 0.000000 0.063620
#
#
# Mechanical properties :
#
#
# Convention : Reuss Voigt Hill
#
# Bulk Modulus (GPa) = 35.61484 36.73525 36.17505
# Shear Modulus (GPa) = 24.66290 30.64076 27.65183
#
# Velocity S-wave (km/s) = 3.24017 3.61156 3.43089
# Velocity P-wave (km/s) = 5.39991 5.74708 5.57619
#
# Compressibility (1/GPa) = 0.02807818
#
# Stress axis : x y z
#
# Youngs Moduli (GPa) = 113.17248 73.71061 99.51906
#
# Poissons Ratio (x) = -0.00875 0.06950
# Poissons Ratio (y) = -0.01343 0.15990
# Poissons Ratio (z) = 0.07903 0.11843
#
# Static dielectric constant tensor:
#      x y z
#    x 4.257430 0.000000 0.000000 
#    y 0.000000 3.921120 0.000000 
#    z 0.000000 0.000000 4.928170 
# 
# 
# High freq. dielectric constant tensor:
#      x y z
#    x 1.932380 0.000000 0.000000 
#    y 0.000000 1.916650 0.000000 
#    z 0.000000 0.000000 1.950380 
# 
# From -- ./inp_files/38866.got.cif
#   From: 2010.03.12/outbox.cif.g09.slc.cpg/sg53_20_cif.got.tgz:38866.got - 2010.04.16 14:36:59.
