data_PCOD8222915
_publ_section_title
;
Structure prediction by ZEFSAII (Michael W. Deem and Ramdas Pophale) SiO2 
 PCOD8222915
Probable space group: P C C A
;
_chemical_formula_sum "Si O2"
_cell_formula_units_Z 56
_cell_length_a 14.676894
_cell_length_b 9.573903
_cell_length_c 20.628083
_cell_angle_alpha 90.000000
_cell_angle_beta 90.000000
_cell_angle_gamma 90.000000
_cell_volume 2898.558373
_symmetry_space_group_name_H-M "P C C A"
_symmetry_group_IT_number 54
_symmetry_cell_setting 'orthorhombic'
loop_
_space_group_symop_operation_xyz
x,y,z
1/2-x,-y,z
1/2+x,-y,1/2-z
-x,y,1/2-z
-x,-y,-z
1/2+x,y,-z
1/2-x,y,1/2+z
x,-y,1/2+z
loop_
_atom_site_type_symbol
_atom_site_label
_atom_site_fract_x
_atom_site_fract_y
_atom_site_fract_z
Si Si1 0.146809 0.024239 0.621209
Si Si2 0.925968 0.238920 0.979224
Si Si3 0.736001 0.662630 0.519885
Si Si4 0.172472 0.388039 0.842642
Si Si5 0.470741 0.546199 0.627413
Si Si6 0.083084 0.253111 0.078128
Si Si7 0.099099 0.763476 0.225875
O O1 0.087563 0.109645 0.568899
O O2 0.145123 0.106932 0.689047
O O3 0.250000 0.000000 0.598065
O O4 0.100440 0.872629 0.628528
O O5 0.960597 0.376510 0.941356
O O6 0.833220 0.264902 0.017327
O O7 0.000273 0.205387 0.033016
O O8 0.750000 0.500000 0.506949
O O9 0.694854 0.692467 0.590846
O O10 0.672566 0.726951 0.465145
O O11 0.250000 0.500000 0.825396
O O12 0.165523 0.274444 0.785404
O O13 0.075404 0.464392 0.850479
O O14 0.435227 0.389364 0.620884
O O15 0.409876 0.626777 0.680357
O O16 0.000000 0.811984 0.250000
#
# Coordination Sequence:
#
# PCOD8222915 Si02
#       7
#     8   8   8   8   8   8   8
#     4  11  24  40  60  86 122 163 211 242 296 368
#     4  11  21  38  57  92 131 158 189 249 312 367
#     4  11  20  33  62  98 124 149 195 254 314 361
#     4  10  20  37  61  94 123 153 202 257 303 361
#     4  10  20  37  65  90 119 161 199 247 306 360
#     4  12  21  36  61  95 124 153 198 253 302 363
#     4   9  22  44  62  80 117 169 207 246 302 353
#
# _framework density 19.319949999999999
#
# number of rings (size 3 to 8) (size 9 to 14) (size 15 to 20)
#    0.000    1.429    4.286    2.571    0.000    1.143 
#    0.000    5.000    0.000    0.000    0.000    0.000 
#    0.000    0.000    0.000    0.000    0.000    0.000 
#
# Total GULP energy -694556.119410 kJ/mol
# GULP energy per Si atom -12402.787847 kJ/mol
# Density = 1.927598 g / cm^3
# Si number density = 19.319950 Si / 1000 Ang^3
#
#
#
# Elastic Constant Matrix: (Units=GPa)
#
#
# Indices 1 2 3 4 5 6 
#
# 1 91.0800 45.7608 27.8228 0.0000 0.0000 0.0000
# 2 45.7608 136.8536 55.9285 0.0000 0.0000 0.0000
# 3 27.8228 55.9285 90.2924 0.0000 0.0000 0.0000
# 4 0.0000 0.0000 0.0000 17.7123 0.0000 0.0000
# 5 0.0000 0.0000 0.0000 0.0000 18.0576 0.0000
# 6 0.0000 0.0000 0.0000 0.0000 0.0000 25.4945
#
#
#
# Elastic Compliance Matrix: (Units=1/GPa)
#
#
# Indices 1 2 3 4 5 6 
#
# 1 0.013415 -0.003744 -0.001815 0.000000 0.000000 0.000000
# 2 -0.003744 0.010829 -0.005554 0.000000 0.000000 0.000000
# 3 -0.001815 -0.005554 0.015074 0.000000 0.000000 0.000000
# 4 0.000000 0.000000 0.000000 0.056458 0.000000 0.000000
# 5 0.000000 0.000000 0.000000 0.000000 0.055378 0.000000
# 6 0.000000 0.000000 0.000000 0.000000 0.000000 0.039224
#
#
# Mechanical properties :
#
#
# Convention : Reuss Voigt Hill
#
# Bulk Modulus (GPa) = 58.50305 64.13892 61.32098
# Shear Modulus (GPa) = 22.90420 24.83380 23.86900
#
# Velocity S-wave (km/s) = 3.44687 3.58913 3.51872
# Velocity P-wave (km/s) = 6.79619 7.10255 6.95106
#
# Compressibility (1/GPa) = 0.01709313
#
# Stress axis : x y z
#
# Youngs Moduli (GPa) = 74.54476 92.34741 66.33796
#
# Poissons Ratio (x) = 0.34575 0.12037
# Poissons Ratio (y) = 0.27910 0.36842
# Poissons Ratio (z) = 0.13526 0.51287
#
# Static dielectric constant tensor:
#      x y z
#    x 3.622370 0.000000 0.000000 
#    y 0.000000 3.500820 0.000000 
#    z 0.000000 0.000000 3.540990 
# 
# 
# High freq. dielectric constant tensor:
#      x y z
#    x 1.763570 0.000000 0.000000 
#    y 0.000000 1.740240 0.000000 
#    z 0.000000 0.000000 1.744680 
# 
# From -- ./inp_files/21609.got.cif
#   From: 2010.03.12/outbox.cif.g09.slc.cpg/sg54_11_cif.got.tgz:21609.got - 2010.04.16 15:00:50.
