data_PCOD8222611
_publ_section_title
;
Structure prediction by ZEFSAII (Michael W. Deem and Ramdas Pophale) SiO2 
 PCOD8222611
Probable space group: P C C A
;
_chemical_formula_sum "Si O2"
_cell_formula_units_Z 48
_cell_length_a 8.404115
_cell_length_b 15.467760
_cell_length_c 19.912282
_cell_angle_alpha 90.000000
_cell_angle_beta 90.000000
_cell_angle_gamma 90.000000
_cell_volume 2588.453965
_symmetry_space_group_name_H-M "P C C A"
_symmetry_group_IT_number 54
_symmetry_cell_setting 'orthorhombic'
loop_
_space_group_symop_operation_xyz
x,y,z
1/2-x,-y,z
1/2+x,-y,1/2-z
-x,y,1/2-z
-x,-y,-z
1/2+x,y,-z
1/2-x,y,1/2+z
x,-y,1/2+z
loop_
_atom_site_type_symbol
_atom_site_label
_atom_site_fract_x
_atom_site_fract_y
_atom_site_fract_z
Si Si1 0.232087 0.095395 0.905281
Si Si2 0.354305 0.262982 0.565011
Si Si3 0.091199 0.546570 0.560118
Si Si4 0.587424 0.764255 0.182768
Si Si5 0.883048 0.571562 0.689423
Si Si6 0.069258 0.843620 0.029503
O O1 0.292905 0.165709 0.850396
O O2 0.042211 0.102019 0.919796
O O3 0.250000 0.000000 0.873866
O O4 0.334154 0.099572 0.974697
O O5 0.341126 0.360341 0.538556
O O6 0.439145 0.256394 0.635686
O O7 0.448097 0.218638 0.506136
O O8 0.185105 0.216141 0.573578
O O9 0.250000 0.500000 0.584877
O O10 0.000000 0.500000 0.500000
O O11 0.965944 0.553431 0.619236
O O12 0.500000 0.799468 0.250000
O O13 0.679216 0.672041 0.193070
O O14 0.750000 0.500000 0.698391
O O15 0.000000 0.555353 0.750000
#
# Coordination Sequence:
#
# PCOD8222611 Si02
#       6
#     8   8   8   8   8   8
#     4  10  19  34  56  81 107 138 177 225 275 327
#     4   9  18  33  51  72 104 139 171 213 266 318
#     4  11  21  31  49  78 109 139 175 222 272 323
#     4   9  20  38  54  72 106 144 175 214 265 317
#     4  10  21  38  57  77 103 142 184 223 270 327
#     4   9  18  32  53  78 103 134 175 219 268 322
#
# _framework density 18.543887000000002
#
# number of rings (size 3 to 8) (size 9 to 14) (size 15 to 20)
#    0.000    2.333    0.000    2.500    0.000    6.667 
#    0.000    2.500    0.000    0.000    0.000    0.000 
#    0.000    0.000    0.000    0.000    0.000    0.000 
#
# Total GULP energy -594818.067483 kJ/mol
# GULP energy per Si atom -12392.043073 kJ/mol
# Density = 1.850168 g / cm^3
# Si number density = 18.543887 Si / 1000 Ang^3
#
#
#
# Elastic Constant Matrix: (Units=GPa)
#
#
# Indices 1 2 3 4 5 6 
#
# 1 92.6041 60.7745 15.3292 0.0000 0.0000 0.0000
# 2 60.7745 142.1905 31.8547 0.0000 0.0000 0.0000
# 3 15.3292 31.8547 69.7266 0.0000 0.0000 0.0000
# 4 0.0000 0.0000 0.0000 12.9109 0.0000 0.0000
# 5 0.0000 0.0000 0.0000 0.0000 15.9060 0.0000
# 6 0.0000 0.0000 0.0000 0.0000 0.0000 17.8802
#
#
#
# Elastic Compliance Matrix: (Units=1/GPa)
#
#
# Indices 1 2 3 4 5 6 
#
# 1 0.015019 -0.006327 -0.000411 0.000000 0.000000 0.000000
# 2 -0.006327 0.010500 -0.003406 0.000000 0.000000 0.000000
# 3 -0.000411 -0.003406 0.015988 0.000000 0.000000 0.000000
# 4 0.000000 0.000000 0.000000 0.077454 0.000000 0.000000
# 5 0.000000 0.000000 0.000000 0.000000 0.062869 0.000000
# 6 0.000000 0.000000 0.000000 0.000000 0.000000 0.055928
#
#
# Mechanical properties :
#
#
# Convention : Reuss Voigt Hill
#
# Bulk Modulus (GPa) = 47.12883 57.82645 52.47764
# Shear Modulus (GPa) = 18.85932 22.44361 20.65147
#
# Velocity S-wave (km/s) = 3.19252 3.48271 3.34077
# Velocity P-wave (km/s) = 6.24976 6.88648 6.57583
#
# Compressibility (1/GPa) = 0.02121844
#
# Stress axis : x y z
#
# Youngs Moduli (GPa) = 66.58123 95.23577 62.54613
#
# Poissons Ratio (x) = 0.60259 0.02573
# Poissons Ratio (y) = 0.42128 0.21303
# Poissons Ratio (z) = 0.02738 0.32437
#
# Static dielectric constant tensor:
#      x y z
#    x 3.186890 0.000000 0.000000 
#    y 0.000000 3.560430 0.000000 
#    z 0.000000 0.000000 3.352510 
# 
# 
# High freq. dielectric constant tensor:
#      x y z
#    x 1.717840 0.000000 0.000000 
#    y 0.000000 1.728810 0.000000 
#    z 0.000000 0.000000 1.706200 
# 
# From -- ./inp_files/16628.got.cif
#   From: 2010.03.12/outbox.cif.g09.slc.cpg/sg54_9_cif.got.tgz:16628.got - 2010.04.16 15:00:50.
