data_PCOD8222658
_publ_section_title
;
Structure prediction by ZEFSAII (Michael W. Deem and Ramdas Pophale) SiO2 
 PCOD8222658
Probable space group: P C C A
;
_chemical_formula_sum "Si O2"
_cell_formula_units_Z 60
_cell_length_a 27.985815
_cell_length_b 13.885185
_cell_length_c 8.348177
_cell_angle_alpha 90.000000
_cell_angle_beta 90.000000
_cell_angle_gamma 90.000000
_cell_volume 3244.003229
_symmetry_space_group_name_H-M "P C C A"
_symmetry_group_IT_number 54
_symmetry_cell_setting 'orthorhombic'
loop_
_space_group_symop_operation_xyz
x,y,z
1/2-x,-y,z
1/2+x,-y,1/2-z
-x,y,1/2-z
-x,-y,-z
1/2+x,y,-z
1/2-x,y,1/2+z
x,-y,1/2+z
loop_
_atom_site_type_symbol
_atom_site_label
_atom_site_fract_x
_atom_site_fract_y
_atom_site_fract_z
Si Si1 0.428450 0.864571 0.453170
Si Si2 0.101219 0.544883 0.020902
Si Si3 0.891640 0.705778 0.736453
Si Si4 0.046556 0.597295 0.320208
Si Si5 0.815034 0.417547 0.368650
Si Si6 0.444620 0.059052 0.289569
Si Si7 0.250000 0.500000 0.893803
Si Si8 0.967153 0.780211 0.986076
O O1 0.386439 0.791197 0.395066
O O2 0.417628 0.897784 0.634535
O O3 0.479723 0.811604 0.433821
O O4 0.424707 0.954643 0.333111
O O5 0.100688 0.605832 0.857290
O O6 0.066978 0.455035 0.977731
O O7 0.083831 0.605930 0.173718
O O8 0.152451 0.504895 0.068166
O O9 0.844515 0.683568 0.846141
O O10 0.937642 0.735199 0.839988
O O11 0.029420 0.703105 0.371657
O O12 0.000000 0.542244 0.250000
O O13 0.772577 0.412612 0.499301
O O14 0.791870 0.447956 0.201895
O O15 0.500000 0.048808 0.250000
O O16 0.438447 0.127914 0.443640
#
# Coordination Sequence:
#
# PCOD8222658 Si02
#       8
#     8   8   8   8   8   8   4   8
#     4  11  22  36  56  80 113 159 200 246 284 326
#     4  12  22  38  51  75 112 155 189 240 286 322
#     4  12  22  35  55  82 115 148 189 239 288 332
#     4  12  22  33  47  71 110 159 205 229 265 329
#     4  11  21  40  59  83 106 144 179 236 287 346
#     4  10  19  36  55  78 108 157 209 250 287 316
#     4  10  22  40  66  80 102 142 188 224 302 362
#     4  11  21  35  51  78 112 160 204 244 278 324
#
# _framework density 18.495664999999999
#
# number of rings (size 3 to 8) (size 9 to 14) (size 15 to 20)
#    0.000    0.800    4.000    6.800    0.000    1.067 
#    0.000    0.000    0.000    0.000    0.000    0.000 
#    0.000   12.800    0.000    0.000    0.000    0.000 
#
# Total GULP energy -743674.911990 kJ/mol
# GULP energy per Si atom -12394.581867 kJ/mol
# Density = 1.845357 g / cm^3
# Si number density = 18.495665 Si / 1000 Ang^3
#
#
#
# Elastic Constant Matrix: (Units=GPa)
#
#
# Indices 1 2 3 4 5 6 
#
# 1 71.5287 39.4063 41.2484 0.0000 0.0000 0.0000
# 2 39.4063 95.3850 34.8410 0.0000 0.0000 0.0000
# 3 41.2484 34.8410 98.2961 0.0000 0.0000 0.0000
# 4 0.0000 0.0000 0.0000 39.0058 0.0000 0.0000
# 5 0.0000 0.0000 0.0000 0.0000 35.4842 0.0000
# 6 0.0000 0.0000 0.0000 0.0000 0.0000 17.0707
#
#
#
# Elastic Compliance Matrix: (Units=1/GPa)
#
#
# Indices 1 2 3 4 5 6 
#
# 1 0.021358 -0.006375 -0.006703 0.000000 0.000000 0.000000
# 2 -0.006375 0.013946 -0.002268 0.000000 0.000000 0.000000
# 3 -0.006703 -0.002268 0.013790 0.000000 0.000000 0.000000
# 4 0.000000 0.000000 0.000000 0.025637 0.000000 0.000000
# 5 0.000000 0.000000 0.000000 0.000000 0.028182 0.000000
# 6 0.000000 0.000000 0.000000 0.000000 0.000000 0.058580
#
#
# Mechanical properties :
#
#
# Convention : Reuss Voigt Hill
#
# Bulk Modulus (GPa) = 54.34203 55.13349 54.73776
# Shear Modulus (GPa) = 25.21198 28.29308 26.75253
#
# Velocity S-wave (km/s) = 3.69606 3.91540 3.80731
# Velocity P-wave (km/s) = 6.90357 7.09324 6.99905
#
# Compressibility (1/GPa) = 0.01840196
#
# Stress axis : x y z
#
# Youngs Moduli (GPa) = 46.82096 71.70507 72.51673
#
# Poissons Ratio (x) = 0.45714 0.48607
# Poissons Ratio (y) = 0.29850 0.16446
# Poissons Ratio (z) = 0.31383 0.16262
#
# Static dielectric constant tensor:
#      x y z
#    x 3.154040 0.000000 0.000000 
#    y 0.000000 3.485120 0.000000 
#    z 0.000000 0.000000 3.750110 
# 
# 
# High freq. dielectric constant tensor:
#      x y z
#    x 1.666080 0.000000 0.000000 
#    y 0.000000 1.704580 0.000000 
#    z 0.000000 0.000000 1.751860 
# 
# From -- ./inp_files/5575.got.cif
#   From: 2010.03.12/outbox.cif.g09.slc.cpg/sg54_3_cif.got.tgz:5575.got - 2010.04.16 15:00:50.
