data_PCOD8222324
_publ_section_title
;
Structure prediction by ZEFSAII (Michael W. Deem and Ramdas Pophale) SiO2 
 PCOD8222324
Probable space group: P C C A
;
_chemical_formula_sum "Si O2"
_cell_formula_units_Z 48
_cell_length_a 16.923873
_cell_length_b 27.888392
_cell_length_c 5.208904
_cell_angle_alpha 90.000000
_cell_angle_beta 90.000000
_cell_angle_gamma 90.000000
_cell_volume 2458.496449
_symmetry_space_group_name_H-M "P C C A"
_symmetry_group_IT_number 54
_symmetry_cell_setting 'orthorhombic'
loop_
_space_group_symop_operation_xyz
x,y,z
1/2-x,-y,z
1/2+x,-y,1/2-z
-x,y,1/2-z
-x,-y,-z
1/2+x,y,-z
1/2-x,y,1/2+z
x,-y,1/2+z
loop_
_atom_site_type_symbol
_atom_site_label
_atom_site_fract_x
_atom_site_fract_y
_atom_site_fract_z
Si Si1 0.697069 0.298256 0.015318
Si Si2 0.447850 0.630615 0.995916
Si Si3 0.533891 0.946463 0.499911
Si Si4 0.588006 0.479017 0.010906
Si Si5 0.198415 0.908840 0.470489
Si Si6 0.202523 0.805667 0.564579
O O1 0.760997 0.306099 0.789406
O O2 0.658492 0.244512 0.997188
O O3 0.625805 0.334462 0.981470
O O4 0.500000 0.644547 0.750000
O O5 0.500000 0.634511 0.250000
O O6 0.412272 0.577819 0.964221
O O7 0.500000 0.919192 0.250000
O O8 0.628896 0.947510 0.500239
O O9 0.500000 0.000000 0.500000
O O10 0.500000 0.919118 0.750000
O O11 0.632709 0.497159 0.754419
O O12 0.500000 0.500000 0.000000
O O13 0.237118 0.916525 0.192458
O O14 0.157981 0.855579 0.497158
O O15 0.277315 0.806187 0.367521
#
# Coordination Sequence:
#
# PCOD8222324 Si02
#       6
#     8   8   8   8   8   8
#     4  10  21  38  55  77 113 148 168 209 284 335
#     4  12  21  33  56  84 104 133 184 230 253 315
#     4  10  21  38  53  76 116 150 172 213 287 336
#     4  10  16  30  49  75  94 132 176 218 255 303
#     4  10  19  35  60  84 100 136 198 234 244 302
#     4   8  16  32  55  77 102 138 180 218 259 316
#
# _framework density 19.524128000000001
#
# number of rings (size 3 to 8) (size 9 to 14) (size 15 to 20)
#    0.000    2.000    3.333    2.000    0.000    0.000 
#    0.000   11.667    0.000    3.000    0.000    0.000 
#    0.000    0.000    0.000    0.000    0.000    0.000 
#
# Total GULP energy -594650.422279 kJ/mol
# GULP energy per Si atom -12388.550464 kJ/mol
# Density = 1.947969 g / cm^3
# Si number density = 19.524128 Si / 1000 Ang^3
#
#
#
# Elastic Constant Matrix: (Units=GPa)
#
#
# Indices 1 2 3 4 5 6 
#
# 1 62.5097 42.0606 19.1717 0.0000 0.0000 0.0000
# 2 42.0606 101.0191 5.2465 0.0000 0.0000 0.0000
# 3 19.1717 5.2465 154.5203 0.0000 0.0000 0.0000
# 4 0.0000 0.0000 0.0000 11.1262 0.0000 0.0000
# 5 0.0000 0.0000 0.0000 0.0000 19.2782 0.0000
# 6 0.0000 0.0000 0.0000 0.0000 0.0000 23.2926
#
#
#
# Elastic Compliance Matrix: (Units=1/GPa)
#
#
# Indices 1 2 3 4 5 6 
#
# 1 0.023188 -0.009522 -0.002554 0.000000 0.000000 0.000000
# 2 -0.009522 0.013827 0.000712 0.000000 0.000000 0.000000
# 3 -0.002554 0.000712 0.006764 0.000000 0.000000 0.000000
# 4 0.000000 0.000000 0.000000 0.089878 0.000000 0.000000
# 5 0.000000 0.000000 0.000000 0.000000 0.051872 0.000000
# 6 0.000000 0.000000 0.000000 0.000000 0.000000 0.042932
#
#
# Mechanical properties :
#
#
# Convention : Reuss Voigt Hill
#
# Bulk Modulus (GPa) = 47.50253 50.11187 48.80720
# Shear Modulus (GPa) = 19.36446 27.51074 23.43760
#
# Velocity S-wave (km/s) = 3.15274 3.75782 3.46850
# Velocity P-wave (km/s) = 6.13482 6.67463 6.41041
#
# Compressibility (1/GPa) = 0.02105151
#
# Stress axis : x y z
#
# Youngs Moduli (GPa) = 43.12641 72.32392 147.83478
#
# Poissons Ratio (x) = 0.68866 0.37752
# Poissons Ratio (y) = 0.41064 -0.10525
# Poissons Ratio (z) = 0.11013 -0.05149
#
# Static dielectric constant tensor:
#      x y z
#    x 2.998300 0.000000 0.000000 
#    y 0.000000 3.771150 0.000000 
#    z 0.000000 0.000000 1.559540 
# 
# 
# High freq. dielectric constant tensor:
#      x y z
#    x 1.698350 0.000000 0.000000 
#    y 0.000000 1.761900 0.000000 
#    z 0.000000 0.000000 1.802020 
# 
# From -- ./inp_files/614.got.cif
#   From: 2010.03.12/outbox.cif.g09.slc.cpg/sg54_1_cif.got.tgz:614.got - 2010.04.16 15:00:50.
