data_PCOD8222274
_publ_section_title
;
Structure prediction by ZEFSAII (Michael W. Deem and Ramdas Pophale) SiO2 
 PCOD8222274
Probable space group: P C C A
;
_chemical_formula_sum "Si O2"
_cell_formula_units_Z 48
_cell_length_a 5.153178
_cell_length_b 29.218749
_cell_length_c 17.007837
_cell_angle_alpha 90.000000
_cell_angle_beta 90.000000
_cell_angle_gamma 90.000000
_cell_volume 2560.860060
_symmetry_space_group_name_H-M "P C C A"
_symmetry_group_IT_number 54
_symmetry_cell_setting 'orthorhombic'
loop_
_space_group_symop_operation_xyz
x,y,z
1/2-x,-y,z
1/2+x,-y,1/2-z
-x,y,1/2-z
-x,-y,-z
1/2+x,y,-z
1/2-x,y,1/2+z
x,-y,1/2+z
loop_
_atom_site_type_symbol
_atom_site_label
_atom_site_fract_x
_atom_site_fract_y
_atom_site_fract_z
Si Si1 0.011496 0.120653 0.048580
Si Si2 0.866758 0.218390 0.446761
Si Si3 0.497014 0.979947 0.089218
Si Si4 0.228862 0.552317 0.049850
Si Si5 0.744042 0.718721 0.800464
Si Si6 0.741791 0.614337 0.800179
O O1 0.104690 0.167343 0.092300
O O2 0.040710 0.074525 0.098196
O O3 0.207692 0.120065 0.974240
O O4 0.642764 0.225887 0.511302
O O5 0.797800 0.253201 0.378644
O O6 0.750000 0.000000 0.132696
O O7 0.250000 0.000000 0.134615
O O8 0.500000 0.000000 0.000000
O O9 0.250000 0.500000 0.078568
O O10 0.279849 0.584694 0.122781
O O11 0.444949 0.562814 0.984234
O O12 0.500000 0.738033 0.750000
O O13 0.685800 0.666575 0.825588
O O14 0.000000 0.722137 0.750000
O O15 0.500000 0.595228 0.750000
O O16 0.000000 0.609973 0.750000
#
# Coordination Sequence:
#
# PCOD8222274 Si02
#       6
#     8   8   8   8   8   8
#     4  10  16  25  37  60  92 124 152 194 241 298
#     4  10  21  33  51  76 104 133 167 217 266 307
#     4  10  14  20  34  53  82 125 154 176 236 302
#     4  10  21  36  54  80 113 145 174 213 266 323
#     4  10  21  38  56  75 104 139 179 219 264 321
#     4  10  21  36  56  80 103 136 181 226 262 306
#
# _framework density 18.743701000000001
#
# number of rings (size 3 to 8) (size 9 to 14) (size 15 to 20)
#    0.000    2.000    3.333    2.000    0.000    2.000 
#    0.000    0.000    0.000    0.000    0.000    0.000 
#    0.000    2.667    0.000    0.000    0.000    0.000 
#
# Total GULP energy -594689.972281 kJ/mol
# GULP energy per Si atom -12389.374423 kJ/mol
# Density = 1.870104 g / cm^3
# Si number density = 18.743701 Si / 1000 Ang^3
#
#
#
# Elastic Constant Matrix: (Units=GPa)
#
#
# Indices 1 2 3 4 5 6 
#
# 1 122.4449 26.7437 14.2695 0.0000 0.0000 0.0000
# 2 26.7437 112.0906 57.4550 0.0000 0.0000 0.0000
# 3 14.2695 57.4550 58.1746 0.0000 0.0000 0.0000
# 4 0.0000 0.0000 0.0000 -23.1172 0.0000 0.0000
# 5 0.0000 0.0000 0.0000 0.0000 16.0073 0.0000
# 6 0.0000 0.0000 0.0000 0.0000 0.0000 38.5734
#
#
#
# Elastic Compliance Matrix: (Units=1/GPa)
#
#
# Indices 1 2 3 4 5 6 
#
# 1 0.008617 -0.001970 -0.000168 0.000000 0.000000 0.000000
# 2 -0.001970 0.018518 -0.017806 0.000000 0.000000 0.000000
# 3 -0.000168 -0.017806 0.034817 0.000000 0.000000 0.000000
# 4 0.000000 0.000000 0.000000 -0.043258 0.000000 0.000000
# 5 0.000000 0.000000 0.000000 0.000000 0.062471 0.000000
# 6 0.000000 0.000000 0.000000 0.000000 0.000000 0.025925
#
#
# Mechanical properties :
#
#
# Convention : Reuss Voigt Hill
#
# Bulk Modulus (GPa) = 45.32325 54.40515 49.86420
# Shear Modulus (GPa) = 32.39755 19.24217 25.81986
#
# Velocity S-wave (km/s) = 4.16197 3.20753 3.71552
# Velocity P-wave (km/s) = 6.87961 6.54267 6.71325
#
# Compressibility (1/GPa) = 0.02206373
#
# Stress axis : x y z
#
# Youngs Moduli (GPa) = 116.05312 54.00072 28.72174
#
# Poissons Ratio (x) = 0.10636 0.00484
# Poissons Ratio (y) = 0.22857 0.51142
# Poissons Ratio (z) = 0.01954 0.96154
#
# Static dielectric constant tensor:
#      x y z
#    x 5.810540 0.000000 0.000000 
#    y 0.000000 3.868260 0.000000 
#    z 0.000000 0.000000 2.767920 
# 
# 
# High freq. dielectric constant tensor:
#      x y z
#    x 1.763510 0.000000 0.000000 
#    y 0.000000 1.739250 0.000000 
#    z 0.000000 0.000000 1.665540 
# 
# From -- ./inp_files/10919.got.cif
#   From: 2010.03.12/outbox.cif.g09.slc.cpg/sg54_6_cif.got.tgz:10919.got - 2010.04.16 15:00:50.
