data_PCOD8222754
_publ_section_title
;
Structure prediction by ZEFSAII (Michael W. Deem and Ramdas Pophale) SiO2 
 PCOD8222754
Probable space group: P C C A
;
_chemical_formula_sum "Si O2"
_cell_formula_units_Z 60
_cell_length_a 27.254271
_cell_length_b 11.419943
_cell_length_c 8.715557
_cell_angle_alpha 90.000000
_cell_angle_beta 90.000000
_cell_angle_gamma 90.000000
_cell_volume 2712.649321
_symmetry_space_group_name_H-M "P C C A"
_symmetry_group_IT_number 54
_symmetry_cell_setting 'orthorhombic'
loop_
_space_group_symop_operation_xyz
x,y,z
1/2-x,-y,z
1/2+x,-y,1/2-z
-x,y,1/2-z
-x,-y,-z
1/2+x,y,-z
1/2-x,y,1/2+z
x,-y,1/2+z
loop_
_atom_site_type_symbol
_atom_site_label
_atom_site_fract_x
_atom_site_fract_y
_atom_site_fract_z
Si Si1 0.441457 0.585618 0.735289
Si Si2 0.914702 0.647716 0.610804
Si Si3 0.750000 0.000000 0.254238
Si Si4 0.278062 0.830987 0.995616
Si Si5 0.947339 0.882160 0.706545
Si Si6 0.108908 0.988957 0.518526
Si Si7 0.331657 0.785531 0.525986
Si Si8 0.868437 0.760434 0.144898
O O1 0.500000 0.582508 0.750000
O O2 0.415671 0.463046 0.777130
O O3 0.432374 0.615046 0.558781
O O4 0.416572 0.677063 0.857241
O O5 0.949896 0.741728 0.693802
O O6 0.860962 0.709516 0.600827
O O7 0.784493 0.086322 0.355445
O O8 0.715740 0.083661 0.152302
O O9 0.225889 0.766375 0.992805
O O10 0.324167 0.739877 0.981864
O O11 0.905007 0.925306 0.823395
O O12 0.000000 0.932684 0.750000
O O13 0.935538 0.927992 0.535433
O O14 0.114267 0.892749 0.384037
O O15 0.156523 0.074709 0.526611
O O16 0.344439 0.734837 0.691275
#
# Coordination Sequence:
#
# PCOD8222754 Si02
#       8
#     8   8   4   8   8   8   8   8
#     4  11  25  47  72  95 131 173 235 288 337 396
#     4  10  25  44  70  97 127 170 229 281 333 402
#     4  10  20  32  60  92 128 184 214 254 322 394
#     4  11  21  36  60  91 133 170 223 266 327 397
#     4  11  24  40  64  95 135 177 224 273 344 402
#     4  11  22  39  61  92 137 175 217 272 332 407
#     4  10  22  43  60  97 134 169 216 275 323 410
#     4  11  24  39  63  98 130 178 223 272 338 395
#
# _framework density 22.118599
#
# number of rings (size 3 to 8) (size 9 to 14) (size 15 to 20)
#    0.000    1.333    2.667    2.800    3.733    2.667 
#    0.000    0.667    0.000    3.200    0.000    0.000 
#    0.000    0.000    0.000    0.000    0.000    0.000 
#
# Total GULP energy -743357.399014 kJ/mol
# GULP energy per Si atom -12389.289984 kJ/mol
# Density = 2.206826 g / cm^3
# Si number density = 22.118599 Si / 1000 Ang^3
#
#
#
# Elastic Constant Matrix: (Units=GPa)
#
#
# Indices 1 2 3 4 5 6 
#
# 1 114.3537 37.4629 6.9280 0.0000 0.0000 0.0000
# 2 37.4629 105.4993 20.8512 0.0000 0.0000 0.0000
# 3 6.9280 20.8512 67.5179 0.0000 0.0000 0.0000
# 4 0.0000 0.0000 0.0000 38.5981 0.0000 0.0000
# 5 0.0000 0.0000 0.0000 0.0000 28.6329 0.0000
# 6 0.0000 0.0000 0.0000 0.0000 0.0000 29.1756
#
#
#
# Elastic Compliance Matrix: (Units=1/GPa)
#
#
# Indices 1 2 3 4 5 6 
#
# 1 0.009896 -0.003529 0.000074 0.000000 0.000000 0.000000
# 2 -0.003529 0.011353 -0.003144 0.000000 0.000000 0.000000
# 3 0.000074 -0.003144 0.015774 0.000000 0.000000 0.000000
# 4 0.000000 0.000000 0.000000 0.025908 0.000000 0.000000
# 5 0.000000 0.000000 0.000000 0.000000 0.034925 0.000000
# 6 0.000000 0.000000 0.000000 0.000000 0.000000 0.034275
#
#
# Mechanical properties :
#
#
# Convention : Reuss Voigt Hill
#
# Bulk Modulus (GPa) = 41.96988 46.42834 44.19911
# Shear Modulus (GPa) = 32.62185 34.08990 33.35587
#
# Velocity S-wave (km/s) = 3.84456 3.93011 3.88757
# Velocity P-wave (km/s) = 6.22283 6.45218 6.33854
#
# Compressibility (1/GPa) = 0.02382661
#
# Stress axis : x y z
#
# Youngs Moduli (GPa) = 101.04707 88.08044 63.39454
#
# Poissons Ratio (x) = 0.31083 -0.00471
# Poissons Ratio (y) = 0.35659 0.19932
# Poissons Ratio (z) = -0.00751 0.27693
#
# Static dielectric constant tensor:
#      x y z
#    x 4.038380 0.000000 0.000000 
#    y 0.000000 3.932550 0.000000 
#    z 0.000000 0.000000 4.096130 
# 
# 
# High freq. dielectric constant tensor:
#      x y z
#    x 1.875240 0.000000 0.000000 
#    y 0.000000 1.840890 0.000000 
#    z 0.000000 0.000000 1.878070 
# 
# From -- ./inp_files/5581.got.cif
#   From: 2010.03.12/outbox.cif.g09.slc.cpg/sg54_3_cif.got.tgz:5581.got - 2010.04.16 15:00:50.
