data_PCOD8222468
_publ_section_title
;
Structure prediction by ZEFSAII (Michael W. Deem and Ramdas Pophale) SiO2 
 PCOD8222468
Probable space group: P C C A
;
_chemical_formula_sum "Si O2"
_cell_formula_units_Z 40
_cell_length_a 15.347598
_cell_length_b 22.621716
_cell_length_c 5.284664
_cell_angle_alpha 90.000000
_cell_angle_beta 90.000000
_cell_angle_gamma 90.000000
_cell_volume 1834.777227
_symmetry_space_group_name_H-M "P C C A"
_symmetry_group_IT_number 54
_symmetry_cell_setting 'orthorhombic'
loop_
_space_group_symop_operation_xyz
x,y,z
1/2-x,-y,z
1/2+x,-y,1/2-z
-x,y,1/2-z
-x,-y,-z
1/2+x,y,-z
1/2-x,y,1/2+z
x,-y,1/2+z
loop_
_atom_site_type_symbol
_atom_site_label
_atom_site_fract_x
_atom_site_fract_y
_atom_site_fract_z
Si Si1 0.397238 0.468521 0.750610
Si Si2 0.151038 0.784001 0.782205
Si Si3 0.101841 0.963974 0.248050
Si Si4 0.346227 0.166058 0.282139
Si Si5 0.194499 0.347886 0.287182
O O1 0.500000 0.475828 0.750000
O O2 0.357439 0.499077 0.498521
O O3 0.374870 0.399676 0.752394
O O4 0.104184 0.813685 0.538977
O O5 0.250420 0.806138 0.803750
O O6 0.143623 0.713656 0.760077
O O7 0.103852 0.806756 0.038300
O O8 0.158064 0.904495 0.263141
O O9 0.000000 0.947616 0.250000
O O10 0.127515 0.003531 0.488806
O O11 0.233895 0.352328 0.567581
#
# Coordination Sequence:
#
# PCOD8222468 Si02
#       5
#     8   8   8   8   8
#     4  10  23  42  60  85 123 160 196 243 295 348
#     4  10  19  35  54  79 111 142 177 227 284 325
#     4  10  21  37  55  78 109 144 185 231 275 332
#     4  10  18  35  56  76 107 148 172 224 281 330
#     4  12  21  37  63  88 121 155 195 249 293 343
#
# _framework density 21.801013000000001
#
# number of rings (size 3 to 8) (size 9 to 14) (size 15 to 20)
#    0.000    1.600    4.000    2.400    0.000    2.400 
#    0.000   14.000    0.000    0.000    0.000    0.000 
#    0.000    0.000    0.000    0.000    0.000    0.000 
#
# Total GULP energy -495928.692597 kJ/mol
# GULP energy per Si atom -12398.217315 kJ/mol
# Density = 2.175139 g / cm^3
# Si number density = 21.801013 Si / 1000 Ang^3
#
#
#
# Elastic Constant Matrix: (Units=GPa)
#
#
# Indices 1 2 3 4 5 6 
#
# 1 6.4329 6.9609 0.4045 0.0000 0.0000 0.0000
# 2 6.9609 164.7304 42.7529 0.0000 0.0000 0.0000
# 3 0.4045 42.7529 192.4670 0.0000 0.0000 0.0000
# 4 0.0000 0.0000 0.0000 44.1736 0.0000 0.0000
# 5 0.0000 0.0000 0.0000 0.0000 5.0020 0.0000
# 6 0.0000 0.0000 0.0000 0.0000 0.0000 17.3209
#
#
#
# Elastic Compliance Matrix: (Units=1/GPa)
#
#
# Indices 1 2 3 4 5 6 
#
# 1 0.163189 -0.007223 0.001262 0.000000 0.000000 0.000000
# 2 -0.007223 0.006762 -0.001487 0.000000 0.000000 0.000000
# 3 0.001262 -0.001487 0.005523 0.000000 0.000000 0.000000
# 4 0.000000 0.000000 0.000000 0.022638 0.000000 0.000000
# 5 0.000000 0.000000 0.000000 0.000000 0.199919 0.000000
# 6 0.000000 0.000000 0.000000 0.000000 0.000000 0.057734
#
#
# Mechanical properties :
#
#
# Convention : Reuss Voigt Hill
#
# Bulk Modulus (GPa) = 6.22755 51.54077 28.88416
# Shear Modulus (GPa) = 9.53858 34.20009 21.86933
#
# Velocity S-wave (km/s) = 2.09399 3.96503 3.17066
# Velocity P-wave (km/s) = 2.95112 6.68242 5.16545
#
# Compressibility (1/GPa) = 0.16057692
#
# Stress axis : x y z
#
# Youngs Moduli (GPa) = 6.12787 147.89357 181.05096
#
# Poissons Ratio (x) = 1.06826 -0.22840
# Poissons Ratio (y) = 0.04426 0.26918
# Poissons Ratio (z) = -0.00773 0.21989
#
# Static dielectric constant tensor:
#      x y z
#    x 3.253620 0.000000 0.000000 
#    y 0.000000 3.981240 0.000000 
#    z 0.000000 0.000000 6.172680 
# 
# 
# High freq. dielectric constant tensor:
#      x y z
#    x 1.800350 0.000000 0.000000 
#    y 0.000000 1.868710 0.000000 
#    z 0.000000 0.000000 1.897410 
# 
# From -- ./inp_files/922.got.cif
#   From: 2010.03.12/outbox.cif.g09.slc.cpg/sg54_1_cif.got.tgz:922.got - 2010.04.16 15:00:50.
