data_PCOD8222056
_publ_section_title
;
Structure prediction by ZEFSAII (Michael W. Deem and Ramdas Pophale) SiO2 
 PCOD8222056
Probable space group: P M N A
;
_chemical_formula_sum "Si O2"
_cell_formula_units_Z 56
_cell_length_a 14.301762
_cell_length_b 9.422729
_cell_length_c 21.418744
_cell_angle_alpha 90.000000
_cell_angle_beta 90.000000
_cell_angle_gamma 90.000000
_cell_volume 2886.424801
_symmetry_space_group_name_H-M "P M N A"
_symmetry_group_IT_number 53
_symmetry_cell_setting 'orthorhombic'
loop_
_space_group_symop_operation_xyz
x,y,z
1/2-x,-y,1/2+z
x,-y,-z
1/2-x,y,1/2-z
-x,-y,-z
1/2+x,y,1/2-z
-x,y,z
1/2+x,-y,1/2+z
loop_
_atom_site_type_symbol
_atom_site_label
_atom_site_fract_x
_atom_site_fract_y
_atom_site_fract_z
Si Si1 0.106668 0.534928 0.614844
Si Si2 0.396314 0.059769 0.250000
Si Si3 0.249994 0.304148 0.577499
Si Si4 0.249999 0.753935 0.934563
Si Si5 0.250000 0.017691 0.851310
Si Si6 0.140811 0.619777 0.750004
Si Si7 0.606669 0.534905 0.614838
O O1 0.157287 0.397918 0.586420
O O2 0.157238 0.676731 0.590840
O O3 0.111316 0.528558 0.689961
O O4 0.000000 0.535256 0.591548
O O5 0.500000 0.992266 0.249996
O O6 0.409333 0.229062 0.250014
O O7 0.343014 0.008621 0.311520
O O8 0.343016 0.008678 0.188470
O O9 0.249986 0.240298 0.508737
O O10 0.249983 0.179467 0.627441
O O11 0.342716 0.397886 0.586418
O O12 0.157238 0.676701 0.909175
O O13 0.249981 0.914615 0.910774
O O14 0.250000 0.652474 0.750000
O O15 0.111327 0.528543 0.810045
O O16 0.500000 0.535232 0.591544
#
# Coordination Sequence:
#
# PCOD8222056 Si02
#       7
#     8   8   8   8   8   8   8
#     4  11  22  39  65  92 119 154 200 252 302 351
#     4  11  21  38  64  91 116 150 197 250 301 352
#     4  11  26  40  57  86 131 162 196 241 297 357
#     4  11  22  41  63  87 116 166 208 243 284 347
#     4  11  23  41  62  89 122 156 199 244 296 360
#     4  12  18  37  66  94 117 148 198 255 305 351
#     4  11  22  39  65  92 119 154 200 252 302 351
#
# _framework density 19.401164000000001
#
# number of rings (size 3 to 8) (size 9 to 14) (size 15 to 20)
#    0.000    0.857    7.143    3.429    0.000    5.714 
#    0.000    0.000    0.000    5.143    0.000    0.000 
#    0.000    0.000    0.000    0.000    0.000    0.000 
#
# Total GULP energy -694681.919558 kJ/mol
# GULP energy per Si atom -12405.034278 kJ/mol
# Density = 1.935701 g / cm^3
# Si number density = 19.401164 Si / 1000 Ang^3
#
#
#
# Elastic Constant Matrix: (Units=GPa)
#
#
# Indices 1 2 3 4 5 6 
#
# 1 173.6013 24.6596 19.2557 0.0000 0.0000 0.0000
# 2 24.6596 63.1412 -5.0068 0.0000 0.0000 0.0000
# 3 19.2557 -5.0068 87.4316 0.0000 0.0000 0.0000
# 4 0.0000 0.0000 0.0000 24.4052 0.0000 0.0000
# 5 0.0000 0.0000 0.0000 0.0000 2.2120 0.0000
# 6 0.0000 0.0000 0.0000 0.0000 0.0000 6.6158
#
#
#
# Elastic Compliance Matrix: (Units=1/GPa)
#
#
# Indices 1 2 3 4 5 6 
#
# 1 0.006297 -0.002581 -0.001535 0.000000 0.000000 0.000000
# 2 -0.002581 0.016968 0.001540 0.000000 0.000000 0.000000
# 3 -0.001535 0.001540 0.011864 0.000000 0.000000 0.000000
# 4 0.000000 0.000000 0.000000 0.040975 0.000000 0.000000
# 5 0.000000 0.000000 0.000000 0.000000 0.452089 0.000000
# 6 0.000000 0.000000 0.000000 0.000000 0.000000 0.151153
#
#
# Mechanical properties :
#
#
# Convention : Reuss Voigt Hill
#
# Bulk Modulus (GPa) = 33.35857 44.66569 39.01213
# Shear Modulus (GPa) = 7.19954 25.66430 16.43192
#
# Velocity S-wave (km/s) = 1.92845 3.64101 2.91341
# Velocity P-wave (km/s) = 4.71063 6.38342 5.60973
#
# Compressibility (1/GPa) = 0.02997730
#
# Stress axis : x y z
#
# Youngs Moduli (GPa) = 158.80121 58.93565 84.29074
#
# Poissons Ratio (x) = 0.15212 0.12936
# Poissons Ratio (y) = 0.40987 -0.12982
# Poissons Ratio (z) = 0.24371 -0.09077
#
# Static dielectric constant tensor:
#      x y z
#    x 3.659220 0.000000 0.000000 
#    y 0.000000 3.317900 0.000000 
#    z 0.000000 0.000000 3.633530 
# 
# 
# High freq. dielectric constant tensor:
#      x y z
#    x 1.761350 0.000000 0.000000 
#    y 0.000000 1.738220 0.000000 
#    z 0.000000 0.000000 1.765160 
# 
# From -- ./inp_files/32444.got.cif
#   From: 2010.03.12/outbox.cif.g09.slc.cpg/sg53_17_cif.got.tgz:32444.got - 2010.04.16 14:36:59.
