data_PCOD8222695
_publ_section_title
;
Structure prediction by ZEFSAII (Michael W. Deem and Ramdas Pophale) SiO2 
 PCOD8222695
Probable space group: P C C A
;
_chemical_formula_sum "Si O2"
_cell_formula_units_Z 48
_cell_length_a 11.073719
_cell_length_b 8.861498
_cell_length_c 22.761011
_cell_angle_alpha 90.000000
_cell_angle_beta 90.000000
_cell_angle_gamma 90.000000
_cell_volume 2233.532064
_symmetry_space_group_name_H-M "P C C A"
_symmetry_group_IT_number 54
_symmetry_cell_setting 'orthorhombic'
loop_
_space_group_symop_operation_xyz
x,y,z
1/2-x,-y,z
1/2+x,-y,1/2-z
-x,y,1/2-z
-x,-y,-z
1/2+x,y,-z
1/2-x,y,1/2+z
x,-y,1/2+z
loop_
_atom_site_type_symbol
_atom_site_label
_atom_site_fract_x
_atom_site_fract_y
_atom_site_fract_z
Si Si1 0.502394 0.651424 0.679382
Si Si2 0.226119 0.177308 0.855049
Si Si3 0.937303 0.324096 0.188852
Si Si4 0.067879 0.108078 0.104085
Si Si5 0.675772 0.210226 0.402182
Si Si6 0.342140 0.863954 0.472239
O O1 0.500000 0.669416 0.750000
O O2 0.586067 0.783673 0.651966
O O3 0.550393 0.487700 0.658620
O O4 0.373781 0.669715 0.645856
O O5 0.295909 0.279186 0.806375
O O6 0.275270 0.226304 0.919681
O O7 0.250000 0.000000 0.846359
O O8 0.000000 0.341519 0.250000
O O9 0.993463 0.180744 0.156577
O O10 0.179209 0.222336 0.093513
O O11 0.975701 0.083595 0.049450
O O12 0.125748 0.949311 0.121589
O O13 0.633654 0.237607 0.469951
O O14 0.250000 0.000000 0.491510
#
# Coordination Sequence:
#
# PCOD8222695 Si02
#       6
#     8   8   8   8   8   8
#     4  11  25  42  63  91 127 174 213 258 328 387
#     4  10  22  40  67  95 120 160 215 268 316 378
#     4  10  23  43  64  85 128 171 209 264 322 390
#     4  10  22  37  61  98 124 163 215 264 318 366
#     4  11  22  36  64  96 128 162 212 269 308 383
#     4  10  19  37  65  94 126 168 204 265 322 375
#
# _framework density 21.490625999999999
#
# number of rings (size 3 to 8) (size 9 to 14) (size 15 to 20)
#    0.000    1.667    1.667    4.000    4.667    3.333 
#    0.000    3.333    7.333    0.000    0.000    0.000 
#    0.000    0.000    0.000    0.000    0.000    0.000 
#
# Total GULP energy -594685.190114 kJ/mol
# GULP energy per Si atom -12389.274794 kJ/mol
# Density = 2.144171 g / cm^3
# Si number density = 21.490626 Si / 1000 Ang^3
#
#
#
# Elastic Constant Matrix: (Units=GPa)
#
#
# Indices 1 2 3 4 5 6 
#
# 1 123.2225 23.2663 32.9850 0.0000 0.0000 0.0000
# 2 23.2663 71.4441 27.6555 0.0000 0.0000 0.0000
# 3 32.9850 27.6555 89.7349 0.0000 0.0000 0.0000
# 4 0.0000 0.0000 0.0000 17.5503 0.0000 0.0000
# 5 0.0000 0.0000 0.0000 0.0000 18.0640 0.0000
# 6 0.0000 0.0000 0.0000 0.0000 0.0000 29.5440
#
#
#
# Elastic Compliance Matrix: (Units=1/GPa)
#
#
# Indices 1 2 3 4 5 6 
#
# 1 0.009228 -0.001921 -0.002800 0.000000 0.000000 0.000000
# 2 -0.001921 0.016293 -0.004315 0.000000 0.000000 0.000000
# 3 -0.002800 -0.004315 0.013503 0.000000 0.000000 0.000000
# 4 0.000000 0.000000 0.000000 0.056979 0.000000 0.000000
# 5 0.000000 0.000000 0.000000 0.000000 0.055359 0.000000
# 6 0.000000 0.000000 0.000000 0.000000 0.000000 0.033848
#
#
# Mechanical properties :
#
#
# Convention : Reuss Voigt Hill
#
# Bulk Modulus (GPa) = 47.72994 50.24612 48.98803
# Shear Modulus (GPa) = 23.77948 26.39798 25.08873
#
# Velocity S-wave (km/s) = 3.33003 3.50858 3.42047
# Velocity P-wave (km/s) = 6.08632 6.31227 6.20033
#
# Compressibility (1/GPa) = 0.02095121
#
# Stress axis : x y z
#
# Youngs Moduli (GPa) = 108.37021 61.37608 74.05769
#
# Poissons Ratio (x) = 0.11792 0.20735
# Poissons Ratio (y) = 0.20821 0.31957
# Poissons Ratio (z) = 0.30341 0.26485
#
# Static dielectric constant tensor:
#      x y z
#    x 4.459500 0.000000 0.000000 
#    y 0.000000 3.834620 0.000000 
#    z 0.000000 0.000000 3.877490 
# 
# 
# High freq. dielectric constant tensor:
#      x y z
#    x 1.867250 0.000000 0.000000 
#    y 0.000000 1.813480 0.000000 
#    z 0.000000 0.000000 1.835030 
# 
# From -- ./inp_files/24082.got.cif
#   From: 2010.03.12/outbox.cif.g09.slc.cpg/sg54_13_cif.got.tgz:24082.got - 2010.04.16 15:00:50.
