data_PCOD8222517
_publ_section_title
;
Structure prediction by ZEFSAII (Michael W. Deem and Ramdas Pophale) SiO2 
 PCOD8222517
Probable space group: P C C A
;
_chemical_formula_sum "Si O2"
_cell_formula_units_Z 52
_cell_length_a 5.191896
_cell_length_b 19.060620
_cell_length_c 26.496224
_cell_angle_alpha 90.000000
_cell_angle_beta 90.000000
_cell_angle_gamma 90.000000
_cell_volume 2622.086378
_symmetry_space_group_name_H-M "P C C A"
_symmetry_group_IT_number 54
_symmetry_cell_setting 'orthorhombic'
loop_
_space_group_symop_operation_xyz
x,y,z
1/2-x,-y,z
1/2+x,-y,1/2-z
-x,y,1/2-z
-x,-y,-z
1/2+x,y,-z
1/2-x,y,1/2+z
x,-y,1/2+z
loop_
_atom_site_type_symbol
_atom_site_label
_atom_site_fract_x
_atom_site_fract_y
_atom_site_fract_z
Si Si1 0.451858 0.730431 0.134396
Si Si2 0.157233 0.649774 0.534563
Si Si3 0.543977 0.269667 0.193677
Si Si4 0.503822 0.077617 0.977960
Si Si5 0.454166 0.896941 0.136384
Si Si6 0.048542 0.897336 0.305779
Si Si7 0.250000 0.500000 0.033859
O O1 0.420966 0.704789 0.077294
O O2 0.701344 0.701278 0.164920
O O3 0.467034 0.813765 0.132066
O O4 0.201277 0.703652 0.163200
O O5 0.429175 0.659892 0.506219
O O6 0.200861 0.573623 0.563158
O O7 0.500000 0.300008 0.250000
O O8 0.558345 0.186216 0.196362
O O9 0.506280 0.070434 0.918259
O O10 0.252245 0.118346 0.999270
O O11 0.500000 0.000000 0.000000
O O12 0.680204 0.925760 0.172832
O O13 0.181691 0.923108 0.158069
O O14 0.000000 0.927902 0.250000
O O15 0.500000 0.500000 0.000000
#
# Coordination Sequence:
#
# PCOD8222517 Si02
#       7
#     8   8   8   8   8   8   4
#     4  10  19  29  46  73  99 127 159 194 245 289
#     4  10  19  31  46  67  97 129 160 200 241 287
#     4   9  17  30  46  67  99 131 159 193 235 292
#     4  10  21  36  52  71  92 127 168 197 229 276
#     4  10  19  31  49  74 101 125 158 199 235 289
#     4   9  17  30  49  74 101 127 153 190 245 295
#     4   8  16  30  46  62  86 124 166 198 232 276
#
# _framework density 19.831534000000001
#
# number of rings (size 3 to 8) (size 9 to 14) (size 15 to 20)
#    0.000    2.462    0.000    2.769    0.000    4.923 
#    0.000    0.000    0.000    0.000    0.000   45.231 
#    0.000    0.000    0.000    0.000    0.000    0.000 
#
# Total GULP energy -644179.413503 kJ/mol
# GULP energy per Si atom -12388.065644 kJ/mol
# Density = 1.978640 g / cm^3
# Si number density = 19.831534 Si / 1000 Ang^3
#
#
#
# Elastic Constant Matrix: (Units=GPa)
#
#
# Indices 1 2 3 4 5 6 
#
# 1 168.8085 0.2977 46.9828 0.0000 0.0000 0.0000
# 2 0.2977 7.9105 4.2694 0.0000 0.0000 0.0000
# 3 46.9828 4.2694 130.4035 0.0000 0.0000 0.0000
# 4 0.0000 0.0000 0.0000 7.3058 0.0000 0.0000
# 5 0.0000 0.0000 0.0000 0.0000 40.5068 0.0000
# 6 0.0000 0.0000 0.0000 0.0000 0.0000 8.0883
#
#
#
# Elastic Compliance Matrix: (Units=1/GPa)
#
#
# Indices 1 2 3 4 5 6 
#
# 1 0.006593 0.001052 -0.002410 0.000000 0.000000 0.000000
# 2 0.001052 0.128856 -0.004598 0.000000 0.000000 0.000000
# 3 -0.002410 -0.004598 0.008687 0.000000 0.000000 0.000000
# 4 0.000000 0.000000 0.000000 0.136877 0.000000 0.000000
# 5 0.000000 0.000000 0.000000 0.000000 0.024687 0.000000
# 6 0.000000 0.000000 0.000000 0.000000 0.000000 0.123635
#
#
# Mechanical properties :
#
#
# Convention : Reuss Voigt Hill
#
# Bulk Modulus (GPa) = 7.56282 45.58026 26.57154
# Shear Modulus (GPa) = 10.30245 28.21836 19.26041
#
# Velocity S-wave (km/s) = 2.28172 3.77623 3.11979
# Velocity P-wave (km/s) = 3.28078 6.48435 5.13860
#
# Compressibility (1/GPa) = 0.13222583
#
# Stress axis : x y z
#
# Youngs Moduli (GPa) = 151.68317 7.76058 115.11146
#
# Poissons Ratio (x) = -0.00817 0.27739
# Poissons Ratio (y) = -0.15964 0.52927
# Poissons Ratio (z) = 0.36551 0.03568
#
# Static dielectric constant tensor:
#      x y z
#    x 3.650490 0.000000 0.000000 
#    y 0.000000 3.473170 0.000000 
#    z 0.000000 0.000000 3.615900 
# 
# 
# High freq. dielectric constant tensor:
#      x y z
#    x 1.806470 0.000000 0.000000 
#    y 0.000000 1.723130 0.000000 
#    z 0.000000 0.000000 1.767850 
# 
# From -- ./inp_files/19823.got.cif
#   From: 2010.03.12/outbox.cif.g09.slc.cpg/sg54_10_cif.got.tgz:19823.got - 2010.04.16 15:00:50.
