data_PCOD8222856
_publ_section_title
;
Structure prediction by ZEFSAII (Michael W. Deem and Ramdas Pophale) SiO2 
 PCOD8222856
Probable space group: P C C A
;
_chemical_formula_sum "Si O2"
_cell_formula_units_Z 36
_cell_length_a 10.337984
_cell_length_b 8.635502
_cell_length_c 18.606418
_cell_angle_alpha 90.000000
_cell_angle_beta 90.000000
_cell_angle_gamma 90.000000
_cell_volume 1661.063435
_symmetry_space_group_name_H-M "P C C A"
_symmetry_group_IT_number 54
_symmetry_cell_setting 'orthorhombic'
loop_
_space_group_symop_operation_xyz
x,y,z
1/2-x,-y,z
1/2+x,-y,1/2-z
-x,y,1/2-z
-x,-y,-z
1/2+x,y,-z
1/2-x,y,1/2+z
x,-y,1/2+z
loop_
_atom_site_type_symbol
_atom_site_label
_atom_site_fract_x
_atom_site_fract_y
_atom_site_fract_z
Si Si1 0.874330 0.602483 0.163105
Si Si2 0.232336 0.176418 0.556576
Si Si3 0.242707 0.178806 0.722548
Si Si4 0.473923 0.323136 0.484836
Si Si5 0.000000 0.359490 0.250000
O O1 0.750000 0.500000 0.145176
O O2 0.855776 0.724986 0.227907
O O3 0.915895 0.701369 0.094471
O O4 0.981622 0.473778 0.182231
O O5 0.196550 0.196019 0.640415
O O6 0.368180 0.261516 0.541206
O O7 0.112199 0.237242 0.508843
O O8 0.250000 0.000000 0.534512
O O9 0.383136 0.248959 0.731927
O O10 0.250000 0.000000 0.746507
O O11 0.500000 0.500000 0.500000
#
# Coordination Sequence:
#
# PCOD8222856 Si02
#       5
#     8   8   8   8   4
#     4  10  21  38  61  91 122 160 208 257 313 377
#     4  11  25  43  63  91 128 166 208 262 324 382
#     4  10  23  40  62  92 124 163 210 261 316 379
#     4  12  24  41  66  94 126 168 214 262 316 385
#     4  10  20  36  60  86 122 160 202 256 310 368
#
# _framework density 21.672863
#
# number of rings (size 3 to 8) (size 9 to 14) (size 15 to 20)
#    0.000    1.333    0.000    5.333    0.000   10.667 
#    0.000    0.000    0.000    0.000    0.000    0.000 
#    0.000    0.000    0.000    0.000    0.000    0.000 
#
# Total GULP energy -446449.512607 kJ/mol
# GULP energy per Si atom -12401.375350 kJ/mol
# Density = 2.162354 g / cm^3
# Si number density = 21.672863 Si / 1000 Ang^3
#
#
#
# Elastic Constant Matrix: (Units=GPa)
#
#
# Indices 1 2 3 4 5 6 
#
# 1 105.3679 67.6916 32.9617 0.0000 0.0000 0.0000
# 2 67.6916 162.3651 40.9881 0.0000 0.0000 0.0000
# 3 32.9617 40.9881 73.6617 0.0000 0.0000 0.0000
# 4 0.0000 0.0000 0.0000 34.5152 0.0000 0.0000
# 5 0.0000 0.0000 0.0000 0.0000 27.9513 0.0000
# 6 0.0000 0.0000 0.0000 0.0000 0.0000 36.6742
#
#
#
# Elastic Compliance Matrix: (Units=1/GPa)
#
#
# Indices 1 2 3 4 5 6 
#
# 1 0.013667 -0.004833 -0.003427 0.000000 0.000000 0.000000
# 2 -0.004833 0.008875 -0.002775 0.000000 0.000000 0.000000
# 3 -0.003427 -0.002775 0.016653 0.000000 0.000000 0.000000
# 4 0.000000 0.000000 0.000000 0.028973 0.000000 0.000000
# 5 0.000000 0.000000 0.000000 0.000000 0.035776 0.000000
# 6 0.000000 0.000000 0.000000 0.000000 0.000000 0.027267
#
#
# Mechanical properties :
#
#
# Convention : Reuss Voigt Hill
#
# Bulk Modulus (GPa) = 58.39385 69.40862 63.90124
# Shear Modulus (GPa) = 31.44854 33.14503 32.29678
#
# Velocity S-wave (km/s) = 3.81341 3.91491 3.86449
# Velocity P-wave (km/s) = 6.81111 7.24779 7.03284
#
# Compressibility (1/GPa) = 0.01712509
#
# Stress axis : x y z
#
# Youngs Moduli (GPa) = 73.16706 112.68173 60.04842
#
# Poissons Ratio (x) = 0.54460 0.20576
# Poissons Ratio (y) = 0.35362 0.16666
# Poissons Ratio (z) = 0.25071 0.31274
#
# Static dielectric constant tensor:
#      x y z
#    x 4.290900 0.000000 0.000000 
#    y 0.000000 4.058940 0.000000 
#    z 0.000000 0.000000 3.949350 
# 
# 
# High freq. dielectric constant tensor:
#      x y z
#    x 1.864130 0.000000 0.000000 
#    y 0.000000 1.861290 0.000000 
#    z 0.000000 0.000000 1.847650 
# 
# From -- ./inp_files/20116.got.cif
#   From: 2010.03.12/outbox.cif.g09.slc.cpg/sg54_11_cif.got.tgz:20116.got - 2010.04.16 15:00:50.
