data_PCOD8222381
_publ_section_title
;
Structure prediction by ZEFSAII (Michael W. Deem and Ramdas Pophale) SiO2 
 PCOD8222381
Probable space group: P C C A
;
_chemical_formula_sum "Si O2"
_cell_formula_units_Z 64
_cell_length_a 30.738698
_cell_length_b 11.273330
_cell_length_c 8.917478
_cell_angle_alpha 90.000000
_cell_angle_beta 90.000000
_cell_angle_gamma 90.000000
_cell_volume 3090.151236
_symmetry_space_group_name_H-M "P C C A"
_symmetry_group_IT_number 54
_symmetry_cell_setting 'orthorhombic'
loop_
_space_group_symop_operation_xyz
x,y,z
1/2-x,-y,z
1/2+x,-y,1/2-z
-x,y,1/2-z
-x,-y,-z
1/2+x,y,-z
1/2-x,y,1/2+z
x,-y,1/2+z
loop_
_atom_site_type_symbol
_atom_site_label
_atom_site_fract_x
_atom_site_fract_y
_atom_site_fract_z
Si Si1 0.000061 0.671274 0.086153
Si Si2 0.589496 0.997144 0.169483
Si Si3 0.444475 0.160389 0.578442
Si Si4 0.071262 0.532330 0.936781
Si Si5 0.691175 0.797909 0.345728
Si Si6 0.650068 0.952699 0.912979
Si Si7 0.266559 0.131028 0.959374
Si Si8 0.884063 0.366960 0.356967
O O1 0.000000 0.733875 0.250000
O O2 0.965551 0.563807 0.104193
O O3 0.048179 0.627858 0.044468
O O4 0.988321 0.764592 0.953128
O O5 0.557946 0.907836 0.262320
O O6 0.616569 0.084790 0.281501
O O7 0.626256 0.928825 0.071924
O O8 0.558743 0.069448 0.059349
O O9 0.405464 0.252671 0.567526
O O10 0.090718 0.598883 0.794197
O O11 0.111835 0.475555 0.026653
O O12 0.727872 0.789362 0.474585
O O13 0.715650 0.810460 0.189281
O O14 0.665974 0.671948 0.335215
O O15 0.658847 0.907034 0.383673
O O16 0.694975 0.879507 0.914727
O O17 0.250000 0.000000 0.918336
#
# Coordination Sequence:
#
# PCOD8222381 Si02
#       8
#     8   8   8   8   8   8   8   8
#     4  10  20  42  65  99 117 160 208 285 326 378
#     4  10  18  36  55  92 127 181 196 258 293 390
#     4  10  22  36  64  86 138 164 216 245 321 381
#     4  10  22  39  73  90 120 147 218 283 343 363
#     4  11  21  34  57  90 125 159 208 260 309 370
#     4  10  17  32  57  84 130 169 213 247 293 356
#     4  10  20  32  54  90 126 168 208 249 295 366
#     4  11  21  42  64  99 115 164 209 279 318 387
#
# _framework density 20.71096
#
# number of rings (size 3 to 8) (size 9 to 14) (size 15 to 20)
#    0.000    1.750    5.000    1.125    1.750    0.000 
#    6.750    1.875    0.000    2.250    0.000    0.000 
#    0.000    0.000    0.000    0.000    0.000    0.000 
#
# Total GULP energy -793159.408098 kJ/mol
# GULP energy per Si atom -12393.115752 kJ/mol
# Density = 2.066382 g / cm^3
# Si number density = 20.710960 Si / 1000 Ang^3
#
#
#
# Elastic Constant Matrix: (Units=GPa)
#
#
# Indices 1 2 3 4 5 6 
#
# 1 79.9133 45.2946 32.2144 0.0000 0.0000 0.0000
# 2 45.2946 66.8384 32.4964 0.0000 0.0000 0.0000
# 3 32.2144 32.4964 104.4642 0.0000 0.0000 0.0000
# 4 0.0000 0.0000 0.0000 28.4484 0.0000 0.0000
# 5 0.0000 0.0000 0.0000 0.0000 30.1290 0.0000
# 6 0.0000 0.0000 0.0000 0.0000 0.0000 29.8130
#
#
#
# Elastic Compliance Matrix: (Units=1/GPa)
#
#
# Indices 1 2 3 4 5 6 
#
# 1 0.020813 -0.012941 -0.002393 0.000000 0.000000 0.000000
# 2 -0.012941 0.025674 -0.003996 0.000000 0.000000 0.000000
# 3 -0.002393 -0.003996 0.011553 0.000000 0.000000 0.000000
# 4 0.000000 0.000000 0.000000 0.035151 0.000000 0.000000
# 5 0.000000 0.000000 0.000000 0.000000 0.033191 0.000000
# 6 0.000000 0.000000 0.000000 0.000000 0.000000 0.033542
#
#
# Mechanical properties :
#
#
# Convention : Reuss Voigt Hill
#
# Bulk Modulus (GPa) = 51.59579 52.35852 51.97716
# Shear Modulus (GPa) = 24.38491 27.09211 25.73851
#
# Velocity S-wave (km/s) = 3.43504 3.62070 3.52909
# Velocity P-wave (km/s) = 6.37958 6.54330 6.46196
#
# Compressibility (1/GPa) = 0.01938143
#
# Stress axis : x y z
#
# Youngs Moduli (GPa) = 48.04671 38.94975 86.55390
#
# Poissons Ratio (x) = 0.50406 0.20709
# Poissons Ratio (y) = 0.62178 0.34586
# Poissons Ratio (z) = 0.11496 0.15564
#
# Static dielectric constant tensor:
#      x y z
#    x 3.848970 0.000000 0.000000 
#    y 0.000000 3.474340 0.000000 
#    z 0.000000 0.000000 3.850280 
# 
# 
# High freq. dielectric constant tensor:
#      x y z
#    x 1.803830 0.000000 0.000000 
#    y 0.000000 1.764110 0.000000 
#    z 0.000000 0.000000 1.825270 
# 
# From -- ./inp_files/5965.got.cif
#   From: 2010.03.12/outbox.cif.g09.slc.cpg/sg54_3_cif.got.tgz:5965.got - 2010.04.16 15:00:50.
