data_PCOD8222582
_publ_section_title
;
Structure prediction by ZEFSAII (Michael W. Deem and Ramdas Pophale) SiO2 
 PCOD8222582
Probable space group: P C C A
;
_chemical_formula_sum "Si O2"
_cell_formula_units_Z 64
_cell_length_a 14.371197
_cell_length_b 9.220862
_cell_length_c 24.836100
_cell_angle_alpha 90.000000
_cell_angle_beta 90.000000
_cell_angle_gamma 90.000000
_cell_volume 3291.151428
_symmetry_space_group_name_H-M "P C C A"
_symmetry_group_IT_number 54
_symmetry_cell_setting 'orthorhombic'
loop_
_space_group_symop_operation_xyz
x,y,z
1/2-x,-y,z
1/2+x,-y,1/2-z
-x,y,1/2-z
-x,-y,-z
1/2+x,y,-z
1/2-x,y,1/2+z
x,-y,1/2+z
loop_
_atom_site_type_symbol
_atom_site_label
_atom_site_fract_x
_atom_site_fract_y
_atom_site_fract_z
Si Si1 0.773020 0.832453 0.539322
Si Si2 0.940510 0.663677 0.896304
Si Si3 0.952625 0.671125 0.403801
Si Si4 0.548847 0.168613 0.693334
Si Si5 0.751459 0.170786 0.659481
Si Si6 0.517223 0.168559 0.507727
Si Si7 0.247674 0.337802 0.062052
Si Si8 0.046095 0.167527 0.807644
O O1 0.747140 0.766363 0.598231
O O2 0.880549 0.800749 0.529661
O O3 0.718599 0.757504 0.490099
O O4 0.750000 0.000000 0.536721
O O5 0.975045 0.499535 0.905574
O O6 0.828494 0.669532 0.889761
O O7 0.991692 0.729209 0.845739
O O8 0.951213 0.763479 0.948195
O O9 0.006700 0.750030 0.452111
O O10 0.843880 0.709346 0.410404
O O11 0.986290 0.736749 0.347923
O O12 0.500000 0.193911 0.750000
O O13 0.657810 0.218261 0.692019
O O14 0.539855 0.001202 0.675334
O O15 0.845273 0.219438 0.691107
O O16 0.750000 0.000000 0.654229
O O17 0.500000 0.000000 0.500000
O O18 0.250000 0.500000 0.038848
O O19 0.000000 0.194171 0.750000
#
# Coordination Sequence:
#
# PCOD8222582 Si02
#       8
#     8   8   8   8   8   8   8   8
#     4  10  19  33  54  84 116 153 192 233 286 346
#     4  11  21  38  58  84 119 152 193 237 290 347
#     4  10  23  38  57  84 116 157 191 237 292 348
#     4  10  21  39  62  88 114 153 198 242 290 341
#     4   9  19  36  57  84 117 149 190 241 292 342
#     4  11  21  34  58  87 119 151 194 237 289 347
#     4   9  21  38  54  80 120 157 189 232 288 347
#     4  10  22  40  62  85 116 154 198 246 292 344
#
# _framework density 19.446081
#
# number of rings (size 3 to 8) (size 9 to 14) (size 15 to 20)
#    0.000    2.000    1.250    1.875    5.250    2.500 
#    0.000    1.875    0.000    0.000    0.000    0.000 
#    0.000    0.000    0.000    0.000    0.000    0.000 
#
# Total GULP energy -793316.071826 kJ/mol
# GULP energy per Si atom -12395.563622 kJ/mol
# Density = 1.940182 g / cm^3
# Si number density = 19.446081 Si / 1000 Ang^3
#
#
#
# Elastic Constant Matrix: (Units=GPa)
#
#
# Indices 1 2 3 4 5 6 
#
# 1 107.8357 36.8596 66.7020 0.0000 0.0000 0.0000
# 2 36.8596 102.7842 58.7873 0.0000 0.0000 0.0000
# 3 66.7020 58.7873 113.9233 0.0000 0.0000 0.0000
# 4 0.0000 0.0000 0.0000 59.1105 0.0000 0.0000
# 5 0.0000 0.0000 0.0000 0.0000 32.7194 0.0000
# 6 0.0000 0.0000 0.0000 0.0000 0.0000 24.5033
#
#
#
# Elastic Compliance Matrix: (Units=1/GPa)
#
#
# Indices 1 2 3 4 5 6 
#
# 1 0.014556 -0.000490 -0.008270 0.000000 0.000000 0.000000
# 2 -0.000490 0.013819 -0.006844 0.000000 0.000000 0.000000
# 3 -0.008270 -0.006844 0.017151 0.000000 0.000000 0.000000
# 4 0.000000 0.000000 0.000000 0.016917 0.000000 0.000000
# 5 0.000000 0.000000 0.000000 0.000000 0.030563 0.000000
# 6 0.000000 0.000000 0.000000 0.000000 0.000000 0.040811
#
#
# Mechanical properties :
#
#
# Convention : Reuss Voigt Hill
#
# Bulk Modulus (GPa) = 69.83720 72.13790 70.98755
# Shear Modulus (GPa) = 29.44657 34.07963 31.76310
#
# Velocity S-wave (km/s) = 3.89558 4.19085 4.04591
# Velocity P-wave (km/s) = 7.49835 7.78425 7.64264
#
# Compressibility (1/GPa) = 0.01431902
#
# Stress axis : x y z
#
# Youngs Moduli (GPa) = 68.69961 72.36200 58.30404
#
# Poissons Ratio (x) = 0.03547 0.48215
# Poissons Ratio (y) = 0.03367 0.39904
# Poissons Ratio (z) = 0.56812 0.49526
#
# Static dielectric constant tensor:
#      x y z
#    x 3.909330 0.000000 0.000000 
#    y 0.000000 3.438830 0.000000 
#    z 0.000000 0.000000 3.546450 
# 
# 
# High freq. dielectric constant tensor:
#      x y z
#    x 1.774450 0.000000 0.000000 
#    y 0.000000 1.744590 0.000000 
#    z 0.000000 0.000000 1.746430 
# 
# From -- ./inp_files/24484.got.cif
#   From: 2010.03.12/outbox.cif.g09.slc.cpg/sg54_13_cif.got.tgz:24484.got - 2010.04.16 15:00:50.
