data_PCOD8222935
_publ_section_title
;
Structure prediction by ZEFSAII (Michael W. Deem and Ramdas Pophale) SiO2 
 PCOD8222935
Probable space group: P C C A
;
_chemical_formula_sum "Si O2"
_cell_formula_units_Z 36
_cell_length_a 20.432328
_cell_length_b 9.964856
_cell_length_c 9.953146
_cell_angle_alpha 90.000000
_cell_angle_beta 90.000000
_cell_angle_gamma 90.000000
_cell_volume 2026.512344
_symmetry_space_group_name_H-M "P C C A"
_symmetry_group_IT_number 54
_symmetry_cell_setting 'orthorhombic'
loop_
_space_group_symop_operation_xyz
x,y,z
1/2-x,-y,z
1/2+x,-y,1/2-z
-x,y,1/2-z
-x,-y,-z
1/2+x,y,-z
1/2-x,y,1/2+z
x,-y,1/2+z
loop_
_atom_site_type_symbol
_atom_site_label
_atom_site_fract_x
_atom_site_fract_y
_atom_site_fract_z
Si Si1 0.036132 0.327356 0.382114
Si Si2 0.550642 0.628683 0.635594
Si Si3 0.378619 0.096696 0.994095
Si Si4 0.250000 0.000000 0.894147
Si Si5 0.627873 0.125783 0.202071
O O1 0.069408 0.472188 0.353428
O O2 0.094923 0.232337 0.427407
O O3 0.000000 0.271469 0.250000
O O4 0.979427 0.339138 0.491651
O O5 0.500000 0.670588 0.750000
O O6 0.614560 0.720063 0.661292
O O7 0.399459 0.090005 0.149832
O O8 0.299094 0.091736 0.983783
O O9 0.407850 0.970711 0.908658
O O10 0.206218 0.099857 0.802019
#
# Coordination Sequence:
#
# PCOD8222935 Si02
#       5
#     8   8   8   4   8
#     4  10  22  36  57  84 115 144 186 226 284 339
#     4  10  20  38  57  81 115 149 176 230 282 334
#     4  10  21  38  58  82 114 148 185 232 278 327
#     4   8  22  36  58  82 116 142 192 232 272 324
#     4  10  21  37  60  80 116 148 186 231 280 324
#
# _framework density 17.764512
#
# number of rings (size 3 to 8) (size 9 to 14) (size 15 to 20)
#    1.333    0.889    2.222    0.667    3.111    1.778 
#    0.000    1.111    0.000    2.667    0.000    0.000 
#    0.000    0.000    0.000    0.000    0.000    0.000 
#
# Total GULP energy -446060.198037 kJ/mol
# GULP energy per Si atom -12390.561057 kJ/mol
# Density = 1.772408 g / cm^3
# Si number density = 17.764512 Si / 1000 Ang^3
#
#
#
# Elastic Constant Matrix: (Units=GPa)
#
#
# Indices 1 2 3 4 5 6 
#
# 1 65.1866 49.8735 18.2871 0.0000 0.0000 0.0000
# 2 49.8735 107.4572 38.0339 0.0000 0.0000 0.0000
# 3 18.2871 38.0339 127.8399 0.0000 0.0000 0.0000
# 4 0.0000 0.0000 0.0000 19.7626 0.0000 0.0000
# 5 0.0000 0.0000 0.0000 0.0000 19.3564 0.0000
# 6 0.0000 0.0000 0.0000 0.0000 0.0000 31.6578
#
#
#
# Elastic Compliance Matrix: (Units=1/GPa)
#
#
# Indices 1 2 3 4 5 6 
#
# 1 0.023789 -0.010994 -0.000132 0.000000 0.000000 0.000000
# 2 -0.010994 0.015483 -0.003034 0.000000 0.000000 0.000000
# 3 -0.000132 -0.003034 0.008744 0.000000 0.000000 0.000000
# 4 0.000000 0.000000 0.000000 0.050601 0.000000 0.000000
# 5 0.000000 0.000000 0.000000 0.000000 0.051663 0.000000
# 6 0.000000 0.000000 0.000000 0.000000 0.000000 0.031588
#
#
# Mechanical properties :
#
#
# Convention : Reuss Voigt Hill
#
# Bulk Modulus (GPa) = 50.77287 56.98587 53.87937
# Shear Modulus (GPa) = 23.06785 27.10795 25.08790
#
# Velocity S-wave (km/s) = 3.60743 3.91059 3.76207
# Velocity P-wave (km/s) = 6.78193 7.24834 7.01901
#
# Compressibility (1/GPa) = 0.01969556
#
# Stress axis : x y z
#
# Youngs Moduli (GPa) = 42.03556 64.58890 114.36843
#
# Poissons Ratio (x) = 0.71012 0.01510
# Poissons Ratio (y) = 0.46216 0.34694
# Poissons Ratio (z) = 0.00555 0.19593
#
# Static dielectric constant tensor:
#      x y z
#    x 2.963050 0.000000 0.000000 
#    y 0.000000 3.271990 0.000000 
#    z 0.000000 0.000000 3.413510 
# 
# 
# High freq. dielectric constant tensor:
#      x y z
#    x 1.653170 0.000000 0.000000 
#    y 0.000000 1.681450 0.000000 
#    z 0.000000 0.000000 1.705040 
# 
# From -- ./inp_files/4623.got.cif
#   From: 2010.03.12/outbox.cif.g09.slc.cpg/sg54_3_cif.got.tgz:4623.got - 2010.04.16 15:00:50.
