data_PCOD8222574
_publ_section_title
;
Structure prediction by ZEFSAII (Michael W. Deem and Ramdas Pophale) SiO2 
 PCOD8222574
Probable space group: P C C A
;
_chemical_formula_sum "Si O2"
_cell_formula_units_Z 64
_cell_length_a 34.071680
_cell_length_b 18.478778
_cell_length_c 5.222056
_cell_angle_alpha 90.000000
_cell_angle_beta 90.000000
_cell_angle_gamma 90.000000
_cell_volume 3287.822180
_symmetry_space_group_name_H-M "P C C A"
_symmetry_group_IT_number 54
_symmetry_cell_setting 'orthorhombic'
loop_
_space_group_symop_operation_xyz
x,y,z
1/2-x,-y,z
1/2+x,-y,1/2-z
-x,y,1/2-z
-x,-y,-z
1/2+x,y,-z
1/2-x,y,1/2+z
x,-y,1/2+z
loop_
_atom_site_type_symbol
_atom_site_label
_atom_site_fract_x
_atom_site_fract_y
_atom_site_fract_z
Si Si1 0.405525 0.328655 0.371567
Si Si2 0.272722 0.846679 0.369819
Si Si3 0.046199 0.461056 0.764274
Si Si4 0.360890 0.156185 0.857497
Si Si5 0.272073 0.673864 0.358830
Si Si6 0.591284 0.840550 0.637928
Si Si7 0.955710 0.030411 0.525567
Si Si8 0.140933 0.673762 0.869676
O O1 0.443553 0.377266 0.316495
O O2 0.418533 0.244617 0.370586
O O3 0.387156 0.353480 0.641584
O O4 0.374688 0.347021 0.149000
O O5 0.249004 0.875817 0.615955
O O6 0.317268 0.877841 0.381670
O O7 0.273155 0.760270 0.365662
O O8 0.063639 0.489747 0.495177
O O9 0.000000 0.467428 0.750000
O O10 0.380133 0.132974 0.589105
O O11 0.355590 0.241182 0.847849
O O12 0.388416 0.135370 0.097200
O O13 0.251932 0.644543 0.616225
O O14 0.315727 0.640529 0.340093
O O15 0.550069 0.884540 0.598085
O O16 0.934694 0.014457 0.254692
O O17 0.000000 0.000000 0.500000
#
# Coordination Sequence:
#
# PCOD8222574 Si02
#       8
#     8   8   8   8   8   8   8   8
#     4  10  19  33  53  78 106 138 177 216 267 314
#     4   9  15  23  37  61  98 138 171 204 254 314
#     4  10  21  38  58  78 107 138 170 217 270 319
#     4   9  17  28  45  71 103 140 173 215 263 308
#     4   9  15  23  37  61  98 142 176 202 255 315
#     4  10  19  33  53  76 106 138 176 216 262 313
#     4  10  21  38  57  76 105 138 169 216 265 301
#     4   9  17  28  45  71 107 139 173 222 261 304
#
# _framework density 19.465774
#
# number of rings (size 3 to 8) (size 9 to 14) (size 15 to 20)
#    0.000    2.500    0.000    3.000    0.000    6.000 
#    2.250    0.000    5.500    0.000    0.000    0.000 
#    0.000   70.000    0.000    0.000    0.000    0.000 
#
# Total GULP energy -793054.679850 kJ/mol
# GULP energy per Si atom -12391.479373 kJ/mol
# Density = 1.942147 g / cm^3
# Si number density = 19.465774 Si / 1000 Ang^3
#
#
#
# Elastic Constant Matrix: (Units=GPa)
#
#
# Indices 1 2 3 4 5 6 
#
# 1 65.0276 39.2647 36.4891 0.0000 0.0000 0.0000
# 2 39.2647 61.8300 35.9957 0.0000 0.0000 0.0000
# 3 36.4891 35.9957 168.1758 0.0000 0.0000 0.0000
# 4 0.0000 0.0000 0.0000 18.8116 0.0000 0.0000
# 5 0.0000 0.0000 0.0000 0.0000 20.3881 0.0000
# 6 0.0000 0.0000 0.0000 0.0000 0.0000 7.8209
#
#
#
# Elastic Compliance Matrix: (Units=1/GPa)
#
#
# Indices 1 2 3 4 5 6 
#
# 1 0.025753 -0.014966 -0.002384 0.000000 0.000000 0.000000
# 2 -0.014966 0.027173 -0.002569 0.000000 0.000000 0.000000
# 3 -0.002384 -0.002569 0.007013 0.000000 0.000000 0.000000
# 4 0.000000 0.000000 0.000000 0.053159 0.000000 0.000000
# 5 0.000000 0.000000 0.000000 0.000000 0.049048 0.000000
# 6 0.000000 0.000000 0.000000 0.000000 0.000000 0.127862
#
#
# Mechanical properties :
#
#
# Convention : Reuss Voigt Hill
#
# Bulk Modulus (GPa) = 49.74952 57.61473 53.68212
# Shear Modulus (GPa) = 14.85681 21.62306 18.23993
#
# Velocity S-wave (km/s) = 2.76565 3.33652 3.06441
# Velocity P-wave (km/s) = 5.98426 6.67123 6.33706
#
# Compressibility (1/GPa) = 0.02010070
#
# Stress axis : x y z
#
# Youngs Moduli (GPa) = 38.83082 36.80130 142.58622
#
# Poissons Ratio (x) = 0.55077 0.33997
# Poissons Ratio (y) = 0.58114 0.36628
# Poissons Ratio (z) = 0.09258 0.09454
#
# Static dielectric constant tensor:
#      x y z
#    x 3.633430 0.000000 0.000000 
#    y 0.000000 3.159630 0.000000 
#    z 0.000000 0.000000 7.880540 
# 
# 
# High freq. dielectric constant tensor:
#      x y z
#    x 1.745690 0.000000 0.000000 
#    y 0.000000 1.699870 0.000000 
#    z 0.000000 0.000000 1.789270 
# 
# From -- ./inp_files/2244.got.cif
#   From: 2010.03.12/outbox.cif.g09.slc.cpg/sg54_2_cif.got.tgz:2244.got - 2010.04.16 15:00:50.
