data_PCOD8222643
_publ_section_title
;
Structure prediction by ZEFSAII (Michael W. Deem and Ramdas Pophale) SiO2 
 PCOD8222643
Probable space group: P C C A
;
_chemical_formula_sum "Si O2"
_cell_formula_units_Z 60
_cell_length_a 15.133483
_cell_length_b 12.306615
_cell_length_c 16.683467
_cell_angle_alpha 90.000000
_cell_angle_beta 90.000000
_cell_angle_gamma 90.000000
_cell_volume 3107.161408
_symmetry_space_group_name_H-M "P C C A"
_symmetry_group_IT_number 54
_symmetry_cell_setting 'orthorhombic'
loop_
_space_group_symop_operation_xyz
x,y,z
1/2-x,-y,z
1/2+x,-y,1/2-z
-x,y,1/2-z
-x,-y,-z
1/2+x,y,-z
1/2-x,y,1/2+z
x,-y,1/2+z
loop_
_atom_site_type_symbol
_atom_site_label
_atom_site_fract_x
_atom_site_fract_y
_atom_site_fract_z
Si Si1 0.005679 0.697568 0.657011
Si Si2 0.961115 0.058458 0.668630
Si Si3 0.919199 0.578355 0.981762
Si Si4 0.142024 0.199754 0.951310
Si Si5 0.750000 0.500000 0.566009
Si Si6 0.399522 0.088262 0.610296
Si Si7 0.682484 0.087207 0.732486
Si Si8 0.193168 0.717489 0.873188
O O1 0.910977 0.701864 0.610481
O O2 0.000000 0.661341 0.750000
O O3 0.069790 0.610957 0.611930
O O4 0.046297 0.815359 0.651184
O O5 0.910546 0.947602 0.693529
O O6 0.000000 0.112122 0.750000
O O7 0.039872 0.020493 0.608849
O O8 0.899252 0.148476 0.628559
O O9 0.915517 0.692062 0.031111
O O10 0.830688 0.513293 0.003717
O O11 0.000000 0.500000 0.000000
O O12 0.247691 0.221303 0.941350
O O13 0.134957 0.111851 0.021931
O O14 0.736271 0.401982 0.629027
O O15 0.317282 0.074729 0.671124
O O16 0.704862 0.211868 0.708155
O O17 0.750000 0.000000 0.696015
#
# Coordination Sequence:
#
# PCOD8222643 Si02
#       8
#     8   8   8   8   4   8   8   8
#     4  11  19  36  65  87 110 156 207 246 298 368
#     4  10  19  35  58  83 120 161 192 241 304 365
#     4  10  21  39  65  85 120 158 201 253 309 354
#     4  10  22  36  58  88 121 155 200 252 305 366
#     4  10  22  40  64  92 120 160 204 254 312 354
#     4  10  20  36  57  87 115 158 205 236 297 370
#     4  11  20  36  59  87 121 156 194 251 304 356
#     4  11  20  37  63  86 119 155 201 250 300 362
#
# _framework density 19.310230000000001
#
# number of rings (size 3 to 8) (size 9 to 14) (size 15 to 20)
#    0.000    1.600    5.333    0.800    0.000    0.000 
#    2.400    4.000    2.933    0.000    0.000    0.000 
#    0.000    0.000    0.000    0.000    0.000    0.000 
#
# Total GULP energy -743286.441652 kJ/mol
# GULP energy per Si atom -12388.107361 kJ/mol
# Density = 1.926628 g / cm^3
# Si number density = 19.310230 Si / 1000 Ang^3
#
#
#
# Elastic Constant Matrix: (Units=GPa)
#
#
# Indices 1 2 3 4 5 6 
#
# 1 103.0384 37.9073 44.2879 0.0000 0.0000 0.0000
# 2 37.9073 80.2672 38.4743 0.0000 0.0000 0.0000
# 3 44.2879 38.4743 101.3084 0.0000 0.0000 0.0000
# 4 0.0000 0.0000 0.0000 18.6931 0.0000 0.0000
# 5 0.0000 0.0000 0.0000 0.0000 27.7460 0.0000
# 6 0.0000 0.0000 0.0000 0.0000 0.0000 22.8019
#
#
#
# Elastic Compliance Matrix: (Units=1/GPa)
#
#
# Indices 1 2 3 4 5 6 
#
# 1 0.013003 -0.004176 -0.004098 0.000000 0.000000 0.000000
# 2 -0.004176 0.016572 -0.004468 0.000000 0.000000 0.000000
# 3 -0.004098 -0.004468 0.013359 0.000000 0.000000 0.000000
# 4 0.000000 0.000000 0.000000 0.053496 0.000000 0.000000
# 5 0.000000 0.000000 0.000000 0.000000 0.036041 0.000000
# 6 0.000000 0.000000 0.000000 0.000000 0.000000 0.043856
#
#
# Mechanical properties :
#
#
# Convention : Reuss Voigt Hill
#
# Bulk Modulus (GPa) = 57.30894 58.43922 57.87408
# Shear Modulus (GPa) = 24.08133 24.77785 24.42959
#
# Velocity S-wave (km/s) = 3.53523 3.58599 3.56070
# Velocity P-wave (km/s) = 6.81221 6.89020 6.85131
#
# Compressibility (1/GPa) = 0.01744928
#
# Stress axis : x y z
#
# Youngs Moduli (GPa) = 76.90440 60.34124 74.85424
#
# Poissons Ratio (x) = 0.25201 0.30678
# Poissons Ratio (y) = 0.32119 0.33445
# Poissons Ratio (z) = 0.31518 0.26960
#
# Static dielectric constant tensor:
#      x y z
#    x 3.765180 0.000000 0.000000 
#    y 0.000000 3.527620 0.000000 
#    z 0.000000 0.000000 3.448000 
# 
# 
# High freq. dielectric constant tensor:
#      x y z
#    x 1.758190 0.000000 0.000000 
#    y 0.000000 1.746940 0.000000 
#    z 0.000000 0.000000 1.731130 
# 
# From -- ./inp_files/13608.got.cif
#   From: 2010.03.12/outbox.cif.g09.slc.cpg/sg54_7_cif.got.tgz:13608.got - 2010.04.16 15:00:50.
