data_PCOD8222724
_publ_section_title
;
Structure prediction by ZEFSAII (Michael W. Deem and Ramdas Pophale) SiO2 
 PCOD8222724
Probable space group: P C C A
;
_chemical_formula_sum "Si O2"
_cell_formula_units_Z 40
_cell_length_a 9.997770
_cell_length_b 8.674220
_cell_length_c 22.646031
_cell_angle_alpha 90.000000
_cell_angle_beta 90.000000
_cell_angle_gamma 90.000000
_cell_volume 1963.928496
_symmetry_space_group_name_H-M "P C C A"
_symmetry_group_IT_number 54
_symmetry_cell_setting 'orthorhombic'
loop_
_space_group_symop_operation_xyz
x,y,z
1/2-x,-y,z
1/2+x,-y,1/2-z
-x,y,1/2-z
-x,-y,-z
1/2+x,y,-z
1/2-x,y,1/2+z
x,-y,1/2+z
loop_
_atom_site_type_symbol
_atom_site_label
_atom_site_fract_x
_atom_site_fract_y
_atom_site_fract_z
Si Si1 0.780973 0.177373 0.128981
Si Si2 0.748937 0.317946 0.367620
Si Si3 0.491953 0.696748 0.057207
Si Si4 0.975251 0.660099 0.079564
Si Si5 0.846001 0.642652 0.742433
O O1 0.888680 0.192397 0.076869
O O2 0.653227 0.279346 0.113312
O O3 0.843843 0.234857 0.190150
O O4 0.750000 0.000000 0.136737
O O5 0.750000 0.500000 0.374704
O O6 0.600342 0.264402 0.385439
O O7 0.790294 0.272139 0.301158
O O8 0.853934 0.245279 0.413630
O O9 0.526647 0.525098 0.080146
O O10 0.477042 0.715019 0.987665
O O11 0.750000 0.500000 0.726996
O O12 0.000000 0.585270 0.750000
#
# Coordination Sequence:
#
# PCOD8222724 Si02
#       5
#     8   8   8   8   8
#     4  12  26  41  59  91 135 172 202 247 316 387
#     4   9  19  35  61  93 117 148 204 267 317 353
#     4  10  19  40  67  93 123 155 211 264 310 361
#     4  10  21  38  67  96 118 159 210 266 308 363
#     4  11  23  42  68  91 118 162 213 270 311 364
#
# _framework density 20.367341
#
# number of rings (size 3 to 8) (size 9 to 14) (size 15 to 20)
#    0.000    1.600    2.000    3.000    5.600    4.000 
#    3.600    1.000    0.000    0.000    0.000    0.000 
#    0.000    0.000    0.000    0.000    0.000    0.000 
#
# Total GULP energy -496059.812913 kJ/mol
# GULP energy per Si atom -12401.495323 kJ/mol
# Density = 2.032098 g / cm^3
# Si number density = 20.367341 Si / 1000 Ang^3
#
#
#
# Elastic Constant Matrix: (Units=GPa)
#
#
# Indices 1 2 3 4 5 6 
#
# 1 145.2123 19.3753 39.7010 0.0000 0.0000 0.0000
# 2 19.3753 52.3575 21.3526 0.0000 0.0000 0.0000
# 3 39.7010 21.3526 97.3256 0.0000 0.0000 0.0000
# 4 0.0000 0.0000 0.0000 3.9097 0.0000 0.0000
# 5 0.0000 0.0000 0.0000 0.0000 39.5797 0.0000
# 6 0.0000 0.0000 0.0000 0.0000 0.0000 14.5558
#
#
#
# Elastic Compliance Matrix: (Units=1/GPa)
#
#
# Indices 1 2 3 4 5 6 
#
# 1 0.007897 -0.001767 -0.002834 0.000000 0.000000 0.000000
# 2 -0.001767 0.021371 -0.003968 0.000000 0.000000 0.000000
# 3 -0.002834 -0.003968 0.012301 0.000000 0.000000 0.000000
# 4 0.000000 0.000000 0.000000 0.255775 0.000000 0.000000
# 5 0.000000 0.000000 0.000000 0.000000 0.025265 0.000000
# 6 0.000000 0.000000 0.000000 0.000000 0.000000 0.068701
#
#
# Mechanical properties :
#
#
# Convention : Reuss Voigt Hill
#
# Bulk Modulus (GPa) = 40.92868 50.63925 45.78396
# Shear Modulus (GPa) = 12.00213 25.90679 18.95446
#
# Velocity S-wave (km/s) = 2.43015 3.57035 3.05393
# Velocity P-wave (km/s) = 5.29273 6.47406 5.91297
#
# Compressibility (1/GPa) = 0.02443275
#
# Stress axis : x y z
#
# Youngs Moduli (GPa) = 126.63149 46.79129 81.29229
#
# Poissons Ratio (x) = 0.08266 0.23036
# Poissons Ratio (y) = 0.22372 0.32258
# Poissons Ratio (z) = 0.35884 0.18567
#
# Static dielectric constant tensor:
#      x y z
#    x 4.041370 0.000000 0.000000 
#    y 0.000000 3.184480 0.000000 
#    z 0.000000 0.000000 3.887280 
# 
# 
# High freq. dielectric constant tensor:
#      x y z
#    x 1.818800 0.000000 0.000000 
#    y 0.000000 1.741950 0.000000 
#    z 0.000000 0.000000 1.814480 
# 
# From -- ./inp_files/23270.got.cif
#   From: 2010.03.12/outbox.cif.g09.slc.cpg/sg54_12_cif.got.tgz:23270.got - 2010.04.16 15:00:50.
