data_PCOD8222123
_publ_section_title
;
Structure prediction by ZEFSAII (Michael W. Deem and Ramdas Pophale) SiO2 
 PCOD8222123
Probable space group: P M N A
;
_chemical_formula_sum "Si O2"
_cell_formula_units_Z 40
_cell_length_a 8.550280
_cell_length_b 25.066310
_cell_length_c 9.153776
_cell_angle_alpha 90.000000
_cell_angle_beta 90.000000
_cell_angle_gamma 90.000000
_cell_volume 1961.873604
_symmetry_space_group_name_H-M "P M N A"
_symmetry_group_IT_number 53
_symmetry_cell_setting 'orthorhombic'
loop_
_space_group_symop_operation_xyz
x,y,z
1/2-x,-y,1/2+z
x,-y,-z
1/2-x,y,1/2-z
-x,-y,-z
1/2+x,y,1/2-z
-x,y,z
1/2+x,-y,1/2+z
loop_
_atom_site_type_symbol
_atom_site_label
_atom_site_fract_x
_atom_site_fract_y
_atom_site_fract_z
Si Si1 0.684528 0.259386 0.906471
Si Si2 0.681787 0.052421 0.093039
Si Si3 0.319014 0.446891 0.908105
Si Si4 0.183803 0.144010 0.903827
Si Si5 0.816342 0.647726 0.908403
O O1 0.750000 0.278547 0.750000
O O2 0.500000 0.261058 0.897870
O O3 0.739652 0.200140 0.945831
O O4 0.742961 0.297397 0.034904
O O5 0.750000 0.039523 0.250000
O O6 0.500000 0.067425 0.100084
O O7 0.776445 0.101932 0.028292
O O8 0.712799 0.000000 0.000000
O O9 0.250000 0.458380 0.750000
O O10 0.500000 0.430254 0.897972
O O11 0.294983 0.500000 0.000000
O O12 0.223590 0.399388 0.980998
O O13 0.250000 0.122622 0.750000
O O14 0.000000 0.152045 0.889655
O O15 0.750000 0.633391 0.750000
O O16 0.000000 0.654848 0.897226
#
# Coordination Sequence:
#
# PCOD8222123 Si02
#       5
#     8   8   8   8   8
#     4  11  22  40  64  91 123 160 203 248 300 358
#     4  11  24  41  62  89 121 158 201 248 300 358
#     4  11  24  42  65  93 125 162 204 250 302 359
#     4  11  22  39  63  91 123 159 201 248 301 358
#     4  12  25  42  63  90 124 161 204 252 304 359
#
# _framework density 20.388673000000001
#
# number of rings (size 3 to 8) (size 9 to 14) (size 15 to 20)
#    0.000    0.800    0.000    9.600    0.000    7.200 
#    0.000    4.000    0.000    0.000    0.000    0.000 
#    0.000    0.000    0.000    0.000    0.000    0.000 
#
# Total GULP energy -496334.779387 kJ/mol
# GULP energy per Si atom -12408.369485 kJ/mol
# Density = 2.034227 g / cm^3
# Si number density = 20.388673 Si / 1000 Ang^3
#
#
#
# Elastic Constant Matrix: (Units=GPa)
#
#
# Indices 1 2 3 4 5 6 
#
# 1 182.5459 51.6420 54.7768 0.0000 0.0000 0.0000
# 2 51.6420 88.3043 47.9954 0.0000 0.0000 0.0000
# 3 54.7768 47.9954 130.7313 0.0000 0.0000 0.0000
# 4 0.0000 0.0000 0.0000 -404.3798 0.0000 0.0000
# 5 0.0000 0.0000 0.0000 0.0000 37.0178 0.0000
# 6 0.0000 0.0000 0.0000 0.0000 0.0000 -639.4587
#
#
#
# Elastic Compliance Matrix: (Units=1/GPa)
#
#
# Indices 1 2 3 4 5 6 
#
# 1 0.006872 -0.003065 -0.001754 0.000000 0.000000 0.000000
# 2 -0.003065 0.015515 -0.004412 0.000000 0.000000 0.000000
# 3 -0.001754 -0.004412 0.010004 0.000000 0.000000 0.000000
# 4 0.000000 0.000000 0.000000 -0.002473 0.000000 0.000000
# 5 0.000000 0.000000 0.000000 0.000000 0.027014 0.000000
# 6 0.000000 0.000000 0.000000 0.000000 0.000000 -0.001564
#
#
# Mechanical properties :
#
#
# Convention : Reuss Voigt Hill
#
# Bulk Modulus (GPa) = 71.79423 78.93443 75.36433
# Shear Modulus (GPa) = 63.71699 -184.88630 -60.58466
#
# Velocity S-wave (km/s) = 5.59634 -9.53298 -5.45705
# Velocity P-wave (km/s) = 8.77770 9.07587 1.63149
#
# Compressibility (1/GPa) = 0.01392870
#
# Stress axis : x y z
#
# Youngs Moduli (GPa) = 145.52799 64.45386 99.96245
#
# Poissons Ratio (x) = 0.19758 0.17531
# Poissons Ratio (y) = 0.44610 0.44100
# Poissons Ratio (z) = 0.25523 0.28435
#
# Static dielectric constant tensor:
#      x y z
#    x 3.922630 0.000000 0.000000 
#    y 0.000000 3.764670 0.000000 
#    z 0.000000 0.000000 3.742730 
# 
# 
# High freq. dielectric constant tensor:
#      x y z
#    x 1.819800 0.000000 0.000000 
#    y 0.000000 1.809510 0.000000 
#    z 0.000000 0.000000 1.804900 
# 
# From -- ./inp_files/6277.got.cif
#   From: 2010.03.12/outbox.cif.g09.slc.cpg/sg53_4_cif.got.tgz:6277.got - 2010.04.16 14:36:59.
