data_PCOD8222021
_publ_section_title
;
Structure prediction by ZEFSAII (Michael W. Deem and Ramdas Pophale) SiO2 
 PCOD8222021
Probable space group: P M N A
;
_chemical_formula_sum "Si O2"
_cell_formula_units_Z 64
_cell_length_a 8.425625
_cell_length_b 18.284440
_cell_length_c 22.976138
_cell_angle_alpha 90.000000
_cell_angle_beta 90.000000
_cell_angle_gamma 90.000000
_cell_volume 3539.654072
_symmetry_space_group_name_H-M "P M N A"
_symmetry_group_IT_number 53
_symmetry_cell_setting 'orthorhombic'
loop_
_space_group_symop_operation_xyz
x,y,z
1/2-x,-y,1/2+z
x,-y,-z
1/2-x,y,1/2-z
-x,-y,-z
1/2+x,y,1/2-z
-x,y,z
1/2+x,-y,1/2+z
loop_
_atom_site_type_symbol
_atom_site_label
_atom_site_fract_x
_atom_site_fract_y
_atom_site_fract_z
Si Si1 0.184508 0.916595 0.997653
Si Si2 0.313966 0.728605 0.684422
Si Si3 0.185380 0.872283 0.386170
Si Si4 0.187851 0.734485 0.314797
Si Si5 0.816118 0.866787 0.622339
Si Si6 0.814665 0.999289 0.811660
Si Si7 0.313392 0.576900 0.185746
Si Si8 0.811938 0.579031 0.684861
O O1 0.213262 0.882897 0.934587
O O2 0.000000 0.912427 0.013045
O O3 0.281347 0.869431 0.045026
O O4 0.245803 0.000000 0.000000
O O5 0.250000 0.732833 0.750000
O O6 0.500000 0.744543 0.683662
O O7 0.223536 0.786432 0.644766
O O8 0.275449 0.648759 0.656048
O O9 0.251164 0.797465 0.357630
O O10 0.281984 0.940003 0.360092
O O11 0.000000 0.883337 0.373508
O O12 0.250000 0.748656 0.250000
O O13 0.244910 0.654870 0.341163
O O14 0.000000 0.737471 0.311943
O O15 0.000000 0.872607 0.606214
O O16 0.774197 0.924342 0.672743
O O17 0.750000 0.028069 0.750000
O O18 0.000000 0.983123 0.808262
O O19 0.250000 0.574822 0.250000
O O20 0.500000 0.578226 0.189674
O O21 0.265753 0.499649 0.153886
O O22 0.750000 0.573471 0.750000
O O23 0.000000 0.592962 0.683949
#
# Coordination Sequence:
#
# PCOD8222021 Si02
#       8
#     8   8   8   8   8   8   8   8
#     4  11  23  40  60  79 100 130 170 218 263 308
#     4  11  21  34  51  75 109 141 172 210 256 306
#     4  11  22  36  55  78 103 136 175 216 259 306
#     4   9  18  31  48  74 107 140 174 211 256 303
#     4  12  24  39  58  78 101 131 171 214 259 308
#     4  12  24  38  54  76 105 137 171 208 255 309
#     4   8  14  25  42  66  99 136 171 208 246 295
#     4   9  15  25  43  68  99 136 174 207 247 296
#
# _framework density 18.080863000000001
#
# number of rings (size 3 to 8) (size 9 to 14) (size 15 to 20)
#    0.000    1.625    1.250    6.000    0.000    3.000 
#    0.000    0.000    0.000    0.000    0.000    0.875 
#    0.000    7.000    0.000    0.000    0.000    0.000 
#
# Total GULP energy -793205.773288 kJ/mol
# GULP energy per Si atom -12393.840208 kJ/mol
# Density = 1.803971 g / cm^3
# Si number density = 18.080863 Si / 1000 Ang^3
#
#
#
# Elastic Constant Matrix: (Units=GPa)
#
#
# Indices 1 2 3 4 5 6 
#
# 1 53.5427 23.8065 7.5353 0.0000 0.0000 0.0000
# 2 23.8065 150.9132 34.2028 0.0000 0.0000 0.0000
# 3 7.5353 34.2028 65.3485 0.0000 0.0000 0.0000
# 4 0.0000 0.0000 0.0000 8.1481 0.0000 0.0000
# 5 0.0000 0.0000 0.0000 0.0000 24.3363 0.0000
# 6 0.0000 0.0000 0.0000 0.0000 0.0000 18.8035
#
#
#
# Elastic Compliance Matrix: (Units=1/GPa)
#
#
# Indices 1 2 3 4 5 6 
#
# 1 0.020118 -0.003004 -0.000747 0.000000 0.000000 0.000000
# 2 -0.003004 0.007967 -0.003823 0.000000 0.000000 0.000000
# 3 -0.000747 -0.003823 0.017390 0.000000 0.000000 0.000000
# 4 0.000000 0.000000 0.000000 0.122728 0.000000 0.000000
# 5 0.000000 0.000000 0.000000 0.000000 0.041091 0.000000
# 6 0.000000 0.000000 0.000000 0.000000 0.000000 0.053181
#
#
# Mechanical properties :
#
#
# Convention : Reuss Voigt Hill
#
# Bulk Modulus (GPa) = 32.97666 44.54371 38.76018
# Shear Modulus (GPa) = 17.37728 23.87490 20.62609
#
# Velocity S-wave (km/s) = 3.10350 3.63774 3.38119
# Velocity P-wave (km/s) = 5.57856 6.50642 6.06028
#
# Compressibility (1/GPa) = 0.03032448
#
# Stress axis : x y z
#
# Youngs Moduli (GPa) = 49.70770 125.52181 57.50480
#
# Poissons Ratio (x) = 0.37709 0.04298
# Poissons Ratio (y) = 0.14933 0.21986
# Poissons Ratio (z) = 0.03715 0.47991
#
# Static dielectric constant tensor:
#      x y z
#    x 3.469090 0.000000 0.000000 
#    y 0.000000 4.268100 0.000000 
#    z 0.000000 0.000000 3.052690 
# 
# 
# High freq. dielectric constant tensor:
#      x y z
#    x 1.710540 0.000000 0.000000 
#    y 0.000000 1.721280 0.000000 
#    z 0.000000 0.000000 1.649710 
# 
# From -- ./inp_files/31253.got.cif
#   From: 2010.03.12/outbox.cif.g09.slc.cpg/sg53_16_cif.got.tgz:31253.got - 2010.04.16 14:36:59.
