data_PCOD8222377
_publ_section_title
;
Structure prediction by ZEFSAII (Michael W. Deem and Ramdas Pophale) SiO2 
 PCOD8222377
Probable space group: P C C A
;
_chemical_formula_sum "Si O2"
_cell_formula_units_Z 52
_cell_length_a 14.521885
_cell_length_b 8.039099
_cell_length_c 21.655998
_cell_angle_alpha 90.000000
_cell_angle_beta 90.000000
_cell_angle_gamma 90.000000
_cell_volume 2528.183385
_symmetry_space_group_name_H-M "P C C A"
_symmetry_group_IT_number 54
_symmetry_cell_setting 'orthorhombic'
loop_
_space_group_symop_operation_xyz
x,y,z
1/2-x,-y,z
1/2+x,-y,1/2-z
-x,y,1/2-z
-x,-y,-z
1/2+x,y,-z
1/2-x,y,1/2+z
x,-y,1/2+z
loop_
_atom_site_type_symbol
_atom_site_label
_atom_site_fract_x
_atom_site_fract_y
_atom_site_fract_z
Si Si1 0.326577 0.221676 0.868146
Si Si2 0.170005 0.711844 0.012160
Si Si3 0.517100 0.748962 0.559723
Si Si4 0.500000 0.322231 0.250000
Si Si5 0.500808 0.556417 0.138122
Si Si6 0.635935 0.663811 0.453113
Si Si7 0.634821 0.857365 0.667133
O O1 0.407982 0.340096 0.842851
O O2 0.221056 0.267917 0.848318
O O3 0.337588 0.048964 0.831338
O O4 0.327520 0.217603 0.942350
O O5 0.150203 0.515147 0.014488
O O6 0.264456 0.752916 0.048697
O O7 0.088444 0.804804 0.048861
O O8 0.526359 0.554964 0.578940
O O9 0.570703 0.775605 0.495963
O O10 0.559041 0.860194 0.613174
O O11 0.468175 0.440432 0.194124
O O12 0.413504 0.206921 0.269984
O O13 0.411628 0.662307 0.115128
#
# Coordination Sequence:
#
# PCOD8222377 Si02
#       7
#     8   8   8   4   8   8   8
#     4  11  20  37  62  92 110 155 204 241 300 378
#     4  10  18  29  55  91 126 153 188 237 305 364
#     4  10  17  33  54  87 121 153 183 246 300 350
#     4  10  24  42  58  78 114 158 214 264 292 342
#     4  10  20  37  60  86 112 156 207 244 302 350
#     4  10  17  30  55  89 124 148 187 256 294 354
#     4  10  24  38  58  87 124 154 201 249 302 357
#
# _framework density 20.568128000000002
#
# number of rings (size 3 to 8) (size 9 to 14) (size 15 to 20)
#    0.000    1.846    4.615    0.923    0.000    3.692 
#    0.000    9.231    0.000    0.000    0.000    0.000 
#    0.000    0.000    0.000    0.000    0.000    0.000 
#
# Total GULP energy -644246.791223 kJ/mol
# GULP energy per Si atom -12389.361370 kJ/mol
# Density = 2.052131 g / cm^3
# Si number density = 20.568128 Si / 1000 Ang^3
#
#
#
# Elastic Constant Matrix: (Units=GPa)
#
#
# Indices 1 2 3 4 5 6 
#
# 1 172.6581 33.3936 68.3026 0.0000 0.0000 0.0000
# 2 33.3936 38.4874 25.9376 0.0000 0.0000 0.0000
# 3 68.3026 25.9376 93.4160 0.0000 0.0000 0.0000
# 4 0.0000 0.0000 0.0000 23.8092 0.0000 0.0000
# 5 0.0000 0.0000 0.0000 0.0000 37.8429 0.0000
# 6 0.0000 0.0000 0.0000 0.0000 0.0000 23.9899
#
#
#
# Elastic Compliance Matrix: (Units=1/GPa)
#
#
# Indices 1 2 3 4 5 6 
#
# 1 0.008616 -0.003974 -0.005196 0.000000 0.000000 0.000000
# 2 -0.003974 0.033796 -0.006478 0.000000 0.000000 0.000000
# 3 -0.005196 -0.006478 0.016303 0.000000 0.000000 0.000000
# 4 0.000000 0.000000 0.000000 0.042001 0.000000 0.000000
# 5 0.000000 0.000000 0.000000 0.000000 0.026425 0.000000
# 6 0.000000 0.000000 0.000000 0.000000 0.000000 0.041684
#
#
# Mechanical properties :
#
#
# Convention : Reuss Voigt Hill
#
# Bulk Modulus (GPa) = 36.47192 62.20322 49.33757
# Shear Modulus (GPa) = 23.89357 28.92357 26.40857
#
# Velocity S-wave (km/s) = 3.41204 3.75405 3.58712
# Velocity P-wave (km/s) = 5.77005 7.00704 6.41841
#
# Compressibility (1/GPa) = 0.02741835
#
# Stress axis : x y z
#
# Youngs Moduli (GPa) = 116.06289 29.58916 61.33840
#
# Poissons Ratio (x) = 0.11758 0.31874
# Poissons Ratio (y) = 0.46120 0.39737
# Poissons Ratio (z) = 0.60311 0.19169
#
# Static dielectric constant tensor:
#      x y z
#    x 4.398600 0.000000 0.000000 
#    y 0.000000 3.366140 0.000000 
#    z 0.000000 0.000000 3.445240 
# 
# 
# High freq. dielectric constant tensor:
#      x y z
#    x 1.827390 0.000000 0.000000 
#    y 0.000000 1.769910 0.000000 
#    z 0.000000 0.000000 1.771070 
# 
# From -- ./inp_files/21544.got.cif
#   From: 2010.03.12/outbox.cif.g09.slc.cpg/sg54_11_cif.got.tgz:21544.got - 2010.04.16 15:00:50.
