data_PCOD8222652
_publ_section_title
;
Structure prediction by ZEFSAII (Michael W. Deem and Ramdas Pophale) SiO2 
 PCOD8222652
Probable space group: P C C A
;
_chemical_formula_sum "Si O2"
_cell_formula_units_Z 44
_cell_length_a 13.297400
_cell_length_b 9.005525
_cell_length_c 16.913452
_cell_angle_alpha 90.000000
_cell_angle_beta 90.000000
_cell_angle_gamma 90.000000
_cell_volume 2025.387029
_symmetry_space_group_name_H-M "P C C A"
_symmetry_group_IT_number 54
_symmetry_cell_setting 'orthorhombic'
loop_
_space_group_symop_operation_xyz
x,y,z
1/2-x,-y,z
1/2+x,-y,1/2-z
-x,y,1/2-z
-x,-y,-z
1/2+x,y,-z
1/2-x,y,1/2+z
x,-y,1/2+z
loop_
_atom_site_type_symbol
_atom_site_label
_atom_site_fract_x
_atom_site_fract_y
_atom_site_fract_z
Si Si1 0.897203 0.382704 0.292050
Si Si2 0.588589 0.193809 0.410474
Si Si3 0.864035 0.487722 0.456714
Si Si4 0.184717 0.698435 0.244180
Si Si5 0.133107 0.235321 0.919663
Si Si6 0.250000 0.000000 0.513653
O O1 0.921996 0.403261 0.385410
O O2 0.801772 0.272825 0.280692
O O3 0.856135 0.531493 0.251822
O O4 0.000000 0.326491 0.250000
O O5 0.599431 0.342538 0.464847
O O6 0.613609 0.220520 0.318869
O O7 0.472493 0.148565 0.419510
O O8 0.655587 0.054651 0.435688
O O9 0.750000 0.500000 0.426962
O O10 0.875947 0.398878 0.539062
O O11 0.171761 0.759729 0.331147
O O12 0.216712 0.141649 0.964178
#
# Coordination Sequence:
#
# PCOD8222652 Si02
#       6
#     8   8   8   8   8   4
#     4  10  19  35  61  94 129 165 205 256 318 378
#     4  11  23  45  65  88 127 174 209 256 328 380
#     4  11  20  42  65  96 130 163 210 262 313 373
#     4  10  21  39  60  89 127 164 212 259 313 386
#     4  12  25  40  67  95 127 167 212 267 321 380
#     4  12  26  42  62  90 128 166 218 272 314 378
#
# _framework density 21.724242
#
# number of rings (size 3 to 8) (size 9 to 14) (size 15 to 20)
#    0.000    1.091    5.455    3.818    2.545    2.182 
#    0.000    1.818    0.000    0.000    0.000    2.545 
#    0.000    0.000    0.000    0.000    0.000    0.000 
#
# Total GULP energy -545423.492227 kJ/mol
# GULP energy per Si atom -12395.988460 kJ/mol
# Density = 2.167480 g / cm^3
# Si number density = 21.724242 Si / 1000 Ang^3
#
#
#
# Elastic Constant Matrix: (Units=GPa)
#
#
# Indices 1 2 3 4 5 6 
#
# 1 113.0527 -2.3286 17.7268 0.0000 0.0000 0.0000
# 2 -2.3286 49.2425 29.7104 0.0000 0.0000 0.0000
# 3 17.7268 29.7104 101.2993 0.0000 0.0000 0.0000
# 4 0.0000 0.0000 0.0000 10.3682 0.0000 0.0000
# 5 0.0000 0.0000 0.0000 0.0000 32.9938 0.0000
# 6 0.0000 0.0000 0.0000 0.0000 0.0000 20.9711
#
#
#
# Elastic Compliance Matrix: (Units=1/GPa)
#
#
# Indices 1 2 3 4 5 6 
#
# 1 0.009212 0.001711 -0.002114 0.000000 0.000000 0.000000
# 2 0.001711 0.024992 -0.007629 0.000000 0.000000 0.000000
# 3 -0.002114 -0.007629 0.012479 0.000000 0.000000 0.000000
# 4 0.000000 0.000000 0.000000 0.096449 0.000000 0.000000
# 5 0.000000 0.000000 0.000000 0.000000 0.030309 0.000000
# 6 0.000000 0.000000 0.000000 0.000000 0.000000 0.047685
#
#
# Mechanical properties :
#
#
# Convention : Reuss Voigt Hill
#
# Bulk Modulus (GPa) = 32.65968 39.31239 35.98603
# Shear Modulus (GPa) = 20.21050 27.43234 23.82142
#
# Velocity S-wave (km/s) = 3.05342 3.55738 3.31499
# Velocity P-wave (km/s) = 5.24381 5.91681 5.59045
#
# Compressibility (1/GPa) = 0.03061880
#
# Stress axis : x y z
#
# Youngs Moduli (GPa) = 108.55238 40.01320 80.13269
#
# Poissons Ratio (x) = -0.06846 0.16939
# Poissons Ratio (y) = -0.18574 0.61136
# Poissons Ratio (z) = 0.22947 0.30527
#
# Static dielectric constant tensor:
#      x y z
#    x 4.242970 0.000000 0.000000 
#    y 0.000000 3.555730 0.000000 
#    z 0.000000 0.000000 3.782120 
# 
# 
# High freq. dielectric constant tensor:
#      x y z
#    x 1.871780 0.000000 0.000000 
#    y 0.000000 1.809640 0.000000 
#    z 0.000000 0.000000 1.855670 
# 
# From -- ./inp_files/17915.got.cif
#   From: 2010.03.12/outbox.cif.g09.slc.cpg/sg54_9_cif.got.tgz:17915.got - 2010.04.16 15:00:50.
