data_PCOD8222019
_publ_section_title
;
Structure prediction by ZEFSAII (Michael W. Deem and Ramdas Pophale) SiO2 
 PCOD8222019
Probable space group: P M N A
;
_chemical_formula_sum "Si O2"
_cell_formula_units_Z 64
_cell_length_a 8.549151
_cell_length_b 21.214382
_cell_length_c 19.927039
_cell_angle_alpha 90.000000
_cell_angle_beta 90.000000
_cell_angle_gamma 90.000000
_cell_volume 3614.066533
_symmetry_space_group_name_H-M "P M N A"
_symmetry_group_IT_number 53
_symmetry_cell_setting 'orthorhombic'
loop_
_space_group_symop_operation_xyz
x,y,z
1/2-x,-y,1/2+z
x,-y,-z
1/2-x,y,1/2-z
-x,-y,-z
1/2+x,y,1/2-z
-x,y,z
1/2+x,-y,1/2+z
loop_
_atom_site_type_symbol
_atom_site_label
_atom_site_fract_x
_atom_site_fract_y
_atom_site_fract_z
Si Si1 0.184991 0.483256 0.820572
Si Si2 0.814221 0.378357 0.321679
Si Si3 0.684275 0.559359 0.044501
Si Si4 0.184438 0.054862 0.045326
Si Si5 0.828403 0.191700 0.314437
Si Si6 0.170757 0.045504 0.315013
Si Si7 0.680251 0.191971 0.452345
Si Si8 0.313477 0.328619 0.457577
O O1 0.250000 0.455431 0.750000
O O2 0.260708 0.550604 0.835495
O O3 0.231119 0.438973 0.883126
O O4 0.000000 0.489930 0.815071
O O5 0.750000 0.354396 0.250000
O O6 0.747269 0.335029 0.381190
O O7 0.000000 0.375972 0.322021
O O8 0.500000 0.556406 0.056182
O O9 0.741632 0.500000 0.000000
O O10 0.729318 0.622778 0.006248
O O11 0.219075 0.035334 0.121251
O O12 0.259075 0.124481 0.026111
O O13 0.000000 0.057446 0.034827
O O14 0.260463 0.000000 0.000000
O O15 0.750000 0.224923 0.250000
O O16 0.853159 0.118570 0.299535
O O17 0.708194 0.202205 0.374004
O O18 0.000000 0.222314 0.329051
O O19 0.250000 0.012859 0.250000
O O20 0.000000 0.014653 0.327671
O O21 0.500000 0.183111 0.466540
O O22 0.734766 0.258239 0.485678
O O23 0.500000 0.338306 0.458782
#
# Coordination Sequence:
#
# PCOD8222019 Si02
#       8
#     8   8   8   8   8   8   8   8
#     4  11  21  35  56  79 105 134 169 211 256 301
#     4  11  21  34  50  71 100 136 175 212 250 293
#     4  11  22  36  55  78 104 134 171 212 253 298
#     4   9  17  31  51  73  98 130 165 203 249 299
#     4   9  16  26  42  62  87 123 162 198 236 278
#     4   9  16  26  42  66  95 125 159 198 238 283
#     4   9  19  33  47  67  96 127 164 205 246 297
#     4  11  22  35  51  72  99 134 172 212 257 302
#
# _framework density 17.708584999999999
#
# number of rings (size 3 to 8) (size 9 to 14) (size 15 to 20)
#    0.000    2.000    1.250    4.500    0.000    5.250 
#    0.000    0.000    0.000    0.000    0.000    0.875 
#    0.000    4.000    0.000    0.000    0.000    0.000 
#
# Total GULP energy -792993.781542 kJ/mol
# GULP energy per Si atom -12390.527837 kJ/mol
# Density = 1.766828 g / cm^3
# Si number density = 17.708585 Si / 1000 Ang^3
#
#
#
# Elastic Constant Matrix: (Units=GPa)
#
#
# Indices 1 2 3 4 5 6 
#
# 1 50.9827 10.8199 11.1441 0.0000 0.0000 0.0000
# 2 10.8199 102.5725 49.2682 0.0000 0.0000 0.0000
# 3 11.1441 49.2682 85.5265 0.0000 0.0000 0.0000
# 4 0.0000 0.0000 0.0000 6.3589 0.0000 0.0000
# 5 0.0000 0.0000 0.0000 0.0000 27.5137 0.0000
# 6 0.0000 0.0000 0.0000 0.0000 0.0000 8.5512
#
#
#
# Elastic Compliance Matrix: (Units=1/GPa)
#
#
# Indices 1 2 3 4 5 6 
#
# 1 0.020296 -0.001204 -0.001951 0.000000 0.000000 0.000000
# 2 -0.001204 0.013550 -0.007649 0.000000 0.000000 0.000000
# 3 -0.001951 -0.007649 0.016353 0.000000 0.000000 0.000000
# 4 0.000000 0.000000 0.000000 0.157260 0.000000 0.000000
# 5 0.000000 0.000000 0.000000 0.000000 0.036346 0.000000
# 6 0.000000 0.000000 0.000000 0.000000 0.000000 0.116943
#
#
# Mechanical properties :
#
#
# Convention : Reuss Voigt Hill
#
# Bulk Modulus (GPa) = 34.97514 42.39402 38.68458
# Shear Modulus (GPa) = 12.75883 19.67472 16.21678
#
# Velocity S-wave (km/s) = 2.68710 3.33682 3.02943
# Velocity P-wave (km/s) = 5.42408 6.23199 5.84201
#
# Compressibility (1/GPa) = 0.02859174
#
# Stress axis : x y z
#
# Youngs Moduli (GPa) = 49.26960 73.80031 61.15218
#
# Poissons Ratio (x) = 0.08884 0.11932
# Poissons Ratio (y) = 0.05931 0.46774
# Poissons Ratio (z) = 0.09613 0.56448
#
# Static dielectric constant tensor:
#      x y z
#    x 3.410160 0.000000 0.000000 
#    y 0.000000 3.407550 0.000000 
#    z 0.000000 0.000000 3.440910 
# 
# 
# High freq. dielectric constant tensor:
#      x y z
#    x 1.694690 0.000000 0.000000 
#    y 0.000000 1.659960 0.000000 
#    z 0.000000 0.000000 1.663910 
# 
# From -- ./inp_files/31170.got.cif
#   From: 2010.03.12/outbox.cif.g09.slc.cpg/sg53_16_cif.got.tgz:31170.got - 2010.04.16 14:36:59.
