data_PCOD8222774
_publ_section_title
;
Structure prediction by ZEFSAII (Michael W. Deem and Ramdas Pophale) SiO2 
 PCOD8222774
Probable space group: P C C A
;
_chemical_formula_sum "Si O2"
_cell_formula_units_Z 44
_cell_length_a 21.786678
_cell_length_b 8.343226
_cell_length_c 12.117790
_cell_angle_alpha 90.000000
_cell_angle_beta 90.000000
_cell_angle_gamma 90.000000
_cell_volume 2202.664967
_symmetry_space_group_name_H-M "P C C A"
_symmetry_group_IT_number 54
_symmetry_cell_setting 'orthorhombic'
loop_
_space_group_symop_operation_xyz
x,y,z
1/2-x,-y,z
1/2+x,-y,1/2-z
-x,y,1/2-z
-x,-y,-z
1/2+x,y,-z
1/2-x,y,1/2+z
x,-y,1/2+z
loop_
_atom_site_type_symbol
_atom_site_label
_atom_site_fract_x
_atom_site_fract_y
_atom_site_fract_z
Si Si1 0.250000 0.000000 0.536010
Si Si2 0.342095 0.777507 0.921050
Si Si3 0.556878 0.942319 0.432792
Si Si4 0.854333 0.815300 0.339085
Si Si5 0.605397 0.542055 0.994143
Si Si6 0.999737 0.366849 0.131576
O O1 0.278149 0.141053 0.459161
O O2 0.201414 0.078724 0.617744
O O3 0.346145 0.777486 0.789151
O O4 0.347401 0.592188 0.960424
O O5 0.395304 0.881091 0.976006
O O6 0.532111 0.805117 0.352056
O O7 0.500000 0.000000 0.500000
O O8 0.583406 0.084394 0.357272
O O9 0.857150 0.650601 0.408456
O O10 0.571832 0.645826 0.090848
O O11 0.544395 0.467790 0.944158
O O12 0.000000 0.452883 0.250000
#
# Coordination Sequence:
#
# PCOD8222774 Si02
#       6
#     4   8   8   8   8   8
#     4  10  24  44  62  90 118 148 220 258 290 376
#     4  10  23  41  62  88 121 160 202 252 310 348
#     4  10  21  36  56  93 122 154 199 241 284 370
#     4  11  22  40  66  85 122 164 198 255 309 347
#     4  10  21  38  56  89 124 154 204 242 293 374
#     4  10  20  34  54  85 128 159 190 235 292 357
#
# _framework density 19.975801000000001
#
# number of rings (size 3 to 8) (size 9 to 14) (size 15 to 20)
#    0.000    1.818    1.818    1.636    2.545    0.727 
#    0.000    7.273    0.000    0.000    0.000    0.000 
#    0.000    0.000    0.000    0.000    0.000    0.000 
#
# Total GULP energy -545324.517965 kJ/mol
# GULP energy per Si atom -12393.739045 kJ/mol
# Density = 1.993034 g / cm^3
# Si number density = 19.975801 Si / 1000 Ang^3
#
#
#
# Elastic Constant Matrix: (Units=GPa)
#
#
# Indices 1 2 3 4 5 6 
#
# 1 74.6324 35.1858 21.6493 0.0000 0.0000 0.0000
# 2 35.1858 117.9587 40.5515 0.0000 0.0000 0.0000
# 3 21.6493 40.5515 121.1416 0.0000 0.0000 0.0000
# 4 0.0000 0.0000 0.0000 234.7439 0.0000 0.0000
# 5 0.0000 0.0000 0.0000 0.0000 20.5302 0.0000
# 6 0.0000 0.0000 0.0000 0.0000 0.0000 2.3775
#
#
#
# Elastic Compliance Matrix: (Units=1/GPa)
#
#
# Indices 1 2 3 4 5 6 
#
# 1 0.015801 -0.004229 -0.001408 0.000000 0.000000 0.000000
# 2 -0.004229 0.010712 -0.002830 0.000000 0.000000 0.000000
# 3 -0.001408 -0.002830 0.009454 0.000000 0.000000 0.000000
# 4 0.000000 0.000000 0.000000 0.004260 0.000000 0.000000
# 5 0.000000 0.000000 0.000000 0.000000 0.048709 0.000000
# 6 0.000000 0.000000 0.000000 0.000000 0.000000 0.420604
#
#
# Mechanical properties :
#
#
# Convention : Reuss Voigt Hill
#
# Bulk Modulus (GPa) = 52.54213 56.50066 54.52140
# Shear Modulus (GPa) = 9.38405 65.95339 37.66872
#
# Velocity S-wave (km/s) = 2.16977 5.75224 4.34720
# Velocity P-wave (km/s) = 5.71290 8.51256 7.24917
#
# Compressibility (1/GPa) = 0.01903234
#
# Stress axis : x y z
#
# Youngs Moduli (GPa) = 63.28551 93.35353 105.77789
#
# Poissons Ratio (x) = 0.39482 0.14895
# Poissons Ratio (y) = 0.26765 0.29935
# Poissons Ratio (z) = 0.08912 0.26419
#
# Static dielectric constant tensor:
#      x y z
#    x 3.549730 0.000000 0.000000 
#    y 0.000000 3.182050 0.000000 
#    z 0.000000 0.000000 6.654260 
# 
# 
# High freq. dielectric constant tensor:
#      x y z
#    x 1.775340 0.000000 0.000000 
#    y 0.000000 1.784820 0.000000 
#    z 0.000000 0.000000 1.780600 
# 
# From -- ./inp_files/9848.got.cif
#   From: 2010.03.12/outbox.cif.g09.slc.cpg/sg54_5_cif.got.tgz:9848.got - 2010.04.16 15:00:50.
