data_PCOD8222752
_publ_section_title
;
Structure prediction by ZEFSAII (Michael W. Deem and Ramdas Pophale) SiO2 
 PCOD8222752
Probable space group: P C C A
;
_chemical_formula_sum "Si O2"
_cell_formula_units_Z 56
_cell_length_a 15.294634
_cell_length_b 20.684742
_cell_length_c 8.665704
_cell_angle_alpha 90.000000
_cell_angle_beta 90.000000
_cell_angle_gamma 90.000000
_cell_volume 2741.530284
_symmetry_space_group_name_H-M "P C C A"
_symmetry_group_IT_number 54
_symmetry_cell_setting 'orthorhombic'
loop_
_space_group_symop_operation_xyz
x,y,z
1/2-x,-y,z
1/2+x,-y,1/2-z
-x,y,1/2-z
-x,-y,-z
1/2+x,y,-z
1/2-x,y,1/2+z
x,-y,1/2+z
loop_
_atom_site_type_symbol
_atom_site_label
_atom_site_fract_x
_atom_site_fract_y
_atom_site_fract_z
Si Si1 0.137964 0.353016 0.905369
Si Si2 0.823717 0.647857 0.447787
Si Si3 0.250000 0.000000 0.313458
Si Si4 0.650276 0.927963 0.935495
Si Si5 0.486605 0.429448 0.932168
Si Si6 0.709827 0.792083 0.919318
Si Si7 0.000000 0.889441 0.250000
Si Si8 0.631457 0.790862 0.603681
O O1 0.161453 0.370708 0.730072
O O2 0.095474 0.281343 0.912933
O O3 0.223810 0.367871 0.007081
O O4 0.059621 0.392706 0.973442
O O5 0.891941 0.604150 0.542828
O O6 0.832665 0.725176 0.483706
O O7 0.169947 0.025273 0.420554
O O8 0.283044 0.058249 0.206322
O O9 0.655891 0.853056 0.985789
O O10 0.553421 0.936796 0.864314
O O11 0.500000 0.429369 0.750000
O O12 0.500000 0.500000 0.000000
O O13 0.705404 0.790385 0.735534
O O14 0.812392 0.805418 0.950916
O O15 0.942144 0.843510 0.139249
#
# Coordination Sequence:
#
# PCOD8222752 Si02
#       8
#     8   8   4   8   8   8   4   8
#     4  10  21  38  64  91 126 166 204 261 310 374
#     4  10  21  39  64  95 124 162 209 258 320 371
#     4  10  22  38  56  80 112 164 200 246 298 380
#     4  10  20  36  58  81 114 155 204 244 303 363
#     4  12  26  43  63  91 128 169 211 256 310 372
#     4   9  18  35  60  85 114 153 196 249 299 370
#     4  10  20  32  58  90 114 156 198 254 308 368
#     4   9  19  33  60  87 120 151 199 247 314 356
#
# _framework density 20.426549000000001
#
# number of rings (size 3 to 8) (size 9 to 14) (size 15 to 20)
#    0.000    2.000    0.000    3.857    6.000    2.286 
#    0.000    2.857    0.000    6.857    0.000    0.000 
#    0.000    0.000    0.000    0.000    0.000    0.000 
#
# Total GULP energy -693791.557358 kJ/mol
# GULP energy per Si atom -12389.134953 kJ/mol
# Density = 2.038006 g / cm^3
# Si number density = 20.426549 Si / 1000 Ang^3
#
#
#
# Elastic Constant Matrix: (Units=GPa)
#
#
# Indices 1 2 3 4 5 6 
#
# 1 76.2891 10.4095 1.1179 0.0000 0.0000 0.0000
# 2 10.4095 68.3523 -0.4429 0.0000 0.0000 0.0000
# 3 1.1179 -0.4429 56.6430 0.0000 0.0000 0.0000
# 4 0.0000 0.0000 0.0000 22.6976 0.0000 0.0000
# 5 0.0000 0.0000 0.0000 0.0000 37.2059 0.0000
# 6 0.0000 0.0000 0.0000 0.0000 0.0000 29.1609
#
#
#
# Elastic Compliance Matrix: (Units=1/GPa)
#
#
# Indices 1 2 3 4 5 6 
#
# 1 0.013391 -0.002041 -0.000280 0.000000 0.000000 0.000000
# 2 -0.002041 0.014942 0.000157 0.000000 0.000000 0.000000
# 3 -0.000280 0.000157 0.017661 0.000000 0.000000 0.000000
# 4 0.000000 0.000000 0.000000 0.044058 0.000000 0.000000
# 5 0.000000 0.000000 0.000000 0.000000 0.026877 0.000000
# 6 0.000000 0.000000 0.000000 0.000000 0.000000 0.034292
#
#
# Mechanical properties :
#
#
# Convention : Reuss Voigt Hill
#
# Bulk Modulus (GPa) = 24.00078 24.82817 24.41448
# Shear Modulus (GPa) = 29.50930 30.49288 30.00109
#
# Velocity S-wave (km/s) = 3.80498 3.86788 3.83656
# Velocity P-wave (km/s) = 5.57487 5.66820 5.62173
#
# Compressibility (1/GPa) = 0.04166531
#
# Stress axis : x y z
#
# Youngs Moduli (GPa) = 74.67903 66.92568 56.62130
#
# Poissons Ratio (x) = 0.13660 0.01587
# Poissons Ratio (y) = 0.15243 -0.00890
# Poissons Ratio (z) = 0.02093 -0.01051
#
# Static dielectric constant tensor:
#      x y z
#    x 3.666690 0.000000 0.000000 
#    y 0.000000 3.989120 0.000000 
#    z 0.000000 0.000000 3.851490 
# 
# 
# High freq. dielectric constant tensor:
#      x y z
#    x 1.789410 0.000000 0.000000 
#    y 0.000000 1.803170 0.000000 
#    z 0.000000 0.000000 1.798520 
# 
# From -- ./inp_files/3715.got.cif
#   From: 2010.03.12/outbox.cif.g09.slc.cpg/sg54_2_cif.got.tgz:3715.got - 2010.04.16 15:00:50.
