data_PCOD8222904
_publ_section_title
;
Structure prediction by ZEFSAII (Michael W. Deem and Ramdas Pophale) SiO2 
 PCOD8222904
Probable space group: P C C A
;
_chemical_formula_sum "Si O2"
_cell_formula_units_Z 48
_cell_length_a 15.267126
_cell_length_b 8.788055
_cell_length_c 18.755879
_cell_angle_alpha 90.000000
_cell_angle_beta 90.000000
_cell_angle_gamma 90.000000
_cell_volume 2516.445207
_symmetry_space_group_name_H-M "P C C A"
_symmetry_group_IT_number 54
_symmetry_cell_setting 'orthorhombic'
loop_
_space_group_symop_operation_xyz
x,y,z
1/2-x,-y,z
1/2+x,-y,1/2-z
-x,y,1/2-z
-x,-y,-z
1/2+x,y,-z
1/2-x,y,1/2+z
x,-y,1/2+z
loop_
_atom_site_type_symbol
_atom_site_label
_atom_site_fract_x
_atom_site_fract_y
_atom_site_fract_z
Si Si1 0.486897 0.076039 0.575925
Si Si2 0.156062 0.573116 0.172847
Si Si3 0.845551 0.559522 0.678809
Si Si4 0.589209 0.879520 0.209231
Si Si5 0.007762 0.569193 0.577024
Si Si6 0.659310 0.069541 0.332271
O O1 0.568905 0.055331 0.630172
O O2 0.468471 0.254520 0.569280
O O3 0.500000 0.000000 0.500000
O O4 0.405657 0.989834 0.608484
O O5 0.250000 0.500000 0.156701
O O6 0.124583 0.537368 0.252864
O O7 0.163523 0.751435 0.164535
O O8 0.086265 0.511092 0.117557
O O9 0.750000 0.500000 0.652730
O O10 0.844087 0.737043 0.703203
O O11 0.915727 0.538500 0.616351
O O12 0.500000 0.824762 0.250000
O O13 0.634064 0.014697 0.252838
O O14 0.000000 0.500000 0.500000
O O15 0.750000 0.000000 0.356064
#
# Coordination Sequence:
#
# PCOD8222904 Si02
#       6
#     8   8   8   8   8   8
#     4  10  21  39  58  80 114 153 192 231 283 343
#     4  11  22  37  60  87 116 149 190 238 288 341
#     4  10  20  37  59  84 115 150 189 236 285 339
#     4   9  19  37  59  82 113 150 187 233 284 338
#     4  11  23  38  58  84 119 156 191 237 288 341
#     4  11  21  36  59  85 112 146 191 239 284 338
#
# _framework density 19.074527
#
# number of rings (size 3 to 8) (size 9 to 14) (size 15 to 20)
#    0.000    1.667    0.000    7.500    0.000    6.000 
#    0.000    4.167    0.000    0.000    0.000    0.000 
#    0.000    0.000    0.000    0.000    0.000    0.000 
#
# Total GULP energy -595175.551252 kJ/mol
# GULP energy per Si atom -12399.490651 kJ/mol
# Density = 1.903111 g / cm^3
# Si number density = 19.074527 Si / 1000 Ang^3
#
#
#
# Elastic Constant Matrix: (Units=GPa)
#
#
# Indices 1 2 3 4 5 6 
#
# 1 112.5030 85.5615 59.5994 0.0000 0.0000 0.0000
# 2 85.5615 186.0427 80.2057 0.0000 0.0000 0.0000
# 3 59.5994 80.2057 152.4889 0.0000 0.0000 0.0000
# 4 0.0000 0.0000 0.0000 35.5190 0.0000 0.0000
# 5 0.0000 0.0000 0.0000 0.0000 14.1380 0.0000
# 6 0.0000 0.0000 0.0000 0.0000 0.0000 36.6815
#
#
#
# Elastic Compliance Matrix: (Units=1/GPa)
#
#
# Indices 1 2 3 4 5 6 
#
# 1 0.014540 -0.005479 -0.002801 0.000000 0.000000 0.000000
# 2 -0.005479 0.009016 -0.002601 0.000000 0.000000 0.000000
# 3 -0.002801 -0.002601 0.009020 0.000000 0.000000 0.000000
# 4 0.000000 0.000000 0.000000 0.028154 0.000000 0.000000
# 5 0.000000 0.000000 0.000000 0.000000 0.070731 0.000000
# 6 0.000000 0.000000 0.000000 0.000000 0.000000 0.027262
#
#
# Mechanical properties :
#
#
# Convention : Reuss Voigt Hill
#
# Bulk Modulus (GPa) = 92.46737 100.19642 96.33190
# Shear Modulus (GPa) = 27.16065 32.31224 29.73644
#
# Velocity S-wave (km/s) = 3.77758 4.12029 3.95265
# Velocity P-wave (km/s) = 8.22247 8.67633 8.45244
#
# Compressibility (1/GPa) = 0.01081463
#
# Stress axis : x y z
#
# Youngs Moduli (GPa) = 68.77798 110.90996 110.85924
#
# Poissons Ratio (x) = 0.60772 0.31048
# Poissons Ratio (y) = 0.37686 0.28832
# Poissons Ratio (z) = 0.19263 0.28845
#
# Static dielectric constant tensor:
#      x y z
#    x 3.632420 0.000000 0.000000 
#    y 0.000000 3.660020 0.000000 
#    z 0.000000 0.000000 3.571620 
# 
# 
# High freq. dielectric constant tensor:
#      x y z
#    x 1.742750 0.000000 0.000000 
#    y 0.000000 1.755100 0.000000 
#    z 0.000000 0.000000 1.743200 
# 
# From -- ./inp_files/21459.got.cif
#   From: 2010.03.12/outbox.cif.g09.slc.cpg/sg54_11_cif.got.tgz:21459.got - 2010.04.16 15:00:50.
