data_PCOD8222073
_publ_section_title
;
Structure prediction by ZEFSAII (Michael W. Deem and Ramdas Pophale) SiO2 
 PCOD8222073
Probable space group: P M N A
;
_chemical_formula_sum "Si O2"
_cell_formula_units_Z 40
_cell_length_a 14.923249
_cell_length_b 11.328832
_cell_length_c 11.657516
_cell_angle_alpha 90.000000
_cell_angle_beta 90.000000
_cell_angle_gamma 90.000000
_cell_volume 1970.854404
_symmetry_space_group_name_H-M "P M N A"
_symmetry_group_IT_number 53
_symmetry_cell_setting 'orthorhombic'
loop_
_space_group_symop_operation_xyz
x,y,z
1/2-x,-y,1/2+z
x,-y,-z
1/2-x,y,1/2-z
-x,-y,-z
1/2+x,y,1/2-z
-x,y,z
1/2+x,-y,1/2+z
loop_
_atom_site_type_symbol
_atom_site_label
_atom_site_fract_x
_atom_site_fract_y
_atom_site_fract_z
Si Si1 0.850601 0.262344 0.209094
Si Si2 0.149210 0.750861 0.232007
Si Si3 0.397486 0.487412 0.629224
Si Si4 0.500000 0.849865 0.117336
Si Si5 0.500000 0.124997 0.152595
Si Si6 0.398318 0.129217 0.503339
O O1 0.750000 0.268206 0.250000
O O2 0.891302 0.393192 0.202691
O O3 0.843498 0.213134 0.080467
O O4 0.910933 0.179176 0.289795
O O5 0.250000 0.796945 0.250000
O O6 0.153903 0.612371 0.201352
O O7 0.089018 0.779308 0.343058
O O8 0.102826 0.821730 0.130313
O O9 0.357082 0.500000 0.500000
O O10 0.500000 0.446384 0.617709
O O11 0.500000 0.983260 0.167417
O O12 0.500000 0.844082 0.980819
O O13 0.500000 0.123492 0.456844
O O14 0.354238 0.000000 0.500000
#
# Coordination Sequence:
#
# PCOD8222073 Si02
#       6
#     8   8   8   4   4   8
#     4  12  25  43  67 101 132 170 223 273 328 390
#     4  12  25  43  67 101 132 170 223 273 328 390
#     4  11  21  42  72  97 127 170 217 279 334 385
#     4  11  26  46  65  92 138 182 212 261 330 393
#     4  11  26  46  65  92 138 182 212 261 330 393
#     4  11  22  41  69  98 131 173 225 278 324 381
#
# _framework density 20.295766
#
# number of rings (size 3 to 8) (size 9 to 14) (size 15 to 20)
#    0.000    0.600    6.000    1.800    2.800    3.200 
#    0.000    2.000    0.000    0.000    0.000    0.000 
#    0.000    0.000    0.000    0.000    0.000    0.000 
#
# Total GULP energy -496175.842843 kJ/mol
# GULP energy per Si atom -12404.396071 kJ/mol
# Density = 2.024957 g / cm^3
# Si number density = 20.295766 Si / 1000 Ang^3
#
#
#
# Elastic Constant Matrix: (Units=GPa)
#
#
# Indices 1 2 3 4 5 6 
#
# 1 104.2990 15.5448 30.1748 0.0000 0.0000 0.0000
# 2 15.5448 126.4726 32.0325 0.0000 0.0000 0.0000
# 3 30.1748 32.0325 91.5310 0.0000 0.0000 0.0000
# 4 0.0000 0.0000 0.0000 34.1215 0.0000 0.0000
# 5 0.0000 0.0000 0.0000 0.0000 1.7040 0.0000
# 6 0.0000 0.0000 0.0000 0.0000 0.0000 -22.0087
#
#
#
# Elastic Compliance Matrix: (Units=1/GPa)
#
#
# Indices 1 2 3 4 5 6 
#
# 1 0.010623 -0.000459 -0.003341 0.000000 0.000000 0.000000
# 2 -0.000459 0.008696 -0.002892 0.000000 0.000000 0.000000
# 3 -0.003341 -0.002892 0.013039 0.000000 0.000000 0.000000
# 4 0.000000 0.000000 0.000000 0.029307 0.000000 0.000000
# 5 0.000000 0.000000 0.000000 0.000000 0.586853 0.000000
# 6 0.000000 0.000000 0.000000 0.000000 0.000000 -0.045437
#
#
# Mechanical properties :
#
#
# Convention : Reuss Voigt Hill
#
# Bulk Modulus (GPa) = 52.70750 53.08963 52.89857
# Shear Modulus (GPa) = 8.02839 19.06671 13.54755
#
# Velocity S-wave (km/s) = 1.99105 3.06836 2.58642
# Velocity P-wave (km/s) = 5.59569 6.22638 5.91945
#
# Compressibility (1/GPa) = 0.01897263
#
# Stress axis : x y z
#
# Youngs Moduli (GPa) = 94.13571 114.99902 76.69431
#
# Poissons Ratio (x) = 0.05283 0.25626
# Poissons Ratio (y) = 0.04325 0.22178
# Poissons Ratio (z) = 0.31453 0.33255
#
# Static dielectric constant tensor:
#      x y z
#    x 3.489920 0.000000 0.000000 
#    y 0.000000 3.877760 0.000000 
#    z 0.000000 0.000000 3.655760 
# 
# 
# High freq. dielectric constant tensor:
#      x y z
#    x 1.782430 0.000000 0.000000 
#    y 0.000000 1.808850 0.000000 
#    z 0.000000 0.000000 1.795120 
# 
# From -- ./inp_files/15793.got.cif
#   From: 2010.03.12/outbox.cif.g09.slc.cpg/sg53_8_cif.got.tgz:15793.got - 2010.04.16 14:36:59.
