data_PCOD8222669
_publ_section_title
;
Structure prediction by ZEFSAII (Michael W. Deem and Ramdas Pophale) SiO2 
 PCOD8222669
Probable space group: P C C A
;
_chemical_formula_sum "Si O2"
_cell_formula_units_Z 40
_cell_length_a 5.044266
_cell_length_b 26.813107
_cell_length_c 14.217488
_cell_angle_alpha 90.000000
_cell_angle_beta 90.000000
_cell_angle_gamma 90.000000
_cell_volume 1922.949999
_symmetry_space_group_name_H-M "P C C A"
_symmetry_group_IT_number 54
_symmetry_cell_setting 'orthorhombic'
loop_
_space_group_symop_operation_xyz
x,y,z
1/2-x,-y,z
1/2+x,-y,1/2-z
-x,y,1/2-z
-x,-y,-z
1/2+x,y,-z
1/2-x,y,1/2+z
x,-y,1/2+z
loop_
_atom_site_type_symbol
_atom_site_label
_atom_site_fract_x
_atom_site_fract_y
_atom_site_fract_z
Si Si1 0.250000 0.000000 0.435804
Si Si2 0.954105 0.292163 0.058791
Si Si3 0.313534 0.811710 0.436419
Si Si4 0.743272 0.904802 0.189428
Si Si5 0.000000 0.467052 0.250000
Si Si6 0.397837 0.402150 0.933887
O O1 0.197804 0.950416 0.377671
O O2 0.500000 0.000000 0.500000
O O3 0.868545 0.242028 0.116084
O O4 0.898836 0.345410 0.107612
O O5 0.765495 0.289907 0.965776
O O6 0.517470 0.816046 0.523302
O O7 0.357864 0.855633 0.363406
O O8 0.500000 0.924196 0.250000
O O9 0.000000 0.891244 0.250000
O O10 0.250000 0.500000 0.219960
O O11 0.918752 0.435619 0.158426
O O12 0.127555 0.412782 0.990140
#
# Coordination Sequence:
#
# PCOD8222669 Si02
#       6
#     4   8   8   8   4   8
#     4  12  24  42  64  84 106 156 208 238 286 354
#     4   8  16  32  58  83 109 148 193 236 286 343
#     4  10  19  36  60  84 113 153 196 237 281 352
#     4  12  24  39  57  86 124 150 186 244 302 347
#     4  12  26  40  60  92 124 158 210 256 304 372
#     4  10  21  40  63  87 121 162 202 252 310 361
#
# _framework density 20.801372000000001
#
# number of rings (size 3 to 8) (size 9 to 14) (size 15 to 20)
#    0.000    1.600    0.000    5.400    0.000    2.400 
#    1.800    0.000    2.200    0.000    0.000    0.000 
#    0.000    0.000    0.000    0.000    0.000    0.000 
#
# Total GULP energy -495697.610911 kJ/mol
# GULP energy per Si atom -12392.440273 kJ/mol
# Density = 2.075403 g / cm^3
# Si number density = 20.801372 Si / 1000 Ang^3
#
#
#
# Elastic Constant Matrix: (Units=GPa)
#
#
# Indices 1 2 3 4 5 6 
#
# 1 119.1382 26.2142 25.6675 0.0000 0.0000 0.0000
# 2 26.2142 160.6463 61.5033 0.0000 0.0000 0.0000
# 3 25.6675 61.5033 80.8462 0.0000 0.0000 0.0000
# 4 0.0000 0.0000 0.0000 -33.0489 0.0000 0.0000
# 5 0.0000 0.0000 0.0000 0.0000 16.0725 0.0000
# 6 0.0000 0.0000 0.0000 0.0000 0.0000 33.5180
#
#
#
# Elastic Compliance Matrix: (Units=1/GPa)
#
#
# Indices 1 2 3 4 5 6 
#
# 1 0.009042 -0.000531 -0.002467 0.000000 0.000000 0.000000
# 2 -0.000531 0.008814 -0.006537 0.000000 0.000000 0.000000
# 3 -0.002467 -0.006537 0.018125 0.000000 0.000000 0.000000
# 4 0.000000 0.000000 0.000000 -0.030258 0.000000 0.000000
# 5 0.000000 0.000000 0.000000 0.000000 0.062218 0.000000
# 6 0.000000 0.000000 0.000000 0.000000 0.000000 0.029835
#
#
# Mechanical properties :
#
#
# Convention : Reuss Voigt Hill
#
# Bulk Modulus (GPa) = 59.12891 65.26676 62.19783
# Shear Modulus (GPa) = 40.82243 19.79135 30.30689
#
# Velocity S-wave (km/s) = 4.43480 3.08790 3.82116
# Velocity P-wave (km/s) = 7.39665 6.64513 7.03094
#
# Compressibility (1/GPa) = 0.01691220
#
# Stress axis : x y z
#
# Youngs Moduli (GPa) = 110.59631 113.45505 55.17243
#
# Poissons Ratio (x) = 0.06026 0.13609
# Poissons Ratio (y) = 0.05874 0.36064
# Poissons Ratio (z) = 0.27280 0.74161
#
# Static dielectric constant tensor:
#      x y z
#    x 3.976240 0.000000 0.000000 
#    y 0.000000 4.238260 0.000000 
#    z 0.000000 0.000000 3.363580 
# 
# 
# High freq. dielectric constant tensor:
#      x y z
#    x 1.840680 0.000000 0.000000 
#    y 0.000000 1.843270 0.000000 
#    z 0.000000 0.000000 1.770020 
# 
# From -- ./inp_files/6472.got.cif
#   From: 2010.03.12/outbox.cif.g09.slc.cpg/sg54_4_cif.got.tgz:6472.got - 2010.04.16 15:00:50.
