data_PCOD8222827
_publ_section_title
;
Structure prediction by ZEFSAII (Michael W. Deem and Ramdas Pophale) SiO2 
 PCOD8222827
Probable space group: P C C A
;
_chemical_formula_sum "Si O2"
_cell_formula_units_Z 32
_cell_length_a 4.944858
_cell_length_b 13.528215
_cell_length_c 25.146750
_cell_angle_alpha 90.000000
_cell_angle_beta 90.000000
_cell_angle_gamma 90.000000
_cell_volume 1682.194410
_symmetry_space_group_name_H-M "P C C A"
_symmetry_group_IT_number 54
_symmetry_cell_setting 'orthorhombic'
loop_
_space_group_symop_operation_xyz
x,y,z
1/2-x,-y,z
1/2+x,-y,1/2-z
-x,y,1/2-z
-x,-y,-z
1/2+x,y,-z
1/2-x,y,1/2+z
x,-y,1/2+z
loop_
_atom_site_type_symbol
_atom_site_label
_atom_site_fract_x
_atom_site_fract_y
_atom_site_fract_z
Si Si1 0.270376 0.115818 0.467234
Si Si2 0.250000 0.500000 0.213833
Si Si3 0.569953 0.293994 0.811567
Si Si4 0.088786 0.811020 0.353914
Si Si5 0.250000 0.000000 0.286298
O O1 0.467821 0.146286 0.516053
O O2 0.393484 0.170436 0.416454
O O3 0.250000 0.000000 0.455248
O O4 0.500000 0.464960 0.250000
O O5 0.332378 0.593768 0.177951
O O6 0.500000 0.275441 0.750000
O O7 0.291153 0.279359 0.842725
O O8 0.789447 0.216974 0.834190
O O9 0.178407 0.907953 0.322798
O O10 0.500000 0.967777 0.250000
#
# Coordination Sequence:
#
# PCOD8222827 Si02
#       5
#     8   4   8   8   4
#     4  10  21  38  58  79 107 144 193 245 277 313
#     4  10  20  36  56  80 110 148 190 234 272 312
#     4  11  22  36  57  82 116 148 186 227 271 334
#     4  12  22  37  55  83 111 152 185 224 279 333
#     4  12  24  34  48  76 118 152 178 206 262 340
#
# _framework density 19.022770000000001
#
# number of rings (size 3 to 8) (size 9 to 14) (size 15 to 20)
#    0.000    1.000    1.250    9.000    0.000    0.000 
#    0.000    0.000    0.000    0.000    0.000   17.500 
#    0.000    0.000    0.000    0.000    0.000    0.000 
#
# Total GULP energy -396777.475572 kJ/mol
# GULP energy per Si atom -12399.296112 kJ/mol
# Density = 1.897947 g / cm^3
# Si number density = 19.022770 Si / 1000 Ang^3
#
#
#
# Elastic Constant Matrix: (Units=GPa)
#
#
# Indices 1 2 3 4 5 6 
#
# 1 87.8560 3.9392 24.8908 0.0000 0.0000 0.0000
# 2 3.9392 68.5850 28.3035 0.0000 0.0000 0.0000
# 3 24.8908 28.3035 100.2527 0.0000 0.0000 0.0000
# 4 0.0000 0.0000 0.0000 -8.8321 0.0000 0.0000
# 5 0.0000 0.0000 0.0000 0.0000 18.7387 0.0000
# 6 0.0000 0.0000 0.0000 0.0000 0.0000 32.1115
#
#
#
# Elastic Compliance Matrix: (Units=1/GPa)
#
#
# Indices 1 2 3 4 5 6 
#
# 1 0.012267 0.000625 -0.003222 0.000000 0.000000 0.000000
# 2 0.000625 0.016535 -0.004823 0.000000 0.000000 0.000000
# 3 -0.003222 -0.004823 0.012137 0.000000 0.000000 0.000000
# 4 0.000000 0.000000 0.000000 -0.113224 0.000000 0.000000
# 5 0.000000 0.000000 0.000000 0.000000 0.053366 0.000000
# 6 0.000000 0.000000 0.000000 0.000000 0.000000 0.031141
#
#
# Mechanical properties :
#
#
# Convention : Reuss Voigt Hill
#
# Bulk Modulus (GPa) = 38.31736 41.21787 39.76762
# Shear Modulus (GPa) = 139.81315 21.70764 80.76040
#
# Velocity S-wave (km/s) = 8.58239 3.38174 6.52279
# Velocity P-wave (km/s) = 10.88101 6.07971 8.81361
#
# Compressibility (1/GPa) = 0.02609783
#
# Stress axis : x y z
#
# Youngs Moduli (GPa) = 81.51876 60.47761 82.39576
#
# Poissons Ratio (x) = -0.03781 0.26549
# Poissons Ratio (y) = -0.05096 0.39743
# Poissons Ratio (z) = 0.26267 0.29171
#
# Static dielectric constant tensor:
#      x y z
#    x 6.131250 0.000000 0.000000 
#    y 0.000000 3.444410 0.000000 
#    z 0.000000 0.000000 3.319600 
# 
# 
# High freq. dielectric constant tensor:
#      x y z
#    x 1.768760 0.000000 0.000000 
#    y 0.000000 1.723700 0.000000 
#    z 0.000000 0.000000 1.715630 
# 
# From -- ./inp_files/19531.got.cif
#   From: 2010.03.12/outbox.cif.g09.slc.cpg/sg54_10_cif.got.tgz:19531.got - 2010.04.16 15:00:50.
