data_PCOD8222861
_publ_section_title
;
Structure prediction by ZEFSAII (Michael W. Deem and Ramdas Pophale) SiO2 
 PCOD8222861
Probable space group: P C C A
;
_chemical_formula_sum "Si O2"
_cell_formula_units_Z 28
_cell_length_a 12.036972
_cell_length_b 6.989071
_cell_length_c 13.872645
_cell_angle_alpha 90.000000
_cell_angle_beta 90.000000
_cell_angle_gamma 90.000000
_cell_volume 1167.067501
_symmetry_space_group_name_H-M "P C C A"
_symmetry_group_IT_number 54
_symmetry_cell_setting 'orthorhombic'
loop_
_space_group_symop_operation_xyz
x,y,z
1/2-x,-y,z
1/2+x,-y,1/2-z
-x,y,1/2-z
-x,-y,-z
1/2+x,y,-z
1/2-x,y,1/2+z
x,-y,1/2+z
loop_
_atom_site_type_symbol
_atom_site_label
_atom_site_fract_x
_atom_site_fract_y
_atom_site_fract_z
Si Si1 0.250000 0.500000 0.444530
Si Si2 0.984563 0.452463 0.145059
Si Si3 0.375771 0.175451 0.523917
Si Si4 0.029096 0.875553 0.143732
O O1 0.355453 0.511967 0.374945
O O2 0.264171 0.303791 0.508721
O O3 0.000000 0.355327 0.250000
O O4 0.029555 0.320298 0.060703
O O5 0.055935 0.649798 0.146173
O O6 0.420006 0.087538 0.423050
O O7 0.366278 0.999656 0.600399
O O8 0.000000 0.952232 0.250000
#
# Coordination Sequence:
#
# PCOD8222861 Si02
#       4
#     4   8   8   8
#     4  10  20  36  60  88 118 164 212 252 320 386
#     4  10  21  39  61  88 127 164 207 266 319 379
#     4  10  20  37  60  86 122 157 200 261 314 371
#     4   9  18  35  59  86 120 161 200 250 311 371
#
# _framework density 23.991758999999998
#
# number of rings (size 3 to 8) (size 9 to 14) (size 15 to 20)
#    0.000    2.286    0.000    4.286    0.000    1.143 
#    0.000   25.714    0.000   17.143    0.000    0.000 
#    0.000    0.000    0.000    0.000    0.000    0.000 
#
# Total GULP energy -346920.004000 kJ/mol
# GULP energy per Si atom -12390.000143 kJ/mol
# Density = 2.393715 g / cm^3
# Si number density = 23.991759 Si / 1000 Ang^3
#
#
#
# Elastic Constant Matrix: (Units=GPa)
#
#
# Indices 1 2 3 4 5 6 
#
# 1 85.0028 46.2556 35.6489 0.0000 0.0000 0.0000
# 2 46.2556 125.8925 50.5710 0.0000 0.0000 0.0000
# 3 35.6489 50.5710 164.3557 0.0000 0.0000 0.0000
# 4 0.0000 0.0000 0.0000 20.0117 0.0000 0.0000
# 5 0.0000 0.0000 0.0000 0.0000 20.1529 0.0000
# 6 0.0000 0.0000 0.0000 0.0000 0.0000 51.7602
#
#
#
# Elastic Compliance Matrix: (Units=1/GPa)
#
#
# Indices 1 2 3 4 5 6 
#
# 1 0.015155 -0.004847 -0.001796 0.000000 0.000000 0.000000
# 2 -0.004847 0.010614 -0.002214 0.000000 0.000000 0.000000
# 3 -0.001796 -0.002214 0.007155 0.000000 0.000000 0.000000
# 4 0.000000 0.000000 0.000000 0.049971 0.000000 0.000000
# 5 0.000000 0.000000 0.000000 0.000000 0.049621 0.000000
# 6 0.000000 0.000000 0.000000 0.000000 0.000000 0.019320
#
#
# Mechanical properties :
#
#
# Convention : Reuss Voigt Hill
#
# Bulk Modulus (GPa) = 65.74778 71.13356 68.44067
# Shear Modulus (GPa) = 28.63376 34.57001 31.60188
#
# Velocity S-wave (km/s) = 3.45843 3.80005 3.63326
# Velocity P-wave (km/s) = 6.58874 6.99767 6.79628
#
# Compressibility (1/GPa) = 0.01520964
#
# Stress axis : x y z
#
# Youngs Moduli (GPa) = 65.98507 94.21806 139.75767
#
# Poissons Ratio (x) = 0.45666 0.25097
# Poissons Ratio (y) = 0.31982 0.30949
# Poissons Ratio (z) = 0.11849 0.20864
#
# Static dielectric constant tensor:
#      x y z
#    x 3.755480 0.000000 0.000000 
#    y 0.000000 4.829960 0.000000 
#    z 0.000000 0.000000 4.523140 
# 
# 
# High freq. dielectric constant tensor:
#      x y z
#    x 1.900280 0.000000 0.000000 
#    y 0.000000 1.971590 0.000000 
#    z 0.000000 0.000000 1.961130 
# 
# From -- ./inp_files/12963.got.cif
#   From: 2010.03.12/outbox.cif.g09.slc.cpg/sg54_7_cif.got.tgz:12963.got - 2010.04.16 15:00:50.
