data_PCOD8222857
_publ_section_title
;
Structure prediction by ZEFSAII (Michael W. Deem and Ramdas Pophale) SiO2 
 PCOD8222857
Probable space group: P C C A
;
_chemical_formula_sum "Si O2"
_cell_formula_units_Z 60
_cell_length_a 14.338466
_cell_length_b 22.575087
_cell_length_c 9.246463
_cell_angle_alpha 90.000000
_cell_angle_beta 90.000000
_cell_angle_gamma 90.000000
_cell_volume 2993.007187
_symmetry_space_group_name_H-M "P C C A"
_symmetry_group_IT_number 54
_symmetry_cell_setting 'orthorhombic'
loop_
_space_group_symop_operation_xyz
x,y,z
1/2-x,-y,z
1/2+x,-y,1/2-z
-x,y,1/2-z
-x,-y,-z
1/2+x,y,-z
1/2-x,y,1/2+z
x,-y,1/2+z
loop_
_atom_site_type_symbol
_atom_site_label
_atom_site_fract_x
_atom_site_fract_y
_atom_site_fract_z
Si Si1 0.518808 0.558145 0.912273
Si Si2 0.842137 0.626131 0.061139
Si Si3 0.480981 0.850099 0.913974
Si Si4 0.250000 0.000000 0.778727
Si Si5 0.315456 0.181344 0.044440
Si Si6 0.323833 0.924138 0.036654
Si Si7 0.719931 0.567672 0.842309
Si Si8 0.675122 0.239772 0.155410
O O1 0.500000 0.538291 0.750000
O O2 0.451782 0.612286 0.957416
O O3 0.624740 0.579578 0.931129
O O4 0.500000 0.500000 0.000000
O O5 0.793636 0.581112 0.173463
O O6 0.831451 0.691806 0.119373
O O7 0.794825 0.613896 0.906571
O O8 0.500000 0.872910 0.750000
O O9 0.578870 0.837794 0.993802
O O10 0.416638 0.791534 0.909584
O O11 0.427094 0.898105 0.012277
O O12 0.173413 0.970593 0.669792
O O13 0.297950 0.951693 0.880970
O O14 0.253748 0.123992 0.083196
O O15 0.318780 0.228585 0.174288
O O16 0.270913 0.213836 0.907906
O O17 0.750000 0.500000 0.860901
#
# Coordination Sequence:
#
# PCOD8222857 Si02
#       8
#     8   8   8   4   8   8   8   8
#     4  10  22  37  56  79 110 147 185 227 281 348
#     4  11  23  37  58  86 112 145 193 239 293 348
#     4   9  19  36  61  81 113 153 198 232 294 354
#     4  10  20  36  60  86 130 150 202 244 282 334
#     4  10  20  39  62  81 115 153 196 236 300 349
#     4  10  20  38  58  88 117 164 190 243 289 343
#     4  11  22  37  58  78 111 149 186 229 285 356
#     4  10  21  37  59  86 112 145 192 248 290 347
#
# _framework density 20.046726
#
# number of rings (size 3 to 8) (size 9 to 14) (size 15 to 20)
#    0.000    1.867    1.333    3.600    1.867    5.867 
#    0.000   13.333    0.000    4.800    0.000    0.000 
#    0.000    0.000    0.000    0.000    0.000    0.000 
#
# Total GULP energy -743934.309039 kJ/mol
# GULP energy per Si atom -12398.905151 kJ/mol
# Density = 2.000110 g / cm^3
# Si number density = 20.046726 Si / 1000 Ang^3
#
#
#
# Elastic Constant Matrix: (Units=GPa)
#
#
# Indices 1 2 3 4 5 6 
#
# 1 137.9598 29.1937 24.4425 0.0000 0.0000 0.0000
# 2 29.1937 94.5819 19.1888 0.0000 0.0000 0.0000
# 3 24.4425 19.1888 47.4062 0.0000 0.0000 0.0000
# 4 0.0000 0.0000 0.0000 26.8779 0.0000 0.0000
# 5 0.0000 0.0000 0.0000 0.0000 28.8745 0.0000
# 6 0.0000 0.0000 0.0000 0.0000 0.0000 26.1123
#
#
#
# Elastic Compliance Matrix: (Units=1/GPa)
#
#
# Indices 1 2 3 4 5 6 
#
# 1 0.008260 -0.001836 -0.003516 0.000000 0.000000 0.000000
# 2 -0.001836 0.011927 -0.003881 0.000000 0.000000 0.000000
# 3 -0.003516 -0.003881 0.024478 0.000000 0.000000 0.000000
# 4 0.000000 0.000000 0.000000 0.037205 0.000000 0.000000
# 5 0.000000 0.000000 0.000000 0.000000 0.034633 0.000000
# 6 0.000000 0.000000 0.000000 0.000000 0.000000 0.038296
#
#
# Mechanical properties :
#
#
# Convention : Reuss Voigt Hill
#
# Bulk Modulus (GPa) = 38.16908 47.28864 42.72886
# Shear Modulus (GPa) = 27.47294 30.18114 28.82704
#
# Velocity S-wave (km/s) = 3.70597 3.88434 3.79620
# Velocity P-wave (km/s) = 6.11504 6.61497 6.36991
#
# Compressibility (1/GPa) = 0.02619921
#
# Stress axis : x y z
#
# Youngs Moduli (GPa) = 121.06674 83.84335 40.85336
#
# Poissons Ratio (x) = 0.15396 0.14362
# Poissons Ratio (y) = 0.22231 0.15855
# Poissons Ratio (z) = 0.42561 0.32539
#
# Static dielectric constant tensor:
#      x y z
#    x 3.895600 0.000000 0.000000 
#    y 0.000000 4.432160 0.000000 
#    z 0.000000 0.000000 3.650450 
# 
# 
# High freq. dielectric constant tensor:
#      x y z
#    x 1.787160 0.000000 0.000000 
#    y 0.000000 1.777730 0.000000 
#    z 0.000000 0.000000 1.777360 
# 
# From -- ./inp_files/3730.got.cif
#   From: 2010.03.12/outbox.cif.g09.slc.cpg/sg54_2_cif.got.tgz:3730.got - 2010.04.16 15:00:50.
