data_PCOD8222151
_publ_section_title
;
Structure prediction by ZEFSAII (Michael W. Deem and Ramdas Pophale) SiO2 
 PCOD8222151
Probable space group: P M N A
;
_chemical_formula_sum "Si O2"
_cell_formula_units_Z 48
_cell_length_a 16.852779
_cell_length_b 15.682673
_cell_length_c 8.662768
_cell_angle_alpha 90.000000
_cell_angle_beta 90.000000
_cell_angle_gamma 90.000000
_cell_volume 2289.540321
_symmetry_space_group_name_H-M "P M N A"
_symmetry_group_IT_number 53
_symmetry_cell_setting 'orthorhombic'
loop_
_space_group_symop_operation_xyz
x,y,z
1/2-x,-y,1/2+z
x,-y,-z
1/2-x,y,1/2-z
-x,-y,-z
1/2+x,y,1/2-z
-x,y,z
1/2+x,-y,1/2+z
loop_
_atom_site_type_symbol
_atom_site_label
_atom_site_fract_x
_atom_site_fract_y
_atom_site_fract_z
Si Si1 0.090897 0.508043 0.179460
Si Si2 0.409405 0.820191 0.361575
Si Si3 0.336852 0.656153 0.824153
Si Si4 0.660060 0.825428 0.690798
Si Si5 0.164918 0.989725 0.180489
Si Si6 0.833905 0.672796 0.312909
O O1 0.108554 0.421103 0.269433
O O2 0.146530 0.582312 0.239482
O O3 0.000000 0.532894 0.209432
O O4 0.109778 0.500000 0.000000
O O5 0.500000 0.816994 0.420064
O O6 0.349886 0.810690 0.506898
O O7 0.393819 0.911815 0.279638
O O8 0.396543 0.745160 0.237639
O O9 0.250000 0.645926 0.750000
O O10 0.381008 0.744175 0.772125
O O11 0.330925 0.658616 0.006290
O O12 0.750000 0.822609 0.750000
O O13 0.627536 0.919496 0.739899
O O14 0.250000 0.968552 0.250000
O O15 0.178302 0.000000 0.000000
O O16 0.750000 0.704818 0.250000
#
# Coordination Sequence:
#
# PCOD8222151 Si02
#       6
#     8   8   8   8   8   8
#     4  11  24  42  63  88 121 159 198 246 308 370
#     4  11  23  39  61  92 128 163 204 259 320 372
#     4  11  23  40  62  89 119 154 203 253 301 360
#     4   9  19  38  61  88 121 161 211 255 301 366
#     4   9  19  35  60  88 118 160 209 256 302 362
#     4  12  24  40  64  90 121 160 205 254 302 366
#
# _framework density 20.964907
#
# number of rings (size 3 to 8) (size 9 to 14) (size 15 to 20)
#    0.000    1.500    0.000    6.000    0.000   11.000 
#    0.000    0.000    0.000    3.500    0.000    0.000 
#    0.000    0.000    0.000    0.000    0.000    0.000 
#
# Total GULP energy -595002.386682 kJ/mol
# GULP energy per Si atom -12395.883056 kJ/mol
# Density = 2.091719 g / cm^3
# Si number density = 20.964907 Si / 1000 Ang^3
#
#
#
# Elastic Constant Matrix: (Units=GPa)
#
#
# Indices 1 2 3 4 5 6 
#
# 1 67.2516 34.6112 38.7724 0.0000 0.0000 0.0000
# 2 34.6112 166.6700 43.7695 0.0000 0.0000 0.0000
# 3 38.7724 43.7695 107.0312 0.0000 0.0000 0.0000
# 4 0.0000 0.0000 0.0000 14.6142 0.0000 0.0000
# 5 0.0000 0.0000 0.0000 0.0000 23.3960 0.0000
# 6 0.0000 0.0000 0.0000 0.0000 0.0000-1087.0732
#
#
#
# Elastic Compliance Matrix: (Units=1/GPa)
#
#
# Indices 1 2 3 4 5 6 
#
# 1 0.019669 -0.002480 -0.006111 0.000000 0.000000 0.000000
# 2 -0.002480 0.007034 -0.001978 0.000000 0.000000 0.000000
# 3 -0.006111 -0.001978 0.012366 0.000000 0.000000 0.000000
# 4 0.000000 0.000000 0.000000 0.068427 0.000000 0.000000
# 5 0.000000 0.000000 0.000000 0.000000 0.042742 0.000000
# 6 0.000000 0.000000 0.000000 0.000000 0.000000 -0.000920
#
#
# Mechanical properties :
#
#
# Convention : Reuss Voigt Hill
#
# Bulk Modulus (GPa) = 55.76969 63.91767 59.84368
# Shear Modulus (GPa) = 28.33930 -194.89262 -83.27666
#
# Velocity S-wave (km/s) = 3.68060 -9.65211 -6.30937
# Velocity P-wave (km/s) = 6.68742 9.67799 4.94681
#
# Compressibility (1/GPa) = 0.01793089
#
# Stress axis : x y z
#
# Youngs Moduli (GPa) = 50.84165 142.15932 80.86772
#
# Poissons Ratio (x) = 0.35251 0.49419
# Poissons Ratio (y) = 0.12607 0.15999
# Poissons Ratio (z) = 0.31070 0.28124
#
# Static dielectric constant tensor:
#      x y z
#    x 3.556490 0.000000 0.000000 
#    y 0.000000 4.644020 0.000000 
#    z 0.000000 0.000000 3.805680 
# 
# 
# High freq. dielectric constant tensor:
#      x y z
#    x 1.796220 0.000000 0.000000 
#    y 0.000000 1.854720 0.000000 
#    z 0.000000 0.000000 1.815870 
# 
# From -- ./inp_files/9968.got.cif
#   From: 2010.03.12/outbox.cif.g09.slc.cpg/sg53_5_cif.got.tgz:9968.got - 2010.04.16 14:36:59.
