data_PCOD8222972
_publ_section_title
;
Structure prediction by ZEFSAII (Michael W. Deem and Ramdas Pophale) SiO2 
 PCOD8222972
Probable space group: P C C A
;
_chemical_formula_sum "Si O2"
_cell_formula_units_Z 40
_cell_length_a 13.497600
_cell_length_b 6.556601
_cell_length_c 22.828350
_cell_angle_alpha 90.000000
_cell_angle_beta 90.000000
_cell_angle_gamma 90.000000
_cell_volume 2020.271940
_symmetry_space_group_name_H-M "P C C A"
_symmetry_group_IT_number 54
_symmetry_cell_setting 'orthorhombic'
loop_
_space_group_symop_operation_xyz
x,y,z
1/2-x,-y,z
1/2+x,-y,1/2-z
-x,y,1/2-z
-x,-y,-z
1/2+x,y,-z
1/2-x,y,1/2+z
x,-y,1/2+z
loop_
_atom_site_type_symbol
_atom_site_label
_atom_site_fract_x
_atom_site_fract_y
_atom_site_fract_z
Si Si1 0.346647 0.388159 0.993921
Si Si2 0.750000 0.000000 0.979423
Si Si3 0.429202 0.230819 0.196608
Si Si4 0.750000 0.500000 0.315216
Si Si5 0.998998 0.486689 0.593081
Si Si6 0.627211 0.839000 0.376112
O O1 0.250000 0.500000 0.017424
O O2 0.390139 0.495614 0.935597
O O3 0.308316 0.159947 0.979569
O O4 0.425623 0.391227 0.046057
O O5 0.836932 0.910846 0.939149
O O6 0.500000 0.172678 0.250000
O O7 0.342124 0.389519 0.218791
O O8 0.499588 0.336509 0.148222
O O9 0.384714 0.021930 0.170367
O O10 0.709908 0.682366 0.354423
O O11 0.025550 0.716288 0.613619
#
# Coordination Sequence:
#
# PCOD8222972 Si02
#       6
#     8   4   8   4   8   8
#     4  11  22  37  62  91 125 163 201 254 325 369
#     4  12  18  32  62  92 116 160 204 264 296 368
#     4  11  23  40  65  91 123 166 211 259 311 373
#     4  10  20  38  64  90 118 158 204 266 300 358
#     4  10  23  39  60  92 126 159 204 261 312 379
#     4  11  19  36  63  92 121 153 212 256 300 365
#
# _framework density 19.799313000000001
#
# number of rings (size 3 to 8) (size 9 to 14) (size 15 to 20)
#    0.000    1.200    6.000    1.200    1.400    5.600 
#    1.800    0.000    0.000    0.000    0.000    0.000 
#    0.000    0.000    0.000    0.000    0.000    0.000 
#
# Total GULP energy -495631.090370 kJ/mol
# GULP energy per Si atom -12390.777259 kJ/mol
# Density = 1.975425 g / cm^3
# Si number density = 19.799313 Si / 1000 Ang^3
#
#
#
# Elastic Constant Matrix: (Units=GPa)
#
#
# Indices 1 2 3 4 5 6 
#
# 1 84.8812 39.0522 35.8290 0.0000 0.0000 0.0000
# 2 39.0522 125.5345 32.3322 0.0000 0.0000 0.0000
# 3 35.8290 32.3322 69.1464 0.0000 0.0000 0.0000
# 4 0.0000 0.0000 0.0000 4.7470 0.0000 0.0000
# 5 0.0000 0.0000 0.0000 0.0000 11.1369 0.0000
# 6 0.0000 0.0000 0.0000 0.0000 0.0000 28.2823
#
#
#
# Elastic Compliance Matrix: (Units=1/GPa)
#
#
# Indices 1 2 3 4 5 6 
#
# 1 0.016178 -0.003267 -0.006855 0.000000 0.000000 0.000000
# 2 -0.003267 0.009716 -0.002850 0.000000 0.000000 0.000000
# 3 -0.006855 -0.002850 0.019347 0.000000 0.000000 0.000000
# 4 0.000000 0.000000 0.000000 0.210658 0.000000 0.000000
# 5 0.000000 0.000000 0.000000 0.000000 0.089791 0.000000
# 6 0.000000 0.000000 0.000000 0.000000 0.000000 0.035358
#
#
# Mechanical properties :
#
#
# Convention : Reuss Voigt Hill
#
# Bulk Modulus (GPa) = 51.82422 54.88766 53.35594
# Shear Modulus (GPa) = 12.09408 20.32317 16.20862
#
# Velocity S-wave (km/s) = 2.47419 3.20731 2.86430
# Velocity P-wave (km/s) = 5.86461 6.44189 6.16002
#
# Compressibility (1/GPa) = 0.01929600
#
# Stress axis : x y z
#
# Youngs Moduli (GPa) = 61.81267 102.91831 51.68778
#
# Poissons Ratio (x) = 0.33625 0.35432
# Poissons Ratio (y) = 0.20195 0.14733
# Poissons Ratio (z) = 0.42373 0.29336
#
# Static dielectric constant tensor:
#      x y z
#    x 3.910030 0.000000 0.000000 
#    y 0.000000 4.124140 0.000000 
#    z 0.000000 0.000000 3.252530 
# 
# 
# High freq. dielectric constant tensor:
#      x y z
#    x 1.767980 0.000000 0.000000 
#    y 0.000000 1.792970 0.000000 
#    z 0.000000 0.000000 1.725690 
# 
# From -- ./inp_files/24361.got.cif
#   From: 2010.03.12/outbox.cif.g09.slc.cpg/sg54_13_cif.got.tgz:24361.got - 2010.04.16 15:00:50.
