data_PCOD8222782
_publ_section_title
;
Structure prediction by ZEFSAII (Michael W. Deem and Ramdas Pophale) SiO2 
 PCOD8222782
Probable space group: P C C A
;
_chemical_formula_sum "Si O2"
_cell_formula_units_Z 40
_cell_length_a 20.206139
_cell_length_b 11.100425
_cell_length_c 7.729165
_cell_angle_alpha 90.000000
_cell_angle_beta 90.000000
_cell_angle_gamma 90.000000
_cell_volume 1733.626439
_symmetry_space_group_name_H-M "P C C A"
_symmetry_group_IT_number 54
_symmetry_cell_setting 'orthorhombic'
loop_
_space_group_symop_operation_xyz
x,y,z
1/2-x,-y,z
1/2+x,-y,1/2-z
-x,y,1/2-z
-x,-y,-z
1/2+x,y,-z
1/2-x,y,1/2+z
x,-y,1/2+z
loop_
_atom_site_type_symbol
_atom_site_label
_atom_site_fract_x
_atom_site_fract_y
_atom_site_fract_z
Si Si1 0.748655 0.711024 0.485997
Si Si2 0.109048 0.355198 0.909535
Si Si3 0.572348 0.803137 0.275840
Si Si4 0.610345 0.380771 0.478727
Si Si5 0.207069 0.112150 0.274379
O O1 0.688783 0.655026 0.596290
O O2 0.809574 0.619355 0.479378
O O3 0.719621 0.750019 0.299557
O O4 0.771293 0.850842 0.532708
O O5 0.086895 0.483962 0.984236
O O6 0.084065 0.340321 0.711192
O O7 0.077004 0.253345 0.031799
O O8 0.500000 0.862289 0.250000
O O9 0.580828 0.703699 0.126455
O O10 0.628083 0.908961 0.252889
O O11 0.250000 0.000000 0.207636
#
# Coordination Sequence:
#
# PCOD8222782 Si02
#       5
#     8   8   8   8   8
#     4  10  20  34  58  90 120 152 200 264 320 362
#     4  11  21  36  58  91 126 168 207 251 307 370
#     4  10  24  41  59  89 127 167 208 254 309 371
#     4  11  21  36  58  91 126 168 207 251 307 370
#     4  10  20  37  63  87 115 153 207 266 315 367
#
# _framework density 23.073021000000001
#
# number of rings (size 3 to 8) (size 9 to 14) (size 15 to 20)
#    0.000    1.600    4.000    1.200    0.000    3.200 
#    0.000    0.000    0.000   19.200    0.000    0.000 
#    0.000    0.000    0.000    0.000    0.000    0.000 
#
# Total GULP energy -495529.464958 kJ/mol
# GULP energy per Si atom -12388.236624 kJ/mol
# Density = 2.302051 g / cm^3
# Si number density = 23.073021 Si / 1000 Ang^3
#
#
#
# Elastic Constant Matrix: (Units=GPa)
#
#
# Indices 1 2 3 4 5 6 
#
# 1 121.1275 20.8066 -0.7370 0.0000 0.0000 0.0000
# 2 20.8066 59.9892 11.9274 0.0000 0.0000 0.0000
# 3 -0.7370 11.9274 118.0457 0.0000 0.0000 0.0000
# 4 0.0000 0.0000 0.0000 23.7761 0.0000 0.0000
# 5 0.0000 0.0000 0.0000 0.0000 15.1806 0.0000
# 6 0.0000 0.0000 0.0000 0.0000 0.0000 14.8900
#
#
#
# Elastic Compliance Matrix: (Units=1/GPa)
#
#
# Indices 1 2 3 4 5 6 
#
# 1 0.008795 -0.003124 0.000371 0.000000 0.000000 0.000000
# 2 -0.003124 0.018121 -0.001850 0.000000 0.000000 0.000000
# 3 0.000371 -0.001850 0.008661 0.000000 0.000000 0.000000
# 4 0.000000 0.000000 0.000000 0.042059 0.000000 0.000000
# 5 0.000000 0.000000 0.000000 0.000000 0.065874 0.000000
# 6 0.000000 0.000000 0.000000 0.000000 0.000000 0.067159
#
#
# Mechanical properties :
#
#
# Convention : Reuss Voigt Hill
#
# Bulk Modulus (GPa) = 37.92403 40.35071 39.13737
# Shear Modulus (GPa) = 21.86602 28.58038 25.22320
#
# Velocity S-wave (km/s) = 3.08179 3.52332 3.30993
# Velocity P-wave (km/s) = 5.39773 5.83763 5.62199
#
# Compressibility (1/GPa) = 0.02636851
#
# Stress axis : x y z
#
# Youngs Moduli (GPa) = 113.70557 55.18424 115.46566
#
# Poissons Ratio (x) = 0.17240 -0.04279
# Poissons Ratio (y) = 0.35522 0.21367
# Poissons Ratio (z) = -0.04213 0.10212
#
# Static dielectric constant tensor:
#      x y z
#    x 4.200840 0.000000 0.000000 
#    y 0.000000 3.471260 0.000000 
#    z 0.000000 0.000000 4.376020 
# 
# 
# High freq. dielectric constant tensor:
#      x y z
#    x 1.899520 0.000000 0.000000 
#    y 0.000000 1.867710 0.000000 
#    z 0.000000 0.000000 1.938720 
# 
# From -- ./inp_files/3993.got.cif
#   From: 2010.03.12/outbox.cif.g09.slc.cpg/sg54_2_cif.got.tgz:3993.got - 2010.04.16 15:00:50.
