data_PCOD8222482
_publ_section_title
;
Structure prediction by ZEFSAII (Michael W. Deem and Ramdas Pophale) SiO2 
 PCOD8222482
Probable space group: P C C A
;
_chemical_formula_sum "Si O2"
_cell_formula_units_Z 48
_cell_length_a 11.963943
_cell_length_b 13.779685
_cell_length_c 14.535457
_cell_angle_alpha 90.000000
_cell_angle_beta 90.000000
_cell_angle_gamma 90.000000
_cell_volume 2396.306224
_symmetry_space_group_name_H-M "P C C A"
_symmetry_group_IT_number 54
_symmetry_cell_setting 'orthorhombic'
loop_
_space_group_symop_operation_xyz
x,y,z
1/2-x,-y,z
1/2+x,-y,1/2-z
-x,y,1/2-z
-x,-y,-z
1/2+x,y,-z
1/2-x,y,1/2+z
x,-y,1/2+z
loop_
_atom_site_type_symbol
_atom_site_label
_atom_site_fract_x
_atom_site_fract_y
_atom_site_fract_z
Si Si1 0.221778 0.833192 0.429201
Si Si2 0.910954 0.971918 0.572798
Si Si3 0.313098 0.744245 0.260151
Si Si4 0.750000 0.500000 0.549331
Si Si5 0.500000 0.892958 0.250000
Si Si6 0.046719 0.421253 0.345815
Si Si7 0.671365 0.667821 0.431112
O O1 0.349605 0.868428 0.451383
O O2 0.215429 0.779621 0.329067
O O3 0.165301 0.766462 0.507916
O O4 0.166600 0.936031 0.416937
O O5 0.977748 0.963139 0.666398
O O6 0.000000 0.000000 0.500000
O O7 0.391083 0.830474 0.224125
O O8 0.387864 0.675621 0.322905
O O9 0.269613 0.690948 0.167449
O O10 0.864917 0.503009 0.609148
O O11 0.751739 0.595051 0.485740
O O12 0.000000 0.467772 0.250000
O O13 0.947662 0.386621 0.414889
#
# Coordination Sequence:
#
# PCOD8222482 Si02
#       7
#     8   8   8   4   4   8   8
#     4  10  22  38  58  93 126 161 214 261 313 386
#     4  10  22  36  60  91 124 162 211 263 313 375
#     4  10  19  38  61  85 119 172 205 247 316 383
#     4  12  24  40  66 100 124 160 224 268 318 392
#     4  10  18  36  60  78 116 164 204 244 314 378
#     4  10  22  41  64  91 124 169 210 258 329 387
#     4  11  22  39  66  89 127 166 209 263 323 380
#
# _framework density 20.030829000000001
#
# number of rings (size 3 to 8) (size 9 to 14) (size 15 to 20)
#    0.000    1.667    4.167    1.500    2.333    4.000 
#    0.000    3.333    1.833    0.000    0.000    0.000 
#    0.000    0.000    0.000    0.000    0.000    0.000 
#
# Total GULP energy -594728.742618 kJ/mol
# GULP energy per Si atom -12390.182138 kJ/mol
# Density = 1.998524 g / cm^3
# Si number density = 20.030829 Si / 1000 Ang^3
#
#
#
# Elastic Constant Matrix: (Units=GPa)
#
#
# Indices 1 2 3 4 5 6 
#
# 1 64.0041 17.1811 54.6423 0.0000 0.0000 0.0000
# 2 17.1811 72.7596 50.0695 0.0000 0.0000 0.0000
# 3 54.6423 50.0695 133.9952 0.0000 0.0000 0.0000
# 4 0.0000 0.0000 0.0000 28.8967 0.0000 0.0000
# 5 0.0000 0.0000 0.0000 0.0000 29.3464 0.0000
# 6 0.0000 0.0000 0.0000 0.0000 0.0000 17.4509
#
#
#
# Elastic Compliance Matrix: (Units=1/GPa)
#
#
# Indices 1 2 3 4 5 6 
#
# 1 0.024080 0.001442 -0.010359 0.000000 0.000000 0.000000
# 2 0.001442 0.018588 -0.007534 0.000000 0.000000 0.000000
# 3 -0.010359 -0.007534 0.014502 0.000000 0.000000 0.000000
# 4 0.000000 0.000000 0.000000 0.034606 0.000000 0.000000
# 5 0.000000 0.000000 0.000000 0.000000 0.034076 0.000000
# 6 0.000000 0.000000 0.000000 0.000000 0.000000 0.057304
#
#
# Mechanical properties :
#
#
# Convention : Reuss Voigt Hill
#
# Bulk Modulus (GPa) = 41.20346 57.17163 49.18755
# Shear Modulus (GPa) = 22.30687 25.06319 23.68503
#
# Velocity S-wave (km/s) = 3.34073 3.54111 3.44238
# Velocity P-wave (km/s) = 5.95779 6.73224 6.35682
#
# Compressibility (1/GPa) = 0.02426980
#
# Stress axis : x y z
#
# Youngs Moduli (GPa) = 41.52754 53.79918 68.95491
#
# Poissons Ratio (x) = -0.07758 0.71428
# Poissons Ratio (y) = -0.05989 0.51948
# Poissons Ratio (z) = 0.43017 0.40530
#
# Static dielectric constant tensor:
#      x y z
#    x -13.466030 0.000000 0.000000 
#    y 0.000000 3.669580 0.000000 
#    z 0.000000 0.000000 4.034460 
# 
# 
# High freq. dielectric constant tensor:
#      x y z
#    x 1.759270 0.000000 0.000000 
#    y 0.000000 1.783440 0.000000 
#    z 0.000000 0.000000 1.790230 
# 
# From -- ./inp_files/12655.got.cif
#   From: 2010.03.12/outbox.cif.g09.slc.cpg/sg54_7_cif.got.tgz:12655.got - 2010.04.16 15:00:50.
