data_PCOD8222001
_publ_section_title
;
Structure prediction by ZEFSAII (Michael W. Deem and Ramdas Pophale) SiO2 
 PCOD8222001
Probable space group: P M N A
;
_chemical_formula_sum "Si O2"
_cell_formula_units_Z 48
_cell_length_a 8.599671
_cell_length_b 13.534771
_cell_length_c 22.869147
_cell_angle_alpha 90.000000
_cell_angle_beta 90.000000
_cell_angle_gamma 90.000000
_cell_volume 2661.844707
_symmetry_space_group_name_H-M "P M N A"
_symmetry_group_IT_number 53
_symmetry_cell_setting 'orthorhombic'
loop_
_space_group_symop_operation_xyz
x,y,z
1/2-x,-y,1/2+z
x,-y,-z
1/2-x,y,1/2-z
-x,-y,-z
1/2+x,y,1/2-z
-x,y,z
1/2+x,-y,1/2+z
loop_
_atom_site_type_symbol
_atom_site_label
_atom_site_fract_x
_atom_site_fract_y
_atom_site_fract_z
Si Si1 0.829391 0.255860 0.596609
Si Si2 0.178474 0.743551 0.907197
Si Si3 0.816419 0.396986 0.314032
Si Si4 0.816952 0.394936 0.814042
Si Si5 0.684283 0.113150 0.003830
Si Si6 0.171460 0.607139 0.507087
O O1 0.721832 0.295089 0.649250
O O2 0.755355 0.168589 0.555524
O O3 0.851953 0.350744 0.556751
O O4 0.000000 0.222892 0.620859
O O5 0.267487 0.699893 0.851084
O O6 0.196224 0.663600 0.957970
O O7 0.000000 0.761559 0.890765
O O8 0.249144 0.844283 0.934890
O O9 0.750000 0.379702 0.250000
O O10 0.752433 0.501687 0.339954
O O11 0.000000 0.403933 0.311200
O O12 0.750000 0.376659 0.750000
O O13 0.000000 0.407810 0.810965
O O14 0.500000 0.128359 0.006351
O O15 0.735916 0.000000 0.000000
O O16 0.241011 0.500000 0.500000
O O17 0.000000 0.607924 0.538957
#
# Coordination Sequence:
#
# PCOD8222001 Si02
#       6
#     8   8   8   8   8   8
#     4   9  17  30  49  74 102 131 166 207 252 301
#     4  11  21  32  49  75 104 133 167 207 253 304
#     4  11  21  35  53  74 104 140 177 212 249 295
#     4  11  21  33  50  74 105 140 176 209 247 295
#     4   9  19  37  59  79 100 131 169 211 263 315
#     4   9  17  29  46  68  97 133 167 202 246 296
#
# _framework density 18.032608
#
# number of rings (size 3 to 8) (size 9 to 14) (size 15 to 20)
#    0.000    2.000    0.000    7.500    0.000    4.667 
#    0.000    0.000    0.000    1.000    0.000    4.667 
#    0.000    0.000    0.000    0.000    0.000    0.000 
#
# Total GULP energy -594666.831861 kJ/mol
# GULP energy per Si atom -12388.892330 kJ/mol
# Density = 1.799157 g / cm^3
# Si number density = 18.032608 Si / 1000 Ang^3
#
#
#
# Elastic Constant Matrix: (Units=GPa)
#
#
# Indices 1 2 3 4 5 6 
#
# 1 114.9865 33.6833 38.6123 0.0000 0.0000 0.0000
# 2 33.6833 133.5045 47.7408 0.0000 0.0000 0.0000
# 3 38.6123 47.7408 82.3733 0.0000 0.0000 0.0000
# 4 0.0000 0.0000 0.0000 28.1688 0.0000 0.0000
# 5 0.0000 0.0000 0.0000 0.0000 25.9615 0.0000
# 6 0.0000 0.0000 0.0000 0.0000 0.0000 19.2832
#
#
#
# Elastic Compliance Matrix: (Units=1/GPa)
#
#
# Indices 1 2 3 4 5 6 
#
# 1 0.010452 -0.001116 -0.004252 0.000000 0.000000 0.000000
# 2 -0.001116 0.009568 -0.005022 0.000000 0.000000 0.000000
# 3 -0.004252 -0.005022 0.017044 0.000000 0.000000 0.000000
# 4 0.000000 0.000000 0.000000 0.035500 0.000000 0.000000
# 5 0.000000 0.000000 0.000000 0.000000 0.038519 0.000000
# 6 0.000000 0.000000 0.000000 0.000000 0.000000 0.051859
#
#
# Mechanical properties :
#
#
# Convention : Reuss Voigt Hill
#
# Bulk Modulus (GPa) = 61.41698 63.43744 62.42721
# Shear Modulus (GPa) = 26.43425 28.73791 27.58608
#
# Velocity S-wave (km/s) = 3.83288 3.99640 3.91549
# Velocity P-wave (km/s) = 7.32944 7.52002 7.42534
#
# Compressibility (1/GPa) = 0.01628214
#
# Stress axis : x y z
#
# Youngs Moduli (GPa) = 95.67957 104.51645 58.67322
#
# Poissons Ratio (x) = 0.11668 0.24949
# Poissons Ratio (y) = 0.10682 0.29465
# Poissons Ratio (z) = 0.40684 0.52487
#
# Static dielectric constant tensor:
#      x y z
#    x 3.359670 0.000000 0.000000 
#    y 0.000000 3.350410 0.000000 
#    z 0.000000 0.000000 3.377630 
# 
# 
# High freq. dielectric constant tensor:
#      x y z
#    x 1.697830 0.000000 0.000000 
#    y 0.000000 1.676660 0.000000 
#    z 0.000000 0.000000 1.687690 
# 
# From -- ./inp_files/33969.got.cif
#   From: 2010.03.12/outbox.cif.g09.slc.cpg/sg53_17_cif.got.tgz:33969.got - 2010.04.16 14:36:59.
