data_PCOD8222182
_publ_section_title
;
Structure prediction by ZEFSAII (Michael W. Deem and Ramdas Pophale) SiO2 
 PCOD8222182
Probable space group: P M N A
;
_chemical_formula_sum "Si O2"
_cell_formula_units_Z 24
_cell_length_a 24.071427
_cell_length_b 7.186780
_cell_length_c 6.908208
_cell_angle_alpha 90.000000
_cell_angle_beta 90.000000
_cell_angle_gamma 90.000000
_cell_volume 1195.092698
_symmetry_space_group_name_H-M "P M N A"
_symmetry_group_IT_number 53
_symmetry_cell_setting 'orthorhombic'
loop_
_space_group_symop_operation_xyz
x,y,z
1/2-x,-y,1/2+z
x,-y,-z
1/2-x,y,1/2-z
-x,-y,-z
1/2+x,y,1/2-z
-x,y,z
1/2+x,-y,1/2+z
loop_
_atom_site_type_symbol
_atom_site_label
_atom_site_fract_x
_atom_site_fract_y
_atom_site_fract_z
Si Si1 0.391383 0.000000 0.000000
Si Si2 0.563291 0.638980 0.170236
Si Si3 0.641939 0.500000 0.500000
Si Si4 0.188599 0.859653 0.827045
O O1 0.353938 0.106382 0.154609
O O2 0.431050 0.850999 0.101832
O O3 0.500000 0.602520 0.234763
O O4 0.603263 0.608487 0.350542
O O5 0.580977 0.500000 0.000000
O O6 0.682139 0.647810 0.602631
O O7 0.250000 0.893511 0.750000
O O8 0.175407 0.000000 0.000000
#
# Coordination Sequence:
#
# PCOD8222182 Si02
#       4
#     4   8   4   8
#     4  12  23  44  68  94 132 178 213 268 324 388
#     4  11  24  42  67 100 135 172 216 267 326 386
#     4  12  25  44  68 100 132 172 215 276 320 388
#     4  12  26  43  69  97 133 170 219 271 328 384
#
# _framework density 20.082125999999999
#
# number of rings (size 3 to 8) (size 9 to 14) (size 15 to 20)
#    0.000    0.333    8.333    1.000    0.000    4.000 
#    0.000    1.667    0.000    0.000    0.000    0.000 
#    0.000    0.000    0.000    0.000    0.000    0.000 
#
# Total GULP energy -297784.945654 kJ/mol
# GULP energy per Si atom -12407.706069 kJ/mol
# Density = 2.003642 g / cm^3
# Si number density = 20.082126 Si / 1000 Ang^3
#
#
#
# Elastic Constant Matrix: (Units=GPa)
#
#
# Indices 1 2 3 4 5 6 
#
# 1 47.7945 1.2181 8.4564 0.0000 0.0000 0.0000
# 2 1.2181 120.5219 23.3599 0.0000 0.0000 0.0000
# 3 8.4564 23.3599 76.1742 0.0000 0.0000 0.0000
# 4 0.0000 0.0000 0.0000 47.1060 0.0000 0.0000
# 5 0.0000 0.0000 0.0000 0.0000 26.9699 0.0000
# 6 0.0000 0.0000 0.0000 0.0000 0.0000 35.4931
#
#
#
# Elastic Compliance Matrix: (Units=1/GPa)
#
#
# Indices 1 2 3 4 5 6 
#
# 1 0.021350 0.000259 -0.002450 0.000000 0.000000 0.000000
# 2 0.000259 0.008825 -0.002735 0.000000 0.000000 0.000000
# 3 -0.002450 -0.002735 0.014238 0.000000 0.000000 0.000000
# 4 0.000000 0.000000 0.000000 0.021229 0.000000 0.000000
# 5 0.000000 0.000000 0.000000 0.000000 0.037078 0.000000
# 6 0.000000 0.000000 0.000000 0.000000 0.000000 0.028175
#
#
# Mechanical properties :
#
#
# Convention : Reuss Voigt Hill
#
# Bulk Modulus (GPa) = 28.93364 34.50661 31.72012
# Shear Modulus (GPa) = 32.83722 36.01086 34.42404
#
# Velocity S-wave (km/s) = 4.04808 4.23919 4.14474
# Velocity P-wave (km/s) = 6.02397 6.41724 6.22371
#
# Compressibility (1/GPa) = 0.03456185
#
# Stress axis : x y z
#
# Youngs Moduli (GPa) = 46.83899 113.31793 70.23235
#
# Poissons Ratio (x) = -0.02935 0.17204
# Poissons Ratio (y) = -0.01213 0.19208
# Poissons Ratio (z) = 0.11473 0.30992
#
# Static dielectric constant tensor:
#      x y z
#    x 3.493870 0.000000 0.000000 
#    y 0.000000 3.720610 0.000000 
#    z 0.000000 0.000000 3.795130 
# 
# 
# High freq. dielectric constant tensor:
#      x y z
#    x 1.785180 0.000000 0.000000 
#    y 0.000000 1.799330 0.000000 
#    z 0.000000 0.000000 1.796590 
# 
# From -- ./inp_files/3286.got.cif
#   From: 2010.03.12/outbox.cif.g09.slc.cpg/sg53_2_cif.got.tgz:3286.got - 2010.04.16 14:36:59.
