data_PCOD8222635
_publ_section_title
;
Structure prediction by ZEFSAII (Michael W. Deem and Ramdas Pophale) SiO2 
 PCOD8222635
Probable space group: P C C A
;
_chemical_formula_sum "Si O2"
_cell_formula_units_Z 52
_cell_length_a 19.958107
_cell_length_b 8.780659
_cell_length_c 15.460918
_cell_angle_alpha 90.000000
_cell_angle_beta 90.000000
_cell_angle_gamma 90.000000
_cell_volume 2709.453706
_symmetry_space_group_name_H-M "P C C A"
_symmetry_group_IT_number 54
_symmetry_cell_setting 'orthorhombic'
loop_
_space_group_symop_operation_xyz
x,y,z
1/2-x,-y,z
1/2+x,-y,1/2-z
-x,y,1/2-z
-x,-y,-z
1/2+x,y,-z
1/2-x,y,1/2+z
x,-y,1/2+z
loop_
_atom_site_type_symbol
_atom_site_label
_atom_site_fract_x
_atom_site_fract_y
_atom_site_fract_z
Si Si1 0.918523 0.574906 0.089133
Si Si2 0.371641 0.908971 0.871264
Si Si3 0.250000 0.000000 0.778747
Si Si4 0.073045 0.051816 0.532184
Si Si5 0.617030 0.093337 0.789350
Si Si6 0.926233 0.594696 0.426427
Si Si7 0.922040 0.563692 0.760246
O O1 0.904467 0.752640 0.099065
O O2 0.886664 0.486110 0.170798
O O3 0.997208 0.543996 0.082318
O O4 0.888378 0.501982 0.001573
O O5 0.293981 0.889501 0.841742
O O6 0.411372 0.985219 0.788945
O O7 0.375466 0.020278 0.954103
O O8 0.301303 0.095290 0.717923
O O9 0.078871 0.227814 0.555213
O O10 0.092869 0.960629 0.617605
O O11 0.000000 0.000000 0.500000
O O12 0.589411 0.260944 0.778486
O O13 0.891575 0.543941 0.336207
O O14 0.000000 0.529339 0.750000
#
# Coordination Sequence:
#
# PCOD8222635 Si02
#       7
#     8   8   4   8   8   8   8
#     4  10  19  35  57  83 130 155 187 248 312 373
#     4  10  21  41  63  88 119 166 211 258 299 360
#     4   8  24  44  62  84 116 168 230 252 288 348
#     4  12  23  35  66  96 123 158 200 258 317 385
#     4  10  23  40  61  87 119 163 215 255 301 362
#     4  10  21  34  52  95 129 150 190 236 325 384
#     4  10  21  33  59  88 125 162 185 256 322 374
#
# _framework density 19.192062
#
# number of rings (size 3 to 8) (size 9 to 14) (size 15 to 20)
#    0.923    0.923    1.538    2.769    6.462    0.615 
#    0.000    0.769    0.000    1.846    0.000    0.000 
#    0.000    0.000    0.000    0.000    0.000    0.000 
#
# Total GULP energy -644274.770329 kJ/mol
# GULP energy per Si atom -12389.899429 kJ/mol
# Density = 1.914838 g / cm^3
# Si number density = 19.192062 Si / 1000 Ang^3
#
#
#
# Elastic Constant Matrix: (Units=GPa)
#
#
# Indices 1 2 3 4 5 6 
#
# 1 36.9655 14.6337 45.4781 0.0000 0.0000 0.0000
# 2 14.6337 119.5922 76.2844 0.0000 0.0000 0.0000
# 3 45.4781 76.2844 195.3510 0.0000 0.0000 0.0000
# 4 0.0000 0.0000 0.0000 43.8495 0.0000 0.0000
# 5 0.0000 0.0000 0.0000 0.0000 26.5584 0.0000
# 6 0.0000 0.0000 0.0000 0.0000 0.0000 2.7341
#
#
#
# Elastic Compliance Matrix: (Units=1/GPa)
#
#
# Indices 1 2 3 4 5 6 
#
# 1 0.038067 0.001325 -0.009379 0.000000 0.000000 0.000000
# 2 0.001325 0.011182 -0.004675 0.000000 0.000000 0.000000
# 3 -0.009379 -0.004675 0.009128 0.000000 0.000000 0.000000
# 4 0.000000 0.000000 0.000000 0.022805 0.000000 0.000000
# 5 0.000000 0.000000 0.000000 0.000000 0.037653 0.000000
# 6 0.000000 0.000000 0.000000 0.000000 0.000000 0.365747
#
#
# Mechanical properties :
#
#
# Convention : Reuss Voigt Hill
#
# Bulk Modulus (GPa) = 30.37855 69.41122 49.89488
# Shear Modulus (GPa) = 9.59668 28.99590 19.29629
#
# Velocity S-wave (km/s) = 2.23857 3.89115 3.17429
# Velocity P-wave (km/s) = 4.74812 7.51221 6.28402
#
# Compressibility (1/GPa) = 0.03291797
#
# Stress axis : x y z
#
# Youngs Moduli (GPa) = 26.26934 89.43283 109.55221
#
# Poissons Ratio (x) = -0.11849 1.02754
# Poissons Ratio (y) = -0.03480 0.51214
# Poissons Ratio (z) = 0.24639 0.41808
#
# Static dielectric constant tensor:
#      x y z
#    x 3.111420 0.000000 0.000000 
#    y 0.000000 3.383270 0.000000 
#    z 0.000000 0.000000 4.199390 
# 
# 
# High freq. dielectric constant tensor:
#      x y z
#    x 1.691840 0.000000 0.000000 
#    y 0.000000 1.748580 0.000000 
#    z 0.000000 0.000000 1.776180 
# 
# From -- ./inp_files/14932.got.cif
#   From: 2010.03.12/outbox.cif.g09.slc.cpg/sg54_8_cif.got.tgz:14932.got - 2010.04.16 15:00:50.
