data_PCOD8222268
_publ_section_title
;
Structure prediction by ZEFSAII (Michael W. Deem and Ramdas Pophale) SiO2 
 PCOD8222268
Probable space group: P M N A
;
_chemical_formula_sum "Si O2"
_cell_formula_units_Z 64
_cell_length_a 9.000000
_cell_length_b 15.000000
_cell_length_c 24.000000
_cell_angle_alpha 90.000000
_cell_angle_beta 90.000000
_cell_angle_gamma 90.000000
_cell_volume 3240.000000
_symmetry_space_group_name_H-M "P M N A"
_symmetry_group_IT_number 53
_symmetry_cell_setting 'orthorhombic'
loop_
_space_group_symop_operation_xyz
x,y,z
1/2-x,-y,1/2+z
x,-y,-z
1/2-x,y,1/2-z
-x,-y,-z
1/2+x,y,1/2-z
-x,y,z
1/2+x,-y,1/2+z
loop_
_atom_site_type_symbol
_atom_site_label
_atom_site_fract_x
_atom_site_fract_y
_atom_site_fract_z
Si Si1 0.676027 0.099573 0.020584
Si Si2 0.828117 0.380045 0.105314
Si Si3 0.676416 0.907801 0.637266
Si Si4 0.177491 0.742588 0.692789
Si Si5 0.175843 0.416455 0.904332
Si Si6 0.325506 0.711900 0.308088
Si Si7 0.171226 0.274466 0.992305
Si Si8 0.173241 0.910419 0.192058
O O1 0.500000 0.109278 0.028018
O O2 0.761537 0.115813 0.077409
O O3 0.736809 0.181802 0.982669
O O4 0.717726 0.000000 0.000000
O O5 0.722634 0.336017 0.150893
O O6 0.767822 0.480895 0.092751
O O7 0.000000 0.384502 0.125335
O O8 0.814104 0.313889 0.053608
O O9 0.500000 0.892357 0.639039
O O10 0.754335 0.839714 0.679414
O O11 0.720656 0.010671 0.650061
O O12 0.250000 0.711108 0.750000
O O13 0.000000 0.750168 0.696087
O O14 0.229811 0.366649 0.848408
O O15 0.237525 0.353657 0.953754
O O16 0.000000 0.418682 0.909566
O O17 0.250000 0.692544 0.250000
O O18 0.500000 0.706791 0.299454
O O19 0.282196 0.811634 0.330830
O O20 0.000000 0.252997 0.976727
O O21 0.250000 0.930557 0.250000
O O22 0.000000 0.915246 0.203686
#
# Coordination Sequence:
#
# PCOD8222268 Si02
#       8
#     8   8   8   8   8   8   8   8
#     4  11  25  41  57  85 125 163 195 238 299 357
#     4  10  20  38  61  90 121 152 197 250 304 360
#     4  11  22  38  61  88 116 152 198 248 299 358
#     4  12  25  41  62  88 123 163 205 253 306 365
#     4   9  19  35  61  90 117 152 197 249 299 355
#     4   9  18  35  55  80 115 151 188 235 290 345
#     4  10  20  37  64  90 117 155 200 247 298 358
#     4   9  19  33  53  80 110 144 186 230 279 339
#
# _framework density 19.753086
#
# number of rings (size 3 to 8) (size 9 to 14) (size 15 to 20)
#    0.000    1.875    1.250    2.625    1.750    5.000 
#    0.000    3.125    0.000    1.500    0.000    0.000 
#    0.000    0.000    0.000    0.000    0.000    0.000 
#
# Total GULP energy -793303.475655 kJ/mol
# GULP energy per Si atom -12395.366807 kJ/mol
# Density = 1.970813 g / cm^3
# Si number density = 19.753086 Si / 1000 Ang^3
#
#
#
# Elastic Constant Matrix: (Units=GPa)
#
#
# Indices 1 2 3 4 5 6 
#
# 1 81.7660 44.7415 28.7489 0.0000 0.0000 0.0000
# 2 44.7415 168.4260 32.7846 0.0000 0.0000 0.0000
# 3 28.7489 32.7846 63.8239 0.0000 0.0000 0.0000
# 4 0.0000 0.0000 0.0000 30.6854 0.0000 0.0000
# 5 0.0000 0.0000 0.0000 0.0000 24.2889 0.0000
# 6 0.0000 0.0000 0.0000 0.0000 0.0000 29.6412
#
#
#
# Elastic Compliance Matrix: (Units=1/GPa)
#
#
# Indices 1 2 3 4 5 6 
#
# 1 0.015901 -0.003144 -0.005547 0.000000 0.000000 0.000000
# 2 -0.003144 0.007219 -0.002292 0.000000 0.000000 0.000000
# 3 -0.005547 -0.002292 0.019344 0.000000 0.000000 0.000000
# 4 0.000000 0.000000 0.000000 0.032589 0.000000 0.000000
# 5 0.000000 0.000000 0.000000 0.000000 0.041171 0.000000
# 6 0.000000 0.000000 0.000000 0.000000 0.000000 0.033737
#
#
# Mechanical properties :
#
#
# Convention : Reuss Voigt Hill
#
# Bulk Modulus (GPa) = 48.78744 58.50732 53.64738
# Shear Modulus (GPa) = 27.97058 30.77250 29.37154
#
# Velocity S-wave (km/s) = 3.76707 3.95125 3.86026
# Velocity P-wave (km/s) = 6.60858 7.10635 6.86198
#
# Compressibility (1/GPa) = 0.02049708
#
# Stress axis : x y z
#
# Youngs Moduli (GPa) = 62.88940 138.52987 51.69546
#
# Poissons Ratio (x) = 0.43556 0.28677
# Poissons Ratio (y) = 0.19774 0.11847
# Poissons Ratio (z) = 0.34887 0.31748
#
# Static dielectric constant tensor:
#      x y z
#    x 3.465700 0.000000 0.000000 
#    y 0.000000 4.165840 0.000000 
#    z 0.000000 0.000000 3.560570 
# 
# 
# High freq. dielectric constant tensor:
#      x y z
#    x 1.752960 0.000000 0.000000 
#    y 0.000000 1.803260 0.000000 
#    z 0.000000 0.000000 1.761800 
# 
# From -- ./inp_files/34239.got.cif
#   From: 2010.03.12/outbox.ucp.g09.slc.cvg/sg53_18_cif.got.tgz:34239.got - 2010.05.04 19:20:06.
