data_PCOD8222807
_publ_section_title
;
Structure prediction by ZEFSAII (Michael W. Deem and Ramdas Pophale) SiO2 
 PCOD8222807
Probable space group: P C C A
;
_chemical_formula_sum "Si O2"
_cell_formula_units_Z 48
_cell_length_a 18.496605
_cell_length_b 6.058693
_cell_length_c 21.117922
_cell_angle_alpha 90.000000
_cell_angle_beta 90.000000
_cell_angle_gamma 90.000000
_cell_volume 2366.585235
_symmetry_space_group_name_H-M "P C C A"
_symmetry_group_IT_number 54
_symmetry_cell_setting 'orthorhombic'
loop_
_space_group_symop_operation_xyz
x,y,z
1/2-x,-y,z
1/2+x,-y,1/2-z
-x,y,1/2-z
-x,-y,-z
1/2+x,y,-z
1/2-x,y,1/2+z
x,-y,1/2+z
loop_
_atom_site_type_symbol
_atom_site_label
_atom_site_fract_x
_atom_site_fract_y
_atom_site_fract_z
Si Si1 0.562865 0.140166 0.863505
Si Si2 0.543019 0.187886 0.464846
Si Si3 0.750000 0.000000 0.221901
Si Si4 0.000000 0.908478 0.250000
Si Si5 0.370077 0.675415 0.809841
Si Si6 0.682155 0.375685 0.802676
Si Si7 0.939243 0.563038 0.582169
O O1 0.627050 0.320314 0.859807
O O2 0.488494 0.252782 0.884418
O O3 0.587896 0.938079 0.909684
O O4 0.553534 0.054997 0.792026
O O5 0.591008 0.325878 0.516522
O O6 0.485715 0.349237 0.433213
O O7 0.500000 0.000000 0.500000
O O8 0.693192 0.141573 0.178848
O O9 0.796517 0.153530 0.267203
O O10 0.049569 0.770960 0.298803
O O11 0.352783 0.539768 0.747510
O O12 0.374142 0.514438 0.871527
O O13 0.750000 0.500000 0.834515
#
# Coordination Sequence:
#
# PCOD8222807 Si02
#       7
#     8   8   4   4   8   8   8
#     4  11  20  34  55  87 125 154 194 258 302 362
#     4   9  20  35  54  86 117 150 196 249 301 344
#     4  10  22  38  52  82 126 162 196 232 302 366
#     4  12  20  32  58  92 126 144 194 248 320 362
#     4  11  21  35  55  87 125 159 195 250 301 369
#     4  10  22  36  54  84 124 163 196 235 303 367
#     4  10  20  35  57  86 119 154 196 251 304 347
#
# _framework density 20.282387
#
# number of rings (size 3 to 8) (size 9 to 14) (size 15 to 20)
#    0.000    1.667    3.333    2.000    0.000    0.000 
#    0.000    0.000    0.000    0.000    0.000   87.500 
#    0.000    0.000    0.000    0.000    0.000    0.000 
#
# Total GULP energy -594889.821556 kJ/mol
# GULP energy per Si atom -12393.537949 kJ/mol
# Density = 2.023622 g / cm^3
# Si number density = 20.282387 Si / 1000 Ang^3
#
#
#
# Elastic Constant Matrix: (Units=GPa)
#
#
# Indices 1 2 3 4 5 6 
#
# 1 85.9590 33.1794 38.2458 0.0000 0.0000 0.0000
# 2 33.1794 99.8439 43.5399 0.0000 0.0000 0.0000
# 3 38.2458 43.5399 107.2612 0.0000 0.0000 0.0000
# 4 0.0000 0.0000 0.0000 55.2825 0.0000 0.0000
# 5 0.0000 0.0000 0.0000 0.0000 3.9345 0.0000
# 6 0.0000 0.0000 0.0000 0.0000 0.0000 33.5910
#
#
#
# Elastic Compliance Matrix: (Units=1/GPa)
#
#
# Indices 1 2 3 4 5 6 
#
# 1 0.014592 -0.003135 -0.003931 0.000000 0.000000 0.000000
# 2 -0.003135 0.012844 -0.004096 0.000000 0.000000 0.000000
# 3 -0.003931 -0.004096 0.012387 0.000000 0.000000 0.000000
# 4 0.000000 0.000000 0.000000 0.018089 0.000000 0.000000
# 5 0.000000 0.000000 0.000000 0.000000 0.254160 0.000000
# 6 0.000000 0.000000 0.000000 0.000000 0.000000 0.029770
#
#
# Mechanical properties :
#
#
# Convention : Reuss Voigt Hill
#
# Bulk Modulus (GPa) = 57.14177 58.11046 57.62611
# Shear Modulus (GPa) = 13.51358 30.43486 21.97422
#
# Velocity S-wave (km/s) = 2.58402 3.87790 3.29510
# Velocity P-wave (km/s) = 6.09403 6.98310 6.55366
#
# Compressibility (1/GPa) = 0.01750033
#
# Stress axis : x y z
#
# Youngs Moduli (GPa) = 68.52875 77.86033 80.72966
#
# Poissons Ratio (x) = 0.24411 0.31731
# Poissons Ratio (y) = 0.21485 0.33063
# Poissons Ratio (z) = 0.26935 0.31888
#
# Static dielectric constant tensor:
#      x y z
#    x 3.243000 0.000000 0.000000 
#    y 0.000000 3.864140 0.000000 
#    z 0.000000 0.000000 3.865010 
# 
# 
# High freq. dielectric constant tensor:
#      x y z
#    x 1.753030 0.000000 0.000000 
#    y 0.000000 1.820150 0.000000 
#    z 0.000000 0.000000 1.781960 
# 
# From -- ./inp_files/24624.got.cif
#   From: 2010.03.12/outbox.cif.g09.slc.cpg/sg54_13_cif.got.tgz:24624.got - 2010.04.16 15:00:50.
