data_PCOD8222447
_publ_section_title
;
Structure prediction by ZEFSAII (Michael W. Deem and Ramdas Pophale) SiO2 
 PCOD8222447
Probable space group: P C C A
;
_chemical_formula_sum "Si O2"
_cell_formula_units_Z 64
_cell_length_a 25.114498
_cell_length_b 10.466719
_cell_length_c 12.608796
_cell_angle_alpha 90.000000
_cell_angle_beta 90.000000
_cell_angle_gamma 90.000000
_cell_volume 3314.428730
_symmetry_space_group_name_H-M "P C C A"
_symmetry_group_IT_number 54
_symmetry_cell_setting 'orthorhombic'
loop_
_space_group_symop_operation_xyz
x,y,z
1/2-x,-y,z
1/2+x,-y,1/2-z
-x,y,1/2-z
-x,-y,-z
1/2+x,y,-z
1/2-x,y,1/2+z
x,-y,1/2+z
loop_
_atom_site_type_symbol
_atom_site_label
_atom_site_fract_x
_atom_site_fract_y
_atom_site_fract_z
Si Si1 0.556010 0.835690 0.008496
Si Si2 0.905502 0.294581 0.631410
Si Si3 0.095026 0.470174 0.217448
Si Si4 0.477073 0.374819 0.553771
Si Si5 0.703541 0.324384 0.217124
Si Si6 0.850578 0.334048 0.930249
Si Si7 0.470454 0.054579 0.350096
Si Si8 0.686989 0.616170 0.161412
O O1 0.526220 0.720332 0.067351
O O2 0.566678 0.948451 0.093366
O O3 0.610533 0.784090 0.957513
O O4 0.518245 0.893160 0.920341
O O5 0.920530 0.421207 0.697812
O O6 0.927763 0.313440 0.512811
O O7 0.841556 0.267216 0.637267
O O8 0.933480 0.172750 0.685313
O O9 0.042849 0.400906 0.173170
O O10 0.119925 0.540488 0.114063
O O11 0.132219 0.359831 0.272667
O O12 0.500000 0.500000 0.500000
O O13 0.690395 0.286583 0.338971
O O14 0.701342 0.475319 0.200050
O O15 0.764794 0.285158 0.191347
O O16 0.819771 0.376737 0.035440
O O17 0.500000 0.991763 0.250000
#
# Coordination Sequence:
#
# PCOD8222447 Si02
#       8
#     8   8   8   8   8   8   8   8
#     4  10  22  35  52  79 106 144 184 220 274 314
#     4   9  20  34  53  76 103 147 187 218 268 326
#     4  10  19  32  51  81 112 147 179 212 278 342
#     4  11  21  32  49  80 115 146 171 220 274 337
#     4   9  19  32  52  79 102 145 179 212 273 324
#     4  10  18  34  49  73 110 136 176 221 263 318
#     4  10  20  37  55  73 103 144 192 226 254 318
#     4   9  19  31  50  79 108 138 172 220 270 324
#
# _framework density 19.309511000000001
#
# number of rings (size 3 to 8) (size 9 to 14) (size 15 to 20)
#    0.000    2.500    1.250    3.000    1.750    6.000 
#    0.000    0.000    0.000    0.750    0.000    3.500 
#    0.000    0.000    0.000    0.000    0.000    0.000 
#
# Total GULP energy -792918.466297 kJ/mol
# GULP energy per Si atom -12389.351036 kJ/mol
# Density = 1.926556 g / cm^3
# Si number density = 19.309511 Si / 1000 Ang^3
#
#
#
# Elastic Constant Matrix: (Units=GPa)
#
#
# Indices 1 2 3 4 5 6 
#
# 1 85.2739 28.4871 44.3929 0.0000 0.0000 0.0000
# 2 28.4871 53.8645 21.8263 0.0000 0.0000 0.0000
# 3 44.3929 21.8263 66.6909 0.0000 0.0000 0.0000
# 4 0.0000 0.0000 0.0000 21.3652 0.0000 0.0000
# 5 0.0000 0.0000 0.0000 0.0000 27.7951 0.0000
# 6 0.0000 0.0000 0.0000 0.0000 0.0000 16.5559
#
#
#
# Elastic Compliance Matrix: (Units=1/GPa)
#
#
# Indices 1 2 3 4 5 6 
#
# 1 0.019397 -0.005795 -0.011015 0.000000 0.000000 0.000000
# 2 -0.005795 0.023135 -0.003714 0.000000 0.000000 0.000000
# 3 -0.011015 -0.003714 0.023542 0.000000 0.000000 0.000000
# 4 0.000000 0.000000 0.000000 0.046805 0.000000 0.000000
# 5 0.000000 0.000000 0.000000 0.000000 0.035978 0.000000
# 6 0.000000 0.000000 0.000000 0.000000 0.000000 0.060401
#
#
# Mechanical properties :
#
#
# Convention : Reuss Voigt Hill
#
# Bulk Modulus (GPa) = 39.95860 43.91577 41.93719
# Shear Modulus (GPa) = 19.33120 20.55144 19.94132
#
# Velocity S-wave (km/s) = 3.16749 3.26593 3.21708
# Velocity P-wave (km/s) = 5.84089 6.08393 5.96364
#
# Compressibility (1/GPa) = 0.02502590
#
# Stress axis : x y z
#
# Youngs Moduli (GPa) = 51.55349 43.22478 42.47664
#
# Poissons Ratio (x) = 0.25049 0.46789
# Poissons Ratio (y) = 0.29876 0.15776
# Poissons Ratio (z) = 0.56787 0.16053
#
# Static dielectric constant tensor:
#      x y z
#    x 4.627300 0.000000 0.000000 
#    y 0.000000 3.377260 0.000000 
#    z 0.000000 0.000000 3.640300 
# 
# 
# High freq. dielectric constant tensor:
#      x y z
#    x 1.749010 0.000000 0.000000 
#    y 0.000000 1.705390 0.000000 
#    z 0.000000 0.000000 1.757890 
# 
# From -- ./inp_files/10394.got.cif
#   From: 2010.03.12/outbox.cif.g09.slc.cpg/sg54_6_cif.got.tgz:10394.got - 2010.04.16 15:00:50.
