data_PCOD8222676
_publ_section_title
;
Structure prediction by ZEFSAII (Michael W. Deem and Ramdas Pophale) SiO2 
 PCOD8222676
Probable space group: P C C A
;
_chemical_formula_sum "Si O2"
_cell_formula_units_Z 60
_cell_length_a 14.925753
_cell_length_b 9.167836
_cell_length_c 21.715173
_cell_angle_alpha 90.000000
_cell_angle_beta 90.000000
_cell_angle_gamma 90.000000
_cell_volume 2971.435994
_symmetry_space_group_name_H-M "P C C A"
_symmetry_group_IT_number 54
_symmetry_cell_setting 'orthorhombic'
loop_
_space_group_symop_operation_xyz
x,y,z
1/2-x,-y,z
1/2+x,-y,1/2-z
-x,y,1/2-z
-x,-y,-z
1/2+x,y,-z
1/2-x,y,1/2+z
x,-y,1/2+z
loop_
_atom_site_type_symbol
_atom_site_label
_atom_site_fract_x
_atom_site_fract_y
_atom_site_fract_z
Si Si1 0.669462 0.809993 0.950132
Si Si2 0.918499 0.684165 0.665879
Si Si3 0.227403 0.160634 0.278574
Si Si4 0.500000 0.549288 0.750000
Si Si5 0.616000 0.781728 0.811374
Si Si6 0.574765 0.104749 0.816716
Si Si7 0.027585 0.346305 0.473616
Si Si8 0.630084 0.137592 0.952502
O O1 0.663433 0.772831 0.877606
O O2 0.772935 0.798406 0.970331
O O3 0.627286 0.966412 0.968903
O O4 0.616173 0.692924 0.989118
O O5 0.813419 0.736714 0.666973
O O6 0.930062 0.547989 0.711724
O O7 0.947724 0.639387 0.597828
O O8 0.978546 0.819694 0.690690
O O9 0.313325 0.226562 0.244638
O O10 0.146740 0.161087 0.230870
O O11 0.250000 0.000000 0.304704
O O12 0.549926 0.646869 0.801125
O O13 0.559345 0.931488 0.809736
O O14 0.618870 0.152435 0.880172
O O15 0.000000 0.500000 0.500000
O O16 0.948493 0.228096 0.486421
#
# Coordination Sequence:
#
# PCOD8222676 Si02
#       8
#     8   8   8   4   8   8   8   8
#     4  10  19  41  64  91 121 149 211 262 301 364
#     4  11  23  41  59  87 126 167 202 254 314 371
#     4  10  19  36  62  89 118 153 205 255 306 367
#     4  12  24  36  54  86 130 162 194 246 316 380
#     4  10  22  35  62  93 117 157 201 251 309 366
#     4   9  17  37  64  88 117 149 200 254 303 363
#     4  11  24  41  61  88 126 169 208 249 314 378
#     4   9  19  37  67  94 112 152 205 265 307 354
#
# _framework density 20.192257000000001
#
# number of rings (size 3 to 8) (size 9 to 14) (size 15 to 20)
#    0.000    1.867    2.667    1.200    3.733    1.067 
#    2.400    5.333    0.000    0.000    0.000    0.000 
#    0.000    0.000    0.000    0.000    0.000    0.000 
#
# Total GULP energy -743791.843284 kJ/mol
# GULP energy per Si atom -12396.530721 kJ/mol
# Density = 2.014630 g / cm^3
# Si number density = 20.192257 Si / 1000 Ang^3
#
#
#
# Elastic Constant Matrix: (Units=GPa)
#
#
# Indices 1 2 3 4 5 6 
#
# 1 93.4259 53.7760 27.1666 0.0000 0.0000 0.0000
# 2 53.7760 110.4478 38.3565 0.0000 0.0000 0.0000
# 3 27.1666 38.3565 46.8867 0.0000 0.0000 0.0000
# 4 0.0000 0.0000 0.0000 32.2795 0.0000 0.0000
# 5 0.0000 0.0000 0.0000 0.0000 24.4427 0.0000
# 6 0.0000 0.0000 0.0000 0.0000 0.0000 32.6600
#
#
#
# Elastic Compliance Matrix: (Units=1/GPa)
#
#
# Indices 1 2 3 4 5 6 
#
# 1 0.015362 -0.006130 -0.003886 0.000000 0.000000 0.000000
# 2 -0.006130 0.015093 -0.008795 0.000000 0.000000 0.000000
# 3 -0.003886 -0.008795 0.030775 0.000000 0.000000 0.000000
# 4 0.000000 0.000000 0.000000 0.030979 0.000000 0.000000
# 5 0.000000 0.000000 0.000000 0.000000 0.040912 0.000000
# 6 0.000000 0.000000 0.000000 0.000000 0.000000 0.030618
#
#
# Mechanical properties :
#
#
# Convention : Reuss Voigt Hill
#
# Bulk Modulus (GPa) = 42.36034 54.37316 48.36675
# Shear Modulus (GPa) = 23.89682 26.64052 25.26867
#
# Velocity S-wave (km/s) = 3.44388 3.63622 3.54136
# Velocity P-wave (km/s) = 6.06942 6.67949 6.38175
#
# Compressibility (1/GPa) = 0.02360699
#
# Stress axis : x y z
#
# Youngs Moduli (GPa) = 65.09488 66.25476 32.49392
#
# Poissons Ratio (x) = 0.40615 0.12628
# Poissons Ratio (y) = 0.39904 0.28580
# Poissons Ratio (z) = 0.25297 0.58274
#
# Static dielectric constant tensor:
#      x y z
#    x 3.868570 0.000000 0.000000 
#    y 0.000000 3.701060 0.000000 
#    z 0.000000 0.000000 3.573270 
# 
# 
# High freq. dielectric constant tensor:
#      x y z
#    x 1.790800 0.000000 0.000000 
#    y 0.000000 1.784060 0.000000 
#    z 0.000000 0.000000 1.776800 
# 
# From -- ./inp_files/24467.got.cif
#   From: 2010.03.12/outbox.cif.g09.slc.cpg/sg54_13_cif.got.tgz:24467.got - 2010.04.16 15:00:50.
