data_PCOD8222179
_publ_section_title
;
Structure prediction by ZEFSAII (Michael W. Deem and Ramdas Pophale) SiO2 
 PCOD8222179
Probable space group: P M N A
;
_chemical_formula_sum "Si O2"
_cell_formula_units_Z 32
_cell_length_a 33.613984
_cell_length_b 8.518637
_cell_length_c 4.849687
_cell_angle_alpha 90.000000
_cell_angle_beta 90.000000
_cell_angle_gamma 90.000000
_cell_volume 1388.685214
_symmetry_space_group_name_H-M "P M N A"
_symmetry_group_IT_number 53
_symmetry_cell_setting 'orthorhombic'
loop_
_space_group_symop_operation_xyz
x,y,z
1/2-x,-y,1/2+z
x,-y,-z
1/2-x,y,1/2-z
-x,-y,-z
1/2+x,y,1/2-z
-x,y,z
1/2+x,-y,1/2+z
loop_
_atom_site_type_symbol
_atom_site_label
_atom_site_fract_x
_atom_site_fract_y
_atom_site_fract_z
Si Si1 0.793248 0.672070 0.879545
Si Si2 0.579906 0.832714 0.118206
Si Si3 0.328352 0.831343 0.111188
Si Si4 0.453774 0.666707 0.616902
O O1 0.750000 0.695462 0.750000
O O2 0.824033 0.702902 0.631825
O O3 0.799868 0.500000 0.000000
O O4 0.800501 0.793412 0.127911
O O5 0.625986 0.833289 0.205939
O O6 0.554584 0.801018 0.392027
O O7 0.571057 0.699295 0.892742
O O8 0.566268 0.000000 0.000000
O O9 0.314434 0.000000 0.000000
O O10 0.439190 0.500000 0.500000
O O11 0.500000 0.663408 0.695740
#
# Coordination Sequence:
#
# PCOD8222179 Si02
#       4
#     8   8   8   8
#     4  12  25  44  67  95 129 166 210 261 317 379
#     4  11  24  42  65  95 129 167 214 265 316 376
#     4  11  25  44  67  96 129 166 213 264 316 378
#     4  11  24  41  63  94 131 170 215 264 315 376
#
# _framework density 23.043379999999999
#
# number of rings (size 3 to 8) (size 9 to 14) (size 15 to 20)
#    0.000    0.750    0.000    7.500    0.000   17.000 
#    0.000    1.250    0.000    0.000    0.000    0.000 
#    0.000    0.000    0.000    0.000    0.000    0.000 
#
# Total GULP energy -397041.858521 kJ/mol
# GULP energy per Si atom -12407.558079 kJ/mol
# Density = 2.299093 g / cm^3
# Si number density = 23.043380 Si / 1000 Ang^3
#
#
#
# Elastic Constant Matrix: (Units=GPa)
#
#
# Indices 1 2 3 4 5 6 
#
# 1 41.2238 36.2069 9.8934 0.0000 0.0000 0.0000
# 2 36.2069 75.3316 13.1178 0.0000 0.0000 0.0000
# 3 9.8934 13.1178 113.8065 0.0000 0.0000 0.0000
# 4 0.0000 0.0000 0.0000 47.2675 0.0000 0.0000
# 5 0.0000 0.0000 0.0000 0.0000 32.9258 0.0000
# 6 0.0000 0.0000 0.0000 0.0000 0.0000 -40.5998
#
#
#
# Elastic Compliance Matrix: (Units=1/GPa)
#
#
# Indices 1 2 3 4 5 6 
#
# 1 0.042183 -0.020038 -0.001357 0.000000 0.000000 0.000000
# 2 -0.020038 0.023065 -0.000917 0.000000 0.000000 0.000000
# 3 -0.001357 -0.000917 0.009011 0.000000 0.000000 0.000000
# 4 0.000000 0.000000 0.000000 0.021156 0.000000 0.000000
# 5 0.000000 0.000000 0.000000 0.000000 0.030371 0.000000
# 6 0.000000 0.000000 0.000000 0.000000 0.000000 -0.024631
#
#
# Mechanical properties :
#
#
# Convention : Reuss Voigt Hill
#
# Bulk Modulus (GPa) = 33.74452 38.75534 36.24993
# Shear Modulus (GPa) = 32.12159 19.32828 25.72493
#
# Velocity S-wave (km/s) = 3.73763 2.89931 3.34484
# Velocity P-wave (km/s) = 5.77081 5.29744 5.53918
#
# Compressibility (1/GPa) = 0.02963444
#
# Stress axis : x y z
#
# Youngs Moduli (GPa) = 23.70614 43.35512 110.98162
#
# Poissons Ratio (x) = 0.86876 0.15064
# Poissons Ratio (y) = 0.47503 0.10173
# Poissons Ratio (z) = 0.03218 0.03974
#
# Static dielectric constant tensor:
#      x y z
#    x 3.959700 0.000000 0.000000 
#    y 0.000000 4.254740 0.000000 
#    z 0.000000 0.000000 4.520990 
# 
# 
# High freq. dielectric constant tensor:
#      x y z
#    x 1.903720 0.000000 0.000000 
#    y 0.000000 1.917590 0.000000 
#    z 0.000000 0.000000 1.930620 
# 
# From -- ./inp_files/5023.got.cif
#   From: 2010.03.12/outbox.cif.g09.slc.cpg/sg53_3_cif.got.tgz:5023.got - 2010.04.16 14:36:59.
