data_PCOD8222358
_publ_section_title
;
Structure prediction by ZEFSAII (Michael W. Deem and Ramdas Pophale) SiO2 
 PCOD8222358
Probable space group: P C C A
;
_chemical_formula_sum "Si O2"
_cell_formula_units_Z 28
_cell_length_a 5.212358
_cell_length_b 8.378179
_cell_length_c 28.916924
_cell_angle_alpha 90.000000
_cell_angle_beta 90.000000
_cell_angle_gamma 90.000000
_cell_volume 1262.804047
_symmetry_space_group_name_H-M "P C C A"
_symmetry_group_IT_number 54
_symmetry_cell_setting 'orthorhombic'
loop_
_space_group_symop_operation_xyz
x,y,z
1/2-x,-y,z
1/2+x,-y,1/2-z
-x,y,1/2-z
-x,-y,-z
1/2+x,y,-z
1/2-x,y,1/2+z
x,-y,1/2+z
loop_
_atom_site_type_symbol
_atom_site_label
_atom_site_fract_x
_atom_site_fract_y
_atom_site_fract_z
Si Si1 0.000000 0.603671 0.250000
Si Si2 0.008536 0.321281 0.479857
Si Si3 0.497583 0.394586 0.874769
Si Si4 0.344515 0.172287 0.797896
O O1 0.250000 0.500000 0.233553
O O2 0.093132 0.715778 0.291810
O O3 0.752878 0.231522 0.497596
O O4 0.000000 0.500000 0.500000
O O5 0.030526 0.316563 0.424918
O O6 0.250000 0.500000 0.862955
O O7 0.519357 0.251221 0.837559
O O8 0.750000 0.500000 0.872235
O O9 0.500000 0.159020 0.750000
O O10 0.250000 0.000000 0.814510
#
# Coordination Sequence:
#
# PCOD8222358 Si02
#       4
#     4   8   8   8
#     4  12  26  46  72  98 124 172 238 294 334 394
#     4  10  16  35  60  95 135 166 205 283 352 388
#     4  12  25  38  69 106 128 173 238 287 326 408
#     4  12  29  48  67  94 146 192 225 279 360 415
#
# _framework density 22.172877
#
# number of rings (size 3 to 8) (size 9 to 14) (size 15 to 20)
#    0.000    0.571    8.571    0.857    8.000    0.000 
#    0.000    0.000    0.000    1.714    0.000    0.000 
#    0.000    0.000    0.000    0.000    0.000    0.000 
#
# Total GULP energy -347059.653665 kJ/mol
# GULP energy per Si atom -12394.987631 kJ/mol
# Density = 2.212241 g / cm^3
# Si number density = 22.172877 Si / 1000 Ang^3
#
#
#
# Elastic Constant Matrix: (Units=GPa)
#
#
# Indices 1 2 3 4 5 6 
#
# 1 159.4453 33.8476 7.5823 0.0000 0.0000 0.0000
# 2 33.8476 91.4347 29.9974 0.0000 0.0000 0.0000
# 3 7.5823 29.9974 135.7880 0.0000 0.0000 0.0000
# 4 0.0000 0.0000 0.0000 7.0586 0.0000 0.0000
# 5 0.0000 0.0000 0.0000 0.0000 10.7381 0.0000
# 6 0.0000 0.0000 0.0000 0.0000 0.0000 14.1155
#
#
#
# Elastic Compliance Matrix: (Units=1/GPa)
#
#
# Indices 1 2 3 4 5 6 
#
# 1 0.006811 -0.002584 0.000190 0.000000 0.000000 0.000000
# 2 -0.002584 0.012772 -0.002677 0.000000 0.000000 0.000000
# 3 0.000190 -0.002677 0.007945 0.000000 0.000000 0.000000
# 4 0.000000 0.000000 0.000000 0.141670 0.000000 0.000000
# 5 0.000000 0.000000 0.000000 0.000000 0.093127 0.000000
# 6 0.000000 0.000000 0.000000 0.000000 0.000000 0.070844
#
#
# Mechanical properties :
#
#
# Convention : Reuss Voigt Hill
#
# Bulk Modulus (GPa) = 57.51454 58.83585 58.17519
# Shear Modulus (GPa) = 14.32231 27.39850 20.86040
#
# Velocity S-wave (km/s) = 2.54429 3.51903 3.07059
# Velocity P-wave (km/s) = 5.88444 6.56537 6.23421
#
# Compressibility (1/GPa) = 0.01738691
#
# Stress axis : x y z
#
# Youngs Moduli (GPa) = 146.81698 78.29892 125.86219
#
# Poissons Ratio (x) = 0.20232 -0.02397
# Poissons Ratio (y) = 0.37936 0.33695
# Poissons Ratio (z) = -0.02797 0.20962
#
# Static dielectric constant tensor:
#      x y z
#    x 7.021450 0.000000 0.000000 
#    y 0.000000 4.003190 0.000000 
#    z 0.000000 0.000000 4.064470 
# 
# 
# High freq. dielectric constant tensor:
#      x y z
#    x 1.903270 0.000000 0.000000 
#    y 0.000000 1.821930 0.000000 
#    z 0.000000 0.000000 1.877160 
# 
# From -- ./inp_files/26802.got.cif
#   From: 2010.03.12/outbox.cif.g09.slc.cpg/sg54_14_cif.got.tgz:26802.got - 2010.04.16 15:00:50.
