data_PCOD8222788
_publ_section_title
;
Structure prediction by ZEFSAII (Michael W. Deem and Ramdas Pophale) SiO2 
 PCOD8222788
Probable space group: P C C A
;
_chemical_formula_sum "Si O2"
_cell_formula_units_Z 40
_cell_length_a 8.686879
_cell_length_b 10.436898
_cell_length_c 22.490417
_cell_angle_alpha 90.000000
_cell_angle_beta 90.000000
_cell_angle_gamma 90.000000
_cell_volume 2039.072743
_symmetry_space_group_name_H-M "P C C A"
_symmetry_group_IT_number 54
_symmetry_cell_setting 'orthorhombic'
loop_
_space_group_symop_operation_xyz
x,y,z
1/2-x,-y,z
1/2+x,-y,1/2-z
-x,y,1/2-z
-x,-y,-z
1/2+x,y,-z
1/2-x,y,1/2+z
x,-y,1/2+z
loop_
_atom_site_type_symbol
_atom_site_label
_atom_site_fract_x
_atom_site_fract_y
_atom_site_fract_z
Si Si1 0.742521 0.850872 0.674727
Si Si2 0.000000 0.275997 0.750000
Si Si3 0.168266 0.863089 0.949234
Si Si4 0.000000 0.274512 0.250000
Si Si5 0.760786 0.361221 0.334786
Si Si6 0.195542 0.857242 0.568817
O O1 0.577620 0.812023 0.699740
O O2 0.768864 0.787654 0.609205
O O3 0.873229 0.816987 0.721470
O O4 0.750000 0.000000 0.663010
O O5 0.125565 0.358930 0.714715
O O6 0.984954 0.869100 0.944094
O O7 0.250000 0.000000 0.955026
O O8 0.217398 0.796750 0.011233
O O9 0.076896 0.362305 0.199880
O O10 0.750000 0.500000 0.367698
O O11 0.759704 0.240787 0.378846
O O12 0.250000 0.000000 0.587378
#
# Coordination Sequence:
#
# PCOD8222788 Si02
#       6
#     8   4   8   4   8   8
#     4  10  20  34  59  93 124 150 198 253 305 358
#     4  10  24  36  62  84 121 166 197 248 301 374
#     4  10  21  37  62  90 125 158 199 247 306 363
#     4  10  20  40  58  84 121 160 203 240 311 362
#     4  11  24  42  63  87 122 161 205 249 305 363
#     4  11  23  39  66  90 121 161 205 254 302 360
#
# _framework density 19.616758999999998
#
# number of rings (size 3 to 8) (size 9 to 14) (size 15 to 20)
#    0.000    1.600    2.000    3.600    8.400    3.200 
#    0.000    1.000    0.000    0.000    0.000    0.000 
#    0.000    0.000    0.000    0.000    0.000    0.000 
#
# Total GULP energy -495689.721396 kJ/mol
# GULP energy per Si atom -12392.243035 kJ/mol
# Density = 1.957211 g / cm^3
# Si number density = 19.616759 Si / 1000 Ang^3
#
#
#
# Elastic Constant Matrix: (Units=GPa)
#
#
# Indices 1 2 3 4 5 6 
#
# 1 119.0131 26.2200 42.2650 0.0000 0.0000 0.0000
# 2 26.2200 88.8639 46.6616 0.0000 0.0000 0.0000
# 3 42.2650 46.6616 127.0728 0.0000 0.0000 0.0000
# 4 0.0000 0.0000 0.0000 -41.3939 0.0000 0.0000
# 5 0.0000 0.0000 0.0000 0.0000 18.2123 0.0000
# 6 0.0000 0.0000 0.0000 0.0000 0.0000 9.6218
#
#
#
# Elastic Compliance Matrix: (Units=1/GPa)
#
#
# Indices 1 2 3 4 5 6 
#
# 1 0.009675 -0.001443 -0.002688 0.000000 0.000000 0.000000
# 2 -0.001443 0.014157 -0.004718 0.000000 0.000000 0.000000
# 3 -0.002688 -0.004718 0.010496 0.000000 0.000000 0.000000
# 4 0.000000 0.000000 0.000000 -0.024158 0.000000 0.000000
# 5 0.000000 0.000000 0.000000 0.000000 0.054908 0.000000
# 6 0.000000 0.000000 0.000000 0.000000 0.000000 0.103930
#
#
# Mechanical properties :
#
#
# Convention : Reuss Voigt Hill
#
# Bulk Modulus (GPa) = 60.13743 62.80480 61.47111
# Shear Modulus (GPa) = 26.00785 11.94159 18.97472
#
# Velocity S-wave (km/s) = 3.64510 2.46995 3.11347
# Velocity P-wave (km/s) = 6.95977 6.34189 6.65800
#
# Compressibility (1/GPa) = 0.01662858
#
# Stress axis : x y z
#
# Youngs Moduli (GPa) = 103.35942 70.63868 95.27327
#
# Poissons Ratio (x) = 0.10195 0.25609
# Poissons Ratio (y) = 0.14917 0.44953
# Poissons Ratio (z) = 0.27783 0.33330
#
# Static dielectric constant tensor:
#      x y z
#    x 4.007390 0.000000 0.000000 
#    y 0.000000 3.223630 0.000000 
#    z 0.000000 0.000000 4.136630 
# 
# 
# High freq. dielectric constant tensor:
#      x y z
#    x 1.783640 0.000000 0.000000 
#    y 0.000000 1.721580 0.000000 
#    z 0.000000 0.000000 1.780550 
# 
# From -- ./inp_files/20317.got.cif
#   From: 2010.03.12/outbox.cif.g09.slc.cpg/sg54_11_cif.got.tgz:20317.got - 2010.04.16 15:00:50.
