data_PCOD8222401
_publ_section_title
;
Structure prediction by ZEFSAII (Michael W. Deem and Ramdas Pophale) SiO2 
 PCOD8222401
Probable space group: P C C A
;
_chemical_formula_sum "Si O2"
_cell_formula_units_Z 48
_cell_length_a 8.913215
_cell_length_b 16.045516
_cell_length_c 18.339685
_cell_angle_alpha 90.000000
_cell_angle_beta 90.000000
_cell_angle_gamma 90.000000
_cell_volume 2622.889185
_symmetry_space_group_name_H-M "P C C A"
_symmetry_group_IT_number 54
_symmetry_cell_setting 'orthorhombic'
loop_
_space_group_symop_operation_xyz
x,y,z
1/2-x,-y,z
1/2+x,-y,1/2-z
-x,y,1/2-z
-x,-y,-z
1/2+x,y,-z
1/2-x,y,1/2+z
x,-y,1/2+z
loop_
_atom_site_type_symbol
_atom_site_label
_atom_site_fract_x
_atom_site_fract_y
_atom_site_fract_z
Si Si1 0.403427 0.677484 0.441373
Si Si2 0.599080 0.837382 0.967625
Si Si3 0.283462 0.596647 0.064829
Si Si4 0.857313 0.727038 0.340198
Si Si5 0.698163 0.910156 0.586348
Si Si6 0.794748 0.752575 0.178726
O O1 0.463870 0.761475 0.481736
O O2 0.539332 0.613938 0.429604
O O3 0.275926 0.633948 0.489309
O O4 0.326508 0.695845 0.363191
O O5 0.688023 0.797740 0.898907
O O6 0.474066 0.900657 0.937441
O O7 0.711413 0.892846 0.013026
O O8 0.250000 0.500000 0.068552
O O9 0.200879 0.637432 0.133995
O O10 0.772266 0.749428 0.265411
O O11 0.037174 0.721545 0.337332
O O12 0.730751 0.846969 0.652203
O O13 0.750000 0.000000 0.615772
#
# Coordination Sequence:
#
# PCOD8222401 Si02
#       6
#     8   8   8   8   8   8
#     4  10  19  34  55  77 103 138 174 207 257 319
#     4   9  17  31  52  74 100 136 170 204 253 310
#     4  11  21  34  53  79 104 129 170 222 262 300
#     4   9  18  36  54  72 102 140 175 205 254 319
#     4  10  18  30  50  77 102 129 170 219 256 293
#     4   9  19  35  55  73 101 144 176 203 254 319
#
# _framework density 18.300431
#
# number of rings (size 3 to 8) (size 9 to 14) (size 15 to 20)
#    0.000    2.333    0.000    6.000    0.000    0.667 
#    0.000    5.000    0.000   14.000    0.000    0.000 
#    0.000    0.000    0.000    0.000    0.000    0.000 
#
# Total GULP energy -595073.668734 kJ/mol
# GULP energy per Si atom -12397.368099 kJ/mol
# Density = 1.825878 g / cm^3
# Si number density = 18.300431 Si / 1000 Ang^3
#
#
#
# Elastic Constant Matrix: (Units=GPa)
#
#
# Indices 1 2 3 4 5 6 
#
# 1 83.8669 51.6594 43.8461 0.0000 0.0000 0.0000
# 2 51.6594 103.1293 50.7095 0.0000 0.0000 0.0000
# 3 43.8461 50.7095 122.3798 0.0000 0.0000 0.0000
# 4 0.0000 0.0000 0.0000 13.2627 0.0000 0.0000
# 5 0.0000 0.0000 0.0000 0.0000 22.5700 0.0000
# 6 0.0000 0.0000 0.0000 0.0000 0.0000 24.7620
#
#
#
# Elastic Compliance Matrix: (Units=1/GPa)
#
#
# Indices 1 2 3 4 5 6 
#
# 1 0.018349 -0.007484 -0.003473 0.000000 0.000000 0.000000
# 2 -0.007484 0.015230 -0.003629 0.000000 0.000000 0.000000
# 3 -0.003473 -0.003629 0.010920 0.000000 0.000000 0.000000
# 4 0.000000 0.000000 0.000000 0.075399 0.000000 0.000000
# 5 0.000000 0.000000 0.000000 0.000000 0.044307 0.000000
# 6 0.000000 0.000000 0.000000 0.000000 0.000000 0.040384
#
#
# Mechanical properties :
#
#
# Convention : Reuss Voigt Hill
#
# Bulk Modulus (GPa) = 65.24838 66.86733 66.05785
# Shear Modulus (GPa) = 20.93186 22.99633 21.96410
#
# Velocity S-wave (km/s) = 3.38567 3.54870 3.46814
# Velocity P-wave (km/s) = 7.14248 7.30815 7.22579
#
# Compressibility (1/GPa) = 0.01532605
#
# Stress axis : x y z
#
# Youngs Moduli (GPa) = 54.49845 65.66034 91.57881
#
# Poissons Ratio (x) = 0.49138 0.31807
# Poissons Ratio (y) = 0.40785 0.33238
# Poissons Ratio (z) = 0.18928 0.23831
#
# Static dielectric constant tensor:
#      x y z
#    x 3.300670 0.000000 0.000000 
#    y 0.000000 3.283500 0.000000 
#    z 0.000000 0.000000 3.518590 
# 
# 
# High freq. dielectric constant tensor:
#      x y z
#    x 1.708780 0.000000 0.000000 
#    y 0.000000 1.694650 0.000000 
#    z 0.000000 0.000000 1.706520 
# 
# From -- ./inp_files/16589.got.cif
#   From: 2010.03.12/outbox.cif.g09.slc.cpg/sg54_9_cif.got.tgz:16589.got - 2010.04.16 15:00:50.
