data_PCOD8222463
_publ_section_title
;
Structure prediction by ZEFSAII (Michael W. Deem and Ramdas Pophale) SiO2 
 PCOD8222463
Probable space group: P C C A
;
_chemical_formula_sum "Si O2"
_cell_formula_units_Z 64
_cell_length_a 9.266633
_cell_length_b 19.310194
_cell_length_c 17.031559
_cell_angle_alpha 90.000000
_cell_angle_beta 90.000000
_cell_angle_gamma 90.000000
_cell_volume 3047.635359
_symmetry_space_group_name_H-M "P C C A"
_symmetry_group_IT_number 54
_symmetry_cell_setting 'orthorhombic'
loop_
_space_group_symop_operation_xyz
x,y,z
1/2-x,-y,z
1/2+x,-y,1/2-z
-x,y,1/2-z
-x,-y,-z
1/2+x,y,-z
1/2-x,y,1/2+z
x,-y,1/2+z
loop_
_atom_site_type_symbol
_atom_site_label
_atom_site_fract_x
_atom_site_fract_y
_atom_site_fract_z
Si Si1 0.691937 0.400476 0.602470
Si Si2 0.967531 0.532846 0.159501
Si Si3 0.191662 0.374943 0.581252
Si Si4 0.537950 0.244973 0.461446
Si Si5 0.267035 0.163508 0.438795
Si Si6 0.507892 0.150510 0.664345
Si Si7 0.624161 0.046112 0.961975
Si Si8 0.043148 0.701635 0.622129
O O1 0.584154 0.465012 0.613340
O O2 0.840536 0.410101 0.650075
O O3 0.724933 0.390492 0.510094
O O4 0.613760 0.332660 0.638892
O O5 0.000000 0.516786 0.250000
O O6 0.114637 0.558867 0.119333
O O7 0.092690 0.306929 0.593058
O O8 0.334749 0.357595 0.632528
O O9 0.418869 0.199524 0.416030
O O10 0.673289 0.200662 0.492907
O O11 0.446285 0.277412 0.531754
O O12 0.174395 0.160339 0.359431
O O13 0.301399 0.086266 0.466418
O O14 0.500000 0.115615 0.750000
O O15 0.431750 0.101397 0.601226
O O16 0.434406 0.227287 0.670882
O O17 0.750000 0.000000 0.921976
O O18 0.500000 0.000000 0.000000
#
# Coordination Sequence:
#
# PCOD8222463 Si02
#       8
#     8   8   8   8   8   8   8   8
#     4  10  23  43  65  89 120 177 225 271 335 399
#     4  11  26  42  58  91 137 167 214 283 345 405
#     4  11  21  38  66  98 124 166 230 276 323 394
#     4  10  18  34  62  97 123 166 216 271 315 383
#     4  11  19  39  67  93 132 168 222 270 319 394
#     4  11  25  42  64 102 140 172 215 275 339 398
#     4  12  22  41  70  95 125 173 226 269 319 393
#     4  10  21  37  67  93 124 167 216 271 330 387
#
# _framework density 20.999887000000001
#
# number of rings (size 3 to 8) (size 9 to 14) (size 15 to 20)
#    0.000    1.250    5.000    1.875    3.500    5.000 
#    2.250    0.000    0.000    1.500    0.000    0.000 
#    0.000    0.000    0.000    0.000    0.000    0.000 
#
# Total GULP energy -793322.419356 kJ/mol
# GULP energy per Si atom -12395.662802 kJ/mol
# Density = 2.095209 g / cm^3
# Si number density = 20.999887 Si / 1000 Ang^3
#
#
#
# Elastic Constant Matrix: (Units=GPa)
#
#
# Indices 1 2 3 4 5 6 
#
# 1 97.0882 36.0344 28.4578 0.0000 0.0000 0.0000
# 2 36.0344 93.6165 28.9689 0.0000 0.0000 0.0000
# 3 28.4578 28.9689 71.5481 0.0000 0.0000 0.0000
# 4 0.0000 0.0000 0.0000 6.7930 0.0000 0.0000
# 5 0.0000 0.0000 0.0000 0.0000 17.4081 0.0000
# 6 0.0000 0.0000 0.0000 0.0000 0.0000 54.8182
#
#
#
# Elastic Compliance Matrix: (Units=1/GPa)
#
#
# Indices 1 2 3 4 5 6 
#
# 1 0.012750 -0.003817 -0.003526 0.000000 0.000000 0.000000
# 2 -0.003817 0.013354 -0.003889 0.000000 0.000000 0.000000
# 3 -0.003526 -0.003889 0.016954 0.000000 0.000000 0.000000
# 4 0.000000 0.000000 0.000000 0.147209 0.000000 0.000000
# 5 0.000000 0.000000 0.000000 0.000000 0.057445 0.000000
# 6 0.000000 0.000000 0.000000 0.000000 0.000000 0.018242
#
#
# Mechanical properties :
#
#
# Convention : Reuss Voigt Hill
#
# Bulk Modulus (GPa) = 48.55560 49.90832 49.23196
# Shear Modulus (GPa) = 16.93297 27.05665 21.99481
#
# Velocity S-wave (km/s) = 2.84269 3.59335 3.23983
# Velocity P-wave (km/s) = 5.82636 6.40576 6.12292
#
# Compressibility (1/GPa) = 0.02059495
#
# Stress axis : x y z
#
# Youngs Moduli (GPa) = 78.43180 74.88196 58.98442
#
# Poissons Ratio (x) = 0.28579 0.20797
# Poissons Ratio (y) = 0.29934 0.22939
# Poissons Ratio (z) = 0.27654 0.29122
#
# Static dielectric constant tensor:
#      x y z
#    x 4.094730 0.000000 0.000000 
#    y 0.000000 4.062630 0.000000 
#    z 0.000000 0.000000 3.397980 
# 
# 
# High freq. dielectric constant tensor:
#      x y z
#    x 1.839160 0.000000 0.000000 
#    y 0.000000 1.834500 0.000000 
#    z 0.000000 0.000000 1.771700 
# 
# From -- ./inp_files/16862.got.cif
#   From: 2010.03.12/outbox.cif.g09.slc.cpg/sg54_9_cif.got.tgz:16862.got - 2010.04.16 15:00:50.
