data_PCOD8222038
_publ_section_title
;
Structure prediction by ZEFSAII (Michael W. Deem and Ramdas Pophale) SiO2 
 PCOD8222038
Probable space group: P M N A
;
_chemical_formula_sum "Si O2"
_cell_formula_units_Z 56
_cell_length_a 8.887510
_cell_length_b 22.988239
_cell_length_c 14.165385
_cell_angle_alpha 90.000000
_cell_angle_beta 90.000000
_cell_angle_gamma 90.000000
_cell_volume 2894.104368
_symmetry_space_group_name_H-M "P M N A"
_symmetry_group_IT_number 53
_symmetry_cell_setting 'orthorhombic'
loop_
_space_group_symop_operation_xyz
x,y,z
1/2-x,-y,1/2+z
x,-y,-z
1/2-x,y,1/2-z
-x,-y,-z
1/2+x,y,1/2-z
-x,y,z
1/2+x,-y,1/2+z
loop_
_atom_site_type_symbol
_atom_site_label
_atom_site_fract_x
_atom_site_fract_y
_atom_site_fract_z
Si Si1 0.329407 0.479042 0.606207
Si Si2 0.820866 0.194403 0.353485
Si Si3 0.175645 0.030253 0.850840
Si Si4 0.822836 0.406898 0.339131
Si Si5 0.323827 0.695427 0.966153
Si Si6 0.177677 0.357766 0.653427
Si Si7 0.322806 0.087442 0.455393
O O1 0.323172 0.500000 0.500000
O O2 0.500000 0.470682 0.641832
O O3 0.248570 0.529425 0.663593
O O4 0.240676 0.419916 0.622629
O O5 0.750000 0.190211 0.250000
O O6 0.752803 0.250824 0.408591
O O7 0.775012 0.140606 0.418492
O O8 0.000000 0.195891 0.342527
O O9 0.250000 0.045363 0.750000
O O10 0.000000 0.034193 0.833262
O O11 0.220187 0.966378 0.887650
O O12 0.221611 0.074981 0.934976
O O13 0.750000 0.373505 0.250000
O O14 0.773069 0.367618 0.427369
O O15 0.000000 0.412659 0.330363
O O16 0.500000 0.702407 0.952914
O O17 0.279741 0.692232 0.076670
O O18 0.250000 0.335667 0.750000
O O19 0.000000 0.364269 0.663961
O O20 0.500000 0.100785 0.447712
#
# Coordination Sequence:
#
# PCOD8222038 Si02
#       7
#     8   8   8   8   8   8   8
#     4  11  22  36  55  82 110 137 174 220 269 328
#     4  11  22  38  59  85 113 147 186 230 278 330
#     4   9  18  33  55  82 118 155 193 235 281 329
#     4  11  21  36  56  79 106 140 174 214 268 324
#     4   9  21  39  58  78 107 142 180 223 271 322
#     4  11  22  40  61  81 106 141 182 224 274 331
#     4   9  19  36  55  82 117 155 192 234 280 331
#
# _framework density 19.349682999999999
#
# number of rings (size 3 to 8) (size 9 to 14) (size 15 to 20)
#    0.000    1.857    1.429    3.857    0.000    2.857 
#    0.000    7.143    0.000    3.429    0.000    0.000 
#    0.000    0.000    0.000    0.000    0.000    0.000 
#
# Total GULP energy -694061.751827 kJ/mol
# GULP energy per Si atom -12393.959854 kJ/mol
# Density = 1.930564 g / cm^3
# Si number density = 19.349683 Si / 1000 Ang^3
#
#
#
# Elastic Constant Matrix: (Units=GPa)
#
#
# Indices 1 2 3 4 5 6 
#
# 1 83.9883 35.5479 57.7203 0.0000 0.0000 0.0000
# 2 35.5479 98.4251 65.2947 0.0000 0.0000 0.0000
# 3 57.7203 65.2947 162.2402 0.0000 0.0000 0.0000
# 4 0.0000 0.0000 0.0000 27.0452 0.0000 0.0000
# 5 0.0000 0.0000 0.0000 0.0000 34.6218 0.0000
# 6 0.0000 0.0000 0.0000 0.0000 0.0000 -58.9760
#
#
#
# Elastic Compliance Matrix: (Units=1/GPa)
#
#
# Indices 1 2 3 4 5 6 
#
# 1 0.016300 -0.002783 -0.004679 0.000000 0.000000 0.000000
# 2 -0.002783 0.014336 -0.004779 0.000000 0.000000 0.000000
# 3 -0.004679 -0.004779 0.009752 0.000000 0.000000 0.000000
# 4 0.000000 0.000000 0.000000 0.036975 0.000000 0.000000
# 5 0.000000 0.000000 0.000000 0.000000 0.028884 0.000000
# 6 0.000000 0.000000 0.000000 0.000000 0.000000 -0.016956
#
#
# Mechanical properties :
#
#
# Convention : Reuss Voigt Hill
#
# Bulk Modulus (GPa) = 62.87428 73.53104 68.20266
# Shear Modulus (GPa) = 41.99049 12.94425 27.46737
#
# Velocity S-wave (km/s) = 4.66347 2.58924 3.77175
# Velocity P-wave (km/s) = 7.84612 6.85730 7.36831
#
# Compressibility (1/GPa) = 0.01590476
#
# Stress axis : x y z
#
# Youngs Moduli (GPa) = 61.34996 69.75558 102.54434
#
# Poissons Ratio (x) = 0.19413 0.47981
# Poissons Ratio (y) = 0.17073 0.49010
# Poissons Ratio (z) = 0.28706 0.33339
#
# Static dielectric constant tensor:
#      x y z
#    x 3.433270 0.000000 0.000000 
#    y 0.000000 3.488510 0.000000 
#    z 0.000000 0.000000 4.233330 
# 
# 
# High freq. dielectric constant tensor:
#      x y z
#    x 1.745150 0.000000 0.000000 
#    y 0.000000 1.735380 0.000000 
#    z 0.000000 0.000000 1.774660 
# 
# From -- ./inp_files/20495.got.cif
#   From: 2010.03.12/outbox.cif.g09.slc.cpg/sg53_11_cif.got.tgz:20495.got - 2010.04.16 14:36:59.
