data_PCOD8222391
_publ_section_title
;
Structure prediction by ZEFSAII (Michael W. Deem and Ramdas Pophale) SiO2 
 PCOD8222391
Probable space group: P C C A
;
_chemical_formula_sum "Si O2"
_cell_formula_units_Z 44
_cell_length_a 10.069204
_cell_length_b 14.702219
_cell_length_c 15.604742
_cell_angle_alpha 90.000000
_cell_angle_beta 90.000000
_cell_angle_gamma 90.000000
_cell_volume 2310.120425
_symmetry_space_group_name_H-M "P C C A"
_symmetry_group_IT_number 54
_symmetry_cell_setting 'orthorhombic'
loop_
_space_group_symop_operation_xyz
x,y,z
1/2-x,-y,z
1/2+x,-y,1/2-z
-x,y,1/2-z
-x,-y,-z
1/2+x,y,-z
1/2-x,y,1/2+z
x,-y,1/2+z
loop_
_atom_site_type_symbol
_atom_site_label
_atom_site_fract_x
_atom_site_fract_y
_atom_site_fract_z
Si Si1 0.010953 0.697403 0.926514
Si Si2 0.288230 0.324588 0.071520
Si Si3 0.000000 0.587914 0.750000
Si Si4 0.855930 0.183073 0.787799
Si Si5 0.885002 0.837357 0.683726
Si Si6 0.250000 0.500000 0.684574
Si Si7 0.250000 0.000000 0.756801
O O1 0.860777 0.696979 0.962796
O O2 0.015194 0.646973 0.835521
O O3 0.066466 0.799961 0.908363
O O4 0.111393 0.653389 0.994183
O O5 0.340575 0.237271 0.123901
O O6 0.290826 0.414858 0.127164
O O7 0.127513 0.523458 0.745433
O O8 0.745930 0.217357 0.718454
O O9 0.827963 0.074163 0.802373
O O10 0.000000 0.201282 0.750000
O O11 0.000000 0.817035 0.750000
O O12 0.852536 0.945577 0.680777
#
# Coordination Sequence:
#
# PCOD8222391 Si02
#       7
#     8   8   4   8   8   4   4
#     4  11  22  41  61  91 121 167 198 254 305 362
#     4  11  25  39  61  91 129 154 209 254 312 351
#     4  10  22  42  66  86 118 166 210 242 308 362
#     4  10  21  36  61  94 118 162 206 250 302 364
#     4  10  17  37  62  82 121 162 203 247 292 368
#     4  10  24  42  60  96 118 166 204 252 298 368
#     4   8  20  32  66  88 120 158 208 246 298 370
#
# _framework density 19.046626
#
# number of rings (size 3 to 8) (size 9 to 14) (size 15 to 20)
#    1.091    0.727    2.727    1.636    3.818    5.091 
#    0.000    0.909    0.000    4.364    0.000    0.000 
#    0.000    0.000    0.000    0.000    0.000    0.000 
#
# Total GULP energy -545141.084927 kJ/mol
# GULP energy per Si atom -12389.570112 kJ/mol
# Density = 1.900327 g / cm^3
# Si number density = 19.046626 Si / 1000 Ang^3
#
#
#
# Elastic Constant Matrix: (Units=GPa)
#
#
# Indices 1 2 3 4 5 6 
#
# 1 178.8393 40.1170 56.3849 0.0000 0.0000 0.0000
# 2 40.1170 99.1643 29.9173 0.0000 0.0000 0.0000
# 3 56.3849 29.9173 65.1048 0.0000 0.0000 0.0000
# 4 0.0000 0.0000 0.0000 5.8327 0.0000 0.0000
# 5 0.0000 0.0000 0.0000 0.0000 38.1233 0.0000
# 6 0.0000 0.0000 0.0000 0.0000 0.0000 9.7249
#
#
#
# Elastic Compliance Matrix: (Units=1/GPa)
#
#
# Indices 1 2 3 4 5 6 
#
# 1 0.007834 -0.001303 -0.006186 0.000000 0.000000 0.000000
# 2 -0.001303 0.011924 -0.004351 0.000000 0.000000 0.000000
# 3 -0.006186 -0.004351 0.022717 0.000000 0.000000 0.000000
# 4 0.000000 0.000000 0.000000 0.171448 0.000000 0.000000
# 5 0.000000 0.000000 0.000000 0.000000 0.026231 0.000000
# 6 0.000000 0.000000 0.000000 0.000000 0.000000 0.102829
#
#
# Mechanical properties :
#
#
# Convention : Reuss Voigt Hill
#
# Bulk Modulus (GPa) = 53.20591 66.21632 59.71112
# Shear Modulus (GPa) = 13.40742 25.18211 19.29477
#
# Velocity S-wave (km/s) = 2.65604 3.64006 3.18626
# Velocity P-wave (km/s) = 6.11566 7.24621 6.70480
#
# Compressibility (1/GPa) = 0.01879490
#
# Stress axis : x y z
#
# Youngs Moduli (GPa) = 127.64341 83.86408 44.02009
#
# Poissons Ratio (x) = 0.10928 0.27232
# Poissons Ratio (y) = 0.16632 0.19153
# Poissons Ratio (z) = 0.78963 0.36489
#
# Static dielectric constant tensor:
#      x y z
#    x 4.482630 0.000000 0.000000 
#    y 0.000000 3.611030 0.000000 
#    z 0.000000 0.000000 3.225960 
# 
# 
# High freq. dielectric constant tensor:
#      x y z
#    x 1.763660 0.000000 0.000000 
#    y 0.000000 1.740740 0.000000 
#    z 0.000000 0.000000 1.700220 
# 
# From -- ./inp_files/11674.got.cif
#   From: 2010.03.12/outbox.cif.g09.slc.cpg/sg54_6_cif.got.tgz:11674.got - 2010.04.16 15:00:50.
