data_PCOD8222794
_publ_section_title
;
Structure prediction by ZEFSAII (Michael W. Deem and Ramdas Pophale) SiO2 
 PCOD8222794
Probable space group: P C C A
;
_chemical_formula_sum "Si O2"
_cell_formula_units_Z 52
_cell_length_a 20.606096
_cell_length_b 9.785320
_cell_length_c 13.083605
_cell_angle_alpha 90.000000
_cell_angle_beta 90.000000
_cell_angle_gamma 90.000000
_cell_volume 2638.142045
_symmetry_space_group_name_H-M "P C C A"
_symmetry_group_IT_number 54
_symmetry_cell_setting 'orthorhombic'
loop_
_space_group_symop_operation_xyz
x,y,z
1/2-x,-y,z
1/2+x,-y,1/2-z
-x,y,1/2-z
-x,-y,-z
1/2+x,y,-z
1/2-x,y,1/2+z
x,-y,1/2+z
loop_
_atom_site_type_symbol
_atom_site_label
_atom_site_fract_x
_atom_site_fract_y
_atom_site_fract_z
Si Si1 0.162366 0.266646 0.120032
Si Si2 0.551474 0.478647 0.864429
Si Si3 0.865355 0.397145 0.701225
Si Si4 0.325388 0.839504 0.348269
Si Si5 0.583768 0.388824 0.571286
Si Si6 0.820296 0.146967 0.592262
Si Si7 0.750000 0.500000 0.835768
O O1 0.094231 0.342984 0.124674
O O2 0.174122 0.190782 0.227483
O O3 0.217252 0.381559 0.096810
O O4 0.163879 0.157071 0.028569
O O5 0.569771 0.569239 0.765708
O O6 0.479503 0.415416 0.857959
O O7 0.562078 0.588548 0.955282
O O8 0.863063 0.497816 0.603304
O O9 0.867046 0.244024 0.658787
O O10 0.802436 0.424328 0.767346
O O11 0.382128 0.757249 0.408213
O O12 0.254132 0.806784 0.391821
O O13 0.338483 0.998184 0.367869
#
# Coordination Sequence:
#
# PCOD8222794 Si02
#       7
#     8   8   8   8   8   8   4
#     4  11  22  40  62  91 126 161 210 254 311 369
#     4  10  23  36  66  93 118 164 211 267 301 369
#     4  11  19  37  62  90 121 153 210 258 309 360
#     4  11  25  40  62  89 130 170 197 255 316 378
#     4  11  21  40  64  91 123 160 216 256 314 356
#     4  11  25  40  60  95 129 163 205 253 314 385
#     4  10  20  34  62  94 114 158 204 262 308 360
#
# _framework density 19.710840999999999
#
# number of rings (size 3 to 8) (size 9 to 14) (size 15 to 20)
#    0.000    1.231    6.154    0.462    4.308    4.308 
#    0.000    0.769    6.769    0.000    0.000    0.000 
#    0.000    0.000    0.000    0.000    0.000    0.000 
#
# Total GULP energy -644525.739991 kJ/mol
# GULP energy per Si atom -12394.725769 kJ/mol
# Density = 1.966598 g / cm^3
# Si number density = 19.710841 Si / 1000 Ang^3
#
#
#
# Elastic Constant Matrix: (Units=GPa)
#
#
# Indices 1 2 3 4 5 6 
#
# 1 96.0718 50.3158 31.3159 0.0000 0.0000 0.0000
# 2 50.3158 138.0676 55.1826 0.0000 0.0000 0.0000
# 3 31.3159 55.1826 98.6527 0.0000 0.0000 0.0000
# 4 0.0000 0.0000 0.0000 28.8973 0.0000 0.0000
# 5 0.0000 0.0000 0.0000 0.0000 -15.5893 0.0000
# 6 0.0000 0.0000 0.0000 0.0000 0.0000 30.5819
#
#
#
# Elastic Compliance Matrix: (Units=1/GPa)
#
#
# Indices 1 2 3 4 5 6 
#
# 1 0.013141 -0.004021 -0.001922 0.000000 0.000000 0.000000
# 2 -0.004021 0.010558 -0.004630 0.000000 0.000000 0.000000
# 3 -0.001922 -0.004630 0.013337 0.000000 0.000000 0.000000
# 4 0.000000 0.000000 0.000000 0.034605 0.000000 0.000000
# 5 0.000000 0.000000 0.000000 0.000000 -0.064147 0.000000
# 6 0.000000 0.000000 0.000000 0.000000 0.000000 0.032699
#
#
# Mechanical properties :
#
#
# Convention : Reuss Voigt Hill
#
# Bulk Modulus (GPa) = 62.93057 67.38005 65.15531
# Shear Modulus (GPa) = 75.03365 21.84317 48.43841
#
# Velocity S-wave (km/s) = 6.17656 3.33255 4.96265
# Velocity P-wave (km/s) = 9.10289 7.00473 8.12185
#
# Compressibility (1/GPa) = 0.01589053
#
# Stress axis : x y z
#
# Youngs Moduli (GPa) = 76.09594 94.71070 74.98206
#
# Poissons Ratio (x) = 0.38080 0.14415
# Poissons Ratio (y) = 0.30596 0.34714
# Poissons Ratio (z) = 0.14629 0.43848
#
# Static dielectric constant tensor:
#      x y z
#    x 3.717110 0.000000 0.000000 
#    y 0.000000 3.371360 0.000000 
#    z 0.000000 0.000000 3.785020 
# 
# 
# High freq. dielectric constant tensor:
#      x y z
#    x 1.770330 0.000000 0.000000 
#    y 0.000000 1.750280 0.000000 
#    z 0.000000 0.000000 1.782800 
# 
# From -- ./inp_files/14596.got.cif
#   From: 2010.03.12/outbox.cif.g09.slc.cpg/sg54_8_cif.got.tgz:14596.got - 2010.04.16 15:00:50.
