data_PCOD8222733
_publ_section_title
;
Structure prediction by ZEFSAII (Michael W. Deem and Ramdas Pophale) SiO2 
 PCOD8222733
Probable space group: P C C A
;
_chemical_formula_sum "Si O2"
_cell_formula_units_Z 44
_cell_length_a 14.003877
_cell_length_b 9.528625
_cell_length_c 15.989103
_cell_angle_alpha 90.000000
_cell_angle_beta 90.000000
_cell_angle_gamma 90.000000
_cell_volume 2133.549009
_symmetry_space_group_name_H-M "P C C A"
_symmetry_group_IT_number 54
_symmetry_cell_setting 'orthorhombic'
loop_
_space_group_symop_operation_xyz
x,y,z
1/2-x,-y,z
1/2+x,-y,1/2-z
-x,y,1/2-z
-x,-y,-z
1/2+x,y,-z
1/2-x,y,1/2+z
x,-y,1/2+z
loop_
_atom_site_type_symbol
_atom_site_label
_atom_site_fract_x
_atom_site_fract_y
_atom_site_fract_z
Si Si1 0.448446 0.255708 0.380726
Si Si2 0.683838 0.629345 0.305727
Si Si3 0.308075 0.127470 0.258022
Si Si4 0.369501 0.902393 0.571468
Si Si5 0.173546 0.207712 0.029449
Si Si6 0.500000 0.482432 0.250000
O O1 0.403620 0.154934 0.310335
O O2 0.531402 0.179437 0.433014
O O3 0.365611 0.291743 0.448317
O O4 0.492427 0.391080 0.334881
O O5 0.750000 0.500000 0.332710
O O6 0.744373 0.732159 0.245958
O O7 0.645857 0.705238 0.388558
O O8 0.593013 0.578735 0.253521
O O9 0.338141 0.075843 0.166886
O O10 0.250000 0.000000 0.301208
O O11 0.288217 0.811730 0.523542
O O12 0.378287 0.055854 0.531014
#
# Coordination Sequence:
#
# PCOD8222733 Si02
#       6
#     8   8   8   8   8   4
#     4  12  23  41  67  99 128 175 218 269 330 391
#     4  11  22  45  63  90 133 173 212 269 320 394
#     4  11  21  41  71  93 128 170 220 274 324 377
#     4  10  19  43  65  92 133 170 210 271 334 382
#     4  10  23  40  62  94 131 168 215 270 330 379
#     4  12  24  40  66  92 130 178 220 258 332 394
#
# _framework density 20.622914000000002
#
# number of rings (size 3 to 8) (size 9 to 14) (size 15 to 20)
#    0.000    1.091    7.273    1.636    2.545    2.182 
#    6.545    0.000    0.000    0.000    0.000    0.000 
#    0.000    0.000    0.000    0.000    0.000    0.000 
#
# Total GULP energy -545696.481099 kJ/mol
# GULP energy per Si atom -12402.192752 kJ/mol
# Density = 2.057597 g / cm^3
# Si number density = 20.622914 Si / 1000 Ang^3
#
#
#
# Elastic Constant Matrix: (Units=GPa)
#
#
# Indices 1 2 3 4 5 6 
#
# 1 111.2378 36.0407 41.6843 0.0000 0.0000 0.0000
# 2 36.0407 87.7009 18.9663 0.0000 0.0000 0.0000
# 3 41.6843 18.9663 67.0180 0.0000 0.0000 0.0000
# 4 0.0000 0.0000 0.0000 14.3628 0.0000 0.0000
# 5 0.0000 0.0000 0.0000 0.0000 33.1887 0.0000
# 6 0.0000 0.0000 0.0000 0.0000 0.0000 33.5078
#
#
#
# Elastic Compliance Matrix: (Units=1/GPa)
#
#
# Indices 1 2 3 4 5 6 
#
# 1 0.012792 -0.003767 -0.006891 0.000000 0.000000 0.000000
# 2 -0.003767 0.013255 -0.001408 0.000000 0.000000 0.000000
# 3 -0.006891 -0.001408 0.019606 0.000000 0.000000 0.000000
# 4 0.000000 0.000000 0.000000 0.069624 0.000000 0.000000
# 5 0.000000 0.000000 0.000000 0.000000 0.030131 0.000000
# 6 0.000000 0.000000 0.000000 0.000000 0.000000 0.029844
#
#
# Mechanical properties :
#
#
# Convention : Reuss Voigt Hill
#
# Bulk Modulus (GPa) = 46.46498 51.03769 48.75133
# Shear Modulus (GPa) = 24.20635 27.49620 25.85128
#
# Velocity S-wave (km/s) = 3.42973 3.65538 3.54435
# Velocity P-wave (km/s) = 6.18577 6.52821 6.35930
#
# Compressibility (1/GPa) = 0.02152158
#
# Stress axis : x y z
#
# Youngs Moduli (GPa) = 78.17182 75.44362 51.00533
#
# Poissons Ratio (x) = 0.28418 0.35146
# Poissons Ratio (y) = 0.29446 0.07183
# Poissons Ratio (z) = 0.53865 0.10624
#
# Static dielectric constant tensor:
#      x y z
#    x 3.919730 0.000000 0.000000 
#    y 0.000000 3.716740 0.000000 
#    z 0.000000 0.000000 3.552400 
# 
# 
# High freq. dielectric constant tensor:
#      x y z
#    x 1.818380 0.000000 0.000000 
#    y 0.000000 1.798850 0.000000 
#    z 0.000000 0.000000 1.790650 
# 
# From -- ./inp_files/17891.got.cif
#   From: 2010.03.12/outbox.cif.g09.slc.cpg/sg54_9_cif.got.tgz:17891.got - 2010.04.16 15:00:50.
