data_PCOD8222331
_publ_section_title
;
Structure prediction by ZEFSAII (Michael W. Deem and Ramdas Pophale) SiO2 
 PCOD8222331
Probable space group: P C C A
;
_chemical_formula_sum "Si O2"
_cell_formula_units_Z 40
_cell_length_a 5.151993
_cell_length_b 23.620082
_cell_length_c 16.996110
_cell_angle_alpha 90.000000
_cell_angle_beta 90.000000
_cell_angle_gamma 90.000000
_cell_volume 2068.265075
_symmetry_space_group_name_H-M "P C C A"
_symmetry_group_IT_number 54
_symmetry_cell_setting 'orthorhombic'
loop_
_space_group_symop_operation_xyz
x,y,z
1/2-x,-y,z
1/2+x,-y,1/2-z
-x,y,1/2-z
-x,-y,-z
1/2+x,y,-z
1/2-x,y,1/2+z
x,-y,1/2+z
loop_
_atom_site_type_symbol
_atom_site_label
_atom_site_fract_x
_atom_site_fract_y
_atom_site_fract_z
Si Si1 0.758814 0.356156 0.800139
Si Si2 0.582689 0.154671 0.949385
Si Si3 0.994991 0.025277 0.412778
Si Si4 0.745721 0.227198 0.301142
Si Si5 0.263607 0.435354 0.551160
O O1 0.500000 0.361849 0.750000
O O2 0.812729 0.291643 0.826650
O O3 0.737256 0.394364 0.875789
O O4 0.000000 0.379153 0.750000
O O5 0.553204 0.091780 0.915783
O O6 0.688742 0.192682 0.879070
O O7 0.292717 0.166460 0.981544
O O8 0.250000 0.000000 0.369093
O O9 0.750000 0.000000 0.365659
O O10 0.000000 0.000000 0.500000
O O11 0.500000 0.203555 0.250000
O O12 0.000000 0.223634 0.250000
O O13 0.250000 0.500000 0.581052
O O14 0.524392 0.421834 0.504752
#
# Coordination Sequence:
#
# PCOD8222331 Si02
#       5
#     8   8   8   8   8
#     4  10  21  38  59  79 108 154 198 231 275 340
#     4  12  21  33  59  89 104 139 194 232 267 333
#     4  10  16  30  49  79 111 132 163 226 268 309
#     4  10  23  41  55  78 119 155 181 232 298 338
#     4  10  21  36  56  85 119 149 181 237 301 337
#
# _framework density 19.339881999999999
#
# number of rings (size 3 to 8) (size 9 to 14) (size 15 to 20)
#    0.000    1.600    4.000    2.400    0.000    2.400 
#    0.000    0.000    0.000    2.400    0.000    0.000 
#    0.000    0.000    0.000    0.000    0.000    0.000 
#
# Total GULP energy -495640.717912 kJ/mol
# GULP energy per Si atom -12391.017948 kJ/mol
# Density = 1.929586 g / cm^3
# Si number density = 19.339882 Si / 1000 Ang^3
#
#
#
# Elastic Constant Matrix: (Units=GPa)
#
#
# Indices 1 2 3 4 5 6 
#
# 1 168.0663 42.7889 41.2152 0.0000 0.0000 0.0000
# 2 42.7889 107.5589 73.8914 0.0000 0.0000 0.0000
# 3 41.2152 73.8914 90.5159 0.0000 0.0000 0.0000
# 4 0.0000 0.0000 0.0000 26.6099 0.0000 0.0000
# 5 0.0000 0.0000 0.0000 0.0000 -10.9179 0.0000
# 6 0.0000 0.0000 0.0000 0.0000 0.0000 40.7895
#
#
#
# Elastic Compliance Matrix: (Units=1/GPa)
#
#
# Indices 1 2 3 4 5 6 
#
# 1 0.006778 -0.001312 -0.002015 0.000000 0.000000 0.000000
# 2 -0.001312 0.021423 -0.016891 0.000000 0.000000 0.000000
# 3 -0.002015 -0.016891 0.025754 0.000000 0.000000 0.000000
# 4 0.000000 0.000000 0.000000 0.037580 0.000000 0.000000
# 5 0.000000 0.000000 0.000000 0.000000 -0.091593 0.000000
# 6 0.000000 0.000000 0.000000 0.000000 0.000000 0.024516
#
#
# Mechanical properties :
#
#
# Convention : Reuss Voigt Hill
#
# Bulk Modulus (GPa) = 73.97115 75.77022 74.87068
# Shear Modulus (GPa) = 72.04387 25.17932 48.61160
#
# Velocity S-wave (km/s) = 6.11002 3.61215 5.01896
# Velocity P-wave (km/s) = 9.38656 7.52729 8.50787
#
# Compressibility (1/GPa) = 0.01351878
#
# Stress axis : x y z
#
# Youngs Moduli (GPa) = 147.52968 46.67873 38.82863
#
# Poissons Ratio (x) = 0.06124 0.07825
# Poissons Ratio (y) = 0.19356 0.65585
# Poissons Ratio (z) = 0.29733 0.78845
#
# Static dielectric constant tensor:
#      x y z
#    x 3.576300 0.000000 0.000000 
#    y 0.000000 3.510900 0.000000 
#    z 0.000000 0.000000 3.007570 
# 
# 
# High freq. dielectric constant tensor:
#      x y z
#    x 1.789320 0.000000 0.000000 
#    y 0.000000 1.753600 0.000000 
#    z 0.000000 0.000000 1.723160 
# 
# From -- ./inp_files/15872.got.cif
#   From: 2010.03.12/outbox.cif.g09.slc.cpg/sg54_8_cif.got.tgz:15872.got - 2010.04.16 15:00:50.
