data_PCOD8222924
_publ_section_title
;
Structure prediction by ZEFSAII (Michael W. Deem and Ramdas Pophale) SiO2 
 PCOD8222924
Probable space group: P C C A
;
_chemical_formula_sum "Si O2"
_cell_formula_units_Z 48
_cell_length_a 9.858643
_cell_length_b 9.312314
_cell_length_c 28.184477
_cell_angle_alpha 90.000000
_cell_angle_beta 90.000000
_cell_angle_gamma 90.000000
_cell_volume 2587.526058
_symmetry_space_group_name_H-M "P C C A"
_symmetry_group_IT_number 54
_symmetry_cell_setting 'orthorhombic'
loop_
_space_group_symop_operation_xyz
x,y,z
1/2-x,-y,z
1/2+x,-y,1/2-z
-x,y,1/2-z
-x,-y,-z
1/2+x,y,-z
1/2-x,y,1/2+z
x,-y,1/2+z
loop_
_atom_site_type_symbol
_atom_site_label
_atom_site_fract_x
_atom_site_fract_y
_atom_site_fract_z
Si Si1 0.498848 0.829103 0.450774
Si Si2 0.227341 0.329490 0.399336
Si Si3 0.656761 0.361539 0.803995
Si Si4 0.655189 0.635892 0.200272
Si Si5 0.023794 0.156255 0.939368
Si Si6 0.748561 0.836004 0.888723
O O1 0.409491 0.705301 0.427348
O O2 0.489372 0.806391 0.506672
O O3 0.652950 0.809766 0.433454
O O4 0.445512 0.986535 0.435190
O O5 0.250000 0.500000 0.400923
O O6 0.210244 0.273601 0.344762
O O7 0.347464 0.244643 0.423476
O O8 0.750000 0.500000 0.808967
O O9 0.500368 0.408550 0.811197
O O10 0.668248 0.286151 0.751601
O O11 0.704591 0.249922 0.842958
O O12 0.750000 0.500000 0.205324
O O13 0.900740 0.208042 0.906035
O O14 0.750000 0.000000 0.872665
#
# Coordination Sequence:
#
# PCOD8222924 Si02
#       6
#     8   8   8   8   8   8
#     4  10  20  41  59  80 110 156 192 227 274 339
#     4  11  22  36  57  87 117 142 184 241 283 326
#     4  10  20  37  63  81 110 153 189 228 279 339
#     4   9  20  37  58  85 113 146 190 226 279 342
#     4  10  22  37  61  81 112 153 194 223 275 345
#     4  10  21  36  57  85 113 143 189 238 280 326
#
# _framework density 18.550536999999998
#
# number of rings (size 3 to 8) (size 9 to 14) (size 15 to 20)
#    0.000    2.000    1.667    1.500    4.667    3.333 
#    0.000    3.333    0.000    0.000    0.000    0.000 
#    0.000    0.000    0.000    0.000    0.000    0.000 
#
# Total GULP energy -594963.201313 kJ/mol
# GULP energy per Si atom -12395.066694 kJ/mol
# Density = 1.850832 g / cm^3
# Si number density = 18.550537 Si / 1000 Ang^3
#
#
#
# Elastic Constant Matrix: (Units=GPa)
#
#
# Indices 1 2 3 4 5 6 
#
# 1 88.5027 37.0864 35.6990 0.0000 0.0000 0.0000
# 2 37.0864 57.7001 45.9421 0.0000 0.0000 0.0000
# 3 35.6990 45.9421 125.5293 0.0000 0.0000 0.0000
# 4 0.0000 0.0000 0.0000 29.0277 0.0000 0.0000
# 5 0.0000 0.0000 0.0000 0.0000 8.4127 0.0000
# 6 0.0000 0.0000 0.0000 0.0000 0.0000 26.2318
#
#
#
# Elastic Compliance Matrix: (Units=1/GPa)
#
#
# Indices 1 2 3 4 5 6 
#
# 1 0.015567 -0.009146 -0.001080 0.000000 0.000000 0.000000
# 2 -0.009146 0.029832 -0.008317 0.000000 0.000000 0.000000
# 3 -0.001080 -0.008317 0.011317 0.000000 0.000000 0.000000
# 4 0.000000 0.000000 0.000000 0.034450 0.000000 0.000000
# 5 0.000000 0.000000 0.000000 0.000000 0.118868 0.000000
# 6 0.000000 0.000000 0.000000 0.000000 0.000000 0.038122
#
#
# Mechanical properties :
#
#
# Convention : Reuss Voigt Hill
#
# Bulk Modulus (GPa) = 50.94091 56.57634 53.75863
# Shear Modulus (GPa) = 17.13590 22.93475 20.03532
#
# Velocity S-wave (km/s) = 3.04261 3.51998 3.28996
# Velocity P-wave (km/s) = 6.31376 6.86185 6.59350
#
# Compressibility (1/GPa) = 0.01963059
#
# Stress axis : x y z
#
# Youngs Moduli (GPa) = 64.23767 33.52141 88.36055
#
# Poissons Ratio (x) = 0.30659 0.09541
# Poissons Ratio (y) = 0.58751 0.73490
# Poissons Ratio (z) = 0.06936 0.27880
#
# Static dielectric constant tensor:
#      x y z
#    x 3.266590 0.000000 0.000000 
#    y 0.000000 3.210790 0.000000 
#    z 0.000000 0.000000 3.840610 
# 
# 
# High freq. dielectric constant tensor:
#      x y z
#    x 1.738440 0.000000 0.000000 
#    y 0.000000 1.686520 0.000000 
#    z 0.000000 0.000000 1.740320 
# 
# From -- ./inp_files/27727.got.cif
#   From: 2010.03.12/outbox.cif.g09.slc.cpg/sg54_14_cif.got.tgz:27727.got - 2010.04.16 15:00:50.
