data_PCOD8222803
_publ_section_title
;
Structure prediction by ZEFSAII (Michael W. Deem and Ramdas Pophale) SiO2 
 PCOD8222803
Probable space group: P C C A
;
_chemical_formula_sum "Si O2"
_cell_formula_units_Z 56
_cell_length_a 9.577075
_cell_length_b 18.342545
_cell_length_c 16.394846
_cell_angle_alpha 90.000000
_cell_angle_beta 90.000000
_cell_angle_gamma 90.000000
_cell_volume 2880.048646
_symmetry_space_group_name_H-M "P C C A"
_symmetry_group_IT_number 54
_symmetry_cell_setting 'orthorhombic'
loop_
_space_group_symop_operation_xyz
x,y,z
1/2-x,-y,z
1/2+x,-y,1/2-z
-x,y,1/2-z
-x,-y,-z
1/2+x,y,-z
1/2-x,y,1/2+z
x,-y,1/2+z
loop_
_atom_site_type_symbol
_atom_site_label
_atom_site_fract_x
_atom_site_fract_y
_atom_site_fract_z
Si Si1 0.250000 0.500000 0.322563
Si Si2 0.337798 0.369899 0.428282
Si Si3 0.021811 0.661072 0.919218
Si Si4 0.107267 0.090626 0.932066
Si Si5 0.098594 0.229669 0.828255
Si Si6 0.000000 0.583739 0.750000
Si Si7 0.577052 0.930596 0.086531
Si Si8 0.081164 0.206950 0.326197
O O1 0.345010 0.445683 0.378316
O O2 0.141390 0.461684 0.262268
O O3 0.414691 0.370810 0.515136
O O4 0.175457 0.360804 0.447732
O O5 0.411539 0.305023 0.377816
O O6 0.029662 0.749026 0.907197
O O7 0.978276 0.630494 0.831339
O O8 0.050309 0.160169 0.882400
O O9 0.272589 0.094473 0.948397
O O10 0.072617 0.014796 0.884365
O O11 0.038249 0.086164 0.019663
O O12 0.257976 0.218915 0.802723
O O13 0.000000 0.234952 0.750000
O O14 0.545681 0.878447 0.163043
O O15 0.000000 0.238830 0.250000
#
# Coordination Sequence:
#
# PCOD8222803 Si02
#       8
#     4   8   8   8   8   4   8   8
#     4  10  24  40  60  92 116 152 196 236 294 356
#     4  10  23  39  60  87 115 149 195 235 291 356
#     4  10  21  40  59  86 117 151 192 238 288 348
#     4   9  18  34  52  79 110 150 188 244 285 343
#     4  10  22  37  55  82 117 149 194 242 290 349
#     4  10  22  40  62  84 120 150 186 240 290 350
#     4   9  18  32  54  77 111 147 195 236 291 337
#     4  10  20  35  55  80 113 150 191 236 288 342
#
# _framework density 19.444116999999999
#
# number of rings (size 3 to 8) (size 9 to 14) (size 15 to 20)
#    0.000    2.286    0.714    0.857    1.000    6.857 
#    0.000    0.000    0.000    0.000    0.000    0.000 
#    0.000    0.000    0.000    0.000    0.000    0.000 
#
# Total GULP energy -693970.868066 kJ/mol
# GULP energy per Si atom -12392.336930 kJ/mol
# Density = 1.939986 g / cm^3
# Si number density = 19.444117 Si / 1000 Ang^3
#
#
#
# Elastic Constant Matrix: (Units=GPa)
#
#
# Indices 1 2 3 4 5 6 
#
# 1 69.7761 37.9454 54.6960 0.0000 0.0000 0.0000
# 2 37.9454 124.2628 46.9002 0.0000 0.0000 0.0000
# 3 54.6960 46.9002 97.5307 0.0000 0.0000 0.0000
# 4 0.0000 0.0000 0.0000 7.3007 0.0000 0.0000
# 5 0.0000 0.0000 0.0000 0.0000 35.5429 0.0000
# 6 0.0000 0.0000 0.0000 0.0000 0.0000 18.3709
#
#
#
# Elastic Compliance Matrix: (Units=1/GPa)
#
#
# Indices 1 2 3 4 5 6 
#
# 1 0.026477 -0.003031 -0.013391 0.000000 0.000000 0.000000
# 2 -0.003031 0.010179 -0.003195 0.000000 0.000000 0.000000
# 3 -0.013391 -0.003195 0.019299 0.000000 0.000000 0.000000
# 4 0.000000 0.000000 0.000000 0.136974 0.000000 0.000000
# 5 0.000000 0.000000 0.000000 0.000000 0.028135 0.000000
# 6 0.000000 0.000000 0.000000 0.000000 0.000000 0.054434
#
#
# Mechanical properties :
#
#
# Convention : Reuss Voigt Hill
#
# Bulk Modulus (GPa) = 59.80414 63.40589 61.60501
# Shear Modulus (GPa) = 15.61015 22.37809 18.99412
#
# Velocity S-wave (km/s) = 2.83648 3.39616 3.12886
# Velocity P-wave (km/s) = 6.44602 6.93243 6.69365
#
# Compressibility (1/GPa) = 0.01672125
#
# Stress axis : x y z
#
# Youngs Moduli (GPa) = 37.76924 98.24263 51.81549
#
# Poissons Ratio (x) = 0.29777 0.69385
# Poissons Ratio (y) = 0.11448 0.16555
# Poissons Ratio (z) = 0.50576 0.31389
#
# Static dielectric constant tensor:
#      x y z
#    x 3.486390 0.000000 0.000000 
#    y 0.000000 3.971080 0.000000 
#    z 0.000000 0.000000 3.263880 
# 
# 
# High freq. dielectric constant tensor:
#      x y z
#    x 1.754760 0.000000 0.000000 
#    y 0.000000 1.778970 0.000000 
#    z 0.000000 0.000000 1.737490 
# 
# From -- ./inp_files/11896.got.cif
#   From: 2010.03.12/outbox.cif.g09.slc.cpg/sg54_6_cif.got.tgz:11896.got - 2010.04.16 15:00:50.
