data_PCOD8222832
_publ_section_title
;
Structure prediction by ZEFSAII (Michael W. Deem and Ramdas Pophale) SiO2 
 PCOD8222832
Probable space group: P C C A
;
_chemical_formula_sum "Si O2"
_cell_formula_units_Z 64
_cell_length_a 17.471261
_cell_length_b 20.089502
_cell_length_c 9.115440
_cell_angle_alpha 90.000000
_cell_angle_beta 90.000000
_cell_angle_gamma 90.000000
_cell_volume 3199.418558
_symmetry_space_group_name_H-M "P C C A"
_symmetry_group_IT_number 54
_symmetry_cell_setting 'orthorhombic'
loop_
_space_group_symop_operation_xyz
x,y,z
1/2-x,-y,z
1/2+x,-y,1/2-z
-x,y,1/2-z
-x,-y,-z
1/2+x,y,-z
1/2-x,y,1/2+z
x,-y,1/2+z
loop_
_atom_site_type_symbol
_atom_site_label
_atom_site_fract_x
_atom_site_fract_y
_atom_site_fract_z
Si Si1 0.818386 0.178083 0.949541
Si Si2 0.208939 0.324987 0.578526
Si Si3 0.667831 0.533309 0.953484
Si Si4 0.340021 0.829501 0.888466
Si Si5 0.091938 0.067626 0.397745
Si Si6 0.419454 0.451132 0.326974
Si Si7 0.587838 0.941085 0.430630
Si Si8 0.348702 0.318609 0.392292
O O1 0.820215 0.155546 0.780257
O O2 0.832779 0.257143 0.973947
O O3 0.735731 0.161949 0.014808
O O4 0.884147 0.138304 0.034398
O O5 0.166934 0.388341 0.504750
O O6 0.298389 0.329598 0.537630
O O7 0.208468 0.326834 0.754463
O O8 0.750000 0.500000 0.986082
O O9 0.596380 0.498618 0.034949
O O10 0.649846 0.529448 0.781120
O O11 0.380474 0.756696 0.898623
O O12 0.399775 0.880586 0.956903
O O13 0.124821 0.066162 0.231344
O O14 0.001995 0.056743 0.403809
O O15 0.125180 0.006656 0.494612
O O16 0.500000 0.464994 0.250000
O O17 0.415935 0.373563 0.379396
#
# Coordination Sequence:
#
# PCOD8222832 Si02
#       8
#     8   8   8   8   8   8   8   8
#     4  10  20  36  57  83 117 147 189 243 295 334
#     4   9  19  34  57  83 110 144 202 239 280 349
#     4  11  21  37  62  84 110 156 205 241 291 362
#     4  10  20  36  57  85 113 151 189 238 288 350
#     4  10  21  38  60  84 116 154 190 245 279 347
#     4  11  23  38  56  86 122 151 190 252 306 352
#     4  10  21  38  59  85 116 151 199 230 290 345
#     4   9  19  36  55  83 111 152 187 239 289 347
#
# _framework density 20.003636
#
# number of rings (size 3 to 8) (size 9 to 14) (size 15 to 20)
#    0.000    2.000    1.250    2.250    1.750    3.000 
#    6.750    2.500    2.750    0.000    0.000    0.000 
#    0.000    0.000    0.000    0.000    0.000    0.000 
#
# Total GULP energy -793233.490078 kJ/mol
# GULP energy per Si atom -12394.273282 kJ/mol
# Density = 1.995811 g / cm^3
# Si number density = 20.003636 Si / 1000 Ang^3
#
#
#
# Elastic Constant Matrix: (Units=GPa)
#
#
# Indices 1 2 3 4 5 6 
#
# 1 36.8567 26.8595 15.6196 0.0000 0.0000 0.0000
# 2 26.8595 138.8658 60.5038 0.0000 0.0000 0.0000
# 3 15.6196 60.5038 109.5315 0.0000 0.0000 0.0000
# 4 0.0000 0.0000 0.0000 32.3196 0.0000 0.0000
# 5 0.0000 0.0000 0.0000 0.0000 30.9181 0.0000
# 6 0.0000 0.0000 0.0000 0.0000 0.0000 29.8036
#
#
#
# Elastic Compliance Matrix: (Units=1/GPa)
#
#
# Indices 1 2 3 4 5 6 
#
# 1 0.031769 -0.005493 -0.001496 0.000000 0.000000 0.000000
# 2 -0.005493 0.010433 -0.004980 0.000000 0.000000 0.000000
# 3 -0.001496 -0.004980 0.012094 0.000000 0.000000 0.000000
# 4 0.000000 0.000000 0.000000 0.030941 0.000000 0.000000
# 5 0.000000 0.000000 0.000000 0.000000 0.032344 0.000000
# 6 0.000000 0.000000 0.000000 0.000000 0.000000 0.033553
#
#
# Mechanical properties :
#
#
# Convention : Reuss Voigt Hill
#
# Bulk Modulus (GPa) = 32.93975 54.58000 43.75987
# Shear Modulus (GPa) = 26.99904 30.75966 28.87935
#
# Velocity S-wave (km/s) = 3.67782 3.92561 3.80373
# Velocity P-wave (km/s) = 5.87689 6.92037 6.41986
#
# Compressibility (1/GPa) = 0.03035846
#
# Stress axis : x y z
#
# Youngs Moduli (GPa) = 31.47704 95.84589 82.68541
#
# Poissons Ratio (x) = 0.52647 0.12371
# Poissons Ratio (y) = 0.17290 0.41177
# Poissons Ratio (z) = 0.04710 0.47731
#
# Static dielectric constant tensor:
#      x y z
#    x 3.145390 0.000000 0.000000 
#    y 0.000000 3.903850 0.000000 
#    z 0.000000 0.000000 3.874990 
# 
# 
# High freq. dielectric constant tensor:
#      x y z
#    x 1.740390 0.000000 0.000000 
#    y 0.000000 1.795460 0.000000 
#    z 0.000000 0.000000 1.792180 
# 
# From -- ./inp_files/4391.got.cif
#   From: 2010.03.12/outbox.cif.g09.slc.cpg/sg54_3_cif.got.tgz:4391.got - 2010.04.16 15:00:50.
