data_PCOD8222333
_publ_section_title
;
Structure prediction by ZEFSAII (Michael W. Deem and Ramdas Pophale) SiO2 
 PCOD8222333
Probable space group: P C C A
;
_chemical_formula_sum "Si O2"
_cell_formula_units_Z 40
_cell_length_a 16.896524
_cell_length_b 23.273267
_cell_length_c 5.161898
_cell_angle_alpha 90.000000
_cell_angle_beta 90.000000
_cell_angle_gamma 90.000000
_cell_volume 2029.850907
_symmetry_space_group_name_H-M "P C C A"
_symmetry_group_IT_number 54
_symmetry_cell_setting 'orthorhombic'
loop_
_space_group_symop_operation_xyz
x,y,z
1/2-x,-y,z
1/2+x,-y,1/2-z
-x,y,1/2-z
-x,-y,-z
1/2+x,y,-z
1/2-x,y,1/2+z
x,-y,1/2+z
loop_
_atom_site_type_symbol
_atom_site_label
_atom_site_fract_x
_atom_site_fract_y
_atom_site_fract_z
Si Si1 0.201623 0.133981 0.100052
Si Si2 0.300070 0.266999 0.601971
Si Si3 0.088343 0.525153 0.477033
Si Si4 0.093434 0.966494 0.737658
Si Si5 0.448225 0.345832 0.494812
O O1 0.269127 0.119429 0.311201
O O2 0.176435 0.200244 0.107801
O O3 0.125487 0.096569 0.172940
O O4 0.237538 0.283311 0.378249
O O5 0.380601 0.300308 0.553016
O O6 0.133135 0.493093 0.240434
O O7 0.090243 0.592955 0.426388
O O8 0.000000 0.500000 0.500000
O O9 0.000000 0.961009 0.750000
O O10 0.123684 0.010116 0.514069
O O11 0.500000 0.353180 0.750000
O O12 0.500000 0.324343 0.250000
#
# Coordination Sequence:
#
# PCOD8222333 Si02
#       5
#     8   8   8   8   8
#     4  10  21  38  59  79 107 151 194 226 267 331
#     4  10  23  42  57  79 120 158 184 235 302 340
#     4  10  16  30  50  82 110 139 171 236 281 324
#     4  10  21  36  55  84 117 145 174 228 293 328
#     4  12  21  34  61  91 107 143 200 238 274 339
#
# _framework density 19.705877999999998
#
# number of rings (size 3 to 8) (size 9 to 14) (size 15 to 20)
#    0.000    1.600    4.000    2.400    0.000    3.200 
#    0.000    3.000    0.000    3.600    0.000    0.000 
#    0.000    0.000    0.000    0.000    0.000    0.000 
#
# Total GULP energy -495940.013177 kJ/mol
# GULP energy per Si atom -12398.500329 kJ/mol
# Density = 1.966103 g / cm^3
# Si number density = 19.705878 Si / 1000 Ang^3
#
#
#
# Elastic Constant Matrix: (Units=GPa)
#
#
# Indices 1 2 3 4 5 6 
#
# 1 44.8825 50.3806 26.7347 0.0000 0.0000 0.0000
# 2 50.3806 105.8042 38.0003 0.0000 0.0000 0.0000
# 3 26.7347 38.0003 147.7668 0.0000 0.0000 0.0000
# 4 0.0000 0.0000 0.0000 28.6701 0.0000 0.0000
# 5 0.0000 0.0000 0.0000 0.0000 25.2839 0.0000
# 6 0.0000 0.0000 0.0000 0.0000 0.0000 12.4314
#
#
#
# Elastic Compliance Matrix: (Units=1/GPa)
#
#
# Indices 1 2 3 4 5 6 
#
# 1 0.049173 -0.022277 -0.003168 0.000000 0.000000 0.000000
# 2 -0.022277 0.020505 -0.001243 0.000000 0.000000 0.000000
# 3 -0.003168 -0.001243 0.007660 0.000000 0.000000 0.000000
# 4 0.000000 0.000000 0.000000 0.034879 0.000000 0.000000
# 5 0.000000 0.000000 0.000000 0.000000 0.039551 0.000000
# 6 0.000000 0.000000 0.000000 0.000000 0.000000 0.080442
#
#
# Mechanical properties :
#
#
# Convention : Reuss Voigt Hill
#
# Bulk Modulus (GPa) = 41.72996 58.74272 50.23634
# Shear Modulus (GPa) = 17.03149 25.49961 21.26555
#
# Velocity S-wave (km/s) = 2.94306 3.60114 3.28860
# Velocity P-wave (km/s) = 5.72461 6.86771 6.32205
#
# Compressibility (1/GPa) = 0.02396360
#
# Stress axis : x y z
#
# Youngs Moduli (GPa) = 20.33626 48.76774 130.54570
#
# Poissons Ratio (x) = 1.08640 0.41354
# Poissons Ratio (y) = 0.45303 0.16224
# Poissons Ratio (z) = 0.06442 0.06061
#
# Static dielectric constant tensor:
#      x y z
#    x 3.135990 0.000000 0.000000 
#    y 0.000000 3.618300 0.000000 
#    z 0.000000 0.000000 3.285730 
# 
# 
# High freq. dielectric constant tensor:
#      x y z
#    x 1.725450 0.000000 0.000000 
#    y 0.000000 1.770910 0.000000 
#    z 0.000000 0.000000 1.803030 
# 
# From -- ./inp_files/941.got.cif
#   From: 2010.03.12/outbox.cif.g09.slc.cpg/sg54_1_cif.got.tgz:941.got - 2010.04.16 15:00:50.
