data_PCOD8222768
_publ_section_title
;
Structure prediction by ZEFSAII (Michael W. Deem and Ramdas Pophale) SiO2 
 PCOD8222768
Probable space group: P C C A
;
_chemical_formula_sum "Si O2"
_cell_formula_units_Z 60
_cell_length_a 27.286715
_cell_length_b 21.893635
_cell_length_c 5.156492
_cell_angle_alpha 90.000000
_cell_angle_beta 90.000000
_cell_angle_gamma 90.000000
_cell_volume 3080.516055
_symmetry_space_group_name_H-M "P C C A"
_symmetry_group_IT_number 54
_symmetry_cell_setting 'orthorhombic'
loop_
_space_group_symop_operation_xyz
x,y,z
1/2-x,-y,z
1/2+x,-y,1/2-z
-x,y,1/2-z
-x,-y,-z
1/2+x,y,-z
1/2-x,y,1/2+z
x,-y,1/2+z
loop_
_atom_site_type_symbol
_atom_site_label
_atom_site_fract_x
_atom_site_fract_y
_atom_site_fract_z
Si Si1 0.415464 0.672880 0.192789
Si Si2 0.051211 0.839380 0.119057
Si Si3 0.882953 0.266321 0.785867
Si Si4 0.442408 0.463040 0.748215
Si Si5 0.500000 0.249567 0.750000
Si Si6 0.279494 0.219495 0.065250
Si Si7 0.391543 0.037475 0.061240
Si Si8 0.219133 0.076549 0.574630
O O1 0.409060 0.694381 0.489432
O O2 0.415235 0.600140 0.192642
O O3 0.466214 0.703784 0.081748
O O4 0.375917 0.695243 0.980090
O O5 0.088120 0.797036 0.288782
O O6 0.079889 0.899057 0.024100
O O7 0.000000 0.858712 0.250000
O O8 0.038423 0.795081 0.884687
O O9 0.829589 0.254149 0.895371
O O10 0.500000 0.450616 0.750000
O O11 0.426237 0.510161 0.524819
O O12 0.241025 0.238613 0.286052
O O13 0.290549 0.148081 0.076482
O O14 0.333233 0.044699 0.051107
O O15 0.408035 0.007287 0.330748
O O16 0.253595 0.055951 0.336905
#
# Coordination Sequence:
#
# PCOD8222768 Si02
#       8
#     8   8   8   8   4   8   8   8
#     4  11  21  35  58  89 120 156 216 230 286 335
#     4  11  24  43  61  82 115 157 195 244 302 334
#     4  11  22  37  62  90 118 154 196 252 286 358
#     4  10  20  34  52  79 124 171 204 245 285 330
#     4  10  22  38  60  84 112 160 196 254 272 354
#     4  10  20  37  61  90 119 149 180 235 315 372
#     4  12  28  43  62  86 112 146 199 249 289 363
#     4  10  21  40  64  86 113 144 180 232 305 375
#
# _framework density 19.477255
#
# number of rings (size 3 to 8) (size 9 to 14) (size 15 to 20)
#    0.000    1.333    3.333    2.400    1.867    2.133 
#    0.000    0.000    0.000    0.000    0.000    0.000 
#    0.000   37.333    0.000    0.000    0.000    0.000 
#
# Total GULP energy -743758.961208 kJ/mol
# GULP energy per Si atom -12395.982687 kJ/mol
# Density = 1.943292 g / cm^3
# Si number density = 19.477255 Si / 1000 Ang^3
#
#
#
# Elastic Constant Matrix: (Units=GPa)
#
#
# Indices 1 2 3 4 5 6 
#
# 1 49.7673 35.0697 -1.0672 0.0000 0.0000 0.0000
# 2 35.0697 107.4488 22.1567 0.0000 0.0000 0.0000
# 3 -1.0672 22.1567 95.0140 0.0000 0.0000 0.0000
# 4 0.0000 0.0000 0.0000 32.4187 0.0000 0.0000
# 5 0.0000 0.0000 0.0000 0.0000 -160.9975 0.0000
# 6 0.0000 0.0000 0.0000 0.0000 0.0000 19.4044
#
#
#
# Elastic Compliance Matrix: (Units=1/GPa)
#
#
# Indices 1 2 3 4 5 6 
#
# 1 0.026624 -0.009194 0.002443 0.000000 0.000000 0.000000
# 2 -0.009194 0.012951 -0.003123 0.000000 0.000000 0.000000
# 3 0.002443 -0.003123 0.011281 0.000000 0.000000 0.000000
# 4 0.000000 0.000000 0.000000 0.030846 0.000000 0.000000
# 5 0.000000 0.000000 0.000000 0.000000 -0.006211 0.000000
# 6 0.000000 0.000000 0.000000 0.000000 0.000000 0.051535
#
#
# Mechanical properties :
#
#
# Convention : Reuss Voigt Hill
#
# Bulk Modulus (GPa) = 32.14582 40.50539 36.32560
# Shear Modulus (GPa) = 31.81796 -8.76351 11.52723
#
# Velocity S-wave (km/s) = 4.04616 -2.12347 2.43540
# Velocity P-wave (km/s) = 6.19425 3.85087 5.15742
#
# Compressibility (1/GPa) = 0.03110825
#
# Stress axis : x y z
#
# Youngs Moduli (GPa) = 37.55957 77.21128 88.64793
#
# Poissons Ratio (x) = 0.70985 -0.21656
# Poissons Ratio (y) = 0.34531 0.27689
# Poissons Ratio (z) = -0.09176 0.24117
#
# Static dielectric constant tensor:
#      x y z
#    x 3.411340 0.000000 0.000000 
#    y 0.000000 3.423060 0.000000 
#    z 0.000000 0.000000 3.767920 
# 
# 
# High freq. dielectric constant tensor:
#      x y z
#    x 1.741400 0.000000 0.000000 
#    y 0.000000 1.752250 0.000000 
#    z 0.000000 0.000000 1.765260 
# 
# From -- ./inp_files/1986.got.cif
#   From: 2010.03.12/outbox.cif.g09.slc.cpg/sg54_1_cif.got.tgz:1986.got - 2010.04.16 15:00:50.
