data_PCOD8222908
_publ_section_title
;
Structure prediction by ZEFSAII (Michael W. Deem and Ramdas Pophale) SiO2 
 PCOD8222908
Probable space group: P C C A
;
_chemical_formula_sum "Si O2"
_cell_formula_units_Z 48
_cell_length_a 18.207934
_cell_length_b 14.855773
_cell_length_c 8.750944
_cell_angle_alpha 90.000000
_cell_angle_beta 90.000000
_cell_angle_gamma 90.000000
_cell_volume 2367.068520
_symmetry_space_group_name_H-M "P C C A"
_symmetry_group_IT_number 54
_symmetry_cell_setting 'orthorhombic'
loop_
_space_group_symop_operation_xyz
x,y,z
1/2-x,-y,z
1/2+x,-y,1/2-z
-x,y,1/2-z
-x,-y,-z
1/2+x,y,-z
1/2-x,y,1/2+z
x,-y,1/2+z
loop_
_atom_site_type_symbol
_atom_site_label
_atom_site_fract_x
_atom_site_fract_y
_atom_site_fract_z
Si Si1 0.687915 0.233037 0.103365
Si Si2 0.414577 0.906695 0.274775
Si Si3 0.922040 0.382438 0.683818
Si Si4 0.330976 0.960482 0.974437
Si Si5 0.421942 0.439230 0.669015
Si Si6 0.161042 0.731511 0.745849
O O1 0.629883 0.295397 0.192417
O O2 0.672002 0.127284 0.137537
O O3 0.769187 0.261495 0.146749
O O4 0.684316 0.246158 0.924300
O O5 0.500000 0.925627 0.250000
O O6 0.401729 0.800527 0.305801
O O7 0.388029 0.965508 0.416431
O O8 0.361934 0.933512 0.137228
O O9 0.889922 0.460975 0.794691
O O10 0.929160 0.420732 0.511332
O O11 0.000000 0.350036 0.750000
O O12 0.250000 0.000000 0.994868
O O13 0.500000 0.434053 0.750000
O O14 0.369558 0.368966 0.753982
#
# Coordination Sequence:
#
# PCOD8222908 Si02
#       6
#     8   8   8   8   8   8
#     4  10  23  38  59  87 116 158 201 246 307 363
#     4  11  23  39  61  91 121 156 206 257 306 368
#     4  10  21  38  59  88 119 155 202 246 300 366
#     4  11  22  40  63  87 121 164 202 251 316 375
#     4  10  20  37  60  85 118 159 195 246 304 357
#     4  10  22  39  58  84 120 155 201 249 303 366
#
# _framework density 20.278247
#
# number of rings (size 3 to 8) (size 9 to 14) (size 15 to 20)
#    0.000    1.667    1.667    3.500    2.333    4.000 
#    0.000    5.000    0.000    0.000    0.000    0.000 
#    0.000    0.000    0.000    0.000    0.000    0.000 
#
# Total GULP energy -595145.816063 kJ/mol
# GULP energy per Si atom -12398.871168 kJ/mol
# Density = 2.023209 g / cm^3
# Si number density = 20.278247 Si / 1000 Ang^3
#
#
#
# Elastic Constant Matrix: (Units=GPa)
#
#
# Indices 1 2 3 4 5 6 
#
# 1 98.4827 51.6118 2.6876 0.0000 0.0000 0.0000
# 2 51.6118 117.4164 19.8532 0.0000 0.0000 0.0000
# 3 2.6876 19.8532 28.1664 0.0000 0.0000 0.0000
# 4 0.0000 0.0000 0.0000 43.9579 0.0000 0.0000
# 5 0.0000 0.0000 0.0000 0.0000 23.8454 0.0000
# 6 0.0000 0.0000 0.0000 0.0000 0.0000 38.2669
#
#
#
# Elastic Compliance Matrix: (Units=1/GPa)
#
#
# Indices 1 2 3 4 5 6 
#
# 1 0.013454 -0.006468 0.003275 0.000000 0.000000 0.000000
# 2 -0.006468 0.012778 -0.008390 0.000000 0.000000 0.000000
# 3 0.003275 -0.008390 0.041104 0.000000 0.000000 0.000000
# 4 0.000000 0.000000 0.000000 0.022749 0.000000 0.000000
# 5 0.000000 0.000000 0.000000 0.000000 0.041937 0.000000
# 6 0.000000 0.000000 0.000000 0.000000 0.000000 0.026132
#
#
# Mechanical properties :
#
#
# Convention : Reuss Voigt Hill
#
# Bulk Modulus (GPa) = 22.63879 43.59675 33.11777
# Shear Modulus (GPa) = 25.50456 32.54156 29.02306
#
# Velocity S-wave (km/s) = 3.55030 4.01028 3.78728
# Velocity P-wave (km/s) = 5.29098 6.55661 5.95750
#
# Compressibility (1/GPa) = 0.04417198
#
# Stress axis : x y z
#
# Youngs Moduli (GPa) = 74.32608 78.25825 24.32841
#
# Poissons Ratio (x) = 0.50615 -0.07968
# Poissons Ratio (y) = 0.48072 0.20411
# Poissons Ratio (z) = -0.24342 0.65656
#
# Static dielectric constant tensor:
#      x y z
#    x 3.658070 0.000000 0.000000 
#    y 0.000000 4.554470 0.000000 
#    z 0.000000 0.000000 3.603060 
# 
# 
# High freq. dielectric constant tensor:
#      x y z
#    x 1.790040 0.000000 0.000000 
#    y 0.000000 1.811290 0.000000 
#    z 0.000000 0.000000 1.787850 
# 
# From -- ./inp_files/4212.got.cif
#   From: 2010.03.12/outbox.cif.g09.slc.cpg/sg54_3_cif.got.tgz:4212.got - 2010.04.16 15:00:50.
