data_PCOD8222585
_publ_section_title
;
Structure prediction by ZEFSAII (Michael W. Deem and Ramdas Pophale) SiO2 
 PCOD8222585
Probable space group: P C C A
;
_chemical_formula_sum "Si O2"
_cell_formula_units_Z 56
_cell_length_a 5.275058
_cell_length_b 27.091125
_cell_length_c 17.223292
_cell_angle_alpha 90.000000
_cell_angle_beta 90.000000
_cell_angle_gamma 90.000000
_cell_volume 2461.333393
_symmetry_space_group_name_H-M "P C C A"
_symmetry_group_IT_number 54
_symmetry_cell_setting 'orthorhombic'
loop_
_space_group_symop_operation_xyz
x,y,z
1/2-x,-y,z
1/2+x,-y,1/2-z
-x,y,1/2-z
-x,-y,-z
1/2+x,y,-z
1/2-x,y,1/2+z
x,-y,1/2+z
loop_
_atom_site_type_symbol
_atom_site_label
_atom_site_fract_x
_atom_site_fract_y
_atom_site_fract_z
Si Si1 0.250033 0.442840 0.702110
Si Si2 0.769765 0.158225 0.949387
Si Si3 0.782627 0.409250 0.466369
Si Si4 0.779620 0.700353 0.032356
Si Si5 0.749901 0.191133 0.782911
Si Si6 0.812683 0.050601 0.452461
Si Si7 0.749797 0.698903 0.716007
O O1 0.250000 0.500000 0.677197
O O2 0.500000 0.429550 0.750000
O O3 0.248691 0.409598 0.625517
O O4 0.000000 0.429374 0.750000
O O5 0.749652 0.194832 0.876251
O O6 0.746339 0.102974 0.911420
O O7 0.540855 0.166865 0.009690
O O8 0.543860 0.436224 0.507837
O O9 0.816218 0.353301 0.494787
O O10 0.748604 0.697607 0.123795
O O11 0.539268 0.728703 0.993216
O O12 0.500000 0.163391 0.750000
O O13 0.750063 0.245811 0.747814
O O14 0.000000 0.163361 0.750000
O O15 0.608596 0.049043 0.523816
O O16 0.750000 0.000000 0.403291
O O17 0.500000 0.671353 0.750000
O O18 0.000000 0.671441 0.750000
#
# Coordination Sequence:
#
# PCOD8222585 Si02
#       7
#     8   8   8   8   8   8   8
#     4  10  21  38  60  87 119 154 189 226 274 330
#     4  10  19  33  55  81 106 138 183 228 267 318
#     4  10  21  38  58  87 117 149 189 232 274 318
#     4  10  21  40  60  84 113 143 188 233 274 326
#     4  10  21  38  55  78 109 145 178 219 282 335
#     4   8  14  25  44  72 103 133 170 218 266 311
#     4  10  21  40  60  81 109 144 181 224 283 336
#
# _framework density 22.751895000000001
#
# number of rings (size 3 to 8) (size 9 to 14) (size 15 to 20)
#    0.000    2.286    0.000    2.571    0.000    0.571 
#    0.000   34.286    0.000    0.857    0.000    0.000 
#    0.000    0.000    0.000    0.000    0.000    0.000 
#
# Total GULP energy -693815.313926 kJ/mol
# GULP energy per Si atom -12389.559177 kJ/mol
# Density = 2.270011 g / cm^3
# Si number density = 22.751895 Si / 1000 Ang^3
#
#
#
# Elastic Constant Matrix: (Units=GPa)
#
#
# Indices 1 2 3 4 5 6 
#
# 1 219.7128 -22.4830 34.2073 0.0000 0.0000 0.0000
# 2 -22.4830 84.1129 32.9761 0.0000 0.0000 0.0000
# 3 34.2073 32.9761 133.1223 0.0000 0.0000 0.0000
# 4 0.0000 0.0000 0.0000 7.2698 0.0000 0.0000
# 5 0.0000 0.0000 0.0000 0.0000 42.0187 0.0000
# 6 0.0000 0.0000 0.0000 0.0000 0.0000 -28.4102
#
#
#
# Elastic Compliance Matrix: (Units=1/GPa)
#
#
# Indices 1 2 3 4 5 6 
#
# 1 0.005043 0.002056 -0.001805 0.000000 0.000000 0.000000
# 2 0.002056 0.014005 -0.003998 0.000000 0.000000 0.000000
# 3 -0.001805 -0.003998 0.008966 0.000000 0.000000 0.000000
# 4 0.000000 0.000000 0.000000 0.137555 0.000000 0.000000
# 5 0.000000 0.000000 0.000000 0.000000 0.023799 0.000000
# 6 0.000000 0.000000 0.000000 0.000000 0.000000 -0.035199
#
#
# Mechanical properties :
#
#
# Convention : Reuss Voigt Hill
#
# Bulk Modulus (GPa) = 48.73245 58.48320 53.60783
# Shear Modulus (GPa) = 29.67302 30.32551 29.99926
#
# Velocity S-wave (km/s) = 3.61529 3.65482 3.63511
# Velocity P-wave (km/s) = 6.23640 6.60082 6.42120
#
# Compressibility (1/GPa) = 0.02052021
#
# Stress axis : x y z
#
# Youngs Moduli (GPa) = 198.30425 71.40087 111.53328
#
# Poissons Ratio (x) = -0.14677 0.20132
# Poissons Ratio (y) = -0.40762 0.44586
# Poissons Ratio (z) = 0.35793 0.28543
#
# Static dielectric constant tensor:
#      x y z
#    x 12.011410 0.000000 0.000000 
#    y 0.000000 4.058080 0.000000 
#    z 0.000000 0.000000 3.838850 
# 
# 
# High freq. dielectric constant tensor:
#      x y z
#    x 1.944560 0.000000 0.000000 
#    y 0.000000 1.875380 0.000000 
#    z 0.000000 0.000000 1.865680 
# 
# From -- ./inp_files/10993.got.cif
#   From: 2010.03.12/outbox.cif.g09.slc.cpg/sg54_6_cif.got.tgz:10993.got - 2010.04.16 15:00:50.
