data_PCOD8222108
_publ_section_title
;
Structure prediction by ZEFSAII (Michael W. Deem and Ramdas Pophale) SiO2 
 PCOD8222108
Probable space group: P M N A
;
_chemical_formula_sum "Si O2"
_cell_formula_units_Z 40
_cell_length_a 19.261265
_cell_length_b 5.095732
_cell_length_c 17.365878
_cell_angle_alpha 90.000000
_cell_angle_beta 90.000000
_cell_angle_gamma 90.000000
_cell_volume 1704.465170
_symmetry_space_group_name_H-M "P M N A"
_symmetry_group_IT_number 53
_symmetry_cell_setting 'orthorhombic'
loop_
_space_group_symop_operation_xyz
x,y,z
1/2-x,-y,1/2+z
x,-y,-z
1/2-x,y,1/2-z
-x,-y,-z
1/2+x,y,1/2-z
-x,y,z
1/2+x,-y,1/2+z
loop_
_atom_site_type_symbol
_atom_site_label
_atom_site_fract_x
_atom_site_fract_y
_atom_site_fract_z
Si Si1 0.424075 0.568691 0.584112
Si Si2 0.654167 0.247571 0.053041
Si Si3 0.580622 0.298418 0.206049
Si Si4 0.123697 0.780217 0.204485
Si Si5 0.300003 0.070864 0.410091
O O1 0.397001 0.500000 0.500000
O O2 0.500000 0.704501 0.580449
O O3 0.430083 0.309746 0.637272
O O4 0.365813 0.758882 0.619193
O O5 0.593126 0.274702 0.114794
O O6 0.726410 0.212672 0.099666
O O7 0.660166 0.500000 0.000000
O O8 0.637486 0.000000 0.000000
O O9 0.500000 0.371379 0.220006
O O10 0.630144 0.531812 0.237756
O O11 0.596516 0.024029 0.246749
O O12 0.195084 0.836344 0.154075
O O13 0.309379 0.000000 0.500000
#
# Coordination Sequence:
#
# PCOD8222108 Si02
#       5
#     8   8   8   8   8
#     4  11  22  37  63  97 136 189 240 280 330 405
#     4  11  27  50  78 104 136 185 243 305 371 431
#     4  12  27  48  73 107 144 184 240 305 370 429
#     4  12  25  43  69 101 149 187 229 291 361 419
#     4  11  24  44  68 101 146 188 238 287 343 423
#
# _framework density 23.467770999999999
#
# number of rings (size 3 to 8) (size 9 to 14) (size 15 to 20)
#    0.000    0.600    4.000    3.600    2.800    3.600 
#    3.600    0.000    0.000    0.000    0.000    0.000 
#    0.000    0.000    0.000    0.000    0.000    0.000 
#
# Total GULP energy -495621.995964 kJ/mol
# GULP energy per Si atom -12390.549899 kJ/mol
# Density = 2.341436 g / cm^3
# Si number density = 23.467771 Si / 1000 Ang^3
#
#
#
# Elastic Constant Matrix: (Units=GPa)
#
#
# Indices 1 2 3 4 5 6 
#
# 1 41.3283 31.1707 31.4634 0.0000 0.0000 0.0000
# 2 31.1707 146.9142 63.9968 0.0000 0.0000 0.0000
# 3 31.4634 63.9968 143.1858 0.0000 0.0000 0.0000
# 4 0.0000 0.0000 0.0000 46.5301 0.0000 0.0000
# 5 0.0000 0.0000 0.0000 0.0000 -33.6592 0.0000
# 6 0.0000 0.0000 0.0000 0.0000 0.0000 28.3352
#
#
#
# Elastic Compliance Matrix: (Units=1/GPa)
#
#
# Indices 1 2 3 4 5 6 
#
# 1 0.031308 -0.004527 -0.004856 0.000000 0.000000 0.000000
# 2 -0.004527 0.009107 -0.003076 0.000000 0.000000 0.000000
# 3 -0.004856 -0.003076 0.009426 0.000000 0.000000 0.000000
# 4 0.000000 0.000000 0.000000 0.021491 0.000000 0.000000
# 5 0.000000 0.000000 0.000000 0.000000 -0.029710 0.000000
# 6 0.000000 0.000000 0.000000 0.000000 0.000000 0.035292
#
#
# Mechanical properties :
#
#
# Convention : Reuss Voigt Hill
#
# Bulk Modulus (GPa) = 40.12394 64.96556 52.54475
# Shear Modulus (GPa) = 45.39691 21.89438 33.64565
#
# Velocity S-wave (km/s) = 4.40299 3.05775 3.79053
# Velocity P-wave (km/s) = 6.55615 6.34109 6.44951
#
# Compressibility (1/GPa) = 0.02492277
#
# Stress axis : x y z
#
# Youngs Moduli (GPa) = 31.94073 109.80609 106.09383
#
# Poissons Ratio (x) = 0.49712 0.51520
# Poissons Ratio (y) = 0.14460 0.32630
# Poissons Ratio (z) = 0.15511 0.33771
#
# Static dielectric constant tensor:
#      x y z
#    x 4.023180 0.000000 0.000000 
#    y 0.000000 4.322630 0.000000 
#    z 0.000000 0.000000 4.382570 
# 
# 
# High freq. dielectric constant tensor:
#      x y z
#    x 1.900700 0.000000 0.000000 
#    y 0.000000 1.933690 0.000000 
#    z 0.000000 0.000000 1.948770 
# 
# From -- ./inp_files/28750.got.cif
#   From: 2010.03.12/outbox.cif.g09.slc.cpg/sg53_15_cif.got.tgz:28750.got - 2010.04.16 14:36:59.
