data_PCOD8222275
_publ_section_title
;
Structure prediction by ZEFSAII (Michael W. Deem and Ramdas Pophale) SiO2 
 PCOD8222275
Probable space group: P C C A
;
_chemical_formula_sum "Si O2"
_cell_formula_units_Z 48
_cell_length_a 17.357981
_cell_length_b 26.863034
_cell_length_c 5.256848
_cell_angle_alpha 90.000000
_cell_angle_beta 90.000000
_cell_angle_gamma 90.000000
_cell_volume 2451.205318
_symmetry_space_group_name_H-M "P C C A"
_symmetry_group_IT_number 54
_symmetry_cell_setting 'orthorhombic'
loop_
_space_group_symop_operation_xyz
x,y,z
1/2-x,-y,z
1/2+x,-y,1/2-z
-x,y,1/2-z
-x,-y,-z
1/2+x,y,-z
1/2-x,y,1/2+z
x,-y,1/2+z
loop_
_atom_site_type_symbol
_atom_site_label
_atom_site_fract_x
_atom_site_fract_y
_atom_site_fract_z
Si Si1 0.199215 0.261900 0.480263
Si Si2 0.337885 0.478958 0.980534
Si Si3 0.045724 0.917968 0.999759
Si Si4 0.453326 0.800792 0.499781
Si Si5 0.296377 0.371334 0.043088
Si Si6 0.217168 0.944525 0.000078
O O1 0.241498 0.253258 0.211569
O O2 0.129982 0.223686 0.502895
O O3 0.163257 0.317933 0.494537
O O4 0.250000 0.500000 0.977350
O O5 0.380274 0.501788 0.226896
O O6 0.348452 0.419305 0.987012
O O7 0.125668 0.947068 0.000374
O O8 0.000000 0.935027 0.750000
O O9 0.061538 0.859426 0.998256
O O10 0.000000 0.934664 0.250000
O O11 0.500000 0.784219 0.750000
O O12 0.500000 0.783780 0.250000
O O13 0.226865 0.374606 0.839239
O O14 0.249941 0.916170 0.749992
O O15 0.250000 0.000000 0.999701
#
# Coordination Sequence:
#
# PCOD8222275 Si02
#       6
#     8   8   8   8   8   8
#     4  10  21  33  51  78 109 138 168 220 279 317
#     4  10  14  20  34  53  82 126 158 188 247 309
#     4  10  21  38  60  83 107 143 188 228 261 308
#     4  10  21  38  58  79 107 142 184 223 262 320
#     4  10  16  25  37  60  94 128 155 203 253 317
#     4  10  21  38  56  83 117 147 179 221 272 320
#
# _framework density 19.582201999999999
#
# number of rings (size 3 to 8) (size 9 to 14) (size 15 to 20)
#    0.000    2.000    3.333    2.000    0.000    1.333 
#    0.000   10.000    0.000    0.000    0.000    0.000 
#    0.000    4.000    0.000    0.000    0.000    0.000 
#
# Total GULP energy -594873.182034 kJ/mol
# GULP energy per Si atom -12393.191292 kJ/mol
# Density = 1.953763 g / cm^3
# Si number density = 19.582202 Si / 1000 Ang^3
#
#
#
# Elastic Constant Matrix: (Units=GPa)
#
#
# Indices 1 2 3 4 5 6 
#
# 1 109.6842 43.0272 52.3243 0.0000 0.0000 0.0000
# 2 43.0272 50.4356 22.9849 0.0000 0.0000 0.0000
# 3 52.3243 22.9849 187.7127 0.0000 0.0000 0.0000
# 4 0.0000 0.0000 0.0000 192.0972 0.0000 0.0000
# 5 0.0000 0.0000 0.0000 0.0000 26.5561 0.0000
# 6 0.0000 0.0000 0.0000 0.0000 0.0000 4.7763
#
#
#
# Elastic Compliance Matrix: (Units=1/GPa)
#
#
# Indices 1 2 3 4 5 6 
#
# 1 0.014939 -0.011488 -0.002758 0.000000 0.000000 0.000000
# 2 -0.011488 0.029833 -0.000451 0.000000 0.000000 0.000000
# 3 -0.002758 -0.000451 0.006151 0.000000 0.000000 0.000000
# 4 0.000000 0.000000 0.000000 0.005206 0.000000 0.000000
# 5 0.000000 0.000000 0.000000 0.000000 0.037656 0.000000
# 6 0.000000 0.000000 0.000000 0.000000 0.000000 0.209368
#
#
# Mechanical properties :
#
#
# Convention : Reuss Voigt Hill
#
# Bulk Modulus (GPa) = 46.44499 64.94501 55.69500
# Shear Modulus (GPa) = 14.71790 59.98566 37.35178
#
# Velocity S-wave (km/s) = 2.74450 5.54069 4.37216
# Velocity P-wave (km/s) = 5.81485 8.61218 7.34786
#
# Compressibility (1/GPa) = 0.02153085
#
# Stress axis : x y z
#
# Youngs Moduli (GPa) = 66.93840 33.51966 162.57149
#
# Poissons Ratio (x) = 0.38507 0.44830
# Poissons Ratio (y) = 0.76899 0.07328
# Poissons Ratio (z) = 0.18459 0.01511
#
# Static dielectric constant tensor:
#      x y z
#    x 3.019800 0.000000 0.000000 
#    y 0.000000 3.608170 0.000000 
#    z 0.000000 0.000000 4.774910 
# 
# 
# High freq. dielectric constant tensor:
#      x y z
#    x 1.704060 0.000000 0.000000 
#    y 0.000000 1.759680 0.000000 
#    z 0.000000 0.000000 1.803710 
# 
# From -- ./inp_files/631.got.cif
#   From: 2010.03.12/outbox.cif.g09.slc.cpg/sg54_1_cif.got.tgz:631.got - 2010.04.16 15:00:50.
