data_PCOD8222404
_publ_section_title
;
Structure prediction by ZEFSAII (Michael W. Deem and Ramdas Pophale) SiO2 
 PCOD8222404
Probable space group: P C C A
;
_chemical_formula_sum "Si O2"
_cell_formula_units_Z 48
_cell_length_a 19.082822
_cell_length_b 8.929297
_cell_length_c 16.462501
_cell_angle_alpha 90.000000
_cell_angle_beta 90.000000
_cell_angle_gamma 90.000000
_cell_volume 2805.147370
_symmetry_space_group_name_H-M "P C C A"
_symmetry_group_IT_number 54
_symmetry_cell_setting 'orthorhombic'
loop_
_space_group_symop_operation_xyz
x,y,z
1/2-x,-y,z
1/2+x,-y,1/2-z
-x,y,1/2-z
-x,-y,-z
1/2+x,y,-z
1/2-x,y,1/2+z
x,-y,1/2+z
loop_
_atom_site_type_symbol
_atom_site_label
_atom_site_fract_x
_atom_site_fract_y
_atom_site_fract_z
Si Si1 0.250000 0.000000 0.344730
Si Si2 0.007352 0.094652 0.417346
Si Si3 0.000000 0.085596 0.750000
Si Si4 0.143932 0.108678 0.085667
Si Si5 0.848234 0.859195 0.281887
Si Si6 0.271125 0.329229 0.093576
Si Si7 0.653930 0.842615 0.037664
O O1 0.306711 0.099576 0.298340
O O2 0.210204 0.131232 0.392588
O O3 0.076599 0.197458 0.426659
O O4 0.933643 0.184733 0.411322
O O5 0.015085 0.005572 0.332691
O O6 0.000000 0.000000 0.500000
O O7 0.929598 0.183918 0.764063
O O8 0.200130 0.238085 0.081294
O O9 0.156739 0.008888 0.164706
O O10 0.151825 0.000678 0.008914
O O11 0.811652 0.717537 0.324634
O O12 0.250000 0.500000 0.098485
O O13 0.322697 0.296470 0.018034
#
# Coordination Sequence:
#
# PCOD8222404 Si02
#       7
#     4   8   4   8   8   8   8
#     4  12  16  28  58  80 106 124 174 230 282 306
#     4   9  18  29  51  82 108 130 176 237 283 323
#     4  10  18  30  54  86 110 134 178 242 290 322
#     4   9  17  34  52  75 102 137 182 222 266 319
#     4  10  19  32  55  81 103 137 181 229 274 325
#     4  11  21  36  53  74 110 152 187 215 269 339
#     4  10  18  32  53  79 101 135 176 232 271 319
#
# _framework density 17.1114
#
# number of rings (size 3 to 8) (size 9 to 14) (size 15 to 20)
#    0.000    2.000    5.000    2.000    0.000    0.000 
#    0.000    1.667    0.000    6.000    0.000    0.000 
#    0.000    0.000    0.000    0.000    0.000    0.000 
#
# Total GULP energy -594684.734738 kJ/mol
# GULP energy per Si atom -12389.265307 kJ/mol
# Density = 1.707245 g / cm^3
# Si number density = 17.111400 Si / 1000 Ang^3
#
#
#
# Elastic Constant Matrix: (Units=GPa)
#
#
# Indices 1 2 3 4 5 6 
#
# 1 134.1906 32.8988 19.4081 0.0000 0.0000 0.0000
# 2 32.8988 69.2234 13.5952 0.0000 0.0000 0.0000
# 3 19.4081 13.5952 86.8267 0.0000 0.0000 0.0000
# 4 0.0000 0.0000 0.0000 9.9802 0.0000 0.0000
# 5 0.0000 0.0000 0.0000 0.0000 23.7665 0.0000
# 6 0.0000 0.0000 0.0000 0.0000 0.0000 12.8626
#
#
#
# Elastic Compliance Matrix: (Units=1/GPa)
#
#
# Indices 1 2 3 4 5 6 
#
# 1 0.008579 -0.003818 -0.001320 0.000000 0.000000 0.000000
# 2 -0.003818 0.016603 -0.001746 0.000000 0.000000 0.000000
# 3 -0.001320 -0.001746 0.012086 0.000000 0.000000 0.000000
# 4 0.000000 0.000000 0.000000 0.100198 0.000000 0.000000
# 5 0.000000 0.000000 0.000000 0.000000 0.042076 0.000000
# 6 0.000000 0.000000 0.000000 0.000000 0.000000 0.077745
#
#
# Mechanical properties :
#
#
# Convention : Reuss Voigt Hill
#
# Bulk Modulus (GPa) = 42.55348 46.89386 44.72367
# Shear Modulus (GPa) = 17.92827 24.27775 21.10301
#
# Velocity S-wave (km/s) = 3.24039 3.77079 3.51561
# Velocity P-wave (km/s) = 6.23880 6.81344 6.53244
#
# Compressibility (1/GPa) = 0.02349984
#
# Stress axis : x y z
#
# Youngs Moduli (GPa) = 116.56345 60.22829 82.74279
#
# Poissons Ratio (x) = 0.22995 0.10921
# Poissons Ratio (y) = 0.44504 0.14450
# Poissons Ratio (z) = 0.15384 0.10518
#
# Static dielectric constant tensor:
#      x y z
#    x 3.939480 0.000000 0.000000 
#    y 0.000000 2.526630 0.000000 
#    z 0.000000 0.000000 3.395760 
# 
# 
# High freq. dielectric constant tensor:
#      x y z
#    x 1.699260 0.000000 0.000000 
#    y 0.000000 1.577420 0.000000 
#    z 0.000000 0.000000 1.677700 
# 
# From -- ./inp_files/18856.got.cif
#   From: 2010.03.12/outbox.cif.g09.slc.cpg/sg54_10_cif.got.tgz:18856.got - 2010.04.16 15:00:50.
