data_PCOD8222465
_publ_section_title
;
Structure prediction by ZEFSAII (Michael W. Deem and Ramdas Pophale) SiO2 
 PCOD8222465
Probable space group: P C C A
;
_chemical_formula_sum "Si O2"
_cell_formula_units_Z 64
_cell_length_a 18.866849
_cell_length_b 9.007946
_cell_length_c 19.376826
_cell_angle_alpha 90.000000
_cell_angle_beta 90.000000
_cell_angle_gamma 90.000000
_cell_volume 3293.121748
_symmetry_space_group_name_H-M "P C C A"
_symmetry_group_IT_number 54
_symmetry_cell_setting 'orthorhombic'
loop_
_space_group_symop_operation_xyz
x,y,z
1/2-x,-y,z
1/2+x,-y,1/2-z
-x,y,1/2-z
-x,-y,-z
1/2+x,y,-z
1/2-x,y,1/2+z
x,-y,1/2+z
loop_
_atom_site_type_symbol
_atom_site_label
_atom_site_fract_x
_atom_site_fract_y
_atom_site_fract_z
Si Si1 0.576893 0.447736 0.281947
Si Si2 0.302918 0.124375 0.427753
Si Si3 0.873763 0.283427 0.371342
Si Si4 0.737274 0.845711 0.284845
Si Si5 0.745469 0.656287 0.966263
Si Si6 0.924212 0.042482 0.471107
Si Si7 0.300637 0.625915 0.818141
Si Si8 0.636517 0.787222 0.880088
O O1 0.500000 0.447160 0.250000
O O2 0.582128 0.589750 0.332296
O O3 0.632309 0.451251 0.218454
O O4 0.586888 0.296037 0.324997
O O5 0.256831 0.202382 0.486426
O O6 0.372035 0.051777 0.462813
O O7 0.326355 0.248912 0.372317
O O8 0.250000 0.000000 0.395750
O O9 0.842748 0.167647 0.314474
O O10 0.804816 0.355973 0.406513
O O11 0.922635 0.197737 0.427838
O O12 0.751582 0.702646 0.238980
O O13 0.793896 0.860219 0.346727
O O14 0.750000 0.000000 0.242747
O O15 0.750000 0.500000 0.007580
O O16 0.666392 0.668476 0.935248
O O17 0.906914 0.913247 0.417963
O O18 0.000000 0.000000 0.500000
O O19 0.250000 0.500000 0.852377
#
# Coordination Sequence:
#
# PCOD8222465 Si02
#       8
#     8   8   8   8   8   8   8   8
#     4  11  24  42  63  89 126 165 205 253 306 369
#     4  11  23  40  61  91 128 162 199 252 312 367
#     4  10  20  38  62  90 116 159 205 250 303 360
#     4  10  18  34  65  92 116 149 207 262 294 349
#     4  10  18  34  65  93 116 148 207 258 294 349
#     4  11  24  42  63  90 127 165 204 253 310 371
#     4  11  23  40  61  92 127 159 202 253 311 367
#     4  10  20  36  64  90 117 159 206 252 301 359
#
# _framework density 19.434446999999999
#
# number of rings (size 3 to 8) (size 9 to 14) (size 15 to 20)
#    0.000    1.500    5.000    0.750    1.750    0.000 
#    2.250    1.250    0.000    0.000    0.000    0.000 
#    0.000    0.000    0.000    0.000    0.000    0.000 
#
# Total GULP energy -793248.819364 kJ/mol
# GULP energy per Si atom -12394.512803 kJ/mol
# Density = 1.939021 g / cm^3
# Si number density = 19.434447 Si / 1000 Ang^3
#
#
#
# Elastic Constant Matrix: (Units=GPa)
#
#
# Indices 1 2 3 4 5 6 
#
# 1 113.0851 48.2338 46.2169 0.0000 0.0000 0.0000
# 2 48.2338 102.4933 27.8637 0.0000 0.0000 0.0000
# 3 46.2169 27.8637 78.3435 0.0000 0.0000 0.0000
# 4 0.0000 0.0000 0.0000 38.2515 0.0000 0.0000
# 5 0.0000 0.0000 0.0000 0.0000 25.2194 0.0000
# 6 0.0000 0.0000 0.0000 0.0000 0.0000 24.2326
#
#
#
# Elastic Compliance Matrix: (Units=1/GPa)
#
#
# Indices 1 2 3 4 5 6 
#
# 1 0.013351 -0.004585 -0.006245 0.000000 0.000000 0.000000
# 2 -0.004585 0.012376 -0.001697 0.000000 0.000000 0.000000
# 3 -0.006245 -0.001697 0.017052 0.000000 0.000000 0.000000
# 4 0.000000 0.000000 0.000000 0.026143 0.000000 0.000000
# 5 0.000000 0.000000 0.000000 0.000000 0.039652 0.000000
# 6 0.000000 0.000000 0.000000 0.000000 0.000000 0.041267
#
#
# Mechanical properties :
#
#
# Convention : Reuss Voigt Hill
#
# Bulk Modulus (GPa) = 56.41923 59.83897 58.12910
# Shear Modulus (GPa) = 27.65440 28.98118 28.31779
#
# Velocity S-wave (km/s) = 3.77630 3.86583 3.82133
# Velocity P-wave (km/s) = 6.93596 7.12623 7.03174
#
# Compressibility (1/GPa) = 0.01772445
#
# Stress axis : x y z
#
# Youngs Moduli (GPa) = 74.90058 80.80284 58.64405
#
# Poissons Ratio (x) = 0.37050 0.36625
# Poissons Ratio (y) = 0.34343 0.09950
# Poissons Ratio (z) = 0.46778 0.13709
#
# Static dielectric constant tensor:
#      x y z
#    x 3.294490 0.000000 0.000000 
#    y 0.000000 3.691240 0.000000 
#    z 0.000000 0.000000 3.521510 
# 
# 
# High freq. dielectric constant tensor:
#      x y z
#    x 1.725080 0.000000 0.000000 
#    y 0.000000 1.773630 0.000000 
#    z 0.000000 0.000000 1.752470 
# 
# From -- ./inp_files/21935.got.cif
#   From: 2010.03.12/outbox.cif.g09.slc.cpg/sg54_11_cif.got.tgz:21935.got - 2010.04.16 15:00:50.
