data_PCOD8222247
_publ_section_title
;
Structure prediction by ZEFSAII (Michael W. Deem and Ramdas Pophale) SiO2 
 PCOD8222247
Probable space group: P M N A
;
_chemical_formula_sum "Si O2"
_cell_formula_units_Z 64
_cell_length_a 9.312764
_cell_length_b 21.328592
_cell_length_c 19.185471
_cell_angle_alpha 90.000000
_cell_angle_beta 90.000000
_cell_angle_gamma 90.000000
_cell_volume 3810.774492
_symmetry_space_group_name_H-M "P M N A"
_symmetry_group_IT_number 53
_symmetry_cell_setting 'orthorhombic'
loop_
_space_group_symop_operation_xyz
x,y,z
1/2-x,-y,1/2+z
x,-y,-z
1/2-x,y,1/2-z
-x,-y,-z
1/2+x,y,1/2-z
-x,y,z
1/2+x,-y,1/2+z
loop_
_atom_site_type_symbol
_atom_site_label
_atom_site_fract_x
_atom_site_fract_y
_atom_site_fract_z
Si Si1 0.830719 0.392367 0.320103
Si Si2 0.167883 0.067909 0.970321
Si Si3 0.164796 0.534236 0.317622
Si Si4 0.168296 0.346428 0.598212
Si Si5 0.337832 0.896469 0.315891
Si Si6 0.334922 0.766110 0.372919
Si Si7 0.333610 0.688314 0.946032
Si Si8 0.832422 0.818110 0.503851
O O1 0.750000 0.372960 0.250000
O O2 0.793928 0.464009 0.341284
O O3 0.764839 0.348100 0.380724
O O4 0.000000 0.382290 0.308754
O O5 0.219247 0.074995 0.889650
O O6 0.252544 0.116526 0.020853
O O7 0.000000 0.084063 0.975163
O O8 0.204488 0.000000 0.000000
O O9 0.250000 0.556028 0.250000
O O10 0.198996 0.581983 0.380310
O O11 0.000000 0.537405 0.295889
O O12 0.259322 0.299529 0.649144
O O13 0.227845 0.337568 0.519465
O O14 0.000000 0.329168 0.604428
O O15 0.250000 0.923229 0.250000
O O16 0.500000 0.919357 0.305223
O O17 0.328874 0.820384 0.314495
O O18 0.500000 0.754496 0.395492
O O19 0.238432 0.791265 0.435098
O O20 0.500000 0.671201 0.946269
O O21 0.309794 0.763725 0.937697
O O22 0.000000 0.831275 0.491556
#
# Coordination Sequence:
#
# PCOD8222247 Si02
#       8
#     8   8   8   8   8   8   8   8
#     4   9  17  31  48  65  86 115 150 190 236 284
#     4   9  18  33  51  71  97 128 158 186 222 270
#     4   9  18  30  44  61  85 117 152 189 231 280
#     4   9  17  29  44  65  89 116 151 189 229 271
#     4   9  18  30  45  66  91 120 153 188 222 257
#     4   9  17  29  43  62  89 121 151 179 220 269
#     4   8  15  28  47  68  90 114 144 188 233 268
#     4   9  16  28  47  71  94 114 143 184 224 264
#
# _framework density 16.794485999999999
#
# number of rings (size 3 to 8) (size 9 to 14) (size 15 to 20)
#    0.000    3.125    0.000    2.250    0.000    4.250 
#    0.000    8.125    0.000    0.750    0.000   12.250 
#    0.000    0.000    0.000    0.000    0.000    0.000 
#
# Total GULP energy -792982.482935 kJ/mol
# GULP energy per Si atom -12390.351296 kJ/mol
# Density = 1.675626 g / cm^3
# Si number density = 16.794486 Si / 1000 Ang^3
#
#
#
# Elastic Constant Matrix: (Units=GPa)
#
#
# Indices 1 2 3 4 5 6 
#
# 1 54.8390 49.1166 32.9940 0.0000 0.0000 0.0000
# 2 49.1166 113.5224 59.9390 0.0000 0.0000 0.0000
# 3 32.9940 59.9390 81.6698 0.0000 0.0000 0.0000
# 4 0.0000 0.0000 0.0000 19.3110 0.0000 0.0000
# 5 0.0000 0.0000 0.0000 0.0000 21.3518 0.0000
# 6 0.0000 0.0000 0.0000 0.0000 0.0000 18.0956
#
#
#
# Elastic Compliance Matrix: (Units=1/GPa)
#
#
# Indices 1 2 3 4 5 6 
#
# 1 0.030683 -0.010988 -0.004331 0.000000 0.000000 0.000000
# 2 -0.010988 0.018317 -0.009004 0.000000 0.000000 0.000000
# 3 -0.004331 -0.009004 0.020602 0.000000 0.000000 0.000000
# 4 0.000000 0.000000 0.000000 0.051784 0.000000 0.000000
# 5 0.000000 0.000000 0.000000 0.000000 0.046834 0.000000
# 6 0.000000 0.000000 0.000000 0.000000 0.000000 0.055262
#
#
# Mechanical properties :
#
#
# Convention : Reuss Voigt Hill
#
# Bulk Modulus (GPa) = 47.72065 59.34783 53.53424
# Shear Modulus (GPa) = 17.91377 18.95046 18.43211
#
# Velocity S-wave (km/s) = 3.26950 3.36277 3.31646
# Velocity P-wave (km/s) = 6.53674 7.10578 6.82719
#
# Compressibility (1/GPa) = 0.02095529
#
# Stress axis : x y z
#
# Youngs Moduli (GPa) = 32.59158 54.59355 48.53819
#
# Poissons Ratio (x) = 0.59990 0.21022
# Poissons Ratio (y) = 0.35813 0.43704
# Poissons Ratio (z) = 0.14115 0.49156
#
# Static dielectric constant tensor:
#      x y z
#    x 3.187610 0.000000 0.000000 
#    y 0.000000 3.562580 0.000000 
#    z 0.000000 0.000000 3.017220 
# 
# 
# High freq. dielectric constant tensor:
#      x y z
#    x 1.639860 0.000000 0.000000 
#    y 0.000000 1.645240 0.000000 
#    z 0.000000 0.000000 1.615520 
# 
# From -- ./inp_files/31374.got.cif
#   From: 2010.03.12/outbox.cif.g09.slc.cpg/sg53_16_cif.got.tgz:31374.got - 2010.04.16 14:36:59.
