data_PCOD8222944
_publ_section_title
;
Structure prediction by ZEFSAII (Michael W. Deem and Ramdas Pophale) SiO2 
 PCOD8222944
Probable space group: P C C A
;
_chemical_formula_sum "Si O2"
_cell_formula_units_Z 40
_cell_length_a 24.294445
_cell_length_b 8.148728
_cell_length_c 10.097522
_cell_angle_alpha 90.000000
_cell_angle_beta 90.000000
_cell_angle_gamma 90.000000
_cell_volume 1998.994558
_symmetry_space_group_name_H-M "P C C A"
_symmetry_group_IT_number 54
_symmetry_cell_setting 'orthorhombic'
loop_
_space_group_symop_operation_xyz
x,y,z
1/2-x,-y,z
1/2+x,-y,1/2-z
-x,y,1/2-z
-x,-y,-z
1/2+x,y,-z
1/2-x,y,1/2+z
x,-y,1/2+z
loop_
_atom_site_type_symbol
_atom_site_label
_atom_site_fract_x
_atom_site_fract_y
_atom_site_fract_z
Si Si1 0.564063 0.135582 0.224149
Si Si2 0.351245 0.395814 0.254382
Si Si3 0.780688 0.161891 0.585986
Si Si4 0.325998 0.342902 0.972993
Si Si5 0.619283 0.005400 0.476829
O O1 0.500000 0.143575 0.250000
O O2 0.587115 0.322257 0.234656
O O3 0.593725 0.015353 0.330488
O O4 0.574003 0.065417 0.077581
O O5 0.311029 0.243119 0.289117
O O6 0.342347 0.551106 0.346499
O O7 0.337532 0.450284 0.104541
O O8 0.738368 0.294138 0.526573
O O9 0.750000 0.000000 0.640164
O O10 0.826234 0.110877 0.475435
O O11 0.364721 0.185029 0.971427
#
# Coordination Sequence:
#
# PCOD8222944 Si02
#       5
#     8   8   8   8   8
#     4  10  20  38  59  81 108 142 184 235 279 319
#     4  10  22  36  53  80 112 146 184 222 269 334
#     4   9  19  34  55  80 109 142 178 227 280 330
#     4  10  21  36  53  79 113 146 179 221 276 335
#     4   9  20  36  57  82 106 138 186 229 274 332
#
# _framework density 20.010058999999998
#
# number of rings (size 3 to 8) (size 9 to 14) (size 15 to 20)
#    0.000    2.400    0.000    1.200    0.000   13.600 
#    0.000    5.000    0.000    0.000    0.000    0.000 
#    0.000    0.000    0.000    0.000    0.000    0.000 
#
# Total GULP energy -495966.670456 kJ/mol
# GULP energy per Si atom -12399.166761 kJ/mol
# Density = 1.996452 g / cm^3
# Si number density = 20.010059 Si / 1000 Ang^3
#
#
#
# Elastic Constant Matrix: (Units=GPa)
#
#
# Indices 1 2 3 4 5 6 
#
# 1 113.0961 26.5712 18.7880 0.0000 0.0000 0.0000
# 2 26.5712 65.7850 30.5785 0.0000 0.0000 0.0000
# 3 18.7880 30.5785 82.0701 0.0000 0.0000 0.0000
# 4 0.0000 0.0000 0.0000 31.8869 0.0000 0.0000
# 5 0.0000 0.0000 0.0000 0.0000 20.4192 0.0000
# 6 0.0000 0.0000 0.0000 0.0000 0.0000 17.8850
#
#
#
# Elastic Compliance Matrix: (Units=1/GPa)
#
#
# Indices 1 2 3 4 5 6 
#
# 1 0.009828 -0.003536 -0.000932 0.000000 0.000000 0.000000
# 2 -0.003536 0.019658 -0.006515 0.000000 0.000000 0.000000
# 3 -0.000932 -0.006515 0.014825 0.000000 0.000000 0.000000
# 4 0.000000 0.000000 0.000000 0.031361 0.000000 0.000000
# 5 0.000000 0.000000 0.000000 0.000000 0.048974 0.000000
# 6 0.000000 0.000000 0.000000 0.000000 0.000000 0.055913
#
#
# Mechanical properties :
#
#
# Convention : Reuss Voigt Hill
#
# Bulk Modulus (GPa) = 44.75389 45.86961 45.31175
# Shear Modulus (GPa) = 23.81267 26.37243 25.09255
#
# Velocity S-wave (km/s) = 3.45343 3.63431 3.54502
# Velocity P-wave (km/s) = 6.18998 6.37056 6.28092
#
# Compressibility (1/GPa) = 0.02234443
#
# Stress axis : x y z
#
# Youngs Moduli (GPa) = 101.75305 50.87116 67.45164
#
# Poissons Ratio (x) = 0.17989 0.06288
# Poissons Ratio (y) = 0.35982 0.43943
# Poissons Ratio (z) = 0.09486 0.33141
#
# Static dielectric constant tensor:
#      x y z
#    x 3.673510 0.000000 0.000000 
#    y 0.000000 3.552780 0.000000 
#    z 0.000000 0.000000 3.577080 
# 
# 
# High freq. dielectric constant tensor:
#      x y z
#    x 1.773660 0.000000 0.000000 
#    y 0.000000 1.773350 0.000000 
#    z 0.000000 0.000000 1.779440 
# 
# From -- ./inp_files/4993.got.cif
#   From: 2010.03.12/outbox.cif.g09.slc.cpg/sg54_3_cif.got.tgz:4993.got - 2010.04.16 15:00:50.
