data_PCOD8222644
_publ_section_title
;
Structure prediction by ZEFSAII (Michael W. Deem and Ramdas Pophale) SiO2 
 PCOD8222644
Probable space group: P C C A
;
_chemical_formula_sum "Si O2"
_cell_formula_units_Z 56
_cell_length_a 17.225262
_cell_length_b 9.806365
_cell_length_c 18.224531
_cell_angle_alpha 90.000000
_cell_angle_beta 90.000000
_cell_angle_gamma 90.000000
_cell_volume 3078.436864
_symmetry_space_group_name_H-M "P C C A"
_symmetry_group_IT_number 54
_symmetry_cell_setting 'orthorhombic'
loop_
_space_group_symop_operation_xyz
x,y,z
1/2-x,-y,z
1/2+x,-y,1/2-z
-x,y,1/2-z
-x,-y,-z
1/2+x,y,-z
1/2-x,y,1/2+z
x,-y,1/2+z
loop_
_atom_site_type_symbol
_atom_site_label
_atom_site_fract_x
_atom_site_fract_y
_atom_site_fract_z
Si Si1 0.097973 0.411070 0.050297
Si Si2 0.212739 0.645470 0.840222
Si Si3 0.186340 0.800108 0.456344
Si Si4 0.284681 0.353421 0.678468
Si Si5 0.413704 0.949278 0.491545
Si Si6 0.208610 0.869015 0.092120
Si Si7 0.920397 0.647158 0.551883
O O1 0.142545 0.365954 0.123695
O O2 0.007755 0.397174 0.068305
O O3 0.124872 0.312739 0.984176
O O4 0.111653 0.567309 0.021478
O O5 0.250000 0.500000 0.830628
O O6 0.270983 0.750077 0.882241
O O7 0.192410 0.703727 0.758901
O O8 0.132862 0.609518 0.880068
O O9 0.254021 0.824014 0.514827
O O10 0.138601 0.941387 0.446218
O O11 0.250000 0.500000 0.686641
O O12 0.216388 0.255376 0.648096
O O13 0.379021 0.916922 0.573059
O O14 0.415025 0.808739 0.449194
O O15 0.500000 0.000000 0.500000
O O16 0.250000 0.000000 0.127689
#
# Coordination Sequence:
#
# PCOD8222644 Si02
#       7
#     8   8   8   8   8   8   8
#     4  10  21  36  60  87 110 147 190 236 288 344
#     4  11  22  37  59  86 115 147 190 240 285 349
#     4  10  19  35  58  84 111 141 190 236 276 332
#     4  10  22  38  58  84 114 151 189 233 297 346
#     4  11  20  33  56  87 114 145 190 237 278 330
#     4   9  19  35  56  81 110 145 187 235 274 330
#     4  11  21  35  59  87 113 148 187 238 290 330
#
# _framework density 18.191051000000002
#
# number of rings (size 3 to 8) (size 9 to 14) (size 15 to 20)
#    0.000    1.714    4.286    0.857    2.000    0.571 
#    2.571    0.000    0.000    0.857    0.000    0.000 
#    0.000    0.000    0.000    0.000    0.000    0.000 
#
# Total GULP energy -693888.398097 kJ/mol
# GULP energy per Si atom -12390.864252 kJ/mol
# Density = 1.814965 g / cm^3
# Si number density = 18.191051 Si / 1000 Ang^3
#
#
#
# Elastic Constant Matrix: (Units=GPa)
#
#
# Indices 1 2 3 4 5 6 
#
# 1 114.3296 33.9973 57.0130 0.0000 0.0000 0.0000
# 2 33.9973 108.8761 48.0468 0.0000 0.0000 0.0000
# 3 57.0130 48.0468 124.7636 0.0000 0.0000 0.0000
# 4 0.0000 0.0000 0.0000 98.9363 0.0000 0.0000
# 5 0.0000 0.0000 0.0000 0.0000 24.7510 0.0000
# 6 0.0000 0.0000 0.0000 0.0000 0.0000 29.9485
#
#
#
# Elastic Compliance Matrix: (Units=1/GPa)
#
#
# Indices 1 2 3 4 5 6 
#
# 1 0.011538 -0.001537 -0.004680 0.000000 0.000000 0.000000
# 2 -0.001537 0.011270 -0.003638 0.000000 0.000000 0.000000
# 3 -0.004680 -0.003638 0.011555 0.000000 0.000000 0.000000
# 4 0.000000 0.000000 0.000000 0.010108 0.000000 0.000000
# 5 0.000000 0.000000 0.000000 0.000000 0.040402 0.000000
# 6 0.000000 0.000000 0.000000 0.000000 0.000000 0.033391
#
#
# Mechanical properties :
#
#
# Convention : Reuss Voigt Hill
#
# Bulk Modulus (GPa) = 68.25003 69.56483 68.90743
# Shear Modulus (GPa) = 34.99984 44.65463 39.82723
#
# Velocity S-wave (km/s) = 4.39112 4.95993 4.68416
# Velocity P-wave (km/s) = 7.95670 8.43359 8.19861
#
# Compressibility (1/GPa) = 0.01465201
#
# Stress axis : x y z
#
# Youngs Moduli (GPa) = 86.67200 88.73059 86.54407
#
# Poissons Ratio (x) = 0.13641 0.40506
# Poissons Ratio (y) = 0.13324 0.31482
# Poissons Ratio (z) = 0.40566 0.32277
#
# Static dielectric constant tensor:
#      x y z
#    x 4.032730 0.000000 0.000000 
#    y 0.000000 3.641400 0.000000 
#    z 0.000000 0.000000 4.333350 
# 
# 
# High freq. dielectric constant tensor:
#      x y z
#    x 1.707380 0.000000 0.000000 
#    y 0.000000 1.726250 0.000000 
#    z 0.000000 0.000000 1.669310 
# 
# From -- ./inp_files/18699.got.cif
#   From: 2010.03.12/outbox.cif.g09.slc.cpg/sg54_10_cif.got.tgz:18699.got - 2010.04.16 15:00:50.
