data_PCOD8222653
_publ_section_title
;
Structure prediction by ZEFSAII (Michael W. Deem and Ramdas Pophale) SiO2 
 PCOD8222653
Probable space group: P C C A
;
_chemical_formula_sum "Si O2"
_cell_formula_units_Z 24
_cell_length_a 4.758889
_cell_length_b 7.653990
_cell_length_c 25.331230
_cell_angle_alpha 90.000000
_cell_angle_beta 90.000000
_cell_angle_gamma 90.000000
_cell_volume 922.677104
_symmetry_space_group_name_H-M "P C C A"
_symmetry_group_IT_number 54
_symmetry_cell_setting 'orthorhombic'
loop_
_space_group_symop_operation_xyz
x,y,z
1/2-x,-y,z
1/2+x,-y,1/2-z
-x,y,1/2-z
-x,-y,-z
1/2+x,y,-z
1/2-x,y,1/2+z
x,-y,1/2+z
loop_
_atom_site_type_symbol
_atom_site_label
_atom_site_fract_x
_atom_site_fract_y
_atom_site_fract_z
Si Si1 0.376057 0.810807 0.365861
Si Si2 0.299733 0.793846 0.031328
Si Si3 0.131324 0.306893 0.695470
O O1 0.549739 0.729838 0.415216
O O2 0.608513 0.820342 0.319270
O O3 0.112531 0.690640 0.349222
O O4 0.250000 0.000000 0.379423
O O5 0.250000 0.000000 0.033306
O O6 0.487384 0.724565 0.981199
O O7 0.250000 0.500000 0.702421
O O8 0.000000 0.237559 0.750000
#
# Coordination Sequence:
#
# PCOD8222653 Si02
#       3
#     8   8   8
#     4  12  24  41  69 103 130 161 216 278 320 362
#     4  10  19  35  61  95 134 170 206 255 319 387
#     4  12  26  47  68  89 128 179 218 256 325 404
#
# _framework density 26.011268000000001
#
# number of rings (size 3 to 8) (size 9 to 14) (size 15 to 20)
#    0.000    0.667    0.000   12.000    0.000    2.667 
#    0.000    3.333    0.000   20.000    0.000    0.000 
#    0.000    0.000    0.000    0.000    0.000    0.000 
#
# Total GULP energy -297331.297172 kJ/mol
# GULP energy per Si atom -12388.804049 kJ/mol
# Density = 2.595207 g / cm^3
# Si number density = 26.011268 Si / 1000 Ang^3
#
#
#
# Elastic Constant Matrix: (Units=GPa)
#
#
# Indices 1 2 3 4 5 6 
#
# 1 159.4082 7.4542 31.4948 0.0000 0.0000 0.0000
# 2 7.4542 18.9206 12.9859 0.0000 0.0000 0.0000
# 3 31.4948 12.9859 82.6590 0.0000 0.0000 0.0000
# 4 0.0000 0.0000 0.0000 4.3934 0.0000 0.0000
# 5 0.0000 0.0000 0.0000 0.0000 62.3682 0.0000
# 6 0.0000 0.0000 0.0000 0.0000 0.0000 39.2955
#
#
#
# Elastic Compliance Matrix: (Units=1/GPa)
#
#
# Indices 1 2 3 4 5 6 
#
# 1 0.006801 -0.001010 -0.002433 0.000000 0.000000 0.000000
# 2 -0.001010 0.059390 -0.008946 0.000000 0.000000 0.000000
# 3 -0.002433 -0.008946 0.014430 0.000000 0.000000 0.000000
# 4 0.000000 0.000000 0.000000 0.227613 0.000000 0.000000
# 5 0.000000 0.000000 0.000000 0.000000 0.016034 0.000000
# 6 0.000000 0.000000 0.000000 0.000000 0.000000 0.025448
#
#
# Mechanical properties :
#
#
# Convention : Reuss Voigt Hill
#
# Bulk Modulus (GPa) = 17.90667 40.53974 29.22320
# Shear Modulus (GPa) = 12.71917 35.14830 23.93373
#
# Velocity S-wave (km/s) = 2.21370 3.67995 3.03665
# Velocity P-wave (km/s) = 3.66512 5.80305 4.85327
#
# Compressibility (1/GPa) = 0.05584512
#
# Stress axis : x y z
#
# Youngs Moduli (GPa) = 147.03589 16.83787 69.29933
#
# Poissons Ratio (x) = 0.01700 0.16858
# Poissons Ratio (y) = 0.14848 0.61992
# Poissons Ratio (z) = 0.35769 0.15062
#
# Static dielectric constant tensor:
#      x y z
#    x 5.979460 0.000000 0.000000 
#    y 0.000000 3.959700 0.000000 
#    z 0.000000 0.000000 4.848690 
# 
# 
# High freq. dielectric constant tensor:
#      x y z
#    x 2.088370 0.000000 0.000000 
#    y 0.000000 1.974910 0.000000 
#    z 0.000000 0.000000 2.044130 
# 
# From -- ./inp_files/24985.got.cif
#   From: 2010.03.12/outbox.cif.g09.slc.cpg/sg54_13_cif.got.tgz:24985.got - 2010.04.16 15:00:50.
