data_PCOD8222104
_publ_section_title
;
Structure prediction by ZEFSAII (Michael W. Deem and Ramdas Pophale) SiO2 
 PCOD8222104
Probable space group: P M N A
;
_chemical_formula_sum "Si O2"
_cell_formula_units_Z 24
_cell_length_a 19.826331
_cell_length_b 4.893508
_cell_length_c 11.888136
_cell_angle_alpha 90.000000
_cell_angle_beta 90.000000
_cell_angle_gamma 90.000000
_cell_volume 1153.390632
_symmetry_space_group_name_H-M "P M N A"
_symmetry_group_IT_number 53
_symmetry_cell_setting 'orthorhombic'
loop_
_space_group_symop_operation_xyz
x,y,z
1/2-x,-y,1/2+z
x,-y,-z
1/2-x,y,1/2-z
-x,-y,-z
1/2+x,y,1/2-z
-x,y,z
1/2+x,-y,1/2+z
loop_
_atom_site_type_symbol
_atom_site_label
_atom_site_fract_x
_atom_site_fract_y
_atom_site_fract_z
Si Si1 0.576893 0.135971 0.382086
Si Si2 0.355508 0.328196 0.714022
Si Si3 0.272894 0.746778 0.076942
O O1 0.500000 0.239339 0.389273
O O2 0.623560 0.388481 0.344933
O O3 0.600753 0.000000 0.500000
O O4 0.583837 0.892023 0.291377
O O5 0.292791 0.183184 0.650546
O O6 0.334682 0.359207 0.844338
O O7 0.250949 0.500000 0.000000
O O8 0.295927 0.000000 0.000000
#
# Coordination Sequence:
#
# PCOD8222104 Si02
#       3
#     8   8   8
#     4  11  22  37  59  86 117 151 188 236 292 348
#     4  11  22  37  59  86 116 150 190 238 291 346
#     4  11  22  37  59  85 115 150 189 238 291 345
#
# _framework density 20.808216999999999
#
# number of rings (size 3 to 8) (size 9 to 14) (size 15 to 20)
#    0.000    1.000    0.000    9.000    0.000    8.000 
#    0.000    0.000    0.000   20.000    0.000    0.000 
#    0.000    0.000    0.000    0.000    0.000    0.000 
#
# Total GULP energy -297513.338880 kJ/mol
# GULP energy per Si atom -12396.389120 kJ/mol
# Density = 2.076086 g / cm^3
# Si number density = 20.808217 Si / 1000 Ang^3
#
#
#
# Elastic Constant Matrix: (Units=GPa)
#
#
# Indices 1 2 3 4 5 6 
#
# 1 62.8592 33.9572 41.6855 0.0000 0.0000 0.0000
# 2 33.9572 138.7824 43.9936 0.0000 0.0000 0.0000
# 3 41.6855 43.9936 99.3693 0.0000 0.0000 0.0000
# 4 0.0000 0.0000 0.0000 33.0578 0.0000 0.0000
# 5 0.0000 0.0000 0.0000 0.0000 44.2427 0.0000
# 6 0.0000 0.0000 0.0000 0.0000 0.0000 36.2132
#
#
#
# Elastic Compliance Matrix: (Units=1/GPa)
#
#
# Indices 1 2 3 4 5 6 
#
# 1 0.023064 -0.002997 -0.008349 0.000000 0.000000 0.000000
# 2 -0.002997 0.008771 -0.002626 0.000000 0.000000 0.000000
# 3 -0.008349 -0.002626 0.014728 0.000000 0.000000 0.000000
# 4 0.000000 0.000000 0.000000 0.030250 0.000000 0.000000
# 5 0.000000 0.000000 0.000000 0.000000 0.022603 0.000000
# 6 0.000000 0.000000 0.000000 0.000000 0.000000 0.027614
#
#
# Mechanical properties :
#
#
# Convention : Reuss Voigt Hill
#
# Bulk Modulus (GPa) = 53.70411 60.03151 56.86781
# Shear Modulus (GPa) = 31.02119 34.79439 32.90779
#
# Velocity S-wave (km/s) = 3.86530 4.09363 3.98110
# Velocity P-wave (km/s) = 6.76652 7.15935 6.96570
#
# Compressibility (1/GPa) = 0.01862055
#
# Stress axis : x y z
#
# Youngs Moduli (GPa) = 43.35782 114.00879 67.89622
#
# Poissons Ratio (x) = 0.34166 0.56684
# Poissons Ratio (y) = 0.12993 0.17830
# Poissons Ratio (z) = 0.36198 0.29940
#
# Static dielectric constant tensor:
#      x y z
#    x 3.569870 0.000000 0.000000 
#    y 0.000000 3.400360 0.000000 
#    z 0.000000 0.000000 3.801450 
# 
# 
# High freq. dielectric constant tensor:
#      x y z
#    x 1.797310 0.000000 0.000000 
#    y 0.000000 1.827320 0.000000 
#    z 0.000000 0.000000 1.806520 
# 
# From -- ./inp_files/11314.got.cif
#   From: 2010.03.12/outbox.cif.g09.slc.cpg/sg53_6_cif.got.tgz:11314.got - 2010.04.16 14:36:59.
