data_PCOD8222362
_publ_section_title
;
Structure prediction by ZEFSAII (Michael W. Deem and Ramdas Pophale) SiO2 
 PCOD8222362
Probable space group: P C C A
;
_chemical_formula_sum "Si O2"
_cell_formula_units_Z 64
_cell_length_a 11.581583
_cell_length_b 12.788314
_cell_length_c 23.785498
_cell_angle_alpha 90.000000
_cell_angle_beta 90.000000
_cell_angle_gamma 90.000000
_cell_volume 3522.844421
_symmetry_space_group_name_H-M "P C C A"
_symmetry_group_IT_number 54
_symmetry_cell_setting 'orthorhombic'
loop_
_space_group_symop_operation_xyz
x,y,z
1/2-x,-y,z
1/2+x,-y,1/2-z
-x,y,1/2-z
-x,-y,-z
1/2+x,y,-z
1/2-x,y,1/2+z
x,-y,1/2+z
loop_
_atom_site_type_symbol
_atom_site_label
_atom_site_fract_x
_atom_site_fract_y
_atom_site_fract_z
Si Si1 0.041813 0.272458 0.456436
Si Si2 0.277054 0.116035 0.000907
Si Si3 0.752674 0.885773 0.292008
Si Si4 0.962254 0.124306 0.370210
Si Si5 0.404590 0.251811 0.442569
Si Si6 0.417161 0.104216 0.110603
Si Si7 0.712740 0.381982 0.617548
Si Si8 0.110363 0.244203 0.287937
O O1 0.120191 0.169116 0.466091
O O2 0.114622 0.368461 0.430304
O O3 0.950456 0.222951 0.412702
O O4 0.986523 0.317309 0.514166
O O5 0.310476 0.115593 0.066884
O O6 0.250000 0.000000 0.979024
O O7 0.162427 0.181087 0.987816
O O8 0.657727 0.882734 0.339553
O O9 0.873545 0.871655 0.325604
O O10 0.721633 0.796057 0.247219
O O11 0.750000 0.000000 0.262321
O O12 0.068185 0.149194 0.327679
O O13 0.977239 0.009580 0.397577
O O14 0.482368 0.186574 0.400126
O O15 0.326596 0.321909 0.402713
O O16 0.750000 0.500000 0.626433
O O17 0.660441 0.340327 0.676116
O O18 0.000000 0.280958 0.250000
#
# Coordination Sequence:
#
# PCOD8222362 Si02
#       8
#     8   8   8   8   8   8   8   8
#     4   9  18  31  50  73  99 132 164 196 240 292
#     4  10  17  26  44  73 109 141 163 186 224 285
#     4   9  17  29  48  73 102 134 165 196 234 283
#     4   9  16  29  49  73 103 136 164 191 229 288
#     4  10  20  32  48  74 104 133 163 196 240 292
#     4  10  18  28  46  75 108 137 163 193 231 281
#     4  10  22  39  55  72  94 122 165 217 259 295
#     4   9  19  36  55  72  93 127 168 206 247 293
#
# _framework density 18.167137
#
# number of rings (size 3 to 8) (size 9 to 14) (size 15 to 20)
#    0.000    2.500    0.000    3.375    0.000    3.500 
#    0.000    4.375    0.000    0.000    0.000    2.625 
#    0.000    0.000    0.000    0.000    0.000    0.000 
#
# Total GULP energy -792945.610270 kJ/mol
# GULP energy per Si atom -12389.775160 kJ/mol
# Density = 1.812579 g / cm^3
# Si number density = 18.167137 Si / 1000 Ang^3
#
#
#
# Elastic Constant Matrix: (Units=GPa)
#
#
# Indices 1 2 3 4 5 6 
#
# 1 76.1132 48.1189 39.5826 0.0000 0.0000 0.0000
# 2 48.1189 100.5739 50.8436 0.0000 0.0000 0.0000
# 3 39.5826 50.8436 88.7105 0.0000 0.0000 0.0000
# 4 0.0000 0.0000 0.0000 16.0244 0.0000 0.0000
# 5 0.0000 0.0000 0.0000 0.0000 25.3879 0.0000
# 6 0.0000 0.0000 0.0000 0.0000 0.0000 19.6795
#
#
#
# Elastic Compliance Matrix: (Units=1/GPa)
#
#
# Indices 1 2 3 4 5 6 
#
# 1 0.020244 -0.007208 -0.004902 0.000000 0.000000 0.000000
# 2 -0.007208 0.016565 -0.006278 0.000000 0.000000 0.000000
# 3 -0.004902 -0.006278 0.017058 0.000000 0.000000 0.000000
# 4 0.000000 0.000000 0.000000 0.062405 0.000000 0.000000
# 5 0.000000 0.000000 0.000000 0.000000 0.039389 0.000000
# 6 0.000000 0.000000 0.000000 0.000000 0.000000 0.050814
#
#
# Mechanical properties :
#
#
# Convention : Reuss Voigt Hill
#
# Bulk Modulus (GPa) = 58.50662 60.27642 59.39152
# Shear Modulus (GPa) = 20.08448 20.67519 20.37983
#
# Velocity S-wave (km/s) = 3.32857 3.37717 3.35296
# Velocity P-wave (km/s) = 6.85909 6.96117 6.91032
#
# Compressibility (1/GPa) = 0.01709208
#
# Stress axis : x y z
#
# Youngs Moduli (GPa) = 49.39666 60.36765 58.62291
#
# Poissons Ratio (x) = 0.43510 0.28737
# Poissons Ratio (y) = 0.35603 0.36804
# Poissons Ratio (z) = 0.24214 0.37900
#
# Static dielectric constant tensor:
#      x y z
#    x 3.496090 0.000000 0.000000 
#    y 0.000000 3.030290 0.000000 
#    z 0.000000 0.000000 3.445460 
# 
# 
# High freq. dielectric constant tensor:
#      x y z
#    x 1.709920 0.000000 0.000000 
#    y 0.000000 1.659110 0.000000 
#    z 0.000000 0.000000 1.707740 
# 
# From -- ./inp_files/24252.got.cif
#   From: 2010.03.12/outbox.cif.g09.slc.cpg/sg54_13_cif.got.tgz:24252.got - 2010.04.16 15:00:50.
