data_PCOD8222510
_publ_section_title
;
Structure prediction by ZEFSAII (Michael W. Deem and Ramdas Pophale) SiO2 
 PCOD8222510
Probable space group: P C C A
;
_chemical_formula_sum "Si O2"
_cell_formula_units_Z 40
_cell_length_a 14.935643
_cell_length_b 13.954258
_cell_length_c 9.481099
_cell_angle_alpha 90.000000
_cell_angle_beta 90.000000
_cell_angle_gamma 90.000000
_cell_volume 1976.010983
_symmetry_space_group_name_H-M "P C C A"
_symmetry_group_IT_number 54
_symmetry_cell_setting 'orthorhombic'
loop_
_space_group_symop_operation_xyz
x,y,z
1/2-x,-y,z
1/2+x,-y,1/2-z
-x,y,1/2-z
-x,-y,-z
1/2+x,y,-z
1/2-x,y,1/2+z
x,-y,1/2+z
loop_
_atom_site_type_symbol
_atom_site_label
_atom_site_fract_x
_atom_site_fract_y
_atom_site_fract_z
Si Si1 0.651479 0.776418 0.521119
Si Si2 0.051328 0.387927 0.119519
Si Si3 0.820804 0.220278 0.846637
Si Si4 0.487947 0.904214 0.587336
Si Si5 0.571045 0.596994 0.863951
O O1 0.627481 0.671177 0.462236
O O2 0.689729 0.785192 0.678516
O O3 0.728002 0.813835 0.415798
O O4 0.560642 0.835765 0.515735
O O5 0.096994 0.487380 0.177412
O O6 0.000000 0.335215 0.250000
O O7 0.970693 0.411039 0.016450
O O8 0.893085 0.150008 0.919820
O O9 0.844700 0.331667 0.875622
O O10 0.500000 0.930086 0.750000
O O11 0.500000 0.000000 0.500000
O O12 0.500000 0.641213 0.750000
#
# Coordination Sequence:
#
# PCOD8222510 Si02
#       5
#     8   8   8   8   8
#     4  11  24  41  62  93 126 164 206 254 312 373
#     4  10  21  34  62  92 121 167 215 250 300 360
#     4  11  23  41  63  89 127 164 204 257 312 371
#     4  10  23  45  68  88 119 157 199 256 319 374
#     4  10  18  39  61  84 127 170 205 255 304 357
#
# _framework density 20.242804
#
# number of rings (size 3 to 8) (size 9 to 14) (size 15 to 20)
#    0.000    1.600    4.000    0.600    2.800    4.000 
#    0.000    6.000    0.000    0.000    0.000    0.000 
#    0.000    0.000    0.000    0.000    0.000    0.000 
#
# Total GULP energy -495589.736590 kJ/mol
# GULP energy per Si atom -12389.743415 kJ/mol
# Density = 2.019673 g / cm^3
# Si number density = 20.242804 Si / 1000 Ang^3
#
#
#
# Elastic Constant Matrix: (Units=GPa)
#
#
# Indices 1 2 3 4 5 6 
#
# 1 92.6443 22.7167 42.6980 0.0000 0.0000 0.0000
# 2 22.7167 81.1259 28.6053 0.0000 0.0000 0.0000
# 3 42.6980 28.6053 98.4982 0.0000 0.0000 0.0000
# 4 0.0000 0.0000 0.0000 37.7152 0.0000 0.0000
# 5 0.0000 0.0000 0.0000 0.0000 40.6576 0.0000
# 6 0.0000 0.0000 0.0000 0.0000 0.0000 8.2131
#
#
#
# Elastic Compliance Matrix: (Units=1/GPa)
#
#
# Indices 1 2 3 4 5 6 
#
# 1 0.013760 -0.001949 -0.005399 0.000000 0.000000 0.000000
# 2 -0.001949 0.014009 -0.003223 0.000000 0.000000 0.000000
# 3 -0.005399 -0.003223 0.013429 0.000000 0.000000 0.000000
# 4 0.000000 0.000000 0.000000 0.026514 0.000000 0.000000
# 5 0.000000 0.000000 0.000000 0.000000 0.024596 0.000000
# 6 0.000000 0.000000 0.000000 0.000000 0.000000 0.121757
#
#
# Mechanical properties :
#
#
# Convention : Reuss Voigt Hill
#
# Bulk Modulus (GPa) = 49.86308 51.14536 50.50422
# Shear Modulus (GPa) = 20.67031 29.20042 24.93537
#
# Velocity S-wave (km/s) = 3.19896 3.80216 3.51353
# Velocity P-wave (km/s) = 6.19116 6.67802 6.43919
#
# Compressibility (1/GPa) = 0.02005492
#
# Stress axis : x y z
#
# Youngs Moduli (GPa) = 72.67361 71.38293 74.46646
#
# Poissons Ratio (x) = 0.13916 0.40202
# Poissons Ratio (y) = 0.14167 0.24003
# Poissons Ratio (z) = 0.39235 0.23009
#
# Static dielectric constant tensor:
#      x y z
#    x 3.504200 0.000000 0.000000 
#    y 0.000000 4.003200 0.000000 
#    z 0.000000 0.000000 3.804820 
# 
# 
# High freq. dielectric constant tensor:
#      x y z
#    x 1.768380 0.000000 0.000000 
#    y 0.000000 1.782210 0.000000 
#    z 0.000000 0.000000 1.805940 
# 
# From -- ./inp_files/3435.got.cif
#   From: 2010.03.12/outbox.cif.g09.slc.cpg/sg54_2_cif.got.tgz:3435.got - 2010.04.16 15:00:50.
