data_PCOD8222312
_publ_section_title
;
Structure prediction by ZEFSAII (Michael W. Deem and Ramdas Pophale) SiO2 
 PCOD8222312
Probable space group: P C C A
;
_chemical_formula_sum "Si O2"
_cell_formula_units_Z 40
_cell_length_a 5.134088
_cell_length_b 22.238817
_cell_length_c 17.868622
_cell_angle_alpha 90.000000
_cell_angle_beta 90.000000
_cell_angle_gamma 90.000000
_cell_volume 2040.168563
_symmetry_space_group_name_H-M "P C C A"
_symmetry_group_IT_number 54
_symmetry_cell_setting 'orthorhombic'
loop_
_space_group_symop_operation_xyz
x,y,z
1/2-x,-y,z
1/2+x,-y,1/2-z
-x,y,1/2-z
-x,-y,-z
1/2+x,y,-z
1/2-x,y,1/2+z
x,-y,1/2+z
loop_
_atom_site_type_symbol
_atom_site_label
_atom_site_fract_x
_atom_site_fract_y
_atom_site_fract_z
Si Si1 0.499945 0.730529 0.837021
Si Si2 0.494235 0.164388 0.048941
Si Si3 0.213598 0.429180 0.042716
Si Si4 0.499233 0.026943 0.416598
Si Si5 0.995720 0.344757 0.336478
O O1 0.500000 0.748032 0.750000
O O2 0.450165 0.790146 0.883998
O O3 0.784027 0.705671 0.857105
O O4 0.279822 0.680977 0.857930
O O5 0.511344 0.098415 0.083837
O O6 0.209555 0.174558 0.014716
O O7 0.250000 0.500000 0.050941
O O8 0.096447 0.404347 0.120061
O O9 0.502582 0.406861 0.019891
O O10 0.750000 0.000000 0.373849
O O11 0.500000 0.000000 0.500000
O O12 0.250000 0.000000 0.373380
O O13 0.000000 0.363160 0.250000
#
# Coordination Sequence:
#
# PCOD8222312 Si02
#       5
#     8   8   8   8   8
#     4  10  23  39  54  77 115 150 179 228 287 325
#     4  12  21  32  55  85 103 136 189 230 269 332
#     4  10  21  37  59  87 118 147 178 229 286 323
#     4  10  16  30  48  73 104 135 165 224 277 322
#     4  10  21  40  59  78 110 155 191 223 270 331
#
# _framework density 19.606221000000001
#
# number of rings (size 3 to 8) (size 9 to 14) (size 15 to 20)
#    0.000    1.600    4.000    2.400    0.000    4.800 
#    0.000    6.000    0.000    1.200    0.000    0.000 
#    0.000    0.000    0.000    0.000    0.000    0.000 
#
# Total GULP energy -495739.539162 kJ/mol
# GULP energy per Si atom -12393.488479 kJ/mol
# Density = 1.956160 g / cm^3
# Si number density = 19.606221 Si / 1000 Ang^3
#
#
#
# Elastic Constant Matrix: (Units=GPa)
#
#
# Indices 1 2 3 4 5 6 
#
# 1 140.5497 40.1400 31.8738 0.0000 0.0000 0.0000
# 2 40.1400 78.3309 56.4498 0.0000 0.0000 0.0000
# 3 31.8738 56.4498 62.4782 0.0000 0.0000 0.0000
# 4 0.0000 0.0000 0.0000 6.7270 0.0000 0.0000
# 5 0.0000 0.0000 0.0000 0.0000 14.7082 0.0000
# 6 0.0000 0.0000 0.0000 0.0000 0.0000 30.6483
#
#
#
# Elastic Compliance Matrix: (Units=1/GPa)
#
#
# Indices 1 2 3 4 5 6 
#
# 1 0.008362 -0.003471 -0.001130 0.000000 0.000000 0.000000
# 2 -0.003471 0.038033 -0.032593 0.000000 0.000000 0.000000
# 3 -0.001130 -0.032593 0.046030 0.000000 0.000000 0.000000
# 4 0.000000 0.000000 0.000000 0.148654 0.000000 0.000000
# 5 0.000000 0.000000 0.000000 0.000000 0.067989 0.000000
# 6 0.000000 0.000000 0.000000 0.000000 0.000000 0.032628
#
#
# Mechanical properties :
#
#
# Convention : Reuss Voigt Hill
#
# Bulk Modulus (GPa) = 55.43814 59.80955 57.62384
# Shear Modulus (GPa) = 11.84559 20.60971 16.22765
#
# Velocity S-wave (km/s) = 2.46066 3.24571 2.88006
# Velocity P-wave (km/s) = 6.03410 6.67966 6.36507
#
# Compressibility (1/GPa) = 0.01803812
#
# Stress axis : x y z
#
# Youngs Moduli (GPa) = 119.58199 26.29292 21.72488
#
# Poissons Ratio (x) = 0.09125 0.02456
# Poissons Ratio (y) = 0.41502 0.70807
# Poissons Ratio (z) = 0.13518 0.85696
#
# Static dielectric constant tensor:
#      x y z
#    x 3.659740 0.000000 0.000000 
#    y 0.000000 3.433880 0.000000 
#    z 0.000000 0.000000 3.231040 
# 
# 
# High freq. dielectric constant tensor:
#      x y z
#    x 1.799420 0.000000 0.000000 
#    y 0.000000 1.760160 0.000000 
#    z 0.000000 0.000000 1.723740 
# 
# From -- ./inp_files/15788.got.cif
#   From: 2010.03.12/outbox.cif.g09.slc.cpg/sg54_8_cif.got.tgz:15788.got - 2010.04.16 15:00:50.
