data_PCOD8222916
_publ_section_title
;
Structure prediction by ZEFSAII (Michael W. Deem and Ramdas Pophale) SiO2 
 PCOD8222916
Probable space group: P C C A
;
_chemical_formula_sum "Si O2"
_cell_formula_units_Z 64
_cell_length_a 18.088983
_cell_length_b 10.944568
_cell_length_c 16.126656
_cell_angle_alpha 90.000000
_cell_angle_beta 90.000000
_cell_angle_gamma 90.000000
_cell_volume 3192.692533
_symmetry_space_group_name_H-M "P C C A"
_symmetry_group_IT_number 54
_symmetry_cell_setting 'orthorhombic'
loop_
_space_group_symop_operation_xyz
x,y,z
1/2-x,-y,z
1/2+x,-y,1/2-z
-x,y,1/2-z
-x,-y,-z
1/2+x,y,-z
1/2-x,y,1/2+z
x,-y,1/2+z
loop_
_atom_site_type_symbol
_atom_site_label
_atom_site_fract_x
_atom_site_fract_y
_atom_site_fract_z
Si Si1 0.664104 0.470897 0.374432
Si Si2 0.913917 0.880256 0.360412
Si Si3 0.684647 0.752591 0.979578
Si Si4 0.573682 0.171191 0.084170
Si Si5 0.674220 0.940055 0.114324
Si Si6 0.320661 0.079876 0.696318
Si Si7 0.419802 0.331281 0.262443
Si Si8 0.346002 0.726148 0.065409
O O1 0.750000 0.500000 0.363819
O O2 0.646390 0.373893 0.448322
O O3 0.637587 0.422197 0.283510
O O4 0.623890 0.593845 0.405624
O O5 0.838715 0.849539 0.409715
O O6 0.921044 0.800659 0.278793
O O7 0.986864 0.861239 0.415499
O O8 0.898946 0.016660 0.327989
O O9 0.771475 0.724414 0.989671
O O10 0.655277 0.815034 0.064319
O O11 0.595672 0.290237 0.141789
O O12 0.613056 0.045219 0.108808
O O13 0.591929 0.207281 0.989448
O O14 0.683548 0.891915 0.206885
O O15 0.750000 0.000000 0.079725
O O16 0.321854 0.207648 0.649596
O O17 0.250000 0.000000 0.669959
O O18 0.500000 0.394132 0.250000
#
# Coordination Sequence:
#
# PCOD8222916 Si02
#       8
#     8   8   8   8   8   8   8   8
#     4   9  21  40  64  86 122 166 215 246 303 369
#     4  10  20  37  62  87 117 162 199 241 317 372
#     4  10  20  39  59  84 121 159 199 252 301 355
#     4  11  22  37  63  91 120 158 209 249 302 383
#     4  11  22  34  57  93 122 152 199 250 314 368
#     4  11  22  36  60  89 127 159 195 252 318 371
#     4   9  19  40  64  87 120 166 203 248 303 368
#     4  11  22  39  60  90 121 163 205 255 300 364
#
# _framework density 20.045774999999999
#
# number of rings (size 3 to 8) (size 9 to 14) (size 15 to 20)
#    0.000    1.750    3.750    0.750    0.000    2.000 
#    2.250    6.250    2.750    0.000    0.000    0.000 
#    0.000    0.000    0.000    0.000    0.000    0.000 
#
# Total GULP energy -792881.767077 kJ/mol
# GULP energy per Si atom -12388.777611 kJ/mol
# Density = 2.000015 g / cm^3
# Si number density = 20.045775 Si / 1000 Ang^3
#
#
#
# Elastic Constant Matrix: (Units=GPa)
#
#
# Indices 1 2 3 4 5 6 
#
# 1 62.2714 24.7104 21.6253 0.0000 0.0000 0.0000
# 2 24.7104 105.6463 53.5634 0.0000 0.0000 0.0000
# 3 21.6253 53.5634 91.0978 0.0000 0.0000 0.0000
# 4 0.0000 0.0000 0.0000 35.7852 0.0000 0.0000
# 5 0.0000 0.0000 0.0000 0.0000 28.1931 0.0000
# 6 0.0000 0.0000 0.0000 0.0000 0.0000 13.7531
#
#
#
# Elastic Compliance Matrix: (Units=1/GPa)
#
#
# Indices 1 2 3 4 5 6 
#
# 1 0.018117 -0.002931 -0.002578 0.000000 0.000000 0.000000
# 2 -0.002931 0.013960 -0.007512 0.000000 0.000000 0.000000
# 3 -0.002578 -0.007512 0.016006 0.000000 0.000000 0.000000
# 4 0.000000 0.000000 0.000000 0.027945 0.000000 0.000000
# 5 0.000000 0.000000 0.000000 0.000000 0.035470 0.000000
# 6 0.000000 0.000000 0.000000 0.000000 0.000000 0.072711
#
#
# Mechanical properties :
#
#
# Convention : Reuss Voigt Hill
#
# Bulk Modulus (GPa) = 45.36850 50.97931 48.17391
# Shear Modulus (GPa) = 22.97833 26.15403 24.56618
#
# Velocity S-wave (km/s) = 3.38937 3.61600 3.50452
# Velocity P-wave (km/s) = 6.16431 6.55138 6.36079
#
# Compressibility (1/GPa) = 0.02204172
#
# Stress axis : x y z
#
# Youngs Moduli (GPa) = 55.19750 71.63404 62.47581
#
# Poissons Ratio (x) = 0.20993 0.16103
# Poissons Ratio (y) = 0.16176 0.46934
# Poissons Ratio (z) = 0.14227 0.53814
#
# Static dielectric constant tensor:
#      x y z
#    x 3.798530 0.000000 0.000000 
#    y 0.000000 3.659110 0.000000 
#    z 0.000000 0.000000 3.590100 
# 
# 
# High freq. dielectric constant tensor:
#      x y z
#    x 1.771150 0.000000 0.000000 
#    y 0.000000 1.769040 0.000000 
#    z 0.000000 0.000000 1.777980 
# 
# From -- ./inp_files/14346.got.cif
#   From: 2010.03.12/outbox.cif.g09.slc.cpg/sg54_8_cif.got.tgz:14346.got - 2010.04.16 15:00:50.
