data_PCOD8222884
_publ_section_title
;
Structure prediction by ZEFSAII (Michael W. Deem and Ramdas Pophale) SiO2 
 PCOD8222884
Probable space group: P C C A
;
_chemical_formula_sum "Si O2"
_cell_formula_units_Z 56
_cell_length_a 13.510069
_cell_length_b 8.759188
_cell_length_c 20.091600
_cell_angle_alpha 90.000000
_cell_angle_beta 90.000000
_cell_angle_gamma 90.000000
_cell_volume 2377.584376
_symmetry_space_group_name_H-M "P C C A"
_symmetry_group_IT_number 54
_symmetry_cell_setting 'orthorhombic'
loop_
_space_group_symop_operation_xyz
x,y,z
1/2-x,-y,z
1/2+x,-y,1/2-z
-x,y,1/2-z
-x,-y,-z
1/2+x,y,-z
1/2-x,y,1/2+z
x,-y,1/2+z
loop_
_atom_site_type_symbol
_atom_site_label
_atom_site_fract_x
_atom_site_fract_y
_atom_site_fract_z
Si Si1 0.149607 0.584982 0.567370
Si Si2 0.289959 0.666266 0.343057
Si Si3 0.007734 0.104057 0.650511
Si Si4 0.553278 0.290138 0.473486
Si Si5 0.249667 0.819352 0.480677
Si Si6 0.172429 0.863567 0.252404
Si Si7 0.999837 0.244997 0.374830
O O1 0.250000 0.500000 0.586324
O O2 0.064809 0.471064 0.539387
O O3 0.159120 0.718258 0.510259
O O4 0.101972 0.657446 0.635130
O O5 0.250000 0.500000 0.362760
O O6 0.265374 0.779345 0.403580
O O7 0.237107 0.717299 0.274721
O O8 0.409459 0.678446 0.333870
O O9 0.990293 0.199604 0.582997
O O10 0.104708 0.172643 0.687938
O O11 0.904153 0.105571 0.688437
O O12 0.027473 0.925781 0.643104
O O13 0.663577 0.225603 0.469260
O O14 0.514027 0.252988 0.546056
O O15 0.250000 0.000000 0.486193
O O16 0.250000 0.000000 0.240568
#
# Coordination Sequence:
#
# PCOD8222884 Si02
#       7
#     8   8   8   8   8   8   8
#     4  10  22  38  59 103 152 184 219 275 362 422
#     4  11  24  42  70 100 133 181 234 290 351 420
#     4  11  25  43  71 102 131 181 236 280 349 414
#     4  10  22  38  64 105 144 175 220 287 347 426
#     4  10  20  36  63 101 142 181 223 274 356 423
#     4  11  25  48  70  93 132 183 231 293 334 411
#     4  11  22  40  69 104 139 181 223 290 356 422
#
# _framework density 23.553315999999999
#
# number of rings (size 3 to 8) (size 9 to 14) (size 15 to 20)
#    0.000    1.429    1.429    4.286    6.000    2.857 
#    0.000    3.571    0.000    0.000    0.000    0.000 
#    0.000    0.000    0.000    0.000    0.000    0.000 
#
# Total GULP energy -693809.987846 kJ/mol
# GULP energy per Si atom -12389.464069 kJ/mol
# Density = 2.349971 g / cm^3
# Si number density = 23.553316 Si / 1000 Ang^3
#
#
#
# Elastic Constant Matrix: (Units=GPa)
#
#
# Indices 1 2 3 4 5 6 
#
# 1 107.7368 24.7713 26.3022 0.0000 0.0000 0.0000
# 2 24.7713 127.4123 19.2195 0.0000 0.0000 0.0000
# 3 26.3022 19.2195 57.0789 0.0000 0.0000 0.0000
# 4 0.0000 0.0000 0.0000 19.4799 0.0000 0.0000
# 5 0.0000 0.0000 0.0000 0.0000 2.8132 0.0000
# 6 0.0000 0.0000 0.0000 0.0000 0.0000 41.1227
#
#
#
# Elastic Compliance Matrix: (Units=1/GPa)
#
#
# Indices 1 2 3 4 5 6 
#
# 1 0.010693 -0.001407 -0.004453 0.000000 0.000000 0.000000
# 2 -0.001407 0.008454 -0.002198 0.000000 0.000000 0.000000
# 3 -0.004453 -0.002198 0.020312 0.000000 0.000000 0.000000
# 4 0.000000 0.000000 0.000000 0.051335 0.000000 0.000000
# 5 0.000000 0.000000 0.000000 0.000000 0.355465 0.000000
# 6 0.000000 0.000000 0.000000 0.000000 0.000000 0.024317
#
#
# Mechanical properties :
#
#
# Convention : Reuss Voigt Hill
#
# Bulk Modulus (GPa) = 42.84310 48.09044 45.46677
# Shear Modulus (GPa) = 10.11176 27.47884 18.79530
#
# Velocity S-wave (km/s) = 2.07424 3.41935 2.82794
# Velocity P-wave (km/s) = 4.89550 6.00428 5.47801
#
# Compressibility (1/GPa) = 0.02334098
#
# Stress axis : x y z
#
# Youngs Moduli (GPa) = 93.52239 118.29181 49.23226
#
# Poissons Ratio (x) = 0.16644 0.21925
# Poissons Ratio (y) = 0.13159 0.10822
# Poissons Ratio (z) = 0.41649 0.26002
#
# Static dielectric constant tensor:
#      x y z
#    x 5.322010 0.000000 0.000000 
#    y 0.000000 4.559040 0.000000 
#    z 0.000000 0.000000 3.966830 
# 
# 
# High freq. dielectric constant tensor:
#      x y z
#    x 1.962970 0.000000 0.000000 
#    y 0.000000 1.937170 0.000000 
#    z 0.000000 0.000000 1.901880 
# 
# From -- ./inp_files/21599.got.cif
#   From: 2010.03.12/outbox.cif.g09.slc.cpg/sg54_11_cif.got.tgz:21599.got - 2010.04.16 15:00:50.
