data_PCOD8222559
_publ_section_title
;
Structure prediction by ZEFSAII (Michael W. Deem and Ramdas Pophale) SiO2 
 PCOD8222559
Probable space group: P C C A
;
_chemical_formula_sum "Si O2"
_cell_formula_units_Z 60
_cell_length_a 5.128902
_cell_length_b 21.124849
_cell_length_c 24.472170
_cell_angle_alpha 90.000000
_cell_angle_beta 90.000000
_cell_angle_gamma 90.000000
_cell_volume 2651.493062
_symmetry_space_group_name_H-M "P C C A"
_symmetry_group_IT_number 54
_symmetry_cell_setting 'orthorhombic'
loop_
_space_group_symop_operation_xyz
x,y,z
1/2-x,-y,z
1/2+x,-y,1/2-z
-x,y,1/2-z
-x,-y,-z
1/2+x,y,-z
1/2-x,y,1/2+z
x,-y,1/2+z
loop_
_atom_site_type_symbol
_atom_site_label
_atom_site_fract_x
_atom_site_fract_y
_atom_site_fract_z
Si Si1 0.710908 0.574820 0.532270
Si Si2 0.051374 0.305117 0.187659
Si Si3 0.348420 0.935078 0.445282
Si Si4 0.662088 0.897764 0.888505
Si Si5 0.500000 0.460449 0.250000
Si Si6 0.670465 0.187862 0.479720
Si Si7 0.066002 0.370841 0.849746
Si Si8 0.257969 0.829736 0.216040
O O1 0.750000 0.500000 0.535024
O O2 0.490878 0.599565 0.489346
O O3 0.621490 0.598237 0.591762
O O4 0.271459 0.345461 0.156269
O O5 0.136795 0.232353 0.185318
O O6 0.000000 0.327570 0.250000
O O7 0.776293 0.314089 0.156748
O O8 0.614555 0.945188 0.410840
O O9 0.392524 0.880938 0.490673
O O10 0.129609 0.919316 0.400517
O O11 0.250000 0.000000 0.475027
O O12 0.709487 0.827811 0.916496
O O13 0.685306 0.886599 0.824455
O O14 0.250000 0.500000 0.229263
O O15 0.608623 0.420917 0.198681
O O16 0.406502 0.226789 0.492555
O O17 0.500000 0.857262 0.250000
O O18 0.000000 0.811308 0.250000
#
# Coordination Sequence:
#
# PCOD8222559 Si02
#       8
#     8   8   8   8   4   8   8   8
#     4  10  22  40  61  85 119 170 219 244 274 347
#     4  11  21  39  61  91 116 148 196 252 326 368
#     4  10  19  32  55  86 116 146 181 225 288 365
#     4  10  20  34  54  80 111 144 188 232 285 331
#     4  12  24  36  56  94 136 166 188 236 324 384
#     4   8  16  28  47  76 109 139 170 217 275 343
#     4  12  22  39  63  90 128 159 198 260 309 365
#     4  11  23  40  63  84 109 149 203 251 288 352
#
# _framework density 22.628761000000001
#
# number of rings (size 3 to 8) (size 9 to 14) (size 15 to 20)
#    0.000    1.600    1.333    4.800    0.000    6.400 
#    0.000    0.000    0.000   22.400    0.000    0.000 
#    0.000    0.000    0.000    0.000    0.000    0.000 
#
# Total GULP energy -743447.805498 kJ/mol
# GULP energy per Si atom -12390.796758 kJ/mol
# Density = 2.257726 g / cm^3
# Si number density = 22.628761 Si / 1000 Ang^3
#
#
#
# Elastic Constant Matrix: (Units=GPa)
#
#
# Indices 1 2 3 4 5 6 
#
# 1 146.6846 4.1322 25.9389 0.0000 0.0000 0.0000
# 2 4.1322 21.9520 18.4327 0.0000 0.0000 0.0000
# 3 25.9389 18.4327 106.8550 0.0000 0.0000 0.0000
# 4 0.0000 0.0000 0.0000 19.6838 0.0000 0.0000
# 5 0.0000 0.0000 0.0000 0.0000 36.7556 0.0000
# 6 0.0000 0.0000 0.0000 0.0000 0.0000 22.3157
#
#
#
# Elastic Compliance Matrix: (Units=1/GPa)
#
#
# Indices 1 2 3 4 5 6 
#
# 1 0.007123 0.000130 -0.001752 0.000000 0.000000 0.000000
# 2 0.000130 0.053272 -0.009221 0.000000 0.000000 0.000000
# 3 -0.001752 -0.009221 0.011374 0.000000 0.000000 0.000000
# 4 0.000000 0.000000 0.000000 0.050803 0.000000 0.000000
# 5 0.000000 0.000000 0.000000 0.000000 0.027207 0.000000
# 6 0.000000 0.000000 0.000000 0.000000 0.000000 0.044811
#
#
# Mechanical properties :
#
#
# Convention : Reuss Voigt Hill
#
# Bulk Modulus (GPa) = 19.96628 41.38880 30.67754
# Shear Modulus (GPa) = 21.46181 30.88355 26.17268
#
# Velocity S-wave (km/s) = 3.08300 3.69832 3.40459
# Velocity P-wave (km/s) = 4.63851 6.04705 5.38900
#
# Compressibility (1/GPa) = 0.05008445
#
# Stress axis : x y z
#
# Youngs Moduli (GPa) = 140.38172 18.77147 87.91723
#
# Poissons Ratio (x) = -0.00244 0.15400
# Poissons Ratio (y) = -0.01823 0.81069
# Poissons Ratio (z) = 0.24589 0.17309
#
# Static dielectric constant tensor:
#      x y z
#    x 4.846840 0.000000 0.000000 
#    y 0.000000 3.613670 0.000000 
#    z 0.000000 0.000000 3.919700 
# 
# 
# High freq. dielectric constant tensor:
#      x y z
#    x 1.933330 0.000000 0.000000 
#    y 0.000000 1.846260 0.000000 
#    z 0.000000 0.000000 1.878280 
# 
# From -- ./inp_files/19890.got.cif
#   From: 2010.03.12/outbox.cif.g09.slc.cpg/sg54_10_cif.got.tgz:19890.got - 2010.04.16 15:00:50.
