data_PCOD8222269
_publ_section_title
;
Structure prediction by ZEFSAII (Michael W. Deem and Ramdas Pophale) SiO2 
 PCOD8222269
Probable space group: P M N A
;
_chemical_formula_sum "Si O2"
_cell_formula_units_Z 48
_cell_length_a 9.000000
_cell_length_b 15.000000
_cell_length_c 18.000000
_cell_angle_alpha 90.000000
_cell_angle_beta 90.000000
_cell_angle_gamma 90.000000
_cell_volume 2430.000000
_symmetry_space_group_name_H-M "P M N A"
_symmetry_group_IT_number 53
_symmetry_cell_setting 'orthorhombic'
loop_
_space_group_symop_operation_xyz
x,y,z
1/2-x,-y,1/2+z
x,-y,-z
1/2-x,y,1/2-z
-x,-y,-z
1/2+x,y,1/2-z
-x,y,z
1/2+x,-y,1/2+z
loop_
_atom_site_type_symbol
_atom_site_label
_atom_site_fract_x
_atom_site_fract_y
_atom_site_fract_z
Si Si1 0.328103 0.496364 0.829049
Si Si2 0.324225 0.642787 0.573279
Si Si3 0.324745 0.986812 0.582870
Si Si4 0.828231 0.681520 0.417787
Si Si5 0.324070 0.836627 0.329875
Si Si6 0.174526 0.815171 0.829900
O O1 0.250000 0.506504 0.750000
O O2 0.500000 0.526441 0.822382
O O3 0.242785 0.555879 0.888656
O O4 0.315790 0.395312 0.856329
O O5 0.500000 0.631556 0.561662
O O6 0.246445 0.652112 0.494201
O O7 0.286201 0.726458 0.625155
O O8 0.500000 0.977898 0.574176
O O9 0.261673 0.897464 0.621453
O O10 0.255760 0.000000 0.500000
O O11 0.281226 0.067857 0.636473
O O12 0.738940 0.765384 0.387245
O O13 0.000000 0.706378 0.432100
O O14 0.250000 0.825464 0.250000
O O15 0.500000 0.823673 0.321902
O O16 0.250000 0.811816 0.750000
O O17 0.000000 0.825819 0.816727
#
# Coordination Sequence:
#
# PCOD8222269 Si02
#       6
#     8   8   8   8   8   8
#     4  11  24  41  61  86 117 154 194 238 290 345
#     4  11  23  39  62  89 117 153 195 239 291 349
#     4   9  18  35  58  83 114 152 193 237 286 343
#     4  11  24  41  61  86 118 154 194 242 293 346
#     4  11  22  37  60  87 117 154 195 240 290 344
#     4  10  21  37  58  85 116 152 192 234 285 343
#
# _framework density 19.753086
#
# number of rings (size 3 to 8) (size 9 to 14) (size 15 to 20)
#    0.000    1.500    0.000    5.000    0.000   11.333 
#    0.000    0.833    0.000    3.500    0.000    0.000 
#    0.000    0.000    0.000    0.000    0.000    0.000 
#
# Total GULP energy -595409.528018 kJ/mol
# GULP energy per Si atom -12404.365167 kJ/mol
# Density = 1.970813 g / cm^3
# Si number density = 19.753086 Si / 1000 Ang^3
#
#
#
# Elastic Constant Matrix: (Units=GPa)
#
#
# Indices 1 2 3 4 5 6 
#
# 1 93.8706 29.7605 35.6612 0.0000 0.0000 0.0000
# 2 29.7605 73.7196 0.8529 0.0000 0.0000 0.0000
# 3 35.6612 0.8529 115.4038 0.0000 0.0000 0.0000
# 4 0.0000 0.0000 0.0000 255.1955 0.0000 0.0000
# 5 0.0000 0.0000 0.0000 0.0000 43.2588 0.0000
# 6 0.0000 0.0000 0.0000 0.0000 0.0000 23.3045
#
#
#
# Elastic Compliance Matrix: (Units=1/GPa)
#
#
# Indices 1 2 3 4 5 6 
#
# 1 0.014075 -0.005632 -0.004308 0.000000 0.000000 0.000000
# 2 -0.005632 0.015820 0.001624 0.000000 0.000000 0.000000
# 3 -0.004308 0.001624 0.009984 0.000000 0.000000 0.000000
# 4 0.000000 0.000000 0.000000 0.003919 0.000000 0.000000
# 5 0.000000 0.000000 0.000000 0.000000 0.023117 0.000000
# 6 0.000000 0.000000 0.000000 0.000000 0.000000 0.042910
#
#
# Mechanical properties :
#
#
# Convention : Reuss Voigt Hill
#
# Bulk Modulus (GPa) = 43.01750 46.17148 44.59449
# Shear Modulus (GPa) = 37.25598 78.79971 58.02785
#
# Velocity S-wave (km/s) = 4.34762 6.32289 5.42590
# Velocity P-wave (km/s) = 6.85764 8.75958 7.86631
#
# Compressibility (1/GPa) = 0.02324635
#
# Stress axis : x y z
#
# Youngs Moduli (GPa) = 71.04737 63.21164 100.15648
#
# Poissons Ratio (x) = 0.35602 0.43145
# Poissons Ratio (y) = 0.40016 -0.16261
# Poissons Ratio (z) = 0.30606 -0.10263
#
# Static dielectric constant tensor:
#      x y z
#    x 3.658860 0.000000 0.000000 
#    y 0.000000 3.848640 0.000000 
#    z 0.000000 0.000000 4.380850 
# 
# 
# High freq. dielectric constant tensor:
#      x y z
#    x 1.769110 0.000000 0.000000 
#    y 0.000000 1.787110 0.000000 
#    z 0.000000 0.000000 1.797820 
# 
# From -- ./inp_files/26236.got.cif
#   From: 2010.03.12/outbox.ucp.g09.slc.cvg/sg53_14_cif.got.tgz:26236.got - 2010.05.04 19:20:06.
