data_PCOD8222305
_publ_section_title
;
Structure prediction by ZEFSAII (Michael W. Deem and Ramdas Pophale) SiO2 
 PCOD8222305
Probable space group: P C C A
;
_chemical_formula_sum "Si O2"
_cell_formula_units_Z 56
_cell_length_a 5.315960
_cell_length_b 31.066659
_cell_length_c 16.129991
_cell_angle_alpha 90.000000
_cell_angle_beta 90.000000
_cell_angle_gamma 90.000000
_cell_volume 2663.853764
_symmetry_space_group_name_H-M "P C C A"
_symmetry_group_IT_number 54
_symmetry_cell_setting 'orthorhombic'
loop_
_space_group_symop_operation_xyz
x,y,z
1/2-x,-y,z
1/2+x,-y,1/2-z
-x,y,1/2-z
-x,-y,-z
1/2+x,y,-z
1/2-x,y,1/2+z
x,-y,1/2+z
loop_
_atom_site_type_symbol
_atom_site_label
_atom_site_fract_x
_atom_site_fract_y
_atom_site_fract_z
Si Si1 0.987817 0.741696 0.089967
Si Si2 0.500084 0.026075 0.846751
Si Si3 0.980403 0.389891 0.446404
Si Si4 0.987678 0.705662 0.904866
Si Si5 0.999956 0.524105 0.651699
Si Si6 0.506855 0.156714 0.089910
Si Si7 0.493273 0.120599 0.594764
O O1 0.235119 0.724553 0.138553
O O2 0.734202 0.726989 0.138093
O O3 0.999279 0.792476 0.079140
O O4 0.976235 0.718967 0.000976
O O5 0.500000 0.037897 0.750000
O O6 0.500642 0.069412 0.899571
O O7 0.750000 0.000000 0.871132
O O8 0.250000 0.000000 0.871196
O O9 0.209712 0.392867 0.510366
O O10 0.998227 0.345578 0.395384
O O11 0.003348 0.427514 0.380109
O O12 0.750000 0.500000 0.618310
O O13 0.250000 0.500000 0.618291
O O14 0.000000 0.525428 0.750000
O O15 0.258414 0.139933 0.138419
O O16 0.758656 0.141331 0.138225
O O17 0.512904 0.134314 0.000666
#
# Coordination Sequence:
#
# PCOD8222305 Si02
#       7
#     8   8   8   8   8   8   8
#     4  10  16  28  46  68 107 141 160 195 251 308
#     4  10  21  37  54  70  91 127 173 212 250 300
#     4  12  21  34  55  87 117 135 184 244 282 317
#     4  10  16  27  43  73 106 131 163 206 255 295
#     4  10  23  42  59  77 108 153 192 222 278 354
#     4  10  19  30  48  77 106 129 165 193 253 302
#     4  10  18  32  48  72 101 125 160 210 241 298
#
# _framework density 21.022175000000001
#
# number of rings (size 3 to 8) (size 9 to 14) (size 15 to 20)
#    0.000    1.714    2.857    6.000    0.000    1.714 
#    0.000    8.571    0.000    0.000    0.000   11.000 
#    0.000    0.000    0.000    0.000    0.000    0.000 
#
# Total GULP energy -694139.817909 kJ/mol
# GULP energy per Si atom -12395.353891 kJ/mol
# Density = 2.097433 g / cm^3
# Si number density = 21.022175 Si / 1000 Ang^3
#
#
#
# Elastic Constant Matrix: (Units=GPa)
#
#
# Indices 1 2 3 4 5 6 
#
# 1 221.5139 66.0383 7.6638 0.0000 0.0000 0.0000
# 2 66.0383 198.4639 21.9900 0.0000 0.0000 0.0000
# 3 7.6638 21.9900 8.8573 0.0000 0.0000 0.0000
# 4 0.0000 0.0000 0.0000 3.9432 0.0000 0.0000
# 5 0.0000 0.0000 0.0000 0.0000 3.9258 0.0000
# 6 0.0000 0.0000 0.0000 0.0000 0.0000 42.5977
#
#
#
# Elastic Compliance Matrix: (Units=1/GPa)
#
#
# Indices 1 2 3 4 5 6 
#
# 1 0.005012 -0.001638 -0.000271 0.000000 0.000000 0.000000
# 2 -0.001638 0.007486 -0.017168 0.000000 0.000000 0.000000
# 3 -0.000271 -0.017168 0.155759 0.000000 0.000000 0.000000
# 4 0.000000 0.000000 0.000000 0.253602 0.000000 0.000000
# 5 0.000000 0.000000 0.000000 0.000000 0.254727 0.000000
# 6 0.000000 0.000000 0.000000 0.000000 0.000000 0.023475
#
#
# Mechanical properties :
#
#
# Convention : Reuss Voigt Hill
#
# Bulk Modulus (GPa) = 7.68616 68.91324 38.29970
# Shear Modulus (GPa) = 6.39728 32.30287 19.35008
#
# Velocity S-wave (km/s) = 1.74634 3.92421 3.03720
# Velocity P-wave (km/s) = 2.78037 7.30650 5.52790
#
# Compressibility (1/GPa) = 0.13010391
#
# Stress axis : x y z
#
# Youngs Moduli (GPa) = 199.52109 133.58439 6.42017
#
# Poissons Ratio (x) = 0.21878 0.00174
# Poissons Ratio (y) = 0.32676 0.11022
# Poissons Ratio (z) = 0.05400 2.29340
#
# Static dielectric constant tensor:
#      x y z
#    x 9.788020 0.000000 0.000000 
#    y 0.000000 3.848090 0.000000 
#    z 0.000000 0.000000 2.999080 
# 
# 
# High freq. dielectric constant tensor:
#      x y z
#    x 1.870540 0.000000 0.000000 
#    y 0.000000 1.838660 0.000000 
#    z 0.000000 0.000000 1.745010 
# 
# From -- ./inp_files/10977.got.cif
#   From: 2010.03.12/outbox.cif.g09.slc.cpg/sg54_6_cif.got.tgz:10977.got - 2010.04.16 15:00:50.
