data_PCOD8222934
_publ_section_title
;
Structure prediction by ZEFSAII (Michael W. Deem and Ramdas Pophale) SiO2 
 PCOD8222934
Probable space group: P C C A
;
_chemical_formula_sum "Si O2"
_cell_formula_units_Z 48
_cell_length_a 15.147160
_cell_length_b 9.364369
_cell_length_c 17.141727
_cell_angle_alpha 90.000000
_cell_angle_beta 90.000000
_cell_angle_gamma 90.000000
_cell_volume 2431.444191
_symmetry_space_group_name_H-M "P C C A"
_symmetry_group_IT_number 54
_symmetry_cell_setting 'orthorhombic'
loop_
_space_group_symop_operation_xyz
x,y,z
1/2-x,-y,z
1/2+x,-y,1/2-z
-x,y,1/2-z
-x,-y,-z
1/2+x,y,-z
1/2-x,y,1/2+z
x,-y,1/2+z
loop_
_atom_site_type_symbol
_atom_site_label
_atom_site_fract_x
_atom_site_fract_y
_atom_site_fract_z
Si Si1 0.750000 0.000000 0.169873
Si Si2 0.000000 0.322370 0.250000
Si Si3 0.354369 0.529559 0.677412
Si Si4 0.494405 0.894108 0.617788
Si Si5 0.411973 0.164211 0.891059
Si Si6 0.057604 0.366634 0.525890
Si Si7 0.375107 0.175923 0.243387
O O1 0.821690 0.075302 0.115080
O O2 0.719594 0.123878 0.228769
O O3 0.075457 0.407627 0.201683
O O4 0.054514 0.223448 0.308753
O O5 0.250000 0.500000 0.685473
O O6 0.370729 0.577696 0.587987
O O7 0.376787 0.654001 0.737945
O O8 0.504396 0.759324 0.560132
O O9 0.558968 0.872153 0.689837
O O10 0.397499 0.893977 0.658462
O O11 0.516030 0.046978 0.577543
O O12 0.395644 0.294766 0.950727
O O13 0.000000 0.500000 0.500000
#
# Coordination Sequence:
#
# PCOD8222934 Si02
#       7
#     4   4   8   8   8   8   8
#     4  10  20  38  56  94 124 154 214 268 326 384
#     4  12  22  40  70  94 126 170 228 280 334 398
#     4  11  23  40  60  96 130 169 217 270 331 395
#     4   9  19  37  63  86 114 158 209 251 317 376
#     4  11  22  38  63  92 119 168 213 266 324 393
#     4  11  22  42  59  87 127 168 209 260 323 394
#     4   9  18  36  61  85 120 155 200 267 313 372
#
# _framework density 19.741354999999999
#
# number of rings (size 3 to 8) (size 9 to 14) (size 15 to 20)
#    0.000    1.667    1.667    5.500    0.000    0.000 
#    6.000    4.167    0.000    0.000    0.000    0.000 
#    0.000    0.000    0.000    0.000    0.000    0.000 
#
# Total GULP energy -594656.603434 kJ/mol
# GULP energy per Si atom -12388.679238 kJ/mol
# Density = 1.969642 g / cm^3
# Si number density = 19.741355 Si / 1000 Ang^3
#
#
#
# Elastic Constant Matrix: (Units=GPa)
#
#
# Indices 1 2 3 4 5 6 
#
# 1 85.4379 36.4410 28.6910 0.0000 0.0000 0.0000
# 2 36.4410 114.5709 44.3626 0.0000 0.0000 0.0000
# 3 28.6910 44.3626 84.9947 0.0000 0.0000 0.0000
# 4 0.0000 0.0000 0.0000 42.3243 0.0000 0.0000
# 5 0.0000 0.0000 0.0000 0.0000 13.7617 0.0000
# 6 0.0000 0.0000 0.0000 0.0000 0.0000 34.5653
#
#
#
# Elastic Compliance Matrix: (Units=1/GPa)
#
#
# Indices 1 2 3 4 5 6 
#
# 1 0.014142 -0.003321 -0.003041 0.000000 0.000000 0.000000
# 2 -0.003321 0.011719 -0.004996 0.000000 0.000000 0.000000
# 3 -0.003041 -0.004996 0.015399 0.000000 0.000000 0.000000
# 4 0.000000 0.000000 0.000000 0.023627 0.000000 0.000000
# 5 0.000000 0.000000 0.000000 0.000000 0.072666 0.000000
# 6 0.000000 0.000000 0.000000 0.000000 0.000000 0.028931
#
#
# Mechanical properties :
#
#
# Convention : Reuss Voigt Hill
#
# Bulk Modulus (GPa) = 53.91958 55.99920 54.95939
# Shear Modulus (GPa) = 25.59129 29.83084 27.71107
#
# Velocity S-wave (km/s) = 3.60436 3.89148 3.75067
# Velocity P-wave (km/s) = 6.68537 6.97277 6.83058
#
# Compressibility (1/GPa) = 0.01854614
#
# Stress axis : x y z
#
# Youngs Moduli (GPa) = 70.71237 85.33325 64.93825
#
# Poissons Ratio (x) = 0.28337 0.19745
# Poissons Ratio (y) = 0.23482 0.32441
# Poissons Ratio (z) = 0.21500 0.42629
#
# Static dielectric constant tensor:
#      x y z
#    x 4.002390 0.000000 0.000000 
#    y 0.000000 3.934450 0.000000 
#    z 0.000000 0.000000 3.719930 
# 
# 
# High freq. dielectric constant tensor:
#      x y z
#    x 1.751380 0.000000 0.000000 
#    y 0.000000 1.787960 0.000000 
#    z 0.000000 0.000000 1.770310 
# 
# From -- ./inp_files/18095.got.cif
#   From: 2010.03.12/outbox.cif.g09.slc.cpg/sg54_10_cif.got.tgz:18095.got - 2010.04.16 15:00:50.
