data_PCOD8222077
_publ_section_title
;
Structure prediction by ZEFSAII (Michael W. Deem and Ramdas Pophale) SiO2 
 PCOD8222077
Probable space group: P M N A
;
_chemical_formula_sum "Si O2"
_cell_formula_units_Z 32
_cell_length_a 10.439428
_cell_length_b 7.338112
_cell_length_c 18.879999
_cell_angle_alpha 90.000000
_cell_angle_beta 90.000000
_cell_angle_gamma 90.000000
_cell_volume 1446.315386
_symmetry_space_group_name_H-M "P M N A"
_symmetry_group_IT_number 53
_symmetry_cell_setting 'orthorhombic'
loop_
_space_group_symop_operation_xyz
x,y,z
1/2-x,-y,1/2+z
x,-y,-z
1/2-x,y,1/2-z
-x,-y,-z
1/2+x,y,1/2-z
-x,y,z
1/2+x,-y,1/2+z
loop_
_atom_site_type_symbol
_atom_site_label
_atom_site_fract_x
_atom_site_fract_y
_atom_site_fract_z
Si Si1 0.000000 0.111977 0.396810
Si Si2 0.772053 0.452736 0.923166
Si Si3 0.241357 0.212020 0.172308
Si Si4 0.000000 0.709770 0.453017
Si Si5 0.856552 0.824705 0.190439
O O1 0.120225 0.141866 0.348071
O O2 0.000000 0.248185 0.463292
O O3 0.000000 0.900699 0.414791
O O4 0.806575 0.632278 0.879316
O O5 0.621311 0.411534 0.931332
O O6 0.836151 0.282535 0.883400
O O7 0.832045 0.500000 0.000000
O O8 0.250000 0.300152 0.250000
O O9 0.147533 0.038461 0.171498
O O10 0.750000 0.772048 0.250000
O O11 0.000000 0.780649 0.219314
#
# Coordination Sequence:
#
# PCOD8222077 Si02
#       5
#     4   8   8   4   8
#     4  11  21  44  75 107 143 191 248 295 364 424
#     4  12  24  44  71 107 143 190 238 297 358 429
#     4  11  25  42  69 104 142 187 235 295 358 424
#     4  11  22  41  78 109 149 185 245 307 356 426
#     4  11  28  50  73 103 144 189 237 298 365 432
#
# _framework density 22.125188000000001
#
# number of rings (size 3 to 8) (size 9 to 14) (size 15 to 20)
#    0.000    0.750    5.000    1.875    8.750    2.500 
#    4.500    1.250    0.000    0.000    0.000    0.000 
#    0.000    0.000    0.000    0.000    0.000    0.000 
#
# Total GULP energy -396737.720356 kJ/mol
# GULP energy per Si atom -12398.053761 kJ/mol
# Density = 2.207483 g / cm^3
# Si number density = 22.125188 Si / 1000 Ang^3
#
#
#
# Elastic Constant Matrix: (Units=GPa)
#
#
# Indices 1 2 3 4 5 6 
#
# 1 75.5168 15.2232 49.9704 0.0000 0.0000 0.0000
# 2 15.2232 115.4894 68.7320 0.0000 0.0000 0.0000
# 3 49.9704 68.7320 174.9571 0.0000 0.0000 0.0000
# 4 0.0000 0.0000 0.0000 38.5410 0.0000 0.0000
# 5 0.0000 0.0000 0.0000 0.0000 29.4232 0.0000
# 6 0.0000 0.0000 0.0000 0.0000 0.0000 28.6676
#
#
#
# Elastic Compliance Matrix: (Units=1/GPa)
#
#
# Indices 1 2 3 4 5 6 
#
# 1 0.016387 0.000816 -0.005001 0.000000 0.000000 0.000000
# 2 0.000816 0.011342 -0.004689 0.000000 0.000000 0.000000
# 3 -0.005001 -0.004689 0.008986 0.000000 0.000000 0.000000
# 4 0.000000 0.000000 0.000000 0.025946 0.000000 0.000000
# 5 0.000000 0.000000 0.000000 0.000000 0.033987 0.000000
# 6 0.000000 0.000000 0.000000 0.000000 0.000000 0.034883
#
#
# Mechanical properties :
#
#
# Convention : Reuss Voigt Hill
#
# Bulk Modulus (GPa) = 52.72167 70.42381 61.57274
# Shear Modulus (GPa) = 32.13377 34.79553 33.46465
#
# Velocity S-wave (km/s) = 3.81512 3.96999 3.89332
# Velocity P-wave (km/s) = 6.57932 7.27415 6.93544
#
# Compressibility (1/GPa) = 0.01896753
#
# Stress axis : x y z
#
# Youngs Moduli (GPa) = 61.02494 88.17080 111.28434
#
# Poissons Ratio (x) = -0.07197 0.55653
# Poissons Ratio (y) = -0.04981 0.52178
# Poissons Ratio (z) = 0.30518 0.41341
#
# Static dielectric constant tensor:
#      x y z
#    x 3.882350 0.000000 0.000000 
#    y 0.000000 4.222000 0.000000 
#    z 0.000000 0.000000 4.404690 
# 
# 
# High freq. dielectric constant tensor:
#      x y z
#    x 1.856260 0.000000 0.000000 
#    y 0.000000 1.888260 0.000000 
#    z 0.000000 0.000000 1.881630 
# 
# From -- ./inp_files/21404.got.cif
#   From: 2010.03.12/outbox.cif.g09.slc.cpg/sg53_11_cif.got.tgz:21404.got - 2010.04.16 14:36:59.
