data_PCOD8222514
_publ_section_title
;
Structure prediction by ZEFSAII (Michael W. Deem and Ramdas Pophale) SiO2 
 PCOD8222514
Probable space group: P C C A
;
_chemical_formula_sum "Si O2"
_cell_formula_units_Z 64
_cell_length_a 26.612832
_cell_length_b 5.109557
_cell_length_c 28.104660
_cell_angle_alpha 90.000000
_cell_angle_beta 90.000000
_cell_angle_gamma 90.000000
_cell_volume 3821.665541
_symmetry_space_group_name_H-M "P C C A"
_symmetry_group_IT_number 54
_symmetry_cell_setting 'orthorhombic'
loop_
_space_group_symop_operation_xyz
x,y,z
1/2-x,-y,z
1/2+x,-y,1/2-z
-x,y,1/2-z
-x,-y,-z
1/2+x,y,-z
1/2-x,y,1/2+z
x,-y,1/2+z
loop_
_atom_site_type_symbol
_atom_site_label
_atom_site_fract_x
_atom_site_fract_y
_atom_site_fract_z
Si Si1 0.616323 0.191788 0.307951
Si Si2 0.381916 0.817096 0.804404
Si Si3 0.309600 0.036883 0.115514
Si Si4 0.783032 0.250183 0.530680
Si Si5 0.783868 0.242651 0.635646
Si Si6 0.309504 0.461156 0.562915
Si Si7 0.056895 0.680333 0.805322
Si Si8 0.945007 0.697891 0.807326
O O1 0.627242 0.183536 0.252047
O O2 0.669282 0.138621 0.334140
O O3 0.590216 0.460329 0.324606
O O4 0.578555 0.967088 0.325119
O O5 0.329270 0.750401 0.827884
O O6 0.420223 0.594291 0.820810
O O7 0.406379 0.087402 0.822839
O O8 0.329366 0.249272 0.075892
O O9 0.250000 0.000000 0.119950
O O10 0.330527 0.751630 0.100626
O O11 0.750000 0.500000 0.541915
O O12 0.807090 0.190881 0.582394
O O13 0.822598 0.341926 0.489685
O O14 0.750000 0.000000 0.512550
O O15 0.750000 0.500000 0.640805
O O16 0.750000 0.000000 0.650590
O O17 0.250000 0.500000 0.565336
O O18 0.051574 0.696710 0.749128
O O19 0.001403 0.689280 0.828713
#
# Coordination Sequence:
#
# PCOD8222514 Si02
#       8
#     8   8   8   8   8   8   8   8
#     4  10  19  30  44  65  93 123 151 181 216 264
#     4  10  19  31  46  66  93 122 152 182 215 263
#     4  10  19  29  42  63  92 123 151 177 208 257
#     4   9  16  28  46  64  83 111 147 188 229 256
#     4  10  20  32  46  66  94 125 152 179 213 261
#     4   9  16  28  44  61  83 112 148 188 224 250
#     4   9  17  30  48  66  85 113 149 194 236 260
#     4   9  17  30  47  65  86 113 149 193 236 262
#
# _framework density 16.746625000000002
#
# number of rings (size 3 to 8) (size 9 to 14) (size 15 to 20)
#    0.000    2.500    0.000    4.125    0.000    3.500 
#    0.000    1.875    0.000    0.000    0.000    0.000 
#    0.000   20.000    0.000    0.000    0.000    0.000 
#
# Total GULP energy -792870.455777 kJ/mol
# GULP energy per Si atom -12388.600872 kJ/mol
# Density = 1.670851 g / cm^3
# Si number density = 16.746625 Si / 1000 Ang^3
#
#
#
# Elastic Constant Matrix: (Units=GPa)
#
#
# Indices 1 2 3 4 5 6 
#
# 1 69.4164 30.7768 38.7052 0.0000 0.0000 0.0000
# 2 30.7768 112.1373 26.4563 0.0000 0.0000 0.0000
# 3 38.7052 26.4563 59.3762 0.0000 0.0000 0.0000
# 4 0.0000 0.0000 0.0000 18.1984 0.0000 0.0000
# 5 0.0000 0.0000 0.0000 0.0000 2.0071 0.0000
# 6 0.0000 0.0000 0.0000 0.0000 0.0000 20.3351
#
#
#
# Elastic Compliance Matrix: (Units=1/GPa)
#
#
# Indices 1 2 3 4 5 6 
#
# 1 0.023606 -0.003183 -0.013970 0.000000 0.000000 0.000000
# 2 -0.003183 0.010394 -0.002557 0.000000 0.000000 0.000000
# 3 -0.013970 -0.002557 0.027087 0.000000 0.000000 0.000000
# 4 0.000000 0.000000 0.000000 0.054950 0.000000 0.000000
# 5 0.000000 0.000000 0.000000 0.000000 0.498225 0.000000
# 6 0.000000 0.000000 0.000000 0.000000 0.000000 0.049176
#
#
# Mechanical properties :
#
#
# Convention : Reuss Voigt Hill
#
# Bulk Modulus (GPa) = 46.14840 48.08960 47.11900
# Shear Modulus (GPa) = 7.04145 17.77425 12.40785
#
# Velocity S-wave (km/s) = 2.05276 3.26139 2.72493
# Velocity P-wave (km/s) = 5.76499 6.55443 6.17234
#
# Compressibility (1/GPa) = 0.02166922
#
# Stress axis : x y z
#
# Youngs Moduli (GPa) = 42.36146 96.20560 36.91769
#
# Poissons Ratio (x) = 0.30623 0.51573
# Poissons Ratio (y) = 0.13484 0.09438
# Poissons Ratio (z) = 0.59178 0.24595
#
# Static dielectric constant tensor:
#      x y z
#    x 2.914910 0.000000 0.000000 
#    y 0.000000 3.568800 0.000000 
#    z 0.000000 0.000000 3.127050 
# 
# 
# High freq. dielectric constant tensor:
#      x y z
#    x 1.606170 0.000000 0.000000 
#    y 0.000000 1.676550 0.000000 
#    z 0.000000 0.000000 1.614630 
# 
# From -- ./inp_files/26695.got.cif
#   From: 2010.03.12/outbox.cif.g09.slc.cpg/sg54_14_cif.got.tgz:26695.got - 2010.04.16 15:00:50.
