data_PCOD8222808
_publ_section_title
;
Structure prediction by ZEFSAII (Michael W. Deem and Ramdas Pophale) SiO2 
 PCOD8222808
Probable space group: P C C A
;
_chemical_formula_sum "Si O2"
_cell_formula_units_Z 56
_cell_length_a 21.099402
_cell_length_b 6.756219
_cell_length_c 20.974321
_cell_angle_alpha 90.000000
_cell_angle_beta 90.000000
_cell_angle_gamma 90.000000
_cell_volume 2989.935197
_symmetry_space_group_name_H-M "P C C A"
_symmetry_group_IT_number 54
_symmetry_cell_setting 'orthorhombic'
loop_
_space_group_symop_operation_xyz
x,y,z
1/2-x,-y,z
1/2+x,-y,1/2-z
-x,y,1/2-z
-x,-y,-z
1/2+x,y,-z
1/2-x,y,1/2+z
x,-y,1/2+z
loop_
_atom_site_type_symbol
_atom_site_label
_atom_site_fract_x
_atom_site_fract_y
_atom_site_fract_z
Si Si1 0.370874 0.839621 0.266924
Si Si2 0.060766 0.889879 0.357763
Si Si3 0.692500 0.115267 0.446735
Si Si4 0.326292 0.170890 0.436441
Si Si5 0.250000 0.500000 0.504171
Si Si6 0.929593 0.436301 0.749632
Si Si7 0.583667 0.891637 0.846983
Si Si8 0.250000 0.000000 0.824539
O O1 0.377848 0.604708 0.260398
O O2 0.296504 0.879656 0.277686
O O3 0.410762 0.907792 0.328731
O O4 0.396953 0.940118 0.202907
O O5 0.098181 0.826431 0.422059
O O6 0.072731 0.720930 0.306396
O O7 0.987316 0.927569 0.372742
O O8 0.710151 0.346117 0.453285
O O9 0.628270 0.095120 0.408061
O O10 0.750000 0.000000 0.410736
O O11 0.686024 0.013159 0.516267
O O12 0.302300 0.380086 0.463555
O O13 0.290718 0.145082 0.369063
O O14 0.912435 0.324994 0.815405
O O15 0.000000 0.530959 0.750000
#
# Coordination Sequence:
#
# PCOD8222808 Si02
#       8
#     8   8   8   8   4   8   8   4
#     4  10  20  35  58  83 116 150 180 226 276 325
#     4   9  20  35  57  86 114 144 183 230 274 326
#     4  10  22  39  58  78 110 149 188 227 275 333
#     4  10  20  37  58  83 107 142 188 231 278 329
#     4  10  20  38  58  76 106 148 182 234 282 312
#     4   9  18  34  55  83 114 148 181 217 276 330
#     4  10  21  38  54  82 118 146 184 227 269 334
#     4  10  20  36  54  86 108 136 192 230 266 332
#
# _framework density 18.729503999999999
#
# number of rings (size 3 to 8) (size 9 to 14) (size 15 to 20)
#    0.000    2.286    2.143    2.143    3.000    2.857 
#    0.000    0.714    0.000    0.000    0.000    0.000 
#    0.000    0.000    0.000    0.000    0.000    0.000 
#
# Total GULP energy -694272.548097 kJ/mol
# GULP energy per Si atom -12397.724073 kJ/mol
# Density = 1.868687 g / cm^3
# Si number density = 18.729504 Si / 1000 Ang^3
#
#
#
# Elastic Constant Matrix: (Units=GPa)
#
#
# Indices 1 2 3 4 5 6 
#
# 1 148.6844 33.1882 49.4015 0.0000 0.0000 0.0000
# 2 33.1882 83.3748 14.6236 0.0000 0.0000 0.0000
# 3 49.4015 14.6236 56.0633 0.0000 0.0000 0.0000
# 4 0.0000 0.0000 0.0000 6.5990 0.0000 0.0000
# 5 0.0000 0.0000 0.0000 0.0000 39.6199 0.0000
# 6 0.0000 0.0000 0.0000 0.0000 0.0000 27.0133
#
#
#
# Elastic Compliance Matrix: (Units=1/GPa)
#
#
# Indices 1 2 3 4 5 6 
#
# 1 0.010003 -0.002553 -0.008148 0.000000 0.000000 0.000000
# 2 -0.002553 0.013220 -0.001199 0.000000 0.000000 0.000000
# 3 -0.008148 -0.001199 0.025330 0.000000 0.000000 0.000000
# 4 0.000000 0.000000 0.000000 0.151539 0.000000 0.000000
# 5 0.000000 0.000000 0.000000 0.000000 0.025240 0.000000
# 6 0.000000 0.000000 0.000000 0.000000 0.000000 0.037019
#
#
# Mechanical properties :
#
#
# Convention : Reuss Voigt Hill
#
# Bulk Modulus (GPa) = 40.39932 53.61656 47.00794
# Shear Modulus (GPa) = 16.98359 27.37370 22.17865
#
# Velocity S-wave (km/s) = 3.01455 3.82714 3.44489
# Velocity P-wave (km/s) = 5.80805 6.94394 6.40124
#
# Compressibility (1/GPa) = 0.02475289
#
# Stress axis : x y z
#
# Youngs Moduli (GPa) = 99.97238 75.64049 39.47901
#
# Poissons Ratio (x) = 0.19307 0.32169
# Poissons Ratio (y) = 0.25518 0.04734
# Poissons Ratio (z) = 0.81461 0.09071
#
# Static dielectric constant tensor:
#      x y z
#    x 3.739870 0.000000 0.000000 
#    y 0.000000 3.310230 0.000000 
#    z 0.000000 0.000000 3.237170 
# 
# 
# High freq. dielectric constant tensor:
#      x y z
#    x 1.738330 0.000000 0.000000 
#    y 0.000000 1.721510 0.000000 
#    z 0.000000 0.000000 1.705870 
# 
# From -- ./inp_files/24755.got.cif
#   From: 2010.03.12/outbox.cif.g09.slc.cpg/sg54_13_cif.got.tgz:24755.got - 2010.04.16 15:00:50.
