data_PCOD8222914
_publ_section_title
;
Structure prediction by ZEFSAII (Michael W. Deem and Ramdas Pophale) SiO2 
 PCOD8222914
Probable space group: P C C A
;
_chemical_formula_sum "Si O2"
_cell_formula_units_Z 40
_cell_length_a 10.035232
_cell_length_b 8.064746
_cell_length_c 23.719842
_cell_angle_alpha 90.000000
_cell_angle_beta 90.000000
_cell_angle_gamma 90.000000
_cell_volume 1919.684697
_symmetry_space_group_name_H-M "P C C A"
_symmetry_group_IT_number 54
_symmetry_cell_setting 'orthorhombic'
loop_
_space_group_symop_operation_xyz
x,y,z
1/2-x,-y,z
1/2+x,-y,1/2-z
-x,y,1/2-z
-x,-y,-z
1/2+x,y,-z
1/2-x,y,1/2+z
x,-y,1/2+z
loop_
_atom_site_type_symbol
_atom_site_label
_atom_site_fract_x
_atom_site_fract_y
_atom_site_fract_z
Si Si1 0.294934 0.685583 0.730526
Si Si2 0.871102 0.608774 0.064897
Si Si3 0.871051 0.611840 0.939310
Si Si4 0.872088 0.887070 0.849097
Si Si5 0.457791 0.806287 0.832024
O O1 0.250000 0.500000 0.744833
O O2 0.167217 0.782513 0.706339
O O3 0.340635 0.781046 0.786780
O O4 0.416241 0.689436 0.685117
O O5 0.750000 0.500000 0.089723
O O6 0.901852 0.760123 0.106629
O O7 0.998833 0.496352 0.059386
O O8 0.833726 0.676112 0.002384
O O9 0.750000 0.500000 0.914681
O O10 0.904401 0.767992 0.900778
O O11 0.750000 0.000000 0.869263
O O12 0.999162 0.000885 0.833710
#
# Coordination Sequence:
#
# PCOD8222914 Si02
#       5
#     8   8   8   8   8
#     4  10  20  38  61  81 111 161 210 245 293 368
#     4  10  21  38  60  90 123 154 199 252 296 349
#     4  10  20  38  65  89 117 162 204 237 290 366
#     4  10  20  37  61  86 117 154 201 251 300 363
#     4  10  21  37  56  86 119 149 196 254 308 353
#
# _framework density 20.836755
#
# number of rings (size 3 to 8) (size 9 to 14) (size 15 to 20)
#    0.000    2.000    0.000    4.800    0.000    0.800 
#    0.000   35.000    0.000    0.000    0.000    0.000 
#    0.000    0.000    0.000    0.000    0.000    0.000 
#
# Total GULP energy -496021.873681 kJ/mol
# GULP energy per Si atom -12400.546842 kJ/mol
# Density = 2.078933 g / cm^3
# Si number density = 20.836755 Si / 1000 Ang^3
#
#
#
# Elastic Constant Matrix: (Units=GPa)
#
#
# Indices 1 2 3 4 5 6 
#
# 1 81.4928 47.3618 37.7652 0.0000 0.0000 0.0000
# 2 47.3618 136.2457 75.1496 0.0000 0.0000 0.0000
# 3 37.7652 75.1496 128.7814 0.0000 0.0000 0.0000
# 4 0.0000 0.0000 0.0000 27.2850 0.0000 0.0000
# 5 0.0000 0.0000 0.0000 0.0000 32.0094 0.0000
# 6 0.0000 0.0000 0.0000 0.0000 0.0000 34.2913
#
#
#
# Elastic Compliance Matrix: (Units=1/GPa)
#
#
# Indices 1 2 3 4 5 6 
#
# 1 0.015754 -0.004318 -0.002100 0.000000 0.000000 0.000000
# 2 -0.004318 0.012007 -0.005740 0.000000 0.000000 0.000000
# 3 -0.002100 -0.005740 0.011731 0.000000 0.000000 0.000000
# 4 0.000000 0.000000 0.000000 0.036650 0.000000 0.000000
# 5 0.000000 0.000000 0.000000 0.000000 0.031241 0.000000
# 6 0.000000 0.000000 0.000000 0.000000 0.000000 0.029162
#
#
# Mechanical properties :
#
#
# Convention : Reuss Voigt Hill
#
# Bulk Modulus (GPa) = 65.89955 74.11922 70.00939
# Shear Modulus (GPa) = 30.13516 31.13336 30.63426
#
# Velocity S-wave (km/s) = 3.80709 3.86962 3.83848
# Velocity P-wave (km/s) = 7.14286 7.45747 7.30186
#
# Compressibility (1/GPa) = 0.01517461
#
# Stress axis : x y z
#
# Youngs Moduli (GPa) = 63.47696 83.28542 85.24674
#
# Poissons Ratio (x) = 0.35963 0.17902
# Poissons Ratio (y) = 0.27409 0.48934
# Poissons Ratio (z) = 0.13331 0.47808
#
# Static dielectric constant tensor:
#      x y z
#    x 3.782180 0.000000 0.000000 
#    y 0.000000 3.603780 0.000000 
#    z 0.000000 0.000000 4.075990 
# 
# 
# High freq. dielectric constant tensor:
#      x y z
#    x 1.813800 0.000000 0.000000 
#    y 0.000000 1.799700 0.000000 
#    z 0.000000 0.000000 1.821990 
# 
# From -- ./inp_files/23261.got.cif
#   From: 2010.03.12/outbox.cif.g09.slc.cpg/sg54_12_cif.got.tgz:23261.got - 2010.04.16 15:00:50.
