data_PCOD8222216
_publ_section_title
;
Structure prediction by ZEFSAII (Michael W. Deem and Ramdas Pophale) SiO2 
 PCOD8222216
Probable space group: P M N A
;
_chemical_formula_sum "Si O2"
_cell_formula_units_Z 40
_cell_length_a 19.861186
_cell_length_b 9.151335
_cell_length_c 11.045778
_cell_angle_alpha 90.000000
_cell_angle_beta 90.000000
_cell_angle_gamma 90.000000
_cell_volume 2007.640475
_symmetry_space_group_name_H-M "P M N A"
_symmetry_group_IT_number 53
_symmetry_cell_setting 'orthorhombic'
loop_
_space_group_symop_operation_xyz
x,y,z
1/2-x,-y,1/2+z
x,-y,-z
1/2-x,y,1/2-z
-x,-y,-z
1/2+x,y,1/2-z
-x,y,z
1/2+x,-y,1/2+z
loop_
_atom_site_type_symbol
_atom_site_label
_atom_site_fract_x
_atom_site_fract_y
_atom_site_fract_z
Si Si1 0.684233 0.000000 0.500000
Si Si2 0.750000 0.503442 0.750000
Si Si3 0.722794 0.244774 0.086129
Si Si4 0.644076 0.291942 0.858752
Si Si5 0.000000 0.653050 0.439857
Si Si6 0.000000 0.098125 0.382136
Si Si7 0.637970 0.975905 0.762485
O O1 0.728896 0.853168 0.502589
O O2 0.637888 0.997824 0.618520
O O3 0.738058 0.612636 0.636486
O O4 0.684014 0.403581 0.770982
O O5 0.690622 0.149055 0.195622
O O6 0.664956 0.308754 0.998955
O O7 0.564142 0.320544 0.852507
O O8 0.660945 0.126505 0.822539
O O9 0.000000 0.500000 0.500000
O O10 0.000000 0.741887 0.564687
O O11 0.063731 0.069126 0.299135
O O12 0.000000 0.000000 0.500000
#
# Coordination Sequence:
#
# PCOD8222216 Si02
#       7
#     4   4   8   8   4   4   8
#     4  12  24  37  66  95 134 174 224 278 338 398
#     4  12  26  38  62 100 144 172 220 282 360 414
#     4  12  22  42  65  95 132 178 230 279 338 409
#     4  12  24  42  67 101 135 181 221 284 345 405
#     4  12  24  40  68 102 136 167 225 284 342 400
#     4  12  22  45  72  97 126 172 230 279 327 410
#     4  12  23  42  69  96 133 177 230 281 333 406
#
# _framework density 19.923884999999999
#
# number of rings (size 3 to 8) (size 9 to 14) (size 15 to 20)
#    0.000    0.000    8.000    3.000    0.000    0.400 
#    0.000    0.000    0.000    0.000    0.000    7.000 
#    0.000    0.000    0.000    0.000    0.000    0.000 
#
# Total GULP energy -495988.815498 kJ/mol
# GULP energy per Si atom -12399.720387 kJ/mol
# Density = 1.987854 g / cm^3
# Si number density = 19.923885 Si / 1000 Ang^3
#
#
#
# Elastic Constant Matrix: (Units=GPa)
#
#
# Indices 1 2 3 4 5 6 
#
# 1 141.6023 55.2158 65.2375 0.0000 0.0000 0.0000
# 2 55.2158 133.3675 37.8710 0.0000 0.0000 0.0000
# 3 65.2375 37.8710 126.2836 0.0000 0.0000 0.0000
# 4 0.0000 0.0000 0.0000 46.0287 0.0000 0.0000
# 5 0.0000 0.0000 0.0000 0.0000 40.2454 0.0000
# 6 0.0000 0.0000 0.0000 0.0000 0.0000 26.0276
#
#
#
# Elastic Compliance Matrix: (Units=1/GPa)
#
#
# Indices 1 2 3 4 5 6 
#
# 1 0.010258 -0.002997 -0.004400 0.000000 0.000000 0.000000
# 2 -0.002997 0.009072 -0.001172 0.000000 0.000000 0.000000
# 3 -0.004400 -0.001172 0.010543 0.000000 0.000000 0.000000
# 4 0.000000 0.000000 0.000000 0.021726 0.000000 0.000000
# 5 0.000000 0.000000 0.000000 0.000000 0.024848 0.000000
# 6 0.000000 0.000000 0.000000 0.000000 0.000000 0.038421
#
#
# Mechanical properties :
#
#
# Convention : Reuss Voigt Hill
#
# Bulk Modulus (GPa) = 78.53271 79.76688 79.14979
# Shear Modulus (GPa) = 36.69677 38.65562 37.67619
#
# Velocity S-wave (km/s) = 4.29633 4.40951 4.35329
# Velocity P-wave (km/s) = 8.00707 8.12698 8.06725
#
# Compressibility (1/GPa) = 0.01273355
#
# Stress axis : x y z
#
# Youngs Moduli (GPa) = 97.48339 110.23060 94.84603
#
# Poissons Ratio (x) = 0.33041 0.41736
# Poissons Ratio (y) = 0.29220 0.11117
# Poissons Ratio (z) = 0.42897 0.12920
#
# Static dielectric constant tensor:
#      x y z
#    x 3.503470 0.000000 0.000000 
#    y 0.000000 3.892180 0.000000 
#    z 0.000000 0.000000 3.358470 
# 
# 
# High freq. dielectric constant tensor:
#      x y z
#    x 1.768950 0.000000 0.000000 
#    y 0.000000 1.798070 0.000000 
#    z 0.000000 0.000000 1.769330 
# 
# From -- ./inp_files/17701.got.cif
#   From: 2010.03.12/outbox.cif.g09.slc.cpg/sg53_9_cif.got.tgz:17701.got - 2010.04.16 14:36:59.
