data_PCOD8222711
_publ_section_title
;
Structure prediction by ZEFSAII (Michael W. Deem and Ramdas Pophale) SiO2 
 PCOD8222711
Probable space group: P C C A
;
_chemical_formula_sum "Si O2"
_cell_formula_units_Z 40
_cell_length_a 10.367358
_cell_length_b 10.116528
_cell_length_c 19.087866
_cell_angle_alpha 90.000000
_cell_angle_beta 90.000000
_cell_angle_gamma 90.000000
_cell_volume 2001.967215
_symmetry_space_group_name_H-M "P C C A"
_symmetry_group_IT_number 54
_symmetry_cell_setting 'orthorhombic'
loop_
_space_group_symop_operation_xyz
x,y,z
1/2-x,-y,z
1/2+x,-y,1/2-z
-x,y,1/2-z
-x,-y,-z
1/2+x,y,-z
1/2-x,y,1/2+z
x,-y,1/2+z
loop_
_atom_site_type_symbol
_atom_site_label
_atom_site_fract_x
_atom_site_fract_y
_atom_site_fract_z
Si Si1 0.926823 0.787905 0.353031
Si Si2 0.809524 0.856609 0.212681
Si Si3 0.688464 0.303534 0.596406
Si Si4 0.872759 0.084068 0.992684
Si Si5 0.055122 0.442725 0.927943
O O1 0.832563 0.782055 0.286349
O O2 0.855440 0.871567 0.412689
O O3 0.057898 0.864451 0.331398
O O4 0.951953 0.638984 0.381732
O O5 0.707592 0.770458 0.169676
O O6 0.750000 0.000000 0.225984
O O7 0.612317 0.211571 0.541884
O O8 0.601883 0.430326 0.616039
O O9 0.822748 0.346130 0.558765
O O10 0.750000 0.000000 0.017892
O O11 0.000000 0.000000 0.000000
O O12 0.000000 0.500000 0.000000
#
# Coordination Sequence:
#
# PCOD8222711 Si02
#       5
#     8   8   8   8   8
#     4  10  21  37  63  87 124 167 212 262 321 383
#     4  10  20  39  62  88 127 169 206 263 330 383
#     4  10  21  36  64  88 124 168 210 265 332 381
#     4  12  23  37  62  98 127 163 218 268 320 385
#     4  10  19  38  64  88 122 165 215 270 319 385
#
# _framework density 19.980349
#
# number of rings (size 3 to 8) (size 9 to 14) (size 15 to 20)
#    0.000    1.600    2.000    4.800    0.000    0.000 
#    0.000    0.000   30.800    2.400    0.000    0.000 
#    0.000    0.000    0.000    0.000    0.000    0.000 
#
# Total GULP energy -496011.941692 kJ/mol
# GULP energy per Si atom -12400.298542 kJ/mol
# Density = 1.993487 g / cm^3
# Si number density = 19.980349 Si / 1000 Ang^3
#
#
#
# Elastic Constant Matrix: (Units=GPa)
#
#
# Indices 1 2 3 4 5 6 
#
# 1 66.3758 52.2742 38.3543 0.0000 0.0000 0.0000
# 2 52.2742 137.9864 66.2311 0.0000 0.0000 0.0000
# 3 38.3543 66.2311 135.5484 0.0000 0.0000 0.0000
# 4 0.0000 0.0000 0.0000 38.8033 0.0000 0.0000
# 5 0.0000 0.0000 0.0000 0.0000 31.3766 0.0000
# 6 0.0000 0.0000 0.0000 0.0000 0.0000 34.6421
#
#
#
# Elastic Compliance Matrix: (Units=1/GPa)
#
#
# Indices 1 2 3 4 5 6 
#
# 1 0.022283 -0.007074 -0.002848 0.000000 0.000000 0.000000
# 2 -0.007074 0.011713 -0.003722 0.000000 0.000000 0.000000
# 3 -0.002848 -0.003722 0.010002 0.000000 0.000000 0.000000
# 4 0.000000 0.000000 0.000000 0.025771 0.000000 0.000000
# 5 0.000000 0.000000 0.000000 0.000000 0.031871 0.000000
# 6 0.000000 0.000000 0.000000 0.000000 0.000000 0.028867
#
#
# Mechanical properties :
#
#
# Convention : Reuss Voigt Hill
#
# Bulk Modulus (GPa) = 59.84650 72.62552 66.23601
# Shear Modulus (GPa) = 30.60614 33.16779 31.88696
#
# Velocity S-wave (km/s) = 3.91808 4.07876 3.99923
# Velocity P-wave (km/s) = 7.10536 7.65565 7.38564
#
# Compressibility (1/GPa) = 0.01670941
#
# Stress axis : x y z
#
# Youngs Moduli (GPa) = 44.87693 85.37186 99.98119
#
# Poissons Ratio (x) = 0.60396 0.28479
# Poissons Ratio (y) = 0.31748 0.37209
# Poissons Ratio (z) = 0.12783 0.31772
#
# Static dielectric constant tensor:
#      x y z
#    x 3.527520 0.000000 0.000000 
#    y 0.000000 3.834790 0.000000 
#    z 0.000000 0.000000 3.718030 
# 
# 
# High freq. dielectric constant tensor:
#      x y z
#    x 1.764290 0.000000 0.000000 
#    y 0.000000 1.791030 0.000000 
#    z 0.000000 0.000000 1.776700 
# 
# From -- ./inp_files/17069.got.cif
#   From: 2010.03.12/outbox.cif.g09.slc.cpg/sg54_9_cif.got.tgz:17069.got - 2010.04.16 15:00:50.
