data_PCOD8222458
_publ_section_title
;
Structure prediction by ZEFSAII (Michael W. Deem and Ramdas Pophale) SiO2 
 PCOD8222458
Probable space group: P C C A
;
_chemical_formula_sum "Si O2"
_cell_formula_units_Z 48
_cell_length_a 16.222793
_cell_length_b 14.279352
_cell_length_c 9.034264
_cell_angle_alpha 90.000000
_cell_angle_beta 90.000000
_cell_angle_gamma 90.000000
_cell_volume 2092.796034
_symmetry_space_group_name_H-M "P C C A"
_symmetry_group_IT_number 54
_symmetry_cell_setting 'orthorhombic'
loop_
_space_group_symop_operation_xyz
x,y,z
1/2-x,-y,z
1/2+x,-y,1/2-z
-x,y,1/2-z
-x,-y,-z
1/2+x,y,-z
1/2-x,y,1/2+z
x,-y,1/2+z
loop_
_atom_site_type_symbol
_atom_site_label
_atom_site_fract_x
_atom_site_fract_y
_atom_site_fract_z
Si Si1 0.684692 0.318761 0.475737
Si Si2 0.427203 0.209153 0.537761
Si Si3 0.439134 0.033513 0.377834
Si Si4 0.155183 0.637044 0.357332
Si Si5 0.889635 0.167318 0.143997
Si Si6 0.441958 0.545248 0.381234
O O1 0.681548 0.317788 0.298532
O O2 0.767462 0.368819 0.531654
O O3 0.680472 0.211455 0.536767
O O4 0.605798 0.368610 0.548007
O O5 0.389557 0.123906 0.437992
O O6 0.415119 0.303526 0.442451
O O7 0.378614 0.213437 0.693391
O O8 0.522705 0.191865 0.570726
O O9 0.500000 0.067372 0.250000
O O10 0.500000 0.000000 0.500000
O O11 0.379524 0.945575 0.337335
O O12 0.121824 0.533326 0.322474
O O13 0.500000 0.584595 0.250000
O O14 0.500000 0.500000 0.500000
#
# Coordination Sequence:
#
# PCOD8222458 Si02
#       6
#     8   8   8   8   8   8
#     4  12  28  45  68  94 137 174 215 267 329 393
#     4  10  22  37  66  96 134 169 221 268 322 384
#     4  10  18  34  59  97 132 168 217 274 326 374
#     4  12  28  46  66  98 132 179 214 267 331 389
#     4  10  21  39  64  98 131 174 215 272 321 381
#     4  12  27  46  73 103 127 163 219 271 323 387
#
# _framework density 22.935825000000001
#
# number of rings (size 3 to 8) (size 9 to 14) (size 15 to 20)
#    0.000    1.000    5.000    2.500   11.667    1.333 
#    0.000    0.833    0.000    4.000    0.000    0.000 
#    0.000    0.000    0.000    0.000    0.000    0.000 
#
# Total GULP energy -595082.132696 kJ/mol
# GULP energy per Si atom -12397.544431 kJ/mol
# Density = 2.288362 g / cm^3
# Si number density = 22.935825 Si / 1000 Ang^3
#
#
#
# Elastic Constant Matrix: (Units=GPa)
#
#
# Indices 1 2 3 4 5 6 
#
# 1 59.1918 7.3272 15.8457 0.0000 0.0000 0.0000
# 2 7.3272 88.5194 16.5741 0.0000 0.0000 0.0000
# 3 15.8457 16.5741 144.2539 0.0000 0.0000 0.0000
# 4 0.0000 0.0000 0.0000 40.3112 0.0000 0.0000
# 5 0.0000 0.0000 0.0000 0.0000 31.5015 0.0000
# 6 0.0000 0.0000 0.0000 0.0000 0.0000 15.4994
#
#
#
# Elastic Compliance Matrix: (Units=1/GPa)
#
#
# Indices 1 2 3 4 5 6 
#
# 1 0.017513 -0.001113 -0.001796 0.000000 0.000000 0.000000
# 2 -0.001113 0.011616 -0.001212 0.000000 0.000000 0.000000
# 3 -0.001796 -0.001212 0.007269 0.000000 0.000000 0.000000
# 4 0.000000 0.000000 0.000000 0.024807 0.000000 0.000000
# 5 0.000000 0.000000 0.000000 0.000000 0.031745 0.000000
# 6 0.000000 0.000000 0.000000 0.000000 0.000000 0.064519
#
#
# Mechanical properties :
#
#
# Convention : Reuss Voigt Hill
#
# Bulk Modulus (GPa) = 35.51806 41.27320 38.39563
# Shear Modulus (GPa) = 28.55580 34.27696 31.41638
#
# Velocity S-wave (km/s) = 3.53233 3.87003 3.70503
# Velocity P-wave (km/s) = 5.67062 6.16471 5.92282
#
# Compressibility (1/GPa) = 0.02815469
#
# Stress axis : x y z
#
# Youngs Moduli (GPa) = 57.10110 86.08732 137.57480
#
# Poissons Ratio (x) = 0.09585 0.24705
# Poissons Ratio (y) = 0.06358 0.16679
# Poissons Ratio (z) = 0.10254 0.10437
#
# Static dielectric constant tensor:
#      x y z
#    x 3.760880 0.000000 0.000000 
#    y 0.000000 1.814650 0.000000 
#    z 0.000000 0.000000 4.507600 
# 
# 
# High freq. dielectric constant tensor:
#      x y z
#    x 1.867110 0.000000 0.000000 
#    y 0.000000 1.915330 0.000000 
#    z 0.000000 0.000000 1.923750 
# 
# From -- ./inp_files/4180.got.cif
#   From: 2010.03.12/outbox.cif.g09.slc.cpg/sg54_3_cif.got.tgz:4180.got - 2010.04.16 15:00:50.
