data_PCOD8222374
_publ_section_title
;
Structure prediction by ZEFSAII (Michael W. Deem and Ramdas Pophale) SiO2 
 PCOD8222374
Probable space group: P C C A
;
_chemical_formula_sum "Si O2"
_cell_formula_units_Z 60
_cell_length_a 17.599554
_cell_length_b 31.746993
_cell_length_c 5.224455
_cell_angle_alpha 90.000000
_cell_angle_beta 90.000000
_cell_angle_gamma 90.000000
_cell_volume 2919.074985
_symmetry_space_group_name_H-M "P C C A"
_symmetry_group_IT_number 54
_symmetry_cell_setting 'orthorhombic'
loop_
_space_group_symop_operation_xyz
x,y,z
1/2-x,-y,z
1/2+x,-y,1/2-z
-x,y,1/2-z
-x,-y,-z
1/2+x,y,-z
1/2-x,y,1/2+z
x,-y,1/2+z
loop_
_atom_site_type_symbol
_atom_site_label
_atom_site_fract_x
_atom_site_fract_y
_atom_site_fract_z
Si Si1 0.909885 0.381425 0.253415
Si Si2 0.203497 0.738438 0.133856
Si Si3 0.090662 0.476102 0.243855
Si Si4 0.296581 0.836085 0.625003
Si Si5 0.090046 0.332260 0.744447
Si Si6 0.077463 0.097712 0.625661
Si Si7 0.358686 0.016015 0.208408
Si Si8 0.500000 0.964147 0.250000
O O1 0.877239 0.428659 0.277000
O O2 0.881068 0.353370 0.491860
O O3 0.000000 0.383118 0.250000
O O4 0.881886 0.362064 0.986226
O O5 0.264675 0.726980 0.353476
O O6 0.180801 0.787263 0.129996
O O7 0.127170 0.713137 0.198890
O O8 0.121662 0.497759 0.501731
O O9 0.000000 0.475761 0.250000
O O10 0.236851 0.847693 0.402591
O O11 0.373190 0.861430 0.562389
O O12 0.000000 0.325620 0.750000
O O13 0.000000 0.114473 0.750000
O O14 0.056457 0.068293 0.389605
O O15 0.128503 0.064851 0.795025
O O16 0.440243 0.994872 0.097673
O O17 0.314783 0.990577 0.435785
#
# Coordination Sequence:
#
# PCOD8222374 Si02
#       8
#     8   8   8   8   8   8   8   4
#     4   9  17  28  44  75 110 144 177 223 285 324
#     4  10  21  41  61  78 105 146 186 218 275 342
#     4   9  15  23  37  60 101 151 186 208 250 328
#     4  10  25  43  59  80 117 155 178 223 290 348
#     4  10  19  32  55  80 110 136 173 235 290 321
#     4  11  20  34  62  88 112 143 197 232 267 319
#     4  10  17  30  50  84 109 140 175 229 266 307
#     4  10  18  32  54  92 112 142 184 236 270 312
#
# _framework density 20.554455999999998
#
# number of rings (size 3 to 8) (size 9 to 14) (size 15 to 20)
#    0.000    2.133    2.000    2.400    1.867    3.733 
#    0.000    0.000    4.400    9.600    0.000    0.000 
#    0.000   37.333    0.000    0.000    0.000    0.000 
#
# Total GULP energy -743523.786687 kJ/mol
# GULP energy per Si atom -12392.063111 kJ/mol
# Density = 2.050767 g / cm^3
# Si number density = 20.554456 Si / 1000 Ang^3
#
#
#
# Elastic Constant Matrix: (Units=GPa)
#
#
# Indices 1 2 3 4 5 6 
#
# 1 46.8682 47.5553 14.6432 0.0000 0.0000 0.0000
# 2 47.5553 125.9291 44.7885 0.0000 0.0000 0.0000
# 3 14.6432 44.7885 137.8357 0.0000 0.0000 0.0000
# 4 0.0000 0.0000 0.0000 12.6970 0.0000 0.0000
# 5 0.0000 0.0000 0.0000 0.0000 4.9292 0.0000
# 6 0.0000 0.0000 0.0000 0.0000 0.0000 12.2796
#
#
#
# Elastic Compliance Matrix: (Units=1/GPa)
#
#
# Indices 1 2 3 4 5 6 
#
# 1 0.034641 -0.013311 0.000645 0.000000 0.000000 0.000000
# 2 -0.013311 0.014094 -0.003165 0.000000 0.000000 0.000000
# 3 0.000645 -0.003165 0.008215 0.000000 0.000000 0.000000
# 4 0.000000 0.000000 0.000000 0.078759 0.000000 0.000000
# 5 0.000000 0.000000 0.000000 0.000000 0.202872 0.000000
# 6 0.000000 0.000000 0.000000 0.000000 0.000000 0.081436
#
#
# Mechanical properties :
#
#
# Convention : Reuss Voigt Hill
#
# Bulk Modulus (GPa) = 39.54614 58.28968 48.91791
# Shear Modulus (GPa) = 10.86699 19.55755 15.21227
#
# Velocity S-wave (km/s) = 2.30183 3.08798 2.72342
# Velocity P-wave (km/s) = 5.13284 6.41361 5.80863
#
# Compressibility (1/GPa) = 0.02528692
#
# Stress axis : x y z
#
# Youngs Moduli (GPa) = 28.86733 70.95412 121.72763
#
# Poissons Ratio (x) = 0.94449 -0.07854
# Poissons Ratio (y) = 0.38426 0.38532
# Poissons Ratio (z) = -0.01863 0.22460
#
# Static dielectric constant tensor:
#      x y z
#    x 3.226950 0.000000 0.000000 
#    y 0.000000 3.744380 0.000000 
#    z 0.000000 0.000000 4.033430 
# 
# 
# High freq. dielectric constant tensor:
#      x y z
#    x 1.761510 0.000000 0.000000 
#    y 0.000000 1.802250 0.000000 
#    z 0.000000 0.000000 1.825730 
# 
# From -- ./inp_files/1446.got.cif
#   From: 2010.03.12/outbox.cif.g09.slc.cpg/sg54_1_cif.got.tgz:1446.got - 2010.04.16 15:00:50.
