data_PCOD8222859
_publ_section_title
;
Structure prediction by ZEFSAII (Michael W. Deem and Ramdas Pophale) SiO2 
 PCOD8222859
Probable space group: P C C A
;
_chemical_formula_sum "Si O2"
_cell_formula_units_Z 44
_cell_length_a 26.844298
_cell_length_b 9.266423
_cell_length_c 9.109101
_cell_angle_alpha 90.000000
_cell_angle_beta 90.000000
_cell_angle_gamma 90.000000
_cell_volume 2265.894525
_symmetry_space_group_name_H-M "P C C A"
_symmetry_group_IT_number 54
_symmetry_cell_setting 'orthorhombic'
loop_
_space_group_symop_operation_xyz
x,y,z
1/2-x,-y,z
1/2+x,-y,1/2-z
-x,y,1/2-z
-x,-y,-z
1/2+x,y,-z
1/2-x,y,1/2+z
x,-y,1/2+z
loop_
_atom_site_type_symbol
_atom_site_label
_atom_site_fract_x
_atom_site_fract_y
_atom_site_fract_z
Si Si1 0.345590 0.634629 0.414335
Si Si2 0.093141 0.150770 0.576486
Si Si3 1.000000 0.651387 0.079736
Si Si4 0.154410 0.634629 0.585664
Si Si5 0.593141 0.150771 0.076487
Si Si6 0.250000 0.500000 1.000000
O O1 0.356977 0.779966 0.505610
O O2 0.371596 0.500000 0.500000
O O3 0.367366 0.646231 0.250000
O O4 0.285876 0.605158 0.404510
O O5 0.048080 0.256165 0.535136
O O6 0.100270 0.129423 0.750000
O O7 0.081956 1.000000 0.500000
O O8 0.000000 0.617333 0.250000
O O9 0.951920 0.743834 0.035136
O O10 0.000000 0.500000 0.000000
O O11 0.143023 0.779965 0.494390
O O12 0.214124 0.605158 0.595490
#
# Coordination Sequence:
#
# PCOD8222859 Si02
#       6
#     8   8   8   8   8   4
#     4  10  20  36  60  88 116 151 195 242 292 346
#     4  11  23  39  59  86 122 159 197 241 293 348
#     4  10  23  40  60  88 118 156 199 240 285 342
#     4  10  20  36  60  88 116 151 195 242 292 346
#     4  11  23  39  59  86 122 159 197 241 293 348
#     4   8  22  36  64  86 118 148 200 240 302 338
#
# _framework density 19.418379000000002
#
# number of rings (size 3 to 8) (size 9 to 14) (size 15 to 20)
#    1.091    0.727    0.000    4.364    0.000    5.818 
#    0.000    0.909    0.000    4.364    0.000    0.000 
#    0.000    0.000    0.000    0.000    0.000    0.000 
#
# Total GULP energy -545334.710539 kJ/mol
# GULP energy per Si atom -12393.970694 kJ/mol
# Density = 1.937418 g / cm^3
# Si number density = 19.418379 Si / 1000 Ang^3
#
#
#
# Elastic Constant Matrix: (Units=GPa)
#
#
# Indices 1 2 3 4 5 6 
#
# 1 90.4020 58.5164 41.0723 0.0000 0.0000 0.0000
# 2 58.5164 164.2534 82.0499 0.0000 0.0000 0.0000
# 3 41.0723 82.0499 153.6564 0.0000 0.0000 0.0000
# 4 0.0000 0.0000 0.0000 40.8714 0.0000 0.0000
# 5 0.0000 0.0000 0.0000 0.0000 19.9193 0.0000
# 6 0.0000 0.0000 0.0000 0.0000 0.0000 18.3832
#
#
#
# Elastic Compliance Matrix: (Units=1/GPa)
#
#
# Indices 1 2 3 4 5 6 
#
# 1 0.014639 -0.004447 -0.001539 0.000000 0.000000 0.000000
# 2 -0.004447 0.009654 -0.003966 0.000000 0.000000 0.000000
# 3 -0.001539 -0.003966 0.009037 0.000000 0.000000 0.000000
# 4 0.000000 0.000000 0.000000 0.024467 0.000000 0.000000
# 5 0.000000 0.000000 0.000000 0.000000 0.050203 0.000000
# 6 0.000000 0.000000 0.000000 0.000000 0.000000 0.054397
#
#
# Mechanical properties :
#
#
# Convention : Reuss Voigt Hill
#
# Bulk Modulus (GPa) = 74.47784 85.73212 80.10498
# Shear Modulus (GPa) = 26.77012 30.94633 28.85823
#
# Velocity S-wave (km/s) = 3.71697 3.99640 3.85922
# Velocity P-wave (km/s) = 7.54048 8.09573 7.82303
#
# Compressibility (1/GPa) = 0.01342681
#
# Stress axis : x y z
#
# Youngs Moduli (GPa) = 68.31061 103.58834 110.65387
#
# Poissons Ratio (x) = 0.46063 0.17024
# Poissons Ratio (y) = 0.30376 0.43888
# Poissons Ratio (z) = 0.10510 0.41086
#
# Static dielectric constant tensor:
#      x y z
#    x 3.426590 0.000000 0.000000 
#    y 0.000000 3.439250 0.000000 
#    z 0.000000 0.000000 3.463120 
# 
# 
# High freq. dielectric constant tensor:
#      x y z
#    x 1.744150 0.000000 0.000000 
#    y 0.000000 1.750500 0.000000 
#    z 0.000000 0.000000 1.764780 
# 
# From -- ./inp_files/5775.got.cif
#   From: 2010.03.12/outbox.cif.g09.slc.cpg/sg54_3_cif.got.tgz:5775.got - 2010.04.16 15:00:50.
