data_PCOD8222714
_publ_section_title
;
Structure prediction by ZEFSAII (Michael W. Deem and Ramdas Pophale) SiO2 
 PCOD8222714
Probable space group: P C C A
;
_chemical_formula_sum "Si O2"
_cell_formula_units_Z 40
_cell_length_a 18.193864
_cell_length_b 8.471036
_cell_length_c 11.751812
_cell_angle_alpha 90.000000
_cell_angle_beta 90.000000
_cell_angle_gamma 90.000000
_cell_volume 1811.199571
_symmetry_space_group_name_H-M "P C C A"
_symmetry_group_IT_number 54
_symmetry_cell_setting 'orthorhombic'
loop_
_space_group_symop_operation_xyz
x,y,z
1/2-x,-y,z
1/2+x,-y,1/2-z
-x,y,1/2-z
-x,-y,-z
1/2+x,y,-z
1/2-x,y,1/2+z
x,-y,1/2+z
loop_
_atom_site_type_symbol
_atom_site_label
_atom_site_fract_x
_atom_site_fract_y
_atom_site_fract_z
Si Si1 0.724769 0.678798 0.970843
Si Si2 0.670200 0.429405 0.244451
Si Si3 0.828084 0.913916 0.649218
Si Si4 0.128275 0.788487 0.462435
Si Si5 0.922326 0.726755 0.808945
O O1 0.750000 0.500000 0.997455
O O2 0.681281 0.689286 0.851528
O O3 0.797732 0.784217 0.960743
O O4 0.677791 0.752525 0.074673
O O5 0.750000 0.500000 0.211097
O O6 0.611901 0.557338 0.283657
O O7 0.634356 0.336744 0.139769
O O8 0.867660 0.864495 0.765284
O O9 0.750000 0.000000 0.673798
O O10 0.882178 0.035909 0.585432
O O11 0.065025 0.746236 0.554135
O O12 0.000000 0.743257 0.750000
#
# Coordination Sequence:
#
# PCOD8222714 Si02
#       5
#     8   8   8   8   8
#     4  10  19  38  68  99 127 168 230 285 322 389
#     4  11  22  41  69  97 132 174 235 285 327 406
#     4  10  24  41  70  97 135 178 232 283 333 404
#     4  11  23  40  67  96 130 177 222 282 343 392
#     4  12  27  44  66 101 142 176 222 282 347 412
#
# _framework density 22.084810999999998
#
# number of rings (size 3 to 8) (size 9 to 14) (size 15 to 20)
#    0.000    1.200    4.000    4.200    2.800    2.400 
#    0.000    1.000    0.000    0.000    0.000    0.000 
#    0.000    0.000    0.000    0.000    0.000    0.000 
#
# Total GULP energy -495783.119313 kJ/mol
# GULP energy per Si atom -12394.577983 kJ/mol
# Density = 2.203454 g / cm^3
# Si number density = 22.084811 Si / 1000 Ang^3
#
#
#
# Elastic Constant Matrix: (Units=GPa)
#
#
# Indices 1 2 3 4 5 6 
#
# 1 34.8731 8.1898 18.2329 0.0000 0.0000 0.0000
# 2 8.1898 106.3041 52.9029 0.0000 0.0000 0.0000
# 3 18.2329 52.9029 131.9019 0.0000 0.0000 0.0000
# 4 0.0000 0.0000 0.0000 21.4247 0.0000 0.0000
# 5 0.0000 0.0000 0.0000 0.0000 20.2040 0.0000
# 6 0.0000 0.0000 0.0000 0.0000 0.0000 15.6845
#
#
#
# Elastic Compliance Matrix: (Units=1/GPa)
#
#
# Indices 1 2 3 4 5 6 
#
# 1 0.030918 -0.000319 -0.004146 0.000000 0.000000 0.000000
# 2 -0.000319 0.011756 -0.004671 0.000000 0.000000 0.000000
# 3 -0.004146 -0.004671 0.010028 0.000000 0.000000 0.000000
# 4 0.000000 0.000000 0.000000 0.046675 0.000000 0.000000
# 5 0.000000 0.000000 0.000000 0.000000 0.049495 0.000000
# 6 0.000000 0.000000 0.000000 0.000000 0.000000 0.063757
#
#
# Mechanical properties :
#
#
# Convention : Reuss Voigt Hill
#
# Bulk Modulus (GPa) = 29.04400 47.97004 38.50702
# Shear Modulus (GPa) = 20.62895 24.37953 22.50424
#
# Velocity S-wave (km/s) = 3.05959 3.32611 3.19563
# Velocity P-wave (km/s) = 5.06568 6.04307 5.57583
#
# Compressibility (1/GPa) = 0.03443052
#
# Stress axis : x y z
#
# Youngs Moduli (GPa) = 32.34368 85.06213 99.72126
#
# Poissons Ratio (x) = 0.02711 0.41344
# Poissons Ratio (y) = 0.01031 0.46580
# Poissons Ratio (z) = 0.13410 0.39733
#
# Static dielectric constant tensor:
#      x y z
#    x 3.597550 0.000000 0.000000 
#    y 0.000000 4.106450 0.000000 
#    z 0.000000 0.000000 4.388390 
# 
# 
# High freq. dielectric constant tensor:
#      x y z
#    x 1.814230 0.000000 0.000000 
#    y 0.000000 1.873760 0.000000 
#    z 0.000000 0.000000 1.894880 
# 
# From -- ./inp_files/9430.got.cif
#   From: 2010.03.12/outbox.cif.g09.slc.cpg/sg54_5_cif.got.tgz:9430.got - 2010.04.16 15:00:50.
