data_PCOD8222990
_publ_section_title
;
Structure prediction by ZEFSAII (Michael W. Deem and Ramdas Pophale) SiO2 
 PCOD8222990
Probable space group: P C C A
;
_chemical_formula_sum "Si O2"
_cell_formula_units_Z 48
_cell_length_a 8.498958
_cell_length_b 19.216844
_cell_length_c 13.794960
_cell_angle_alpha 90.000000
_cell_angle_beta 90.000000
_cell_angle_gamma 90.000000
_cell_volume 2253.036322
_symmetry_space_group_name_H-M "P C C A"
_symmetry_group_IT_number 54
_symmetry_cell_setting 'orthorhombic'
loop_
_space_group_symop_operation_xyz
x,y,z
1/2-x,-y,z
1/2+x,-y,1/2-z
-x,y,1/2-z
-x,-y,-z
1/2+x,y,-z
1/2-x,y,1/2+z
x,-y,1/2+z
loop_
_atom_site_type_symbol
_atom_site_label
_atom_site_fract_x
_atom_site_fract_y
_atom_site_fract_z
Si Si1 0.497387 0.664782 0.549300
Si Si2 0.200558 0.271663 0.379019
Si Si3 0.500000 0.632646 0.250000
Si Si4 0.291692 0.421350 0.588780
Si Si5 0.768096 0.115463 0.111104
Si Si6 0.056068 0.937572 0.067084
Si Si7 0.250000 0.000000 0.738597
O O1 0.402559 0.712679 0.474152
O O2 0.611768 0.714030 0.612111
O O3 0.367640 0.622458 0.611412
O O4 0.616967 0.609304 0.502864
O O5 0.177773 0.190846 0.351810
O O6 0.134212 0.318373 0.293279
O O7 0.588088 0.581062 0.322344
O O8 0.250000 0.500000 0.563854
O O9 0.580751 0.113155 0.102073
O O10 0.828299 0.057764 0.189099
O O11 0.823897 0.104577 0.000119
O O12 0.124014 0.964706 0.168507
O O13 0.000000 0.000000 0.000000
#
# Coordination Sequence:
#
# PCOD8222990 Si02
#       7
#     8   8   4   8   8   8   4
#     4   9  20  41  65  87 130 159 216 252 292 381
#     4  10  22  43  60  92 121 174 204 254 316 374
#     4  10  24  40  56  92 140 154 208 260 302 372
#     4  10  20  38  66  95 123 167 203 255 310 360
#     4  12  25  42  69  89 125 167 211 261 329 383
#     4  12  23  44  62  90 124 156 203 275 323 372
#     4  12  24  42  64  92 124 152 214 272 314 380
#
# _framework density 21.304583999999998
#
# number of rings (size 3 to 8) (size 9 to 14) (size 15 to 20)
#    0.000    1.333    3.333    2.000    0.000    3.333 
#   15.000    1.667    0.000    0.000    0.000    0.000 
#    0.000    0.000    0.000    0.000    0.000    0.000 
#
# Total GULP energy -595018.162410 kJ/mol
# GULP energy per Si atom -12396.211717 kJ/mol
# Density = 2.125609 g / cm^3
# Si number density = 21.304584 Si / 1000 Ang^3
#
#
#
# Elastic Constant Matrix: (Units=GPa)
#
#
# Indices 1 2 3 4 5 6 
#
# 1 101.9168 18.3241 14.8201 0.0000 0.0000 0.0000
# 2 18.3241 114.1999 12.9158 0.0000 0.0000 0.0000
# 3 14.8201 12.9158 79.5147 0.0000 0.0000 0.0000
# 4 0.0000 0.0000 0.0000 2.7934 0.0000 0.0000
# 5 0.0000 0.0000 0.0000 0.0000 23.9893 0.0000
# 6 0.0000 0.0000 0.0000 0.0000 0.0000 28.4394
#
#
#
# Elastic Compliance Matrix: (Units=1/GPa)
#
#
# Indices 1 2 3 4 5 6 
#
# 1 0.010320 -0.001465 -0.001686 0.000000 0.000000 0.000000
# 2 -0.001465 0.009129 -0.001210 0.000000 0.000000 0.000000
# 3 -0.001686 -0.001210 0.013087 0.000000 0.000000 0.000000
# 4 0.000000 0.000000 0.000000 0.357990 0.000000 0.000000
# 5 0.000000 0.000000 0.000000 0.000000 0.041685 0.000000
# 6 0.000000 0.000000 0.000000 0.000000 0.000000 0.035162
#
#
# Mechanical properties :
#
#
# Convention : Reuss Voigt Hill
#
# Bulk Modulus (GPa) = 41.99060 43.08348 42.53704
# Shear Modulus (GPa) = 10.32988 27.68251 19.00620
#
# Velocity S-wave (km/s) = 2.20436 3.60859 2.99007
# Velocity P-wave (km/s) = 5.12166 6.13425 5.65068
#
# Compressibility (1/GPa) = 0.02381485
#
# Stress axis : x y z
#
# Youngs Moduli (GPa) = 96.89462 109.54685 76.41208
#
# Poissons Ratio (x) = 0.16053 0.12879
# Poissons Ratio (y) = 0.14199 0.09243
# Poissons Ratio (z) = 0.16332 0.13251
#
# Static dielectric constant tensor:
#      x y z
#    x 4.308700 0.000000 0.000000 
#    y 0.000000 3.690770 0.000000 
#    z 0.000000 0.000000 3.917940 
# 
# 
# High freq. dielectric constant tensor:
#      x y z
#    x 1.852330 0.000000 0.000000 
#    y 0.000000 1.828240 0.000000 
#    z 0.000000 0.000000 1.825230 
# 
# From -- ./inp_files/11760.got.cif
#   From: 2010.03.12/outbox.cif.g09.slc.cpg/sg54_6_cif.got.tgz:11760.got - 2010.04.16 15:00:50.
