data_PCOD8222815
_publ_section_title
;
Structure prediction by ZEFSAII (Michael W. Deem and Ramdas Pophale) SiO2 
 PCOD8222815
Probable space group: P C C A
;
_chemical_formula_sum "Si O2"
_cell_formula_units_Z 64
_cell_length_a 9.467161
_cell_length_b 12.221585
_cell_length_c 27.625665
_cell_angle_alpha 90.000000
_cell_angle_beta 90.000000
_cell_angle_gamma 90.000000
_cell_volume 3196.392011
_symmetry_space_group_name_H-M "P C C A"
_symmetry_group_IT_number 54
_symmetry_cell_setting 'orthorhombic'
loop_
_space_group_symop_operation_xyz
x,y,z
1/2-x,-y,z
1/2+x,-y,1/2-z
-x,y,1/2-z
-x,-y,-z
1/2+x,y,-z
1/2-x,y,1/2+z
x,-y,1/2+z
loop_
_atom_site_type_symbol
_atom_site_label
_atom_site_fract_x
_atom_site_fract_y
_atom_site_fract_z
Si Si1 0.527565 0.233893 0.802799
Si Si2 0.939127 0.743080 0.518316
Si Si3 0.419095 0.876513 0.100799
Si Si4 0.706720 0.380947 0.305919
Si Si5 0.594837 0.877157 0.922624
Si Si6 0.550790 0.691196 0.629528
Si Si7 0.737170 0.621022 0.197591
Si Si8 0.333851 0.610850 0.966083
O O1 0.500000 0.176295 0.750000
O O2 0.515913 0.143040 0.845178
O O3 0.679163 0.286021 0.813622
O O4 0.423035 0.338244 0.801404
O O5 0.924485 0.836748 0.477577
O O6 0.781371 0.706658 0.531116
O O7 0.004057 0.791253 0.566644
O O8 0.039123 0.640223 0.503295
O O9 0.251609 0.856922 0.097572
O O10 0.453336 0.998061 0.082473
O O11 0.750000 0.500000 0.324776
O O12 0.570468 0.357482 0.337260
O O13 0.679562 0.384242 0.248465
O O14 0.487499 0.809630 0.889935
O O15 0.686044 0.708273 0.663336
O O16 0.591744 0.607100 0.586399
O O17 0.750000 0.500000 0.174358
O O18 0.250000 0.500000 0.979248
#
# Coordination Sequence:
#
# PCOD8222815 Si02
#       8
#     8   8   8   8   8   8   8   8
#     4  10  21  38  60  92 125 161 204 247 310 377
#     4  11  22  43  65  94 121 160 213 253 309 362
#     4  11  21  42  67  86 122 161 207 263 317 354
#     4  10  20  35  59  88 120 163 211 250 301 373
#     4  10  23  40  63  92 114 160 210 262 309 367
#     4  11  21  38  56  89 122 156 209 252 315 361
#     4  10  20  36  59  87 126 163 199 257 304 363
#     4  11  24  40  60  91 130 167 200 252 307 381
#
# _framework density 20.022576000000001
#
# number of rings (size 3 to 8) (size 9 to 14) (size 15 to 20)
#    0.000    1.500    2.500    3.000    0.000    3.000 
#    0.000    6.250    0.000    0.000    0.000    0.000 
#    0.000    0.000    0.000    0.000    0.000    0.000 
#
# Total GULP energy -793263.258196 kJ/mol
# GULP energy per Si atom -12394.738409 kJ/mol
# Density = 1.997700 g / cm^3
# Si number density = 20.022576 Si / 1000 Ang^3
#
#
#
# Elastic Constant Matrix: (Units=GPa)
#
#
# Indices 1 2 3 4 5 6 
#
# 1 74.2255 11.6275 35.3869 0.0000 0.0000 0.0000
# 2 11.6275 72.9823 37.5453 0.0000 0.0000 0.0000
# 3 35.3869 37.5453 118.3127 0.0000 0.0000 0.0000
# 4 0.0000 0.0000 0.0000 24.9214 0.0000 0.0000
# 5 0.0000 0.0000 0.0000 0.0000 54.2571 0.0000
# 6 0.0000 0.0000 0.0000 0.0000 0.0000 26.7513
#
#
#
# Elastic Compliance Matrix: (Units=1/GPa)
#
#
# Indices 1 2 3 4 5 6 
#
# 1 0.015714 -0.000102 -0.004667 0.000000 0.000000 0.000000
# 2 -0.000102 0.016376 -0.005166 0.000000 0.000000 0.000000
# 3 -0.004667 -0.005166 0.011488 0.000000 0.000000 0.000000
# 4 0.000000 0.000000 0.000000 0.040126 0.000000 0.000000
# 5 0.000000 0.000000 0.000000 0.000000 0.018431 0.000000
# 6 0.000000 0.000000 0.000000 0.000000 0.000000 0.037381
#
#
# Mechanical properties :
#
#
# Convention : Reuss Voigt Hill
#
# Bulk Modulus (GPa) = 42.18445 48.29332 45.23888
# Shear Modulus (GPa) = 29.88836 33.25001 31.56919
#
# Velocity S-wave (km/s) = 3.86778 4.07950 3.97505
# Velocity P-wave (km/s) = 6.40785 6.80893 6.61143
#
# Compressibility (1/GPa) = 0.02370542
#
# Stress axis : x y z
#
# Youngs Moduli (GPa) = 63.63883 61.06512 87.05035
#
# Poissons Ratio (x) = 0.00625 0.40630
# Poissons Ratio (y) = 0.00651 0.44971
# Poissons Ratio (z) = 0.29703 0.31547
#
# Static dielectric constant tensor:
#      x y z
#    x 3.758550 0.000000 0.000000 
#    y 0.000000 3.472070 0.000000 
#    z 0.000000 0.000000 3.809870 
# 
# 
# High freq. dielectric constant tensor:
#      x y z
#    x 1.792270 0.000000 0.000000 
#    y 0.000000 1.761570 0.000000 
#    z 0.000000 0.000000 1.791680 
# 
# From -- ./inp_files/27937.got.cif
#   From: 2010.03.12/outbox.cif.g09.slc.cpg/sg54_14_cif.got.tgz:27937.got - 2010.04.16 15:00:50.
