data_PCOD8222223
_publ_section_title
;
Structure prediction by ZEFSAII (Michael W. Deem and Ramdas Pophale) SiO2 
 PCOD8222223
Probable space group: P M N A
;
_chemical_formula_sum "Si O2"
_cell_formula_units_Z 32
_cell_length_a 19.234568
_cell_length_b 9.320265
_cell_length_c 7.724938
_cell_angle_alpha 90.000000
_cell_angle_beta 90.000000
_cell_angle_gamma 90.000000
_cell_volume 1384.859453
_symmetry_space_group_name_H-M "P M N A"
_symmetry_group_IT_number 53
_symmetry_cell_setting 'orthorhombic'
loop_
_space_group_symop_operation_xyz
x,y,z
1/2-x,-y,1/2+z
x,-y,-z
1/2-x,y,1/2-z
-x,-y,-z
1/2+x,y,1/2-z
-x,y,z
1/2+x,-y,1/2+z
loop_
_atom_site_type_symbol
_atom_site_label
_atom_site_fract_x
_atom_site_fract_y
_atom_site_fract_z
Si Si1 0.580051 0.781221 0.132019
Si Si2 0.314064 0.599952 0.346652
Si Si3 0.288094 0.149403 0.426447
Si Si4 0.420646 0.896194 0.759676
O O1 0.500000 0.738714 0.160157
O O2 0.625352 0.654075 0.217608
O O3 0.596117 0.936337 0.212752
O O4 0.595990 0.798671 0.927766
O O5 0.345696 0.500000 0.500000
O O6 0.250000 0.517732 0.250000
O O7 0.272549 0.733702 0.429214
O O8 0.250000 0.186765 0.250000
O O9 0.371531 0.153848 0.395979
O O10 0.259648 0.000000 0.500000
O O11 0.500000 0.874533 0.701686
#
# Coordination Sequence:
#
# PCOD8222223 Si02
#       4
#     8   8   8   8
#     4   9  19  38  65  95 129 165 206 260 321 384
#     4  12  26  44  62  88 129 173 214 262 318 380
#     4  12  24  37  62  93 124 163 216 272 311 370
#     4   9  19  37  64  97 130 162 200 261 332 380
#
# _framework density 23.107036999999998
#
# number of rings (size 3 to 8) (size 9 to 14) (size 15 to 20)
#    0.000    1.500    2.500    4.500    3.500    2.000 
#    0.000    0.000    0.000    3.750    0.000    0.000 
#    0.000    0.000    0.000    0.000    0.000    0.000 
#
# Total GULP energy -396744.407300 kJ/mol
# GULP energy per Si atom -12398.262728 kJ/mol
# Density = 2.305444 g / cm^3
# Si number density = 23.107037 Si / 1000 Ang^3
#
#
#
# Elastic Constant Matrix: (Units=GPa)
#
#
# Indices 1 2 3 4 5 6 
#
# 1 99.0069 12.2661 31.2206 0.0000 0.0000 0.0000
# 2 12.2661 67.9327 14.3289 0.0000 0.0000 0.0000
# 3 31.2206 14.3289 67.1451 0.0000 0.0000 0.0000
# 4 0.0000 0.0000 0.0000 44.6582 0.0000 0.0000
# 5 0.0000 0.0000 0.0000 0.0000 44.0081 0.0000
# 6 0.0000 0.0000 0.0000 0.0000 0.0000 19.5789
#
#
#
# Elastic Compliance Matrix: (Units=1/GPa)
#
#
# Indices 1 2 3 4 5 6 
#
# 1 0.011904 -0.001028 -0.005316 0.000000 0.000000 0.000000
# 2 -0.001028 0.015503 -0.002830 0.000000 0.000000 0.000000
# 3 -0.005316 -0.002830 0.017969 0.000000 0.000000 0.000000
# 4 0.000000 0.000000 0.000000 0.022392 0.000000 0.000000
# 5 0.000000 0.000000 0.000000 0.000000 0.022723 0.000000
# 6 0.000000 0.000000 0.000000 0.000000 0.000000 0.051075
#
#
# Mechanical properties :
#
#
# Convention : Reuss Voigt Hill
#
# Bulk Modulus (GPa) = 36.99927 38.85733 37.92830
# Shear Modulus (GPa) = 29.59913 33.40031 31.49972
#
# Velocity S-wave (km/s) = 3.58293 3.80605 3.69617
# Velocity P-wave (km/s) = 5.75877 6.01393 5.88773
#
# Compressibility (1/GPa) = 0.02702756
#
# Stress axis : x y z
#
# Youngs Moduli (GPa) = 84.00618 64.50327 55.65230
#
# Poissons Ratio (x) = 0.06632 0.29582
# Poissons Ratio (y) = 0.08638 0.15751
# Poissons Ratio (z) = 0.44654 0.18256
#
# Static dielectric constant tensor:
#      x y z
#    x 4.168210 0.000000 0.000000 
#    y 0.000000 3.827090 0.000000 
#    z 0.000000 0.000000 4.218470 
# 
# 
# High freq. dielectric constant tensor:
#      x y z
#    x 1.917970 0.000000 0.000000 
#    y 0.000000 1.881310 0.000000 
#    z 0.000000 0.000000 1.925070 
# 
# From -- ./inp_files/10428.got.cif
#   From: 2010.03.12/outbox.cif.g09.slc.cpg/sg53_6_cif.got.tgz:10428.got - 2010.04.16 14:36:59.
