data_PCOD8222720
_publ_section_title
;
Structure prediction by ZEFSAII (Michael W. Deem and Ramdas Pophale) SiO2 
 PCOD8222720
Probable space group: P C C A
;
_chemical_formula_sum "Si O2"
_cell_formula_units_Z 56
_cell_length_a 14.198991
_cell_length_b 13.358882
_cell_length_c 14.950344
_cell_angle_alpha 90.000000
_cell_angle_beta 90.000000
_cell_angle_gamma 90.000000
_cell_volume 2835.820798
_symmetry_space_group_name_H-M "P C C A"
_symmetry_group_IT_number 54
_symmetry_cell_setting 'orthorhombic'
loop_
_space_group_symop_operation_xyz
x,y,z
1/2-x,-y,z
1/2+x,-y,1/2-z
-x,y,1/2-z
-x,-y,-z
1/2+x,y,-z
1/2-x,y,1/2+z
x,-y,1/2+z
loop_
_atom_site_type_symbol
_atom_site_label
_atom_site_fract_x
_atom_site_fract_y
_atom_site_fract_z
Si Si1 0.500000 0.396044 0.250000
Si Si2 0.250000 0.500000 0.963863
Si Si3 0.119350 0.389593 0.594836
Si Si4 0.837405 0.687701 0.132545
Si Si5 0.067888 0.916430 0.167676
Si Si6 0.936712 0.849808 0.835169
Si Si7 0.234174 0.228840 0.700025
Si Si8 0.485740 0.221703 0.476996
O O1 0.559687 0.452780 0.328218
O O2 0.573025 0.325532 0.198189
O O3 0.211623 0.413520 0.900017
O O4 0.336271 0.467297 0.026368
O O5 0.199701 0.324614 0.643046
O O6 0.050359 0.318675 0.538754
O O7 0.762769 0.747793 0.193163
O O8 0.876739 0.752080 0.049075
O O9 0.169400 0.867386 0.183185
O O10 0.020745 0.873267 0.078728
O O11 0.000000 0.891813 0.250000
O O12 0.083844 0.033358 0.154563
O O13 0.839148 0.792078 0.829712
O O14 0.000000 0.825546 0.750000
O O15 0.992884 0.808120 0.920093
#
# Coordination Sequence:
#
# PCOD8222720 Si02
#       8
#     4   4   8   8   8   8   8   8
#     4   8  18  38  58  86 104 156 200 242 300 380
#     4  12  24  36  56  94 120 152 208 272 306 370
#     4   9  21  38  65  82 118 160 209 250 306 375
#     4  10  21  38  65  82 115 161 212 245 307 374
#     4  10  19  39  67  92 117 162 211 250 292 376
#     4  11  24  36  58  96 135 154 197 261 306 361
#     4  10  20  40  64  85 122 167 204 244 310 371
#     4  10  20  40  64  87 121 168 201 246 318 375
#
# _framework density 19.747368000000002
#
# number of rings (size 3 to 8) (size 9 to 14) (size 15 to 20)
#    0.000    2.000    1.429    2.571    4.000    4.571 
#    0.000    1.429    9.429    0.000    0.000    0.000 
#    0.000    0.000    0.000    0.000    0.000    0.000 
#
# Total GULP energy -694190.122748 kJ/mol
# GULP energy per Si atom -12396.252192 kJ/mol
# Density = 1.970242 g / cm^3
# Si number density = 19.747368 Si / 1000 Ang^3
#
#
#
# Elastic Constant Matrix: (Units=GPa)
#
#
# Indices 1 2 3 4 5 6 
#
# 1 95.5833 35.4106 55.7871 0.0000 0.0000 0.0000
# 2 35.4106 61.7190 55.6080 0.0000 0.0000 0.0000
# 3 55.7871 55.6080 152.6903 0.0000 0.0000 0.0000
# 4 0.0000 0.0000 0.0000 3.8833 0.0000 0.0000
# 5 0.0000 0.0000 0.0000 0.0000 33.6420 0.0000
# 6 0.0000 0.0000 0.0000 0.0000 0.0000 -78.6179
#
#
#
# Elastic Compliance Matrix: (Units=1/GPa)
#
#
# Indices 1 2 3 4 5 6 
#
# 1 0.014346 -0.005222 -0.003340 0.000000 0.000000 0.000000
# 2 -0.005222 0.026016 -0.007567 0.000000 0.000000 0.000000
# 3 -0.003340 -0.007567 0.010525 0.000000 0.000000 0.000000
# 4 0.000000 0.000000 0.000000 0.257510 0.000000 0.000000
# 5 0.000000 0.000000 0.000000 0.000000 0.029725 0.000000
# 6 0.000000 0.000000 0.000000 0.000000 0.000000 -0.012720
#
#
# Mechanical properties :
#
#
# Convention : Reuss Voigt Hill
#
# Bulk Modulus (GPa) = 53.67587 67.06711 60.37149
# Shear Modulus (GPa) = 13.74121 2.66061 8.20091
#
# Velocity S-wave (km/s) = 2.64076 1.16200 2.04008
# Velocity P-wave (km/s) = 6.04470 5.98637 6.01561
#
# Compressibility (1/GPa) = 0.01863034
#
# Stress axis : x y z
#
# Youngs Moduli (GPa) = 69.70699 38.43779 95.01018
#
# Poissons Ratio (x) = 0.20071 0.31731
# Poissons Ratio (y) = 0.36399 0.71894
# Poissons Ratio (z) = 0.23280 0.29086
#
# Static dielectric constant tensor:
#      x y z
#    x 3.586340 0.000000 0.000000 
#    y 0.000000 3.352290 0.000000 
#    z 0.000000 0.000000 3.849680 
# 
# 
# High freq. dielectric constant tensor:
#      x y z
#    x 1.770490 0.000000 0.000000 
#    y 0.000000 1.748840 0.000000 
#    z 0.000000 0.000000 1.784200 
# 
# From -- ./inp_files/13539.got.cif
#   From: 2010.03.12/outbox.cif.g09.slc.cpg/sg54_7_cif.got.tgz:13539.got - 2010.04.16 15:00:50.
