data_PCOD8222648
_publ_section_title
;
Structure prediction by ZEFSAII (Michael W. Deem and Ramdas Pophale) SiO2 
 PCOD8222648
Probable space group: P C C A
;
_chemical_formula_sum "Si O2"
_cell_formula_units_Z 64
_cell_length_a 8.786132
_cell_length_b 19.600998
_cell_length_c 19.110544
_cell_angle_alpha 90.000000
_cell_angle_beta 90.000000
_cell_angle_gamma 90.000000
_cell_volume 3291.159711
_symmetry_space_group_name_H-M "P C C A"
_symmetry_group_IT_number 54
_symmetry_cell_setting 'orthorhombic'
loop_
_space_group_symop_operation_xyz
x,y,z
1/2-x,-y,z
1/2+x,-y,1/2-z
-x,y,1/2-z
-x,-y,-z
1/2+x,y,-z
1/2-x,y,1/2+z
x,-y,1/2+z
loop_
_atom_site_type_symbol
_atom_site_label
_atom_site_fract_x
_atom_site_fract_y
_atom_site_fract_z
Si Si1 0.390789 0.451474 0.314117
Si Si2 0.133679 0.950770 0.523812
Si Si3 0.920672 0.523497 0.930378
Si Si4 0.899818 0.318360 0.422383
Si Si5 0.372664 0.862099 0.448025
Si Si6 0.074511 0.740619 0.051156
Si Si7 0.414412 0.772307 0.318563
Si Si8 0.608033 0.702117 0.683578
O O1 0.250000 0.500000 0.294042
O O2 0.500000 0.441745 0.250000
O O3 0.486015 0.486231 0.372685
O O4 0.348414 0.375128 0.339894
O O5 0.237406 0.916971 0.461515
O O6 0.044047 0.892099 0.564700
O O7 0.250000 0.000000 0.568061
O O8 0.000000 0.000000 0.500000
O O9 0.750000 0.500000 0.932196
O O10 0.926596 0.602474 0.911563
O O11 0.000000 0.500000 0.000000
O O12 0.722054 0.301879 0.427239
O O13 0.981125 0.300087 0.493993
O O14 0.969702 0.278462 0.356947
O O15 0.378611 0.813640 0.517282
O O16 0.346443 0.826769 0.373741
O O17 0.966562 0.745372 0.119475
O O18 0.500000 0.803658 0.250000
O O19 0.266290 0.733753 0.291244
O O20 0.500000 0.705023 0.750000
#
# Coordination Sequence:
#
# PCOD8222648 Si02
#       8
#     8   8   8   8   8   8   8   8
#     4  11  24  40  57  75 101 141 188 238 294 356
#     4   9  18  33  58  91 122 149 181 223 263 311
#     4  12  24  37  55  78 106 142 187 240 302 363
#     4  11  22  36  56  79 109 145 187 243 296 353
#     4  10  19  35  59  88 118 151 186 227 274 327
#     4  11  21  37  57  83 113 145 185 231 288 339
#     4  11  23  38  58  84 114 152 193 238 291 347
#     4  11  23  38  55  78 109 143 186 240 294 350
#
# _framework density 19.446033
#
# number of rings (size 3 to 8) (size 9 to 14) (size 15 to 20)
#    0.000    1.250    0.000    8.250    0.000    4.000 
#    0.000    0.000    0.000    2.250    0.000    4.375 
#    0.000    0.000    0.000    0.000    0.000    0.000 
#
# Total GULP energy -793016.268997 kJ/mol
# GULP energy per Si atom -12390.879203 kJ/mol
# Density = 1.940177 g / cm^3
# Si number density = 19.446033 Si / 1000 Ang^3
#
#
#
# Elastic Constant Matrix: (Units=GPa)
#
#
# Indices 1 2 3 4 5 6 
#
# 1 110.6078 29.6705 20.5942 0.0000 0.0000 0.0000
# 2 29.6705 90.1130 32.3081 0.0000 0.0000 0.0000
# 3 20.5942 32.3081 84.0397 0.0000 0.0000 0.0000
# 4 0.0000 0.0000 0.0000 11.5941 0.0000 0.0000
# 5 0.0000 0.0000 0.0000 0.0000 31.8732 0.0000
# 6 0.0000 0.0000 0.0000 0.0000 0.0000 88.1564
#
#
#
# Elastic Compliance Matrix: (Units=1/GPa)
#
#
# Indices 1 2 3 4 5 6 
#
# 1 0.010053 -0.002815 -0.001381 0.000000 0.000000 0.000000
# 2 -0.002815 0.013659 -0.004561 0.000000 0.000000 0.000000
# 3 -0.001381 -0.004561 0.013991 0.000000 0.000000 0.000000
# 4 0.000000 0.000000 0.000000 0.086250 0.000000 0.000000
# 5 0.000000 0.000000 0.000000 0.000000 0.031374 0.000000
# 6 0.000000 0.000000 0.000000 0.000000 0.000000 0.011343
#
#
# Mechanical properties :
#
#
# Convention : Reuss Voigt Hill
#
# Bulk Modulus (GPa) = 49.53316 49.98957 49.76136
# Shear Modulus (GPa) = 26.18938 39.80391 32.99665
#
# Velocity S-wave (km/s) = 3.67382 4.52917 4.12373
# Velocity P-wave (km/s) = 6.59722 7.28792 6.95116
#
# Compressibility (1/GPa) = 0.02018850
#
# Stress axis : x y z
#
# Youngs Moduli (GPa) = 99.47037 73.20973 71.47326
#
# Poissons Ratio (x) = 0.20607 0.09874
# Poissons Ratio (y) = 0.27999 0.32602
# Poissons Ratio (z) = 0.13741 0.33394
#
# Static dielectric constant tensor:
#      x y z
#    x 4.108020 0.000000 0.000000 
#    y 0.000000 5.404820 0.000000 
#    z 0.000000 0.000000 3.453300 
# 
# 
# High freq. dielectric constant tensor:
#      x y z
#    x 1.787670 0.000000 0.000000 
#    y 0.000000 1.760430 0.000000 
#    z 0.000000 0.000000 1.737670 
# 
# From -- ./inp_files/16872.got.cif
#   From: 2010.03.12/outbox.cif.g09.slc.cpg/sg54_9_cif.got.tgz:16872.got - 2010.04.16 15:00:50.
