data_PCOD8222225
_publ_section_title
;
Structure prediction by ZEFSAII (Michael W. Deem and Ramdas Pophale) SiO2 
 PCOD8222225
Probable space group: P M N A
;
_chemical_formula_sum "Si O2"
_cell_formula_units_Z 48
_cell_length_a 8.438223
_cell_length_b 9.996364
_cell_length_c 27.777886
_cell_angle_alpha 90.000000
_cell_angle_beta 90.000000
_cell_angle_gamma 90.000000
_cell_volume 2343.107702
_symmetry_space_group_name_H-M "P M N A"
_symmetry_group_IT_number 53
_symmetry_cell_setting 'orthorhombic'
loop_
_space_group_symop_operation_xyz
x,y,z
1/2-x,-y,1/2+z
x,-y,-z
1/2-x,y,1/2-z
-x,-y,-z
1/2+x,y,1/2-z
-x,y,z
1/2+x,-y,1/2+z
loop_
_atom_site_type_symbol
_atom_site_label
_atom_site_fract_x
_atom_site_fract_y
_atom_site_fract_z
Si Si1 0.315569 0.985168 0.302633
Si Si2 0.685324 0.331214 0.451582
Si Si3 0.185365 0.361358 0.940547
Si Si4 0.682479 0.779346 0.860954
Si Si5 0.816060 0.544071 0.801526
Si Si6 0.817779 0.723314 0.343850
O O1 0.250000 0.018725 0.250000
O O2 0.500000 0.019136 0.303597
O O3 0.288149 0.831130 0.316056
O O4 0.225361 0.073908 0.342163
O O5 0.500000 0.307237 0.443889
O O6 0.731019 0.303537 0.507096
O O7 0.731126 0.482738 0.437519
O O8 0.783497 0.229033 0.418217
O O9 0.280930 0.278319 0.900743
O O10 0.000000 0.344140 0.930267
O O11 0.500000 0.747873 0.850070
O O12 0.794302 0.670631 0.835836
O O13 0.750000 0.586638 0.750000
O O14 0.717670 0.419780 0.821139
O O15 0.000000 0.505405 0.799312
O O16 0.000000 0.760693 0.335630
#
# Coordination Sequence:
#
# PCOD8222225 Si02
#       6
#     8   8   8   8   8   8
#     4  12  26  46  67  88 121 166 208 253 309 373
#     4   9  18  35  61  92 126 164 205 250 305 365
#     4   9  18  35  61  92 126 164 205 250 305 365
#     4  12  24  40  62  93 126 160 204 255 308 365
#     4  12  24  40  61  88 121 158 204 255 307 363
#     4  12  24  40  62  93 126 160 204 255 308 365
#
# _framework density 20.485614999999999
#
# number of rings (size 3 to 8) (size 9 to 14) (size 15 to 20)
#    0.000    1.000    1.667    8.000    0.000    0.667 
#    0.000    2.500    0.000    5.000    0.000    0.000 
#    0.000    0.000    0.000    0.000    0.000    0.000 
#
# Total GULP energy -595509.778975 kJ/mol
# GULP energy per Si atom -12406.453729 kJ/mol
# Density = 2.043899 g / cm^3
# Si number density = 20.485615 Si / 1000 Ang^3
#
#
#
# Elastic Constant Matrix: (Units=GPa)
#
#
# Indices 1 2 3 4 5 6 
#
# 1 100.0859 8.5020 36.1405 0.0000 0.0000 0.0000
# 2 8.5020 55.9917 8.4335 0.0000 0.0000 0.0000
# 3 36.1405 8.4335 85.9141 0.0000 0.0000 0.0000
# 4 0.0000 0.0000 0.0000 34.0994 0.0000 0.0000
# 5 0.0000 0.0000 0.0000 0.0000 36.5951 0.0000
# 6 0.0000 0.0000 0.0000 0.0000 0.0000 29.2843
#
#
#
# Elastic Compliance Matrix: (Units=1/GPa)
#
#
# Indices 1 2 3 4 5 6 
#
# 1 0.011843 -0.001064 -0.004877 0.000000 0.000000 0.000000
# 2 -0.001064 0.018223 -0.001341 0.000000 0.000000 0.000000
# 3 -0.004877 -0.001341 0.013823 0.000000 0.000000 0.000000
# 4 0.000000 0.000000 0.000000 0.029326 0.000000 0.000000
# 5 0.000000 0.000000 0.000000 0.000000 0.027326 0.000000
# 6 0.000000 0.000000 0.000000 0.000000 0.000000 0.034148
#
#
# Mechanical properties :
#
#
# Convention : Reuss Voigt Hill
#
# Bulk Modulus (GPa) = 34.10141 38.68262 36.39201
# Shear Modulus (GPa) = 31.44078 32.59014 32.01546
#
# Velocity S-wave (km/s) = 3.92187 3.99291 3.95755
# Velocity P-wave (km/s) = 6.09842 6.33889 6.21982
#
# Compressibility (1/GPa) = 0.02932430
#
# Stress axis : x y z
#
# Youngs Moduli (GPa) = 84.43811 54.87465 72.34351
#
# Poissons Ratio (x) = 0.05837 0.35285
# Poissons Ratio (y) = 0.08981 0.09704
# Poissons Ratio (z) = 0.41184 0.07361
#
# Static dielectric constant tensor:
#      x y z
#    x 3.602340 0.000000 0.000000 
#    y 0.000000 3.456280 0.000000 
#    z 0.000000 0.000000 3.990400 
# 
# 
# High freq. dielectric constant tensor:
#      x y z
#    x 1.803990 0.000000 0.000000 
#    y 0.000000 1.778530 0.000000 
#    z 0.000000 0.000000 1.818110 
# 
# From -- ./inp_files/37677.got.cif
#   From: 2010.03.12/outbox.cif.g09.slc.cpg/sg53_19_cif.got.tgz:37677.got - 2010.04.16 14:36:59.
