data_PCOD8222427
_publ_section_title
;
Structure prediction by ZEFSAII (Michael W. Deem and Ramdas Pophale) SiO2 
 PCOD8222427
Probable space group: P C C A
;
_chemical_formula_sum "Si O2"
_cell_formula_units_Z 48
_cell_length_a 16.502897
_cell_length_b 8.930583
_cell_length_c 15.226189
_cell_angle_alpha 90.000000
_cell_angle_beta 90.000000
_cell_angle_gamma 90.000000
_cell_volume 2244.043217
_symmetry_space_group_name_H-M "P C C A"
_symmetry_group_IT_number 54
_symmetry_cell_setting 'orthorhombic'
loop_
_space_group_symop_operation_xyz
x,y,z
1/2-x,-y,z
1/2+x,-y,1/2-z
-x,y,1/2-z
-x,-y,-z
1/2+x,y,-z
1/2-x,y,1/2+z
x,-y,1/2+z
loop_
_atom_site_type_symbol
_atom_site_label
_atom_site_fract_x
_atom_site_fract_y
_atom_site_fract_z
Si Si1 0.406637 0.646932 0.222147
Si Si2 0.433387 0.177660 0.360170
Si Si3 0.391635 0.695434 0.691627
Si Si4 0.896014 0.841173 0.618820
Si Si5 0.171732 0.903462 0.055226
Si Si6 0.432055 0.179229 0.556998
O O1 0.500000 0.653694 0.250000
O O2 0.377721 0.480522 0.202763
O O3 0.363020 0.733111 0.303423
O O4 0.384116 0.731756 0.132061
O O5 0.518997 0.256157 0.339392
O O6 0.370694 0.240245 0.288072
O O7 0.404911 0.224485 0.458227
O O8 0.429673 0.999175 0.344526
O O9 0.329023 0.761104 0.620065
O O10 0.824137 0.853147 0.547063
O O11 0.973823 0.776907 0.566544
O O12 0.250000 0.000000 0.078039
O O13 0.089151 0.002293 0.068622
#
# Coordination Sequence:
#
# PCOD8222427 Si02
#       6
#     8   8   8   8   8   8
#     4  10  21  32  58  92 125 152 199 250 326 368
#     4  10  18  32  57  83 123 145 196 248 310 346
#     4  11  20  34  53  94 121 154 193 257 308 368
#     4  10  19  36  59  88 118 155 201 264 301 362
#     4  11  22  39  62  86 116 163 215 253 303 366
#     4  10  19  36  57  87 117 157 198 258 308 356
#
# _framework density 21.389963000000002
#
# number of rings (size 3 to 8) (size 9 to 14) (size 15 to 20)
#    0.000    1.667    5.000    2.000    4.667    2.000 
#    0.000    8.333    0.000    0.000    0.000    0.000 
#    0.000    0.000    0.000    0.000    0.000    0.000 
#
# Total GULP energy -594744.682603 kJ/mol
# GULP energy per Si atom -12390.514221 kJ/mol
# Density = 2.134128 g / cm^3
# Si number density = 21.389963 Si / 1000 Ang^3
#
#
#
# Elastic Constant Matrix: (Units=GPa)
#
#
# Indices 1 2 3 4 5 6 
#
# 1 26.3266 11.9688 19.0340 0.0000 0.0000 0.0000
# 2 11.9688 147.7607 102.0226 0.0000 0.0000 0.0000
# 3 19.0340 102.0226 200.2259 0.0000 0.0000 0.0000
# 4 0.0000 0.0000 0.0000 20.0771 0.0000 0.0000
# 5 0.0000 0.0000 0.0000 0.0000 9.2733 0.0000
# 6 0.0000 0.0000 0.0000 0.0000 0.0000 14.7327
#
#
#
# Elastic Compliance Matrix: (Units=1/GPa)
#
#
# Indices 1 2 3 4 5 6 
#
# 1 0.040877 -0.000969 -0.003392 0.000000 0.000000 0.000000
# 2 -0.000969 0.010464 -0.005240 0.000000 0.000000 0.000000
# 3 -0.003392 -0.005240 0.007987 0.000000 0.000000 0.000000
# 4 0.000000 0.000000 0.000000 0.049808 0.000000 0.000000
# 5 0.000000 0.000000 0.000000 0.000000 0.107837 0.000000
# 6 0.000000 0.000000 0.000000 0.000000 0.000000 0.067876
#
#
# Mechanical properties :
#
#
# Convention : Reuss Voigt Hill
#
# Bulk Modulus (GPa) = 24.92127 71.15156 48.03642
# Shear Modulus (GPa) = 15.75171 24.90248 20.32709
#
# Velocity S-wave (km/s) = 2.71662 3.41576 3.08605
# Velocity P-wave (km/s) = 4.63856 6.99234 5.93334
#
# Compressibility (1/GPa) = 0.04012637
#
# Stress axis : x y z
#
# Youngs Moduli (GPa) = 24.46339 95.56619 125.20918
#
# Poissons Ratio (x) = 0.09260 0.42474
# Poissons Ratio (y) = 0.02370 0.65605
# Poissons Ratio (z) = 0.08298 0.50073
#
# Static dielectric constant tensor:
#      x y z
#    x 3.245040 0.000000 0.000000 
#    y 0.000000 3.794500 0.000000 
#    z 0.000000 0.000000 4.442130 
# 
# 
# High freq. dielectric constant tensor:
#      x y z
#    x 1.780370 0.000000 0.000000 
#    y 0.000000 1.823810 0.000000 
#    z 0.000000 0.000000 1.865850 
# 
# From -- ./inp_files/14158.got.cif
#   From: 2010.03.12/outbox.cif.g09.slc.cpg/sg54_8_cif.got.tgz:14158.got - 2010.04.16 15:00:50.
