data_PCOD8222350
_publ_section_title
;
Structure prediction by ZEFSAII (Michael W. Deem and Ramdas Pophale) SiO2 
 PCOD8222350
Probable space group: P C C A
;
_chemical_formula_sum "Si O2"
_cell_formula_units_Z 48
_cell_length_a 24.852250
_cell_length_b 17.026390
_cell_length_c 5.227670
_cell_angle_alpha 90.000000
_cell_angle_beta 90.000000
_cell_angle_gamma 90.000000
_cell_volume 2212.057722
_symmetry_space_group_name_H-M "P C C A"
_symmetry_group_IT_number 54
_symmetry_cell_setting 'orthorhombic'
loop_
_space_group_symop_operation_xyz
x,y,z
1/2-x,-y,z
1/2+x,-y,1/2-z
-x,y,1/2-z
-x,-y,-z
1/2+x,y,-z
1/2-x,y,1/2+z
x,-y,1/2+z
loop_
_atom_site_type_symbol
_atom_site_label
_atom_site_fract_x
_atom_site_fract_y
_atom_site_fract_z
Si Si1 0.689970 0.033501 0.284663
Si Si2 0.562671 0.452669 0.246376
Si Si3 0.439806 0.031660 0.939523
Si Si4 0.607655 0.284155 0.177033
Si Si5 0.559043 0.787707 0.179538
Si Si6 0.716151 0.210330 0.260309
O O1 0.689287 0.125186 0.225179
O O2 0.750000 0.000000 0.340589
O O3 0.660780 0.015793 0.556698
O O4 0.500000 0.430973 0.250000
O O5 0.577774 0.484015 0.528007
O O6 0.596190 0.376077 0.175730
O O7 0.438983 0.118654 0.827793
O O8 0.411641 0.975786 0.719868
O O9 0.500000 0.000000 0.000000
O O10 0.573061 0.243480 0.399069
O O11 0.670731 0.275757 0.232029
O O12 0.597741 0.245158 0.900105
O O13 0.500000 0.756896 0.250000
O O14 0.739234 0.221098 0.543743
#
# Coordination Sequence:
#
# PCOD8222350 Si02
#       6
#     8   8   8   8   8   8
#     4  10  16  32  60  81 107 162 215 274 336 363
#     4  10  21  42  72  99 133 171 201 256 336 409
#     4  10  19  34  58  74 116 186 221 243 312 387
#     4  12  27  41  64 109 126 162 234 268 331 416
#     4  12  23  40  64  88 137 173 208 281 332 378
#     4  12  23  42  66  86 131 176 214 283 344 372
#
# _framework density 21.699255000000001
#
# number of rings (size 3 to 8) (size 9 to 14) (size 15 to 20)
#    0.000    1.000    5.000    4.500    2.333    1.333 
#    0.000    5.000    0.000    3.000    0.000    0.000 
#    0.000    0.000    0.000    0.000    0.000    0.000 
#
# Total GULP energy -595343.918109 kJ/mol
# GULP energy per Si atom -12402.998294 kJ/mol
# Density = 2.164987 g / cm^3
# Si number density = 21.699255 Si / 1000 Ang^3
#
#
#
# Elastic Constant Matrix: (Units=GPa)
#
#
# Indices 1 2 3 4 5 6 
#
# 1 58.7693 32.6370 24.0293 0.0000 0.0000 0.0000
# 2 32.6370 124.4158 31.7531 0.0000 0.0000 0.0000
# 3 24.0293 31.7531 156.4798 0.0000 0.0000 0.0000
# 4 0.0000 0.0000 0.0000 30.8853 0.0000 0.0000
# 5 0.0000 0.0000 0.0000 0.0000 42.3011 0.0000
# 6 0.0000 0.0000 0.0000 0.0000 0.0000 26.1310
#
#
#
# Elastic Compliance Matrix: (Units=1/GPa)
#
#
# Indices 1 2 3 4 5 6 
#
# 1 0.020599 -0.004847 -0.002180 0.000000 0.000000 0.000000
# 2 -0.004847 0.009617 -0.001207 0.000000 0.000000 0.000000
# 3 -0.002180 -0.001207 0.006970 0.000000 0.000000 0.000000
# 4 0.000000 0.000000 0.000000 0.032378 0.000000 0.000000
# 5 0.000000 0.000000 0.000000 0.000000 0.023640 0.000000
# 6 0.000000 0.000000 0.000000 0.000000 0.000000 0.038269
#
#
# Mechanical properties :
#
#
# Convention : Reuss Voigt Hill
#
# Bulk Modulus (GPa) = 48.26673 57.38929 52.82801
# Shear Modulus (GPa) = 32.28996 36.61317 34.45156
#
# Velocity S-wave (km/s) = 3.86173 4.11213 3.98890
# Velocity P-wave (km/s) = 6.49429 7.00366 6.75377
#
# Compressibility (1/GPa) = 0.02071821
#
# Stress axis : x y z
#
# Youngs Moduli (GPa) = 48.54669 103.98043 143.46655
#
# Poissons Ratio (x) = 0.50402 0.31270
# Poissons Ratio (y) = 0.23532 0.17319
# Poissons Ratio (z) = 0.10581 0.12552
#
# Static dielectric constant tensor:
#      x y z
#    x 4.260970 0.000000 0.000000 
#    y 0.000000 3.659020 0.000000 
#    z 0.000000 0.000000 6.064240 
# 
# 
# High freq. dielectric constant tensor:
#      x y z
#    x 1.863610 0.000000 0.000000 
#    y 0.000000 1.820830 0.000000 
#    z 0.000000 0.000000 1.897560 
# 
# From -- ./inp_files/1912.got.cif
#   From: 2010.03.12/outbox.cif.g09.slc.cpg/sg54_1_cif.got.tgz:1912.got - 2010.04.16 15:00:50.
