data_PCOD8222469
_publ_section_title
;
Structure prediction by ZEFSAII (Michael W. Deem and Ramdas Pophale) SiO2 
 PCOD8222469
Probable space group: P C C A
;
_chemical_formula_sum "Si O2"
_cell_formula_units_Z 64
_cell_length_a 18.236385
_cell_length_b 8.800640
_cell_length_c 19.685719
_cell_angle_alpha 90.000000
_cell_angle_beta 90.000000
_cell_angle_gamma 90.000000
_cell_volume 3159.397644
_symmetry_space_group_name_H-M "P C C A"
_symmetry_group_IT_number 54
_symmetry_cell_setting 'orthorhombic'
loop_
_space_group_symop_operation_xyz
x,y,z
1/2-x,-y,z
1/2+x,-y,1/2-z
-x,y,1/2-z
-x,-y,-z
1/2+x,y,-z
1/2-x,y,1/2+z
x,-y,1/2+z
loop_
_atom_site_type_symbol
_atom_site_label
_atom_site_fract_x
_atom_site_fract_y
_atom_site_fract_z
Si Si1 0.079223 0.204542 0.388435
Si Si2 0.785142 0.837397 0.039505
Si Si3 0.085553 0.002844 0.506375
Si Si4 0.267517 0.673379 0.095142
Si Si5 0.586081 0.821962 0.368363
Si Si6 0.420029 0.005883 0.263213
Si Si7 0.720515 0.663744 0.159796
Si Si8 0.718081 0.160581 0.280320
O O1 0.087896 0.057650 0.339458
O O2 0.134823 0.337107 0.363845
O O3 0.993491 0.253136 0.386738
O O4 0.107334 0.156916 0.464945
O O5 0.773278 0.721387 0.100253
O O6 0.750000 0.000000 0.056040
O O7 0.872757 0.860808 0.029530
O O8 0.748608 0.771278 0.971256
O O9 0.101853 0.977967 0.587062
O O10 0.000000 0.000000 0.500000
O O11 0.250000 0.500000 0.078838
O O12 0.352593 0.694848 0.117114
O O13 0.213993 0.728477 0.155314
O O14 0.590897 0.866813 0.289760
O O15 0.500000 0.077752 0.250000
O O16 0.362324 0.141161 0.251905
O O17 0.750000 0.500000 0.181788
O O18 0.726717 0.774728 0.223873
O O19 0.750000 0.000000 0.305649
#
# Coordination Sequence:
#
# PCOD8222469 Si02
#       8
#     8   8   8   8   8   8   8   8
#     4  10  18  35  56  81 113 147 187 232 281 333
#     4  11  21  37  62  83 112 149 195 236 277 333
#     4   9  18  32  57  85 108 139 189 241 279 323
#     4  11  23  38  57  86 120 150 186 234 287 340
#     4   9  19  34  57  82 111 148 188 230 283 332
#     4  10  20  34  56  87 111 141 191 242 279 324
#     4  12  24  37  57  87 119 152 187 234 288 339
#     4  12  21  37  61  85 112 149 197 237 278 333
#
# _framework density 20.257024999999999
#
# number of rings (size 3 to 8) (size 9 to 14) (size 15 to 20)
#    0.000    1.500    3.750    2.250    1.750    0.000 
#    0.000    1.250    2.750    3.000    0.000    0.000 
#    0.000    0.000    0.000    0.000    0.000    0.000 
#
# Total GULP energy -793064.097539 kJ/mol
# GULP energy per Si atom -12391.626524 kJ/mol
# Density = 2.021092 g / cm^3
# Si number density = 20.257025 Si / 1000 Ang^3
#
#
#
# Elastic Constant Matrix: (Units=GPa)
#
#
# Indices 1 2 3 4 5 6 
#
# 1 105.5862 32.7408 9.6983 0.0000 0.0000 0.0000
# 2 32.7408 52.8929 4.8608 0.0000 0.0000 0.0000
# 3 9.6983 4.8608 68.6327 0.0000 0.0000 0.0000
# 4 0.0000 0.0000 0.0000 17.1990 0.0000 0.0000
# 5 0.0000 0.0000 0.0000 0.0000 29.3492 0.0000
# 6 0.0000 0.0000 0.0000 0.0000 0.0000 25.7780
#
#
#
# Elastic Compliance Matrix: (Units=1/GPa)
#
#
# Indices 1 2 3 4 5 6 
#
# 1 0.011812 -0.007205 -0.001159 0.000000 0.000000 0.000000
# 2 -0.007205 0.023425 -0.000641 0.000000 0.000000 0.000000
# 3 -0.001159 -0.000641 0.014779 0.000000 0.000000 0.000000
# 4 0.000000 0.000000 0.000000 0.058143 0.000000 0.000000
# 5 0.000000 0.000000 0.000000 0.000000 0.034072 0.000000
# 6 0.000000 0.000000 0.000000 0.000000 0.000000 0.038793
#
#
# Mechanical properties :
#
#
# Convention : Reuss Voigt Hill
#
# Bulk Modulus (GPa) = 31.24345 35.74571 33.49458
# Shear Modulus (GPa) = 23.84337 26.45271 25.14804
#
# Velocity S-wave (km/s) = 3.43453 3.61758 3.52724
# Velocity P-wave (km/s) = 5.58435 5.92736 5.75841
#
# Compressibility (1/GPa) = 0.03200671
#
# Stress axis : x y z
#
# Youngs Moduli (GPa) = 84.66325 42.68968 67.66148
#
# Poissons Ratio (x) = 0.30757 0.07840
# Poissons Ratio (y) = 0.60999 0.04337
# Poissons Ratio (z) = 0.09811 0.02736
#
# Static dielectric constant tensor:
#      x y z
#    x 4.140000 0.000000 0.000000 
#    y 0.000000 3.157970 0.000000 
#    z 0.000000 0.000000 4.176540 
# 
# 
# High freq. dielectric constant tensor:
#      x y z
#    x 1.809160 0.000000 0.000000 
#    y 0.000000 1.727930 0.000000 
#    z 0.000000 0.000000 1.812160 
# 
# From -- ./inp_files/18965.got.cif
#   From: 2010.03.12/outbox.cif.g09.slc.cpg/sg54_10_cif.got.tgz:18965.got - 2010.04.16 15:00:50.
