data_PCOD8222773
_publ_section_title
;
Structure prediction by ZEFSAII (Michael W. Deem and Ramdas Pophale) SiO2 
 PCOD8222773
Probable space group: P C C A
;
_chemical_formula_sum "Si O2"
_cell_formula_units_Z 56
_cell_length_a 4.987712
_cell_length_b 21.955065
_cell_length_c 27.013823
_cell_angle_alpha 90.000000
_cell_angle_beta 90.000000
_cell_angle_gamma 90.000000
_cell_volume 2958.163306
_symmetry_space_group_name_H-M "P C C A"
_symmetry_group_IT_number 54
_symmetry_cell_setting 'orthorhombic'
loop_
_space_group_symop_operation_xyz
x,y,z
1/2-x,-y,z
1/2+x,-y,1/2-z
-x,y,1/2-z
-x,-y,-z
1/2+x,y,-z
1/2-x,y,1/2+z
x,-y,1/2+z
loop_
_atom_site_type_symbol
_atom_site_label
_atom_site_fract_x
_atom_site_fract_y
_atom_site_fract_z
Si Si1 0.327338 0.377777 0.829952
Si Si2 0.805569 0.214174 0.339283
Si Si3 0.500000 0.280215 0.750000
Si Si4 0.265890 0.070398 0.466609
Si Si5 0.343125 0.171457 0.391644
Si Si6 0.669653 0.660732 0.883050
Si Si7 0.061180 0.274729 0.967889
Si Si8 0.250000 0.500000 0.779916
O O1 0.347878 0.324690 0.788485
O O2 0.531438 0.366216 0.875977
O O3 0.385930 0.445028 0.810073
O O4 0.024806 0.379290 0.849041
O O5 0.588500 0.160885 0.351935
O O6 0.666138 0.270205 0.366263
O O7 0.815645 0.233322 0.281368
O O8 0.097285 0.200767 0.361515
O O9 0.531657 0.087981 0.496013
O O10 0.251803 0.107531 0.415273
O O11 0.250000 0.000000 0.451137
O O12 0.456627 0.213032 0.436262
O O13 0.542423 0.664842 0.938098
O O14 0.372840 0.275501 0.983690
O O15 0.500000 0.528565 0.750000
#
# Coordination Sequence:
#
# PCOD8222773 Si02
#       8
#     8   8   4   8   8   8   8   4
#     4  11  22  36  56  74 113 138 168 218 257 317
#     4  10  21  32  51  73 106 141 179 211 260 324
#     4  10  20  36  52  78 104 144 170 212 264 308
#     4  10  20  34  54  79 108 145 183 216 262 320
#     4  11  20  34  48  77 111 141 172 219 265 313
#     4  10  21  36  50  77 105 143 173 210 267 315
#     4  11  19  30  51  76 104 135 173 213 258 313
#     4  12  24  38  54  88 104 138 184 206 262 330
#
# _framework density 18.930665000000001
#
# number of rings (size 3 to 8) (size 9 to 14) (size 15 to 20)
#    0.000    1.429    0.714    8.571    2.000    2.857 
#    0.000    0.000    0.000    0.000    0.000   12.000 
#    0.000    0.000    0.000    0.000    0.000    0.000 
#
# Total GULP energy -693832.335978 kJ/mol
# GULP energy per Si atom -12389.863142 kJ/mol
# Density = 1.888758 g / cm^3
# Si number density = 18.930665 Si / 1000 Ang^3
#
#
#
# Elastic Constant Matrix: (Units=GPa)
#
#
# Indices 1 2 3 4 5 6 
#
# 1 129.4961 20.5907 33.6122 0.0000 0.0000 0.0000
# 2 20.5907 70.3905 38.6905 0.0000 0.0000 0.0000
# 3 33.6122 38.6905 75.0693 0.0000 0.0000 0.0000
# 4 0.0000 0.0000 0.0000 22.0254 0.0000 0.0000
# 5 0.0000 0.0000 0.0000 0.0000 28.6547 0.0000
# 6 0.0000 0.0000 0.0000 0.0000 0.0000 26.4875
#
#
#
# Elastic Compliance Matrix: (Units=1/GPa)
#
#
# Indices 1 2 3 4 5 6 
#
# 1 0.008754 -0.000567 -0.003627 0.000000 0.000000 0.000000
# 2 -0.000567 0.019858 -0.009981 0.000000 0.000000 0.000000
# 3 -0.003627 -0.009981 0.020089 0.000000 0.000000 0.000000
# 4 0.000000 0.000000 0.000000 0.045402 0.000000 0.000000
# 5 0.000000 0.000000 0.000000 0.000000 0.034898 0.000000
# 6 0.000000 0.000000 0.000000 0.000000 0.000000 0.037754
#
#
# Mechanical properties :
#
#
# Convention : Reuss Voigt Hill
#
# Bulk Modulus (GPa) = 49.13778 51.19364 50.16571
# Shear Modulus (GPa) = 24.76589 27.57100 26.16845
#
# Velocity S-wave (km/s) = 3.62089 3.82045 3.72201
# Velocity P-wave (km/s) = 6.59501 6.82367 6.71032
#
# Compressibility (1/GPa) = 0.02035094
#
# Stress axis : x y z
#
# Youngs Moduli (GPa) = 114.23471 50.35632 49.77744
#
# Poissons Ratio (x) = 0.02855 0.18056
# Poissons Ratio (y) = 0.06476 0.49684
# Poissons Ratio (z) = 0.41437 0.50261
#
# Static dielectric constant tensor:
#      x y z
#    x 3.626970 0.000000 0.000000 
#    y 0.000000 3.225740 0.000000 
#    z 0.000000 0.000000 3.669710 
# 
# 
# High freq. dielectric constant tensor:
#      x y z
#    x 1.758290 0.000000 0.000000 
#    y 0.000000 1.695860 0.000000 
#    z 0.000000 0.000000 1.723650 
# 
# From -- ./inp_files/23011.got.cif
#   From: 2010.03.12/outbox.cif.g09.slc.cpg/sg54_12_cif.got.tgz:23011.got - 2010.04.16 15:00:50.
