data_PCOD8222064
_publ_section_title
;
Structure prediction by ZEFSAII (Michael W. Deem and Ramdas Pophale) SiO2 
 PCOD8222064
Probable space group: P M N A
;
_chemical_formula_sum "Si O2"
_cell_formula_units_Z 64
_cell_length_a 17.139337
_cell_length_b 17.183591
_cell_length_c 12.456031
_cell_angle_alpha 90.000000
_cell_angle_beta 90.000000
_cell_angle_gamma 90.000000
_cell_volume 3668.492417
_symmetry_space_group_name_H-M "P M N A"
_symmetry_group_IT_number 53
_symmetry_cell_setting 'orthorhombic'
loop_
_space_group_symop_operation_xyz
x,y,z
1/2-x,-y,1/2+z
x,-y,-z
1/2-x,y,1/2-z
-x,-y,-z
1/2+x,y,1/2-z
-x,y,z
1/2+x,-y,1/2+z
loop_
_atom_site_type_symbol
_atom_site_label
_atom_site_fract_x
_atom_site_fract_y
_atom_site_fract_z
Si Si1 0.336135 0.823084 0.296563
Si Si2 0.909542 0.823388 0.788925
Si Si3 0.661472 0.089678 0.097201
Si Si4 0.336948 0.088736 0.479048
Si Si5 0.589834 0.926516 0.122429
Si Si6 0.406494 0.330277 0.627181
Si Si7 0.085764 0.498896 0.872220
Si Si8 0.907263 0.663926 0.884855
O O1 0.250000 0.827719 0.250000
O O2 0.340331 0.862988 0.411833
O O3 0.395111 0.866878 0.217719
O O4 0.364112 0.733876 0.300358
O O5 0.857118 0.849707 0.689999
O O6 0.897821 0.875216 0.895085
O O7 0.882268 0.734604 0.808782
O O8 0.000000 0.828590 0.757339
O O9 0.752259 0.093512 0.073195
O O10 0.642003 0.003236 0.139092
O O11 0.611831 0.111933 0.991715
O O12 0.361674 0.000000 0.500000
O O13 0.500000 0.951496 0.122470
O O14 0.500000 0.323265 0.638323
O O15 0.375622 0.416694 0.664405
O O16 0.378634 0.316805 0.504931
O O17 0.128367 0.580949 0.840403
O O18 0.000000 0.498900 0.820121
O O19 0.078549 0.500000 0.000000
O O20 0.000000 0.654330 0.889155
#
# Coordination Sequence:
#
# PCOD8222064 Si02
#       8
#     8   8   8   8   8   8   8   8
#     4  12  22  35  51  77 108 139 173 214 267 315
#     4  11  22  34  55  84 109 132 169 222 271 310
#     4  11  21  40  54  74 101 141 183 218 255 315
#     4  12  23  38  56  72 104 143 178 213 269 322
#     4  11  22  38  59  76  97 135 185 231 256 294
#     4   9  16  29  50  76 105 134 166 210 256 305
#     4   7  11  22  45  74 102 131 161 196 251 312
#     4   8  14  27  47  78 109 128 156 206 264 312
#
# _framework density 17.445858000000001
#
# number of rings (size 3 to 8) (size 9 to 14) (size 15 to 20)
#    0.000    1.875    3.750    4.500    0.000    0.750 
#    0.000    0.000    0.000    1.500    0.000    0.875 
#    0.000    5.000    0.000    0.000    0.000    0.000 
#
# Total GULP energy -793217.382044 kJ/mol
# GULP energy per Si atom -12394.021594 kJ/mol
# Density = 1.740615 g / cm^3
# Si number density = 17.445858 Si / 1000 Ang^3
#
#
#
# Elastic Constant Matrix: (Units=GPa)
#
#
# Indices 1 2 3 4 5 6 
#
# 1 27.5963 15.5989 7.5046 0.0000 0.0000 0.0000
# 2 15.5989 144.4451 51.3724 0.0000 0.0000 0.0000
# 3 7.5046 51.3724 66.3972 0.0000 0.0000 0.0000
# 4 0.0000 0.0000 0.0000 18.7800 0.0000 0.0000
# 5 0.0000 0.0000 0.0000 0.0000 18.3526 0.0000
# 6 0.0000 0.0000 0.0000 0.0000 0.0000 12.3527
#
#
#
# Elastic Compliance Matrix: (Units=1/GPa)
#
#
# Indices 1 2 3 4 5 6 
#
# 1 0.038711 -0.003621 -0.001574 0.000000 0.000000 0.000000
# 2 -0.003621 0.009890 -0.007243 0.000000 0.000000 0.000000
# 3 -0.001574 -0.007243 0.020843 0.000000 0.000000 0.000000
# 4 0.000000 0.000000 0.000000 0.053248 0.000000 0.000000
# 5 0.000000 0.000000 0.000000 0.000000 0.054488 0.000000
# 6 0.000000 0.000000 0.000000 0.000000 0.000000 0.080954
#
#
# Mechanical properties :
#
#
# Convention : Reuss Voigt Hill
#
# Bulk Modulus (GPa) = 22.43712 43.04336 32.74024
# Shear Modulus (GPa) = 16.78609 20.82791 18.80700
#
# Velocity S-wave (km/s) = 3.10527 3.45898 3.28689
# Velocity P-wave (km/s) = 5.07404 6.37799 5.76301
#
# Compressibility (1/GPa) = 0.04456901
#
# Stress axis : x y z
#
# Youngs Moduli (GPa) = 25.83220 101.11257 47.97866
#
# Poissons Ratio (x) = 0.36610 0.07552
# Poissons Ratio (y) = 0.09353 0.34750
# Poissons Ratio (z) = 0.04066 0.73233
#
# Static dielectric constant tensor:
#      x y z
#    x 3.023060 0.000000 0.000000 
#    y 0.000000 3.683770 0.000000 
#    z 0.000000 0.000000 3.161370 
# 
# 
# High freq. dielectric constant tensor:
#      x y z
#    x 1.648070 0.000000 0.000000 
#    y 0.000000 1.687660 0.000000 
#    z 0.000000 0.000000 1.654190 
# 
# From -- ./inp_files/17167.got.cif
#   From: 2010.03.12/outbox.cif.g09.slc.cpg/sg53_9_cif.got.tgz:17167.got - 2010.04.16 14:36:59.
