data_PCOD8222283
_publ_section_title
;
Structure prediction by ZEFSAII (Michael W. Deem and Ramdas Pophale) SiO2 
 PCOD8222283
Probable space group: P C C A
;
_chemical_formula_sum "Si O2"
_cell_formula_units_Z 44
_cell_length_a 5.287244
_cell_length_b 26.544949
_cell_length_c 16.801719
_cell_angle_alpha 90.000000
_cell_angle_beta 90.000000
_cell_angle_gamma 90.000000
_cell_volume 2358.114916
_symmetry_space_group_name_H-M "P C C A"
_symmetry_group_IT_number 54
_symmetry_cell_setting 'orthorhombic'
loop_
_space_group_symop_operation_xyz
x,y,z
1/2-x,-y,z
1/2+x,-y,1/2-z
-x,y,1/2-z
-x,-y,-z
1/2+x,y,-z
1/2-x,y,1/2+z
x,-y,1/2+z
loop_
_atom_site_type_symbol
_atom_site_label
_atom_site_fract_x
_atom_site_fract_y
_atom_site_fract_z
Si Si1 0.256766 0.653321 0.909089
Si Si2 0.249872 0.940862 0.797588
Si Si3 0.705897 0.237444 0.548053
Si Si4 0.256576 0.611013 0.090643
Si Si5 0.776247 0.872446 0.051467
Si Si6 0.750000 0.500000 0.948741
O O1 0.257247 0.713710 0.898469
O O2 0.508416 0.633024 0.865704
O O3 0.008057 0.631434 0.865747
O O4 0.257748 0.631949 0.999772
O O5 0.500000 0.924240 0.750000
O O6 0.245243 0.914070 0.881910
O O7 0.000000 0.924426 0.750000
O O8 0.250000 0.000000 0.814639
O O9 0.412264 0.240310 0.522769
O O10 0.753917 0.183609 0.590944
O O11 0.250807 0.550900 0.102191
O O12 0.551631 0.879590 0.987733
O O13 0.500000 0.500000 0.000000
#
# Coordination Sequence:
#
# PCOD8222283 Si02
#       6
#     8   8   8   8   8   4
#     4  10  14  22  31  43  61  95 130 166 220 264
#     4  10  21  38  58  77 103 140 174 201 242 307
#     4  10  16  25  39  57  84 110 140 183 237 277
#     4  10  16  20  29  40  60  91 134 176 216 258
#     4  10  21  33  51  80 106 129 163 215 260 283
#     4  12  16  20  24  38  56  82 126 186 214 240
#
# _framework density 18.658971000000001
#
# number of rings (size 3 to 8) (size 9 to 14) (size 15 to 20)
#    0.000    1.818    7.273    1.091    0.000    0.727 
#    0.000    0.000    0.000    0.000    0.000    0.000 
#    0.000    0.000    0.000    0.000    0.000    0.000 
#
# Total GULP energy -545104.776509 kJ/mol
# GULP energy per Si atom -12388.744921 kJ/mol
# Density = 1.861650 g / cm^3
# Si number density = 18.658971 Si / 1000 Ang^3
#
#
#
# Elastic Constant Matrix: (Units=GPa)
#
#
# Indices 1 2 3 4 5 6 
#
# 1 169.8546 33.8890 12.7814 0.0000 0.0000 0.0000
# 2 33.8890 98.7620 32.6665 0.0000 0.0000 0.0000
# 3 12.7814 32.6665 24.6739 0.0000 0.0000 0.0000
# 4 0.0000 0.0000 0.0000 -0.5596 0.0000 0.0000
# 5 0.0000 0.0000 0.0000 0.0000 10.8201 0.0000
# 6 0.0000 0.0000 0.0000 0.0000 0.0000 22.1293
#
#
#
# Elastic Compliance Matrix: (Units=1/GPa)
#
#
# Indices 1 2 3 4 5 6 
#
# 1 0.006327 -0.001934 -0.000717 0.000000 0.000000 0.000000
# 2 -0.001934 0.018605 -0.023629 0.000000 0.000000 0.000000
# 3 -0.000717 -0.023629 0.072184 0.000000 0.000000 0.000000
# 4 0.000000 0.000000 0.000000 -1.787003 0.000000 0.000000
# 5 0.000000 0.000000 0.000000 0.000000 0.092421 0.000000
# 6 0.000000 0.000000 0.000000 0.000000 0.000000 0.045189
#
#
# Mechanical properties :
#
#
# Convention : Reuss Voigt Hill
#
# Bulk Modulus (GPa) = 22.44443 50.21829 36.33136
# Shear Modulus (GPa) = -3.36731 20.74151 8.68710
#
# Velocity S-wave (km/s) = -1.34483 3.33770 2.16005
# Velocity P-wave (km/s) = 3.10539 6.46729 5.07293
#
# Compressibility (1/GPa) = 0.04455448
#
# Stress axis : x y z
#
# Youngs Moduli (GPa) = 158.04771 53.75020 13.85354
#
# Poissons Ratio (x) = 0.10395 0.00994
# Poissons Ratio (y) = 0.30564 0.32735
# Poissons Ratio (z) = 0.11337 1.27008
#
# Static dielectric constant tensor:
#      x y z
#    x 4.819910 0.000000 0.000000 
#    y 0.000000 3.892400 0.000000 
#    z 0.000000 0.000000 2.484360 
# 
# 
# High freq. dielectric constant tensor:
#      x y z
#    x 1.769420 0.000000 0.000000 
#    y 0.000000 1.746400 0.000000 
#    z 0.000000 0.000000 1.615840 
# 
# From -- ./inp_files/15906.got.cif
#   From: 2010.03.12/outbox.cif.g09.slc.cpg/sg54_8_cif.got.tgz:15906.got - 2010.04.16 15:00:50.
