data_PCOD8222135
_publ_section_title
;
Structure prediction by ZEFSAII (Michael W. Deem and Ramdas Pophale) SiO2 
 PCOD8222135
Probable space group: P M N A
;
_chemical_formula_sum "Si O2"
_cell_formula_units_Z 48
_cell_length_a 13.874688
_cell_length_b 17.708756
_cell_length_c 8.949606
_cell_angle_alpha 90.000000
_cell_angle_beta 90.000000
_cell_angle_gamma 90.000000
_cell_volume 2198.949199
_symmetry_space_group_name_H-M "P M N A"
_symmetry_group_IT_number 53
_symmetry_cell_setting 'orthorhombic'
loop_
_space_group_symop_operation_xyz
x,y,z
1/2-x,-y,1/2+z
x,-y,-z
1/2-x,y,1/2-z
-x,-y,-z
1/2+x,y,1/2-z
-x,y,z
1/2+x,-y,1/2+z
loop_
_atom_site_type_symbol
_atom_site_label
_atom_site_fract_x
_atom_site_fract_y
_atom_site_fract_z
Si Si1 0.391659 0.687327 0.406818
Si Si2 0.827415 0.853621 0.123349
Si Si3 0.246250 0.577676 0.925493
Si Si4 0.111671 0.676005 0.434392
Si Si5 0.306904 0.814920 0.891830
Si Si6 0.000000 0.062707 0.730470
Si Si7 0.500000 0.895500 0.891830
O O1 0.500000 0.663598 0.445684
O O2 0.383774 0.777418 0.418848
O O3 0.325465 0.644540 0.525666
O O4 0.364926 0.662922 0.238833
O O5 0.750000 0.838838 0.250000
O O6 0.904870 0.916929 0.172892
O O7 0.763364 0.875723 0.976647
O O8 0.250000 0.567396 0.750000
O O9 0.212170 0.500000 0.000000
O O10 0.353385 0.600691 0.980660
O O11 0.171549 0.747669 0.492954
O O12 0.000000 0.690913 0.466199
O O13 0.250000 0.781644 0.750000
O O14 0.404670 0.853613 0.835103
O O15 0.000000 0.106778 0.572870
O O16 0.000000 0.975408 0.689851
#
# Coordination Sequence:
#
# PCOD8222135 Si02
#       7
#     8   8   8   8   8   4   4
#     4  11  22  40  71 102 131 180 235 293 348 420
#     4  12  21  40  73 103 134 181 249 285 349 428
#     4  12  26  45  67 101 145 183 229 287 354 423
#     4  11  22  41  70  98 134 180 237 288 351 417
#     4  12  25  43  69 104 139 188 237 297 351 428
#     4  11  24  43  71 105 134 189 234 301 360 433
#     4  11  24  47  67  97 150 181 234 297 371 421
#
# _framework density 21.828607000000002
#
# number of rings (size 3 to 8) (size 9 to 14) (size 15 to 20)
#    0.000    0.500    6.667    2.000    0.000    2.667 
#    0.000    0.833    0.000    0.000    0.000    0.000 
#    0.000    0.000    0.000    0.000    0.000    0.000 
#
# Total GULP energy -595178.939379 kJ/mol
# GULP energy per Si atom -12399.561237 kJ/mol
# Density = 2.177892 g / cm^3
# Si number density = 21.828607 Si / 1000 Ang^3
#
#
#
# Elastic Constant Matrix: (Units=GPa)
#
#
# Indices 1 2 3 4 5 6 
#
# 1 138.1955 34.0899 62.7160 0.0000 0.0000 0.0000
# 2 34.0899 75.7939 26.9455 0.0000 0.0000 0.0000
# 3 62.7160 26.9455 120.5211 0.0000 0.0000 0.0000
# 4 0.0000 0.0000 0.0000 30.7064 0.0000 0.0000
# 5 0.0000 0.0000 0.0000 0.0000 30.1316 0.0000
# 6 0.0000 0.0000 0.0000 0.0000 0.0000 6.6669
#
#
#
# Elastic Compliance Matrix: (Units=1/GPa)
#
#
# Indices 1 2 3 4 5 6 
#
# 1 0.010021 -0.002882 -0.004570 0.000000 0.000000 0.000000
# 2 -0.002882 0.015162 -0.001890 0.000000 0.000000 0.000000
# 3 -0.004570 -0.001890 0.011098 0.000000 0.000000 0.000000
# 4 0.000000 0.000000 0.000000 0.032566 0.000000 0.000000
# 5 0.000000 0.000000 0.000000 0.000000 0.033188 0.000000
# 6 0.000000 0.000000 0.000000 0.000000 0.000000 0.149996
#
#
# Mechanical properties :
#
#
# Convention : Reuss Voigt Hill
#
# Bulk Modulus (GPa) = 56.83117 64.66817 60.74967
# Shear Modulus (GPa) = 18.07781 27.55158 22.81470
#
# Velocity S-wave (km/s) = 2.88092 3.55657 3.23642
# Velocity P-wave (km/s) = 6.09573 6.82314 6.46967
#
# Compressibility (1/GPa) = 0.01759598
#
# Stress axis : x y z
#
# Youngs Moduli (GPa) = 99.78741 65.95431 90.10523
#
# Poissons Ratio (x) = 0.19011 0.41181
# Poissons Ratio (y) = 0.28764 0.17029
# Poissons Ratio (z) = 0.45607 0.12465
#
# Static dielectric constant tensor:
#      x y z
#    x 4.249520 0.000000 0.000000 
#    y 0.000000 3.708130 0.000000 
#    z 0.000000 0.000000 4.033290 
# 
# 
# High freq. dielectric constant tensor:
#      x y z
#    x 1.877580 0.000000 0.000000 
#    y 0.000000 1.833430 0.000000 
#    z 0.000000 0.000000 1.860620 
# 
# From -- ./inp_files/8719.got.cif
#   From: 2010.03.12/outbox.cif.g09.slc.cpg/sg53_5_cif.got.tgz:8719.got - 2010.04.16 14:36:59.
