data_PCOD8222694
_publ_section_title
;
Structure prediction by ZEFSAII (Michael W. Deem and Ramdas Pophale) SiO2 
 PCOD8222694
Probable space group: P C C A
;
_chemical_formula_sum "Si O2"
_cell_formula_units_Z 24
_cell_length_a 5.019506
_cell_length_b 16.236887
_cell_length_c 13.142752
_cell_angle_alpha 90.000000
_cell_angle_beta 90.000000
_cell_angle_gamma 90.000000
_cell_volume 1071.149425
_symmetry_space_group_name_H-M "P C C A"
_symmetry_group_IT_number 54
_symmetry_cell_setting 'orthorhombic'
loop_
_space_group_symop_operation_xyz
x,y,z
1/2-x,-y,z
1/2+x,-y,1/2-z
-x,y,1/2-z
-x,-y,-z
1/2+x,y,-z
1/2-x,y,1/2+z
x,-y,1/2+z
loop_
_atom_site_type_symbol
_atom_site_label
_atom_site_fract_x
_atom_site_fract_y
_atom_site_fract_z
Si Si1 0.500000 0.947692 0.750000
Si Si2 0.750000 0.500000 0.819528
Si Si3 0.750603 0.322404 0.322331
Si Si4 0.201853 0.840573 0.064273
O O1 0.630324 0.892164 0.836795
O O2 0.250000 0.000000 0.793653
O O3 0.500000 0.514812 0.750000
O O4 0.714515 0.412618 0.878961
O O5 0.500000 0.320622 0.250000
O O6 0.707121 0.256403 0.410965
O O7 0.000000 0.300784 0.250000
O O8 0.495295 0.863138 0.024928
#
# Coordination Sequence:
#
# PCOD8222694 Si02
#       4
#     4   4   8   8
#     4  12  28  48  72  96 130 174 214 274 338 394
#     4   8  16  30  56  92 122 172 222 258 310 372
#     4  10  19  37  64  91 132 176 218 265 319 379
#     4  12  26  43  69 102 132 170 218 269 325 396
#
# _framework density 22.405839
#
# number of rings (size 3 to 8) (size 9 to 14) (size 15 to 20)
#    0.000    1.333    1.667    4.000    2.333    4.000 
#    0.000    1.667    0.000    0.000    0.000    0.000 
#    0.000    0.000    0.000    0.000    0.000    0.000 
#
# Total GULP energy -297364.026155 kJ/mol
# GULP energy per Si atom -12390.167756 kJ/mol
# Density = 2.235484 g / cm^3
# Si number density = 22.405839 Si / 1000 Ang^3
#
#
#
# Elastic Constant Matrix: (Units=GPa)
#
#
# Indices 1 2 3 4 5 6 
#
# 1 141.7053 28.4589 20.4954 0.0000 0.0000 0.0000
# 2 28.4589 130.4691 40.9037 0.0000 0.0000 0.0000
# 3 20.4954 40.9037 69.4137 0.0000 0.0000 0.0000
# 4 0.0000 0.0000 0.0000 -7.5130 0.0000 0.0000
# 5 0.0000 0.0000 0.0000 0.0000 35.7427 0.0000
# 6 0.0000 0.0000 0.0000 0.0000 0.0000 33.0406
#
#
#
# Elastic Compliance Matrix: (Units=1/GPa)
#
#
# Indices 1 2 3 4 5 6 
#
# 1 0.007511 -0.001157 -0.001536 0.000000 0.000000 0.000000
# 2 -0.001157 0.009580 -0.005304 0.000000 0.000000 0.000000
# 3 -0.001536 -0.005304 0.017985 0.000000 0.000000 0.000000
# 4 0.000000 0.000000 0.000000 -0.133102 0.000000 0.000000
# 5 0.000000 0.000000 0.000000 0.000000 0.027978 0.000000
# 6 0.000000 0.000000 0.000000 0.000000 0.000000 0.030266
#
#
# Mechanical properties :
#
#
# Convention : Reuss Voigt Hill
#
# Bulk Modulus (GPa) = 52.40187 57.92268 55.16228
# Shear Modulus (GPa) = -286.88673 29.03606 -128.92533
#
# Velocity S-wave (km/s) = -11.32780 3.60379 -7.59380
# Velocity P-wave (km/s) = 12.15128 6.57450 7.22598
#
# Compressibility (1/GPa) = 0.01908329
#
# Stress axis : x y z
#
# Youngs Moduli (GPa) = 133.13075 104.38731 55.60132
#
# Poissons Ratio (x) = 0.12076 0.08541
# Poissons Ratio (y) = 0.15401 0.29488
# Poissons Ratio (z) = 0.20451 0.55362
#
# Static dielectric constant tensor:
#      x y z
#    x 4.337320 0.000000 0.000000 
#    y 0.000000 4.999980 0.000000 
#    z 0.000000 0.000000 3.439580 
# 
# 
# High freq. dielectric constant tensor:
#      x y z
#    x 1.913000 0.000000 0.000000 
#    y 0.000000 1.909460 0.000000 
#    z 0.000000 0.000000 1.833250 
# 
# From -- ./inp_files/6184.got.cif
#   From: 2010.03.12/outbox.cif.g09.slc.cpg/sg54_4_cif.got.tgz:6184.got - 2010.04.16 15:00:50.
