data_PCOD8222563
_publ_section_title
;
Structure prediction by ZEFSAII (Michael W. Deem and Ramdas Pophale) SiO2 
 PCOD8222563
Probable space group: P C C A
;
_chemical_formula_sum "Si O2"
_cell_formula_units_Z 60
_cell_length_a 5.149140
_cell_length_b 22.834262
_cell_length_c 33.476893
_cell_angle_alpha 90.000000
_cell_angle_beta 90.000000
_cell_angle_gamma 90.000000
_cell_volume 3936.106349
_symmetry_space_group_name_H-M "P C C A"
_symmetry_group_IT_number 54
_symmetry_cell_setting 'orthorhombic'
loop_
_space_group_symop_operation_xyz
x,y,z
1/2-x,-y,z
1/2+x,-y,1/2-z
-x,y,1/2-z
-x,-y,-z
1/2+x,y,-z
1/2-x,y,1/2+z
x,-y,1/2+z
loop_
_atom_site_type_symbol
_atom_site_label
_atom_site_fract_x
_atom_site_fract_y
_atom_site_fract_z
Si Si1 0.681166 0.847608 0.652428
Si Si2 0.250000 0.000000 0.149384
Si Si3 0.750719 0.932226 0.974871
Si Si4 0.385674 0.058952 0.289783
Si Si5 0.497160 0.664855 0.296922
Si Si6 0.997290 0.263660 0.702652
Si Si7 0.837555 0.887341 0.890464
Si Si8 0.498088 0.534320 0.202310
O O1 0.783773 0.892152 0.687532
O O2 0.577924 0.790812 0.675140
O O3 0.443820 0.869814 0.625821
O O4 0.936255 0.841956 0.624031
O O5 0.408343 0.042846 0.177196
O O6 0.084309 0.045741 0.122693
O O7 0.814146 0.888824 0.938216
O O8 0.750000 0.000000 0.961097
O O9 0.464782 0.918447 0.991526
O O10 0.500000 0.088933 0.250000
O O11 0.250000 0.000000 0.274722
O O12 0.500000 0.657918 0.250000
O O13 0.216829 0.688648 0.308877
O O14 0.521114 0.600014 0.315729
O O15 0.725720 0.709192 0.310637
O O16 0.000000 0.247351 0.750000
O O17 0.250000 0.500000 0.185892
O O18 0.500000 0.536125 0.250000
O O19 0.750000 0.500000 0.186222
#
# Coordination Sequence:
#
# PCOD8222563 Si02
#       8
#     8   4   8   8   8   8   8   8
#     4  11  23  33  49  65  84 114 144 184 222 258
#     4  10  20  32  44  62  82 108 130 166 218 270
#     4  10  20  34  53  74  90 108 126 153 204 279
#     4  11  20  32  44  59  79 107 141 180 225 269
#     4   9  17  28  44  58  82 113 145 187 232 266
#     4  10  19  33  44  61  82 116 158 192 222 262
#     4  11  21  35  50  68  89 106 132 168 217 267
#     4   9  15  23  37  60  83 105 135 177 231 282
#
# _framework density 15.24349
#
# number of rings (size 3 to 8) (size 9 to 14) (size 15 to 20)
#    0.000    1.867    2.667    2.800    0.000    3.200 
#    0.000    2.000    0.000    0.000    0.000    0.000 
#    0.000    0.000    0.000    0.000    0.000    0.000 
#
# Total GULP energy -743355.824806 kJ/mol
# GULP energy per Si atom -12389.263747 kJ/mol
# Density = 1.520879 g / cm^3
# Si number density = 15.243490 Si / 1000 Ang^3
#
#
#
# Elastic Constant Matrix: (Units=GPa)
#
#
# Indices 1 2 3 4 5 6 
#
# 1 90.4228 19.2775 21.4578 0.0000 0.0000 0.0000
# 2 19.2775 70.1323 25.1065 0.0000 0.0000 0.0000
# 3 21.4578 25.1065 59.5892 0.0000 0.0000 0.0000
# 4 0.0000 0.0000 0.0000 -4.6928 0.0000 0.0000
# 5 0.0000 0.0000 0.0000 0.0000 14.7831 0.0000
# 6 0.0000 0.0000 0.0000 0.0000 0.0000 -5.6192
#
#
#
# Elastic Compliance Matrix: (Units=1/GPa)
#
#
# Indices 1 2 3 4 5 6 
#
# 1 0.012355 -0.002124 -0.003554 0.000000 0.000000 0.000000
# 2 -0.002124 0.017156 -0.006464 0.000000 0.000000 0.000000
# 3 -0.003554 -0.006464 0.020785 0.000000 0.000000 0.000000
# 4 0.000000 0.000000 0.000000 -0.213092 0.000000 0.000000
# 5 0.000000 0.000000 0.000000 0.000000 0.067645 0.000000
# 6 0.000000 0.000000 0.000000 0.000000 0.000000 -0.177961
#
#
# Mechanical properties :
#
#
# Convention : Reuss Voigt Hill
#
# Bulk Modulus (GPa) = 38.44226 39.09201 38.76714
# Shear Modulus (GPa) = -20.81970 11.18106 -4.81932
#
# Velocity S-wave (km/s) = -3.69969 2.71125 -1.78001
# Velocity P-wave (km/s) = 2.65014 5.95835 4.61114
#
# Compressibility (1/GPa) = 0.02601304
#
# Stress axis : x y z
#
# Youngs Moduli (GPa) = 80.93639 58.28707 48.11210
#
# Poissons Ratio (x) = 0.12379 0.17101
# Poissons Ratio (y) = 0.17189 0.31098
# Poissons Ratio (z) = 0.28767 0.37675
#
# Static dielectric constant tensor:
#      x y z
#    x -2.302090 0.000000 0.000000 
#    y 0.000000 2.692840 0.000000 
#    z 0.000000 0.000000 2.746070 
# 
# 
# High freq. dielectric constant tensor:
#      x y z
#    x 1.600070 0.000000 0.000000 
#    y 0.000000 1.561200 0.000000 
#    z 0.000000 0.000000 1.537610 
# 
# From -- ./inp_files/27326.got.cif
#   From: 2010.03.12/outbox.cif.g09.slc.cpg/sg54_14_cif.got.tgz:27326.got - 2010.04.16 15:00:50.
