data_PCOD8222195
_publ_section_title
;
Structure prediction by ZEFSAII (Michael W. Deem and Ramdas Pophale) SiO2 
 PCOD8222195
Probable space group: P M N A
;
_chemical_formula_sum "Si O2"
_cell_formula_units_Z 20
_cell_length_a 15.722307
_cell_length_b 7.021138
_cell_length_c 7.524610
_cell_angle_alpha 90.000000
_cell_angle_beta 90.000000
_cell_angle_gamma 90.000000
_cell_volume 830.630314
_symmetry_space_group_name_H-M "P M N A"
_symmetry_group_IT_number 53
_symmetry_cell_setting 'orthorhombic'
loop_
_space_group_symop_operation_xyz
x,y,z
1/2-x,-y,1/2+z
x,-y,-z
1/2-x,y,1/2-z
-x,-y,-z
1/2+x,y,1/2-z
-x,y,z
1/2+x,-y,1/2+z
loop_
_atom_site_type_symbol
_atom_site_label
_atom_site_fract_x
_atom_site_fract_y
_atom_site_fract_z
Si Si1 0.664349 0.126862 0.165718
Si Si2 0.000000 0.212041 0.120062
Si Si3 0.500000 0.363519 0.749314
Si Si4 0.136733 0.500000 0.500000
O O1 0.750000 0.038742 0.250000
O O2 0.585390 0.118143 0.301713
O O3 0.689578 0.346744 0.113492
O O4 0.637070 0.000000 0.000000
O O5 0.000000 0.432556 0.158818
O O6 0.000000 0.195710 0.902185
O O7 0.581944 0.355282 0.876214
#
# Coordination Sequence:
#
# PCOD8222195 Si02
#       4
#     8   4   4   4
#     4  11  25  42  62  92 126 164 214 262 313 384
#     4   9  19  39  65  91 126 165 201 258 322 371
#     4   8  16  35  66  98 120 159 214 247 308 399
#     4   9  20  40  64  91 130 164 200 263 316 367
#
# _framework density 24.078101
#
# number of rings (size 3 to 8) (size 9 to 14) (size 15 to 20)
#    0.000    2.400    0.000    1.800    0.000   11.200 
#    0.000    3.000    0.000    0.000    0.000    0.000 
#    0.000    0.000    0.000    0.000    0.000    0.000 
#
# Total GULP energy -247832.491078 kJ/mol
# GULP energy per Si atom -12391.624554 kJ/mol
# Density = 2.402330 g / cm^3
# Si number density = 24.078101 Si / 1000 Ang^3
#
#
#
# Elastic Constant Matrix: (Units=GPa)
#
#
# Indices 1 2 3 4 5 6 
#
# 1 140.0817 24.5618 62.0131 0.0000 0.0000 0.0000
# 2 24.5618 63.8322 35.6844 0.0000 0.0000 0.0000
# 3 62.0131 35.6844 159.9532 0.0000 0.0000 0.0000
# 4 0.0000 0.0000 0.0000 65.0625 0.0000 0.0000
# 5 0.0000 0.0000 0.0000 0.0000 27.5552 0.0000
# 6 0.0000 0.0000 0.0000 0.0000 0.0000 20.5620
#
#
#
# Elastic Compliance Matrix: (Units=1/GPa)
#
#
# Indices 1 2 3 4 5 6 
#
# 1 0.008773 -0.001684 -0.003026 0.000000 0.000000 0.000000
# 2 -0.001684 0.018222 -0.003412 0.000000 0.000000 0.000000
# 3 -0.003026 -0.003412 0.008186 0.000000 0.000000 0.000000
# 4 0.000000 0.000000 0.000000 0.015370 0.000000 0.000000
# 5 0.000000 0.000000 0.000000 0.000000 0.036291 0.000000
# 6 0.000000 0.000000 0.000000 0.000000 0.000000 0.048633
#
#
# Mechanical properties :
#
#
# Convention : Reuss Voigt Hill
#
# Bulk Modulus (GPa) = 52.80706 67.59842 60.20274
# Shear Modulus (GPa) = 31.63916 38.74311 35.19113
#
# Velocity S-wave (km/s) = 3.62888 4.01566 3.82716
# Velocity P-wave (km/s) = 6.28789 7.04530 6.67734
#
# Compressibility (1/GPa) = 0.01893686
#
# Stress axis : x y z
#
# Youngs Moduli (GPa) = 113.97994 54.87960 122.15884
#
# Poissons Ratio (x) = 0.09244 0.36961
# Poissons Ratio (y) = 0.19200 0.41681
# Poissons Ratio (z) = 0.34486 0.18725
#
# Static dielectric constant tensor:
#      x y z
#    x 3.836820 0.000000 0.000000 
#    y 0.000000 4.124730 0.000000 
#    z 0.000000 0.000000 5.533840 
# 
# 
# High freq. dielectric constant tensor:
#      x y z
#    x 1.928390 0.000000 0.000000 
#    y 0.000000 1.964330 0.000000 
#    z 0.000000 0.000000 1.969190 
# 
# From -- ./inp_files/7650.got.cif
#   From: 2010.03.12/outbox.cif.g09.slc.cpg/sg53_4_cif.got.tgz:7650.got - 2010.04.16 14:36:59.
