data_PCOD8222596
_publ_section_title
;
Structure prediction by ZEFSAII (Michael W. Deem and Ramdas Pophale) SiO2 
 PCOD8222596
Probable space group: P C C A
;
_chemical_formula_sum "Si O2"
_cell_formula_units_Z 48
_cell_length_a 17.657551
_cell_length_b 8.502869
_cell_length_c 15.654214
_cell_angle_alpha 90.000000
_cell_angle_beta 90.000000
_cell_angle_gamma 90.000000
_cell_volume 2350.321232
_symmetry_space_group_name_H-M "P C C A"
_symmetry_group_IT_number 54
_symmetry_cell_setting 'orthorhombic'
loop_
_space_group_symop_operation_xyz
x,y,z
1/2-x,-y,z
1/2+x,-y,1/2-z
-x,y,1/2-z
-x,-y,-z
1/2+x,y,-z
1/2-x,y,1/2+z
x,-y,1/2+z
loop_
_atom_site_type_symbol
_atom_site_label
_atom_site_fract_x
_atom_site_fract_y
_atom_site_fract_z
Si Si1 0.928238 0.440771 0.581220
Si Si2 0.416773 0.569980 0.106044
Si Si3 0.670241 0.941528 0.687361
Si Si4 0.067112 0.877806 0.694325
Si Si5 0.026011 0.905060 0.417604
Si Si6 0.828344 0.407906 0.743571
O O1 0.886555 0.469762 0.489761
O O2 0.979261 0.281830 0.573945
O O3 0.865887 0.455981 0.654005
O O4 0.991837 0.567848 0.603558
O O5 0.399433 0.752378 0.127259
O O6 0.380752 0.452761 0.175665
O O7 0.614062 0.933312 0.606578
O O8 0.681197 0.779447 0.739909
O O9 0.750000 0.000000 0.650404
O O10 0.639761 0.073047 0.751625
O O11 0.000000 0.796278 0.750000
O O12 0.030381 0.036916 0.656169
O O13 0.000000 0.000000 0.500000
O O14 0.750000 0.500000 0.753223
#
# Coordination Sequence:
#
# PCOD8222596 Si02
#       6
#     8   8   8   8   8   8
#     4  10  22  38  61  93 121 153 213 246 302 365
#     4  11  21  37  62  91 120 157 201 252 300 364
#     4  10  22  39  59  87 117 159 207 247 309 374
#     4  10  19  33  61  88 119 155 200 247 300 364
#     4  10  19  38  61  87 120 155 196 257 303 356
#     4  11  23  40  61  82 125 166 196 253 310 363
#
# _framework density 20.422740000000001
#
# number of rings (size 3 to 8) (size 9 to 14) (size 15 to 20)
#    0.000    1.667    1.667    3.500    0.000    4.667 
#    0.000    0.833    3.667    0.000    0.000    0.000 
#    0.000    0.000    0.000    0.000    0.000    0.000 
#
# Total GULP energy -594936.707428 kJ/mol
# GULP energy per Si atom -12394.514738 kJ/mol
# Density = 2.037626 g / cm^3
# Si number density = 20.422740 Si / 1000 Ang^3
#
#
#
# Elastic Constant Matrix: (Units=GPa)
#
#
# Indices 1 2 3 4 5 6 
#
# 1 96.2845 23.8221 45.2493 0.0000 0.0000 0.0000
# 2 23.8221 80.7443 28.6490 0.0000 0.0000 0.0000
# 3 45.2493 28.6490 136.6502 0.0000 0.0000 0.0000
# 4 0.0000 0.0000 0.0000 32.6651 0.0000 0.0000
# 5 0.0000 0.0000 0.0000 0.0000 23.5417 0.0000
# 6 0.0000 0.0000 0.0000 0.0000 0.0000 28.6187
#
#
#
# Elastic Compliance Matrix: (Units=1/GPa)
#
#
# Indices 1 2 3 4 5 6 
#
# 1 0.012731 -0.002442 -0.003704 0.000000 0.000000 0.000000
# 2 -0.002442 0.013848 -0.002095 0.000000 0.000000 0.000000
# 3 -0.003704 -0.002095 0.008983 0.000000 0.000000 0.000000
# 4 0.000000 0.000000 0.000000 0.030614 0.000000 0.000000
# 5 0.000000 0.000000 0.000000 0.000000 0.042478 0.000000
# 6 0.000000 0.000000 0.000000 0.000000 0.000000 0.034942
#
#
# Mechanical properties :
#
#
# Convention : Reuss Voigt Hill
#
# Bulk Modulus (GPa) = 52.40506 56.56885 54.48695
# Shear Modulus (GPa) = 30.04135 31.36234 30.70184
#
# Velocity S-wave (km/s) = 3.83949 3.92300 3.88147
# Velocity P-wave (km/s) = 6.73583 6.94831 6.84289
#
# Compressibility (1/GPa) = 0.01908213
#
# Stress axis : x y z
#
# Youngs Moduli (GPa) = 78.55128 72.21029 111.31523
#
# Poissons Ratio (x) = 0.17633 0.41226
# Poissons Ratio (y) = 0.19181 0.23318
# Poissons Ratio (z) = 0.29092 0.15126
#
# Static dielectric constant tensor:
#      x y z
#    x 3.479190 0.000000 0.000000 
#    y 0.000000 3.777090 0.000000 
#    z 0.000000 0.000000 3.888360 
# 
# 
# High freq. dielectric constant tensor:
#      x y z
#    x 1.779270 0.000000 0.000000 
#    y 0.000000 1.806260 0.000000 
#    z 0.000000 0.000000 1.802950 
# 
# From -- ./inp_files/14154.got.cif
#   From: 2010.03.12/outbox.cif.g09.slc.cpg/sg54_8_cif.got.tgz:14154.got - 2010.04.16 15:00:50.
