data_PCOD8222804
_publ_section_title
;
Structure prediction by ZEFSAII (Michael W. Deem and Ramdas Pophale) SiO2 
 PCOD8222804
Probable space group: P C C A
;
_chemical_formula_sum "Si O2"
_cell_formula_units_Z 64
_cell_length_a 10.377226
_cell_length_b 17.257987
_cell_length_c 16.622606
_cell_angle_alpha 90.000000
_cell_angle_beta 90.000000
_cell_angle_gamma 90.000000
_cell_volume 2976.943031
_symmetry_space_group_name_H-M "P C C A"
_symmetry_group_IT_number 54
_symmetry_cell_setting 'orthorhombic'
loop_
_space_group_symop_operation_xyz
x,y,z
1/2-x,-y,z
1/2+x,-y,1/2-z
-x,y,1/2-z
-x,-y,-z
1/2+x,y,-z
1/2-x,y,1/2+z
x,-y,1/2+z
loop_
_atom_site_type_symbol
_atom_site_label
_atom_site_fract_x
_atom_site_fract_y
_atom_site_fract_z
Si Si1 0.895144 0.213615 0.428796
Si Si2 0.234403 0.413256 0.329379
Si Si3 0.495309 0.628236 0.657429
Si Si4 0.614573 0.346688 0.811543
Si Si5 0.895667 0.903373 0.315905
Si Si6 0.891360 0.768916 0.440699
Si Si7 0.485782 0.531029 0.089717
Si Si8 0.103549 0.080956 0.183351
O O1 0.895329 0.259950 0.344136
O O2 0.756558 0.226936 0.471909
O O3 0.916830 0.125404 0.400968
O O4 0.012089 0.238305 0.485026
O O5 0.250000 0.500000 0.296210
O O6 0.357529 0.379108 0.377964
O O7 0.234121 0.358991 0.248659
O O8 0.114212 0.418227 0.390008
O O9 0.500000 0.651031 0.750000
O O10 0.409253 0.691588 0.611962
O O11 0.443737 0.540919 0.645689
O O12 0.500000 0.369569 0.750000
O O13 0.622379 0.404216 0.889732
O O14 0.920318 0.846740 0.390809
O O15 0.747918 0.899400 0.283515
O O16 0.000000 0.877420 0.250000
O O17 0.919989 0.991980 0.341360
O O18 0.500000 0.500000 0.000000
O O19 0.000000 0.107084 0.250000
#
# Coordination Sequence:
#
# PCOD8222804 Si02
#       8
#     8   8   8   8   8   8   8   8
#     4  11  24  40  57  86 120 155 195 239 293 347
#     4   9  19  36  56  80 108 147 195 242 291 346
#     4  11  21  37  58  80 109 149 195 242 293 345
#     4  10  20  36  58  80 108 147 195 243 285 340
#     4   9  19  38  63  92 121 151 193 242 290 345
#     4  11  25  40  58  86 121 156 193 241 293 350
#     4  10  20  35  55  82 114 149 190 237 290 350
#     4   9  19  38  64  90 119 155 195 238 288 350
#
# _framework density 21.498563999999998
#
# number of rings (size 3 to 8) (size 9 to 14) (size 15 to 20)
#    0.000    2.000    0.000    4.125    0.000    5.500 
#    0.000    8.125    0.000    0.000    0.000    0.000 
#    0.000    0.000    0.000    0.000    0.000    0.000 
#
# Total GULP energy -792871.025091 kJ/mol
# GULP energy per Si atom -12388.609767 kJ/mol
# Density = 2.144963 g / cm^3
# Si number density = 21.498564 Si / 1000 Ang^3
#
#
#
# Elastic Constant Matrix: (Units=GPa)
#
#
# Indices 1 2 3 4 5 6 
#
# 1 90.5870 25.2135 29.4053 0.0000 0.0000 0.0000
# 2 25.2135 76.5440 15.7330 0.0000 0.0000 0.0000
# 3 29.4053 15.7330 71.2202 0.0000 0.0000 0.0000
# 4 0.0000 0.0000 0.0000 23.5515 0.0000 0.0000
# 5 0.0000 0.0000 0.0000 0.0000 29.2956 0.0000
# 6 0.0000 0.0000 0.0000 0.0000 0.0000 30.7871
#
#
#
# Elastic Compliance Matrix: (Units=1/GPa)
#
#
# Indices 1 2 3 4 5 6 
#
# 1 0.013577 -0.003478 -0.004838 0.000000 0.000000 0.000000
# 2 -0.003478 0.014577 -0.001784 0.000000 0.000000 0.000000
# 3 -0.004838 -0.001784 0.016432 0.000000 0.000000 0.000000
# 4 0.000000 0.000000 0.000000 0.042460 0.000000 0.000000
# 5 0.000000 0.000000 0.000000 0.000000 0.034135 0.000000
# 6 0.000000 0.000000 0.000000 0.000000 0.000000 0.032481
#
#
# Mechanical properties :
#
#
# Convention : Reuss Voigt Hill
#
# Bulk Modulus (GPa) = 41.00501 42.11719 41.56110
# Shear Modulus (GPa) = 27.47385 27.92679 27.70032
#
# Velocity S-wave (km/s) = 3.57871 3.60808 3.59342
# Velocity P-wave (km/s) = 6.01589 6.08202 6.04904
#
# Compressibility (1/GPa) = 0.02438727
#
# Stress axis : x y z
#
# Youngs Moduli (GPa) = 73.65137 68.60231 60.85550
#
# Poissons Ratio (x) = 0.23861 0.29439
# Poissons Ratio (y) = 0.25617 0.10857
# Poissons Ratio (z) = 0.35629 0.12239
#
# Static dielectric constant tensor:
#      x y z
#    x 3.859200 0.000000 0.000000 
#    y 0.000000 3.957190 0.000000 
#    z 0.000000 0.000000 3.582120 
# 
# 
# High freq. dielectric constant tensor:
#      x y z
#    x 1.856730 0.000000 0.000000 
#    y 0.000000 1.848970 0.000000 
#    z 0.000000 0.000000 1.816870 
# 
# From -- ./inp_files/12824.got.cif
#   From: 2010.03.12/outbox.cif.g09.slc.cpg/sg54_7_cif.got.tgz:12824.got - 2010.04.16 15:00:50.
