data_PCOD8222816
_publ_section_title
;
Structure prediction by ZEFSAII (Michael W. Deem and Ramdas Pophale) SiO2 
 PCOD8222816
Probable space group: P C C A
;
_chemical_formula_sum "Si O2"
_cell_formula_units_Z 52
_cell_length_a 15.843870
_cell_length_b 18.761850
_cell_length_c 8.600519
_cell_angle_alpha 90.000000
_cell_angle_beta 90.000000
_cell_angle_gamma 90.000000
_cell_volume 2556.592964
_symmetry_space_group_name_H-M "P C C A"
_symmetry_group_IT_number 54
_symmetry_cell_setting 'orthorhombic'
loop_
_space_group_symop_operation_xyz
x,y,z
1/2-x,-y,z
1/2+x,-y,1/2-z
-x,y,1/2-z
-x,-y,-z
1/2+x,y,-z
1/2-x,y,1/2+z
x,-y,1/2+z
loop_
_atom_site_type_symbol
_atom_site_label
_atom_site_fract_x
_atom_site_fract_y
_atom_site_fract_z
Si Si1 0.186944 0.099492 0.532705
Si Si2 0.427331 0.691565 0.139504
Si Si3 0.584798 0.786220 0.846872
Si Si4 0.480786 0.576721 0.567730
Si Si5 0.750000 0.000000 0.708728
Si Si6 0.650009 0.330592 0.552760
Si Si7 0.196634 0.769363 0.442544
O O1 0.098163 0.139580 0.559632
O O2 0.205614 0.060855 0.693932
O O3 0.180340 0.039558 0.399463
O O4 0.258913 0.157417 0.490485
O O5 0.500000 0.723121 0.250000
O O6 0.359970 0.659031 0.262355
O O7 0.456921 0.630020 0.023023
O O8 0.386016 0.757670 0.048054
O O9 0.500000 0.788019 0.750000
O O10 0.666894 0.773706 0.736451
O O11 0.581444 0.724832 0.976581
O O12 0.500000 0.581005 0.750000
O O13 0.500000 0.500000 0.500000
O O14 0.381110 0.596321 0.532970
O O15 0.744076 0.300420 0.527000
#
# Coordination Sequence:
#
# PCOD8222816 Si02
#       7
#     8   8   8   8   4   8   8
#     4  10  21  37  63  82 117 161 207 250 309 387
#     4  10  21  36  58  89 122 158 205 259 306 363
#     4  11  21  36  58  91 123 157 204 259 317 359
#     4  11  22  40  63  90 129 173 203 243 310 368
#     4  10  20  40  60  84 116 162 204 244 318 388
#     4  10  20  35  59  88 122 160 208 254 291 368
#     4  11  21  37  60  92 119 160 210 262 309 362
#
# _framework density 20.339569999999998
#
# number of rings (size 3 to 8) (size 9 to 14) (size 15 to 20)
#    0.000    1.538    1.538    6.462    2.154    0.000 
#    0.000    1.538    0.000    5.538    0.000    0.000 
#    0.000    0.000    0.000    0.000    0.000    0.000 
#
# Total GULP energy -644251.807683 kJ/mol
# GULP energy per Si atom -12389.457840 kJ/mol
# Density = 2.029328 g / cm^3
# Si number density = 20.339570 Si / 1000 Ang^3
#
#
#
# Elastic Constant Matrix: (Units=GPa)
#
#
# Indices 1 2 3 4 5 6 
#
# 1 65.6241 40.4722 23.1748 0.0000 0.0000 0.0000
# 2 40.4722 107.7321 47.5861 0.0000 0.0000 0.0000
# 3 23.1748 47.5861 141.0112 0.0000 0.0000 0.0000
# 4 0.0000 0.0000 0.0000 38.0121 0.0000 0.0000
# 5 0.0000 0.0000 0.0000 0.0000 30.9310 0.0000
# 6 0.0000 0.0000 0.0000 0.0000 0.0000 30.4040
#
#
#
# Elastic Compliance Matrix: (Units=1/GPa)
#
#
# Indices 1 2 3 4 5 6 
#
# 1 0.019926 -0.007097 -0.000880 0.000000 0.000000 0.000000
# 2 -0.007097 0.013436 -0.003368 0.000000 0.000000 0.000000
# 3 -0.000880 -0.003368 0.008373 0.000000 0.000000 0.000000
# 4 0.000000 0.000000 0.000000 0.026307 0.000000 0.000000
# 5 0.000000 0.000000 0.000000 0.000000 0.032330 0.000000
# 6 0.000000 0.000000 0.000000 0.000000 0.000000 0.032890
#
#
# Mechanical properties :
#
#
# Convention : Reuss Voigt Hill
#
# Bulk Modulus (GPa) = 52.50595 59.64818 56.07706
# Shear Modulus (GPa) = 30.80707 33.41169 32.10938
#
# Velocity S-wave (km/s) = 3.89606 4.05741 3.97755
# Velocity P-wave (km/s) = 6.79041 7.16519 6.98032
#
# Compressibility (1/GPa) = 0.01904546
#
# Stress axis : x y z
#
# Youngs Moduli (GPa) = 50.18585 74.42664 119.43541
#
# Poissons Ratio (x) = 0.52821 0.10508
# Poissons Ratio (y) = 0.35617 0.40223
# Poissons Ratio (z) = 0.04415 0.25065
#
# Static dielectric constant tensor:
#      x y z
#    x 3.607080 0.000000 0.000000 
#    y 0.000000 3.691750 0.000000 
#    z 0.000000 0.000000 4.142900 
# 
# 
# High freq. dielectric constant tensor:
#      x y z
#    x 1.770290 0.000000 0.000000 
#    y 0.000000 1.780200 0.000000 
#    z 0.000000 0.000000 1.827830 
# 
# From -- ./inp_files/4322.got.cif
#   From: 2010.03.12/outbox.cif.g09.slc.cpg/sg54_3_cif.got.tgz:4322.got - 2010.04.16 15:00:50.
