data_PCOD8222239
_publ_section_title
;
Structure prediction by ZEFSAII (Michael W. Deem and Ramdas Pophale) SiO2 
 PCOD8222239
Probable space group: P M N A
;
_chemical_formula_sum "Si O2"
_cell_formula_units_Z 40
_cell_length_a 9.557084
_cell_length_b 13.843495
_cell_length_c 18.588074
_cell_angle_alpha 90.000000
_cell_angle_beta 90.000000
_cell_angle_gamma 90.000000
_cell_volume 2459.266218
_symmetry_space_group_name_H-M "P M N A"
_symmetry_group_IT_number 53
_symmetry_cell_setting 'orthorhombic'
loop_
_space_group_symop_operation_xyz
x,y,z
1/2-x,-y,1/2+z
x,-y,-z
1/2-x,y,1/2-z
-x,-y,-z
1/2+x,y,1/2-z
-x,y,z
1/2+x,-y,1/2+z
loop_
_atom_site_type_symbol
_atom_site_label
_atom_site_fract_x
_atom_site_fract_y
_atom_site_fract_z
Si Si1 0.655981 0.703753 0.966324
Si Si2 0.157410 0.541197 0.919688
Si Si3 0.166662 0.899485 0.470133
Si Si4 0.835664 0.825054 0.317890
Si Si5 0.345737 0.379510 0.874974
O O1 0.500000 0.705117 0.931662
O O2 0.761191 0.643423 0.915883
O O3 0.715932 0.812430 0.977381
O O4 0.645944 0.653361 0.043052
O O5 0.233862 0.465609 0.866313
O O6 0.000000 0.557172 0.891578
O O7 0.156215 0.500000 0.000000
O O8 0.217950 0.882735 0.388383
O O9 0.000000 0.899436 0.469931
O O10 0.228725 0.000000 0.500000
O O11 0.750000 0.865639 0.250000
O O12 0.800857 0.711473 0.326615
O O13 0.000000 0.841617 0.305286
O O14 0.500000 0.416931 0.852006
#
# Coordination Sequence:
#
# PCOD8222239 Si02
#       5
#     8   8   8   8   8
#     4   8  13  22  37  55  76 103 133 167 204 240
#     4   9  15  21  32  53  79 104 128 156 193 235
#     4   8  14  26  44  64  84 109 146 187 220 254
#     4   9  17  28  43  63  86 112 140 173 215 262
#     4   8  14  24  36  52  76 105 134 160 192 240
#
# _framework density 16.265014999999998
#
# number of rings (size 3 to 8) (size 9 to 14) (size 15 to 20)
#    0.000    3.600    0.000    3.000    0.000    3.200 
#    0.000    3.000    0.000    2.400    0.000    1.400 
#    0.000    3.200    0.000    0.000    0.000    0.000 
#
# Total GULP energy -495674.115220 kJ/mol
# GULP energy per Si atom -12391.852880 kJ/mol
# Density = 1.622799 g / cm^3
# Si number density = 16.265015 Si / 1000 Ang^3
#
#
#
# Elastic Constant Matrix: (Units=GPa)
#
#
# Indices 1 2 3 4 5 6 
#
# 1 80.2494 53.2163 28.0131 0.0000 0.0000 0.0000
# 2 53.2163 121.9271 35.8412 0.0000 0.0000 0.0000
# 3 28.0131 35.8412 44.3333 0.0000 0.0000 0.0000
# 4 0.0000 0.0000 0.0000 13.9297 0.0000 0.0000
# 5 0.0000 0.0000 0.0000 0.0000 16.3146 0.0000
# 6 0.0000 0.0000 0.0000 0.0000 0.0000 11.2556
#
#
#
# Elastic Compliance Matrix: (Units=1/GPa)
#
#
# Indices 1 2 3 4 5 6 
#
# 1 0.019049 -0.006265 -0.006972 0.000000 0.000000 0.000000
# 2 -0.006265 0.012819 -0.006405 0.000000 0.000000 0.000000
# 3 -0.006972 -0.006405 0.032140 0.000000 0.000000 0.000000
# 4 0.000000 0.000000 0.000000 0.071789 0.000000 0.000000
# 5 0.000000 0.000000 0.000000 0.000000 0.061295 0.000000
# 6 0.000000 0.000000 0.000000 0.000000 0.000000 0.088844
#
#
# Mechanical properties :
#
#
# Convention : Reuss Voigt Hill
#
# Bulk Modulus (GPa) = 40.44532 53.40564 46.92548
# Shear Modulus (GPa) = 14.99429 16.92928 15.96179
#
# Velocity S-wave (km/s) = 3.03953 3.22971 3.13606
# Velocity P-wave (km/s) = 6.10236 6.84207 6.48277
#
# Compressibility (1/GPa) = 0.02472474
#
# Stress axis : x y z
#
# Youngs Moduli (GPa) = 52.49534 78.01141 31.11417
#
# Poissons Ratio (x) = 0.48873 0.21693
# Poissons Ratio (y) = 0.32887 0.19928
# Poissons Ratio (z) = 0.36600 0.49964
#
# Static dielectric constant tensor:
#      x y z
#    x 3.072030 0.000000 0.000000 
#    y 0.000000 3.315530 0.000000 
#    z 0.000000 0.000000 2.659330 
# 
# 
# High freq. dielectric constant tensor:
#      x y z
#    x 1.609680 0.000000 0.000000 
#    y 0.000000 1.615520 0.000000 
#    z 0.000000 0.000000 1.572230 
# 
# From -- ./inp_files/25978.got.cif
#   From: 2010.03.12/outbox.cif.g09.slc.cpg/sg53_13_cif.got.tgz:25978.got - 2010.04.16 14:36:59.
