data_PCOD8222610
_publ_section_title
;
Structure prediction by ZEFSAII (Michael W. Deem and Ramdas Pophale) SiO2 
 PCOD8222610
Probable space group: P C C A
;
_chemical_formula_sum "Si O2"
_cell_formula_units_Z 36
_cell_length_a 5.084540
_cell_length_b 21.855132
_cell_length_c 17.203663
_cell_angle_alpha 90.000000
_cell_angle_beta 90.000000
_cell_angle_gamma 90.000000
_cell_volume 1911.727682
_symmetry_space_group_name_H-M "P C C A"
_symmetry_group_IT_number 54
_symmetry_cell_setting 'orthorhombic'
loop_
_space_group_symop_operation_xyz
x,y,z
1/2-x,-y,z
1/2+x,-y,1/2-z
-x,y,1/2-z
-x,-y,-z
1/2+x,y,-z
1/2-x,y,1/2+z
x,-y,1/2+z
loop_
_atom_site_type_symbol
_atom_site_label
_atom_site_fract_x
_atom_site_fract_y
_atom_site_fract_z
Si Si1 0.750000 0.000000 0.802026
Si Si2 0.875058 0.356907 0.952579
Si Si3 0.136342 0.785233 0.049078
Si Si4 0.750419 0.867424 0.804635
Si Si5 0.497743 0.461667 0.158661
O O1 0.781631 0.934964 0.846935
O O2 0.500000 0.989508 0.750000
O O3 0.876237 0.286035 0.929539
O O4 0.973320 0.394844 0.878513
O O5 0.078727 0.372995 0.021892
O O6 0.216104 0.818801 0.127658
O O7 0.349970 0.803241 0.983335
O O8 0.500000 0.864080 0.750000
O O9 0.000000 0.852470 0.750000
O O10 0.250000 0.500000 0.130226
O O11 0.500000 0.450799 0.250000
O O12 0.750000 0.500000 0.130461
#
# Coordination Sequence:
#
# PCOD8222610 Si02
#       5
#     4   8   8   8   8
#     4   8  16  30  50  76 106 134 172 224 264 304
#     4  10  21  36  54  75 101 136 172 206 250 307
#     4  10  21  37  53  76 111 141 171 219 269 309
#     4  10  19  34  56  80 104 140 184 220 261 317
#     4  10  21  36  53  76 104 130 162 211 260 298
#
# _framework density 18.831133999999999
#
# number of rings (size 3 to 8) (size 9 to 14) (size 15 to 20)
#    0.000    2.222    0.000    2.667    0.000    3.556 
#    0.000    4.444    0.000    0.000    0.000    0.000 
#    0.000    0.000    0.000    0.000    0.000    0.000 
#
# Total GULP energy -446097.282675 kJ/mol
# GULP energy per Si atom -12391.591185 kJ/mol
# Density = 1.878827 g / cm^3
# Si number density = 18.831134 Si / 1000 Ang^3
#
#
#
# Elastic Constant Matrix: (Units=GPa)
#
#
# Indices 1 2 3 4 5 6 
#
# 1 131.9309 45.8840 32.3793 0.0000 0.0000 0.0000
# 2 45.8840 116.0737 68.9425 0.0000 0.0000 0.0000
# 3 32.3793 68.9425 72.9671 0.0000 0.0000 0.0000
# 4 0.0000 0.0000 0.0000 33.5793 0.0000 0.0000
# 5 0.0000 0.0000 0.0000 0.0000 13.3563 0.0000
# 6 0.0000 0.0000 0.0000 0.0000 0.0000 24.9911
#
#
#
# Elastic Compliance Matrix: (Units=1/GPa)
#
#
# Indices 1 2 3 4 5 6 
#
# 1 0.008852 -0.002657 -0.001417 0.000000 0.000000 0.000000
# 2 -0.002657 0.020431 -0.018125 0.000000 0.000000 0.000000
# 3 -0.001417 -0.018125 0.031459 0.000000 0.000000 0.000000
# 4 0.000000 0.000000 0.000000 0.029780 0.000000 0.000000
# 5 0.000000 0.000000 0.000000 0.000000 0.074871 0.000000
# 6 0.000000 0.000000 0.000000 0.000000 0.000000 0.040014
#
#
# Mechanical properties :
#
#
# Convention : Reuss Voigt Hill
#
# Bulk Modulus (GPa) = 61.18924 68.37590 64.78257
# Shear Modulus (GPa) = 19.58831 25.96972 22.77901
#
# Velocity S-wave (km/s) = 3.22873 3.71763 3.48177
# Velocity P-wave (km/s) = 6.81643 7.40382 7.11619
#
# Compressibility (1/GPa) = 0.01634274
#
# Stress axis : x y z
#
# Youngs Moduli (GPa) = 112.97220 48.94500 31.78741
#
# Poissons Ratio (x) = 0.13006 0.04505
# Poissons Ratio (y) = 0.30021 0.57615
# Poissons Ratio (z) = 0.16010 0.88713
#
# Static dielectric constant tensor:
#      x y z
#    x 4.185840 0.000000 0.000000 
#    y 0.000000 3.810520 0.000000 
#    z 0.000000 0.000000 2.990020 
# 
# 
# High freq. dielectric constant tensor:
#      x y z
#    x 1.760220 0.000000 0.000000 
#    y 0.000000 1.741960 0.000000 
#    z 0.000000 0.000000 1.696310 
# 
# From -- ./inp_files/10808.got.cif
#   From: 2010.03.12/outbox.cif.g09.slc.cpg/sg54_6_cif.got.tgz:10808.got - 2010.04.16 15:00:50.
