data_PCOD8222922
_publ_section_title
;
Structure prediction by ZEFSAII (Michael W. Deem and Ramdas Pophale) SiO2 
 PCOD8222922
Probable space group: P C C A
;
_chemical_formula_sum "Si O2"
_cell_formula_units_Z 44
_cell_length_a 9.207656
_cell_length_b 13.446551
_cell_length_c 16.715653
_cell_angle_alpha 90.000000
_cell_angle_beta 90.000000
_cell_angle_gamma 90.000000
_cell_volume 2069.585324
_symmetry_space_group_name_H-M "P C C A"
_symmetry_group_IT_number 54
_symmetry_cell_setting 'orthorhombic'
loop_
_space_group_symop_operation_xyz
x,y,z
1/2-x,-y,z
1/2+x,-y,1/2-z
-x,y,1/2-z
-x,-y,-z
1/2+x,y,-z
1/2-x,y,1/2+z
x,-y,1/2+z
loop_
_atom_site_type_symbol
_atom_site_label
_atom_site_fract_x
_atom_site_fract_y
_atom_site_fract_z
Si Si1 0.310578 0.820709 0.063101
Si Si2 0.304155 0.603217 0.872517
Si Si3 0.997395 0.677195 0.663808
Si Si4 0.000000 0.119843 0.750000
Si Si5 0.520118 0.223088 0.083353
Si Si6 0.000000 0.487409 0.750000
Si Si7 0.750000 0.000000 0.328142
O O1 0.399350 0.730003 0.101218
O O2 0.144787 0.786440 0.054922
O O3 0.328625 0.919854 0.115117
O O4 0.378734 0.842242 0.975816
O O5 0.250000 0.500000 0.913889
O O6 0.169046 0.678460 0.866148
O O7 0.428676 0.661079 0.922377
O O8 0.367401 0.579184 0.783190
O O9 0.050067 0.561843 0.677425
O O10 0.000000 0.733842 0.750000
O O11 0.958173 0.187592 0.674369
O O12 0.134828 0.050650 0.729420
#
# Coordination Sequence:
#
# PCOD8222922 Si02
#       7
#     8   8   8   4   8   4   4
#     4  11  25  45  64  98 128 176 210 278 333 385
#     4  10  20  37  62  93 128 175 218 265 308 387
#     4   9  21  35  63  93 130 173 211 262 324 374
#     4  10  25  41  70 100 124 176 210 273 315 402
#     4  11  25  43  67  93 137 170 219 267 336 377
#     4   8  19  33  62  96 132 170 220 259 315 380
#     4  10  26  42  68 100 126 166 228 256 332 390
#
# _framework density 21.260297000000001
#
# number of rings (size 3 to 8) (size 9 to 14) (size 15 to 20)
#    0.545    1.455    0.000    1.636    8.909    5.091 
#    0.000    8.182    0.000    0.000    0.000    0.000 
#    0.000    0.000    0.000    0.000    0.000    0.000 
#
# Total GULP energy -545275.371974 kJ/mol
# GULP energy per Si atom -12392.622090 kJ/mol
# Density = 2.121191 g / cm^3
# Si number density = 21.260297 Si / 1000 Ang^3
#
#
#
# Elastic Constant Matrix: (Units=GPa)
#
#
# Indices 1 2 3 4 5 6 
#
# 1 136.1749 60.1185 59.3723 0.0000 0.0000 0.0000
# 2 60.1185 91.4984 36.9214 0.0000 0.0000 0.0000
# 3 59.3723 36.9214 117.6250 0.0000 0.0000 0.0000
# 4 0.0000 0.0000 0.0000 -9.7512 0.0000 0.0000
# 5 0.0000 0.0000 0.0000 0.0000 39.0929 0.0000
# 6 0.0000 0.0000 0.0000 0.0000 0.0000 33.7272
#
#
#
# Elastic Compliance Matrix: (Units=1/GPa)
#
#
# Indices 1 2 3 4 5 6 
#
# 1 0.011810 -0.006131 -0.004037 0.000000 0.000000 0.000000
# 2 -0.006131 0.015697 -0.001832 0.000000 0.000000 0.000000
# 3 -0.004037 -0.001832 0.011114 0.000000 0.000000 0.000000
# 4 0.000000 0.000000 0.000000 -0.102551 0.000000 0.000000
# 5 0.000000 0.000000 0.000000 0.000000 0.025580 0.000000
# 6 0.000000 0.000000 0.000000 0.000000 0.000000 0.029650
#
#
# Mechanical properties :
#
#
# Convention : Reuss Voigt Hill
#
# Bulk Modulus (GPa) = 68.39467 73.12477 70.75972
# Shear Modulus (GPa) = 247.83991 25.20620 136.52306
#
# Velocity S-wave (km/s) = 10.80866 3.44699 8.02212
# Velocity P-wave (km/s) = 13.71166 7.09309 10.91608
#
# Compressibility (1/GPa) = 0.01462102
#
# Stress axis : x y z
#
# Youngs Moduli (GPa) = 84.67227 63.70708 89.97291
#
# Poissons Ratio (x) = 0.39058 0.36321
# Poissons Ratio (y) = 0.51911 0.16487
# Poissons Ratio (z) = 0.34181 0.11674
#
# Static dielectric constant tensor:
#      x y z
#    x 3.871750 0.000000 0.000000 
#    y 0.000000 3.766930 0.000000 
#    z 0.000000 0.000000 3.760670 
# 
# 
# High freq. dielectric constant tensor:
#      x y z
#    x 1.841030 0.000000 0.000000 
#    y 0.000000 1.823440 0.000000 
#    z 0.000000 0.000000 1.819860 
# 
# From -- ./inp_files/16555.got.cif
#   From: 2010.03.12/outbox.cif.g09.slc.cpg/sg54_9_cif.got.tgz:16555.got - 2010.04.16 15:00:50.
