data_PCOD8222298
_publ_section_title
;
Structure prediction by ZEFSAII (Michael W. Deem and Ramdas Pophale) SiO2 
 PCOD8222298
Probable space group: P C C A
;
_chemical_formula_sum "Si O2"
_cell_formula_units_Z 48
_cell_length_a 26.671904
_cell_length_b 21.931500
_cell_length_c 5.323448
_cell_angle_alpha 90.000000
_cell_angle_beta 90.000000
_cell_angle_gamma 90.000000
_cell_volume 3113.976793
_symmetry_space_group_name_H-M "P C C A"
_symmetry_group_IT_number 54
_symmetry_cell_setting 'orthorhombic'
loop_
_space_group_symop_operation_xyz
x,y,z
1/2-x,-y,z
1/2+x,-y,1/2-z
-x,y,1/2-z
-x,-y,-z
1/2+x,y,-z
1/2-x,y,1/2+z
x,-y,1/2+z
loop_
_atom_site_type_symbol
_atom_site_label
_atom_site_fract_x
_atom_site_fract_y
_atom_site_fract_z
Si Si1 0.782074 0.858845 0.987618
Si Si2 0.864990 0.961002 0.989257
Si Si3 0.805926 0.525541 0.480483
Si Si4 0.521188 0.068355 0.000029
Si Si5 0.693733 0.720898 0.484496
Si Si6 0.305934 0.669658 0.515514
O O1 0.756010 0.866915 0.718208
O O2 0.808271 0.793362 0.003951
O O3 0.824369 0.908900 0.016703
O O4 0.857869 0.006679 0.221533
O O5 0.919144 0.929987 0.002143
O O6 0.750000 0.500000 0.454575
O O7 0.833569 0.495885 0.723286
O O8 0.805091 0.597563 0.506269
O O9 0.500000 0.101935 0.750000
O O10 0.500000 0.101936 0.250000
O O11 0.500000 0.000000 0.000000
O O12 0.666331 0.691602 0.728629
O O13 0.750224 0.696384 0.464217
O O14 0.666280 0.698163 0.228808
#
# Coordination Sequence:
#
# PCOD8222298 Si02
#       6
#     8   8   8   8   8   8
#     4  12  23  37  47  61  90 117 147 189 208 249
#     4  12  23  35  52  73  86 113 141 167 229 283
#     4  10  16  22  31  54  77  88 114 174 232 252
#     4  10  16  32  56  71  90 104 129 166 208 275
#     4  10  16  29  41  53  65 103 150 170 198 237
#     4  10  16  25  43  50  67 103 144 164 214 258
#
# _framework density 15.414372999999999
#
# number of rings (size 3 to 8) (size 9 to 14) (size 15 to 20)
#    0.000    1.333    6.667    6.000    0.000    2.000 
#    0.000    0.000    0.000    0.000    0.000    0.000 
#    0.000    0.000    0.000    0.000    0.000    0.000 
#
# Total GULP energy -594824.300761 kJ/mol
# GULP energy per Si atom -12392.172933 kJ/mol
# Density = 1.537929 g / cm^3
# Si number density = 15.414373 Si / 1000 Ang^3
#
#
#
# Elastic Constant Matrix: (Units=GPa)
#
#
# Indices 1 2 3 4 5 6 
#
# 1 24.4108 20.0404 7.4934 0.0000 0.0000 0.0000
# 2 20.0404 61.9199 11.1872 0.0000 0.0000 0.0000
# 3 7.4934 11.1872 138.7390 0.0000 0.0000 0.0000
# 4 0.0000 0.0000 0.0000 11.2380 0.0000 0.0000
# 5 0.0000 0.0000 0.0000 0.0000 10.6168 0.0000
# 6 0.0000 0.0000 0.0000 0.0000 0.0000 -0.7622
#
#
#
# Elastic Compliance Matrix: (Units=1/GPa)
#
#
# Indices 1 2 3 4 5 6 
#
# 1 0.056132 -0.017880 -0.001590 0.000000 0.000000 0.000000
# 2 -0.017880 0.022084 -0.000815 0.000000 0.000000 0.000000
# 3 -0.001590 -0.000815 0.007359 0.000000 0.000000 0.000000
# 4 0.000000 0.000000 0.000000 0.088984 0.000000 0.000000
# 5 0.000000 0.000000 0.000000 0.000000 0.094190 0.000000
# 6 0.000000 0.000000 0.000000 0.000000 0.000000 -1.312054
#
#
# Mechanical properties :
#
#
# Convention : Reuss Voigt Hill
#
# Bulk Modulus (GPa) = 22.21937 33.61238 27.91587
# Shear Modulus (GPa) = -5.06210 16.64177 5.78983
#
# Velocity S-wave (km/s) = -1.81415 3.28933 1.94018
# Velocity P-wave (km/s) = 3.17140 6.02325 4.81338
#
# Compressibility (1/GPa) = 0.04500579
#
# Stress axis : x y z
#
# Youngs Moduli (GPa) = 17.81501 45.28163 135.88107
#
# Poissons Ratio (x) = 0.80964 0.21605
# Poissons Ratio (y) = 0.31853 0.11075
# Poissons Ratio (z) = 0.02833 0.03691
#
# Static dielectric constant tensor:
#      x y z
#    x 2.403980 0.000000 0.000000 
#    y 0.000000 2.852690 0.000000 
#    z 0.000000 0.000000 6.943610 
# 
# 
# High freq. dielectric constant tensor:
#      x y z
#    x 1.504530 0.000000 0.000000 
#    y 0.000000 1.577750 0.000000 
#    z 0.000000 0.000000 1.641170 
# 
# From -- ./inp_files/1347.got.cif
#   From: 2010.03.12/outbox.cif.g09.slc.cpg/sg54_1_cif.got.tgz:1347.got - 2010.04.16 15:00:50.
