data_PCOD8222376
_publ_section_title
;
Structure prediction by ZEFSAII (Michael W. Deem and Ramdas Pophale) SiO2 
 PCOD8222376
Probable space group: P C C A
;
_chemical_formula_sum "Si O2"
_cell_formula_units_Z 64
_cell_length_a 8.789771
_cell_length_b 19.662776
_cell_length_c 18.102240
_cell_angle_alpha 90.000000
_cell_angle_beta 90.000000
_cell_angle_gamma 90.000000
_cell_volume 3128.633641
_symmetry_space_group_name_H-M "P C C A"
_symmetry_group_IT_number 54
_symmetry_cell_setting 'orthorhombic'
loop_
_space_group_symop_operation_xyz
x,y,z
1/2-x,-y,z
1/2+x,-y,1/2-z
-x,y,1/2-z
-x,-y,-z
1/2+x,y,-z
1/2-x,y,1/2+z
x,-y,1/2+z
loop_
_atom_site_type_symbol
_atom_site_label
_atom_site_fract_x
_atom_site_fract_y
_atom_site_fract_z
Si Si1 0.425380 0.384408 0.669986
Si Si2 0.420813 0.352401 0.173796
Si Si3 0.501147 0.750785 0.098203
Si Si4 0.504200 0.150866 0.475683
Si Si5 0.181788 0.206713 0.650315
Si Si6 0.215052 0.921615 0.922137
Si Si7 0.340904 0.836573 0.290050
Si Si8 0.071866 0.518499 0.331104
O O1 0.500000 0.369776 0.750000
O O2 0.245579 0.385941 0.683600
O O3 0.477622 0.329358 0.609215
O O4 0.481948 0.455029 0.633617
O O5 0.500000 0.334609 0.250000
O O6 0.402390 0.279067 0.135715
O O7 0.528224 0.408689 0.130076
O O8 0.353016 0.791519 0.122839
O O9 0.640246 0.774966 0.150657
O O10 0.524504 0.773681 0.013031
O O11 0.592388 0.150646 0.397271
O O12 0.561298 0.093802 0.533187
O O13 0.333116 0.130207 0.459450
O O14 0.199687 0.183912 0.736303
O O15 0.201264 0.904881 0.835002
O O16 0.250000 0.000000 0.931946
O O17 0.500000 0.850239 0.250000
O O18 0.250000 0.500000 0.330967
O O19 0.000000 0.528184 0.250000
#
# Coordination Sequence:
#
# PCOD8222376 Si02
#       8
#     8   8   8   8   8   8   8   8
#     4  10  17  30  52  76 110 154 198 244 305 354
#     4  10  19  29  48  78 113 146 192 245 301 346
#     4   9  18  36  58  84 113 161 195 245 302 354
#     4  11  22  41  63  89 122 154 208 242 292 364
#     4  10  20  36  58  88 117 151 197 252 299 345
#     4  11  24  43  65  90 122 165 199 244 299 366
#     4   9  20  39  62  87 126 154 196 251 309 356
#     4  10  18  29  43  73 114 154 195 240 296 358
#
# _framework density 20.456213999999999
#
# number of rings (size 3 to 8) (size 9 to 14) (size 15 to 20)
#    0.000    2.000    1.250    5.625    1.750    0.000 
#    4.500    0.000    0.000    0.750    0.000    0.000 
#    0.000    0.000    0.000    0.000    0.000    0.000 
#
# Total GULP energy -792882.184394 kJ/mol
# GULP energy per Si atom -12388.784131 kJ/mol
# Density = 2.040965 g / cm^3
# Si number density = 20.456214 Si / 1000 Ang^3
#
#
#
# Elastic Constant Matrix: (Units=GPa)
#
#
# Indices 1 2 3 4 5 6 
#
# 1 72.3698 25.1261 27.6416 0.0000 0.0000 0.0000
# 2 25.1261 102.4358 36.4899 0.0000 0.0000 0.0000
# 3 27.6416 36.4899 82.7171 0.0000 0.0000 0.0000
# 4 0.0000 0.0000 0.0000 12.7242 0.0000 0.0000
# 5 0.0000 0.0000 0.0000 0.0000 23.0191 0.0000
# 6 0.0000 0.0000 0.0000 0.0000 0.0000 23.5153
#
#
#
# Elastic Compliance Matrix: (Units=1/GPa)
#
#
# Indices 1 2 3 4 5 6 
#
# 1 0.016341 -0.002448 -0.004381 0.000000 0.000000 0.000000
# 2 -0.002448 0.011949 -0.004453 0.000000 0.000000 0.000000
# 3 -0.004381 -0.004453 0.015518 0.000000 0.000000 0.000000
# 4 0.000000 0.000000 0.000000 0.078591 0.000000 0.000000
# 5 0.000000 0.000000 0.000000 0.000000 0.043442 0.000000
# 6 0.000000 0.000000 0.000000 0.000000 0.000000 0.042526
#
#
# Mechanical properties :
#
#
# Convention : Reuss Voigt Hill
#
# Bulk Modulus (GPa) = 47.07163 48.44864 47.76013
# Shear Modulus (GPa) = 21.00742 23.06938 22.03840
#
# Velocity S-wave (km/s) = 3.20808 3.36183 3.28585
# Velocity P-wave (km/s) = 6.06492 6.22934 6.14768
#
# Compressibility (1/GPa) = 0.02124422
#
# Stress axis : x y z
#
# Youngs Moduli (GPa) = 61.19573 83.68962 64.44182
#
# Poissons Ratio (x) = 0.20484 0.28231
# Poissons Ratio (y) = 0.14978 0.28697
# Poissons Ratio (z) = 0.26809 0.37269
#
# Static dielectric constant tensor:
#      x y z
#    x 3.805730 0.000000 0.000000 
#    y 0.000000 3.790020 0.000000 
#    z 0.000000 0.000000 3.570430 
# 
# 
# High freq. dielectric constant tensor:
#      x y z
#    x 1.808560 0.000000 0.000000 
#    y 0.000000 1.792460 0.000000 
#    z 0.000000 0.000000 1.763880 
# 
# From -- ./inp_files/16870.got.cif
#   From: 2010.03.12/outbox.cif.g09.slc.cpg/sg54_9_cif.got.tgz:16870.got - 2010.04.16 15:00:50.
