data_PCOD8222705
_publ_section_title
;
Structure prediction by ZEFSAII (Michael W. Deem and Ramdas Pophale) SiO2 
 PCOD8222705
Probable space group: P C C A
;
_chemical_formula_sum "Si O2"
_cell_formula_units_Z 56
_cell_length_a 14.216230
_cell_length_b 11.854390
_cell_length_c 15.796649
_cell_angle_alpha 90.000000
_cell_angle_beta 90.000000
_cell_angle_gamma 90.000000
_cell_volume 2662.126083
_symmetry_space_group_name_H-M "P C C A"
_symmetry_group_IT_number 54
_symmetry_cell_setting 'orthorhombic'
loop_
_space_group_symop_operation_xyz
x,y,z
1/2-x,-y,z
1/2+x,-y,1/2-z
-x,y,1/2-z
-x,-y,-z
1/2+x,y,-z
1/2-x,y,1/2+z
x,-y,1/2+z
loop_
_atom_site_type_symbol
_atom_site_label
_atom_site_fract_x
_atom_site_fract_y
_atom_site_fract_z
Si Si1 0.993810 0.143318 0.158006
Si Si2 0.351538 0.960691 0.893095
Si Si3 0.519738 0.649922 0.034655
Si Si4 0.639742 0.999296 0.922993
Si Si5 0.371826 0.731844 0.810263
Si Si6 0.851826 0.546924 0.056882
Si Si7 0.918817 0.752422 0.370256
O O1 0.974275 0.237653 0.088640
O O2 0.000000 0.201486 0.250000
O O3 0.093334 0.082266 0.144702
O O4 0.911706 0.049134 0.161060
O O5 0.326356 0.846795 0.843353
O O6 0.250000 0.000000 0.919055
O O7 0.397990 0.951314 0.986605
O O8 0.575831 0.552156 0.084488
O O9 0.409708 0.618231 0.015172
O O10 0.580040 0.663620 0.947423
O O11 0.603383 0.873110 0.909484
O O12 0.750000 0.000000 0.907375
O O13 0.331236 0.624015 0.860665
O O14 0.351231 0.717234 0.708955
O O15 0.479609 0.753680 0.829587
O O16 0.750000 0.500000 0.024653
#
# Coordination Sequence:
#
# PCOD8222705 Si02
#       7
#     8   8   8   8   8   8   8
#     4  12  24  41  64  96 135 165 211 274 324 377
#     4  11  23  38  65  95 133 172 206 261 326 390
#     4  10  23  44  65  91 125 173 211 265 324 383
#     4  11  22  37  61  94 133 169 208 249 318 398
#     4  10  21  37  63  92 120 167 211 256 313 378
#     4  10  23  44  67  89 123 164 219 265 316 379
#     4  10  19  38  62  87 125 163 209 252 309 387
#
# _framework density 21.035820000000001
#
# number of rings (size 3 to 8) (size 9 to 14) (size 15 to 20)
#    0.000    1.429    2.857    3.000    2.000    3.429 
#    7.714    0.714    0.000    0.000    0.000    0.000 
#    0.000    0.000    0.000    0.000    0.000    0.000 
#
# Total GULP energy -693883.177395 kJ/mol
# GULP energy per Si atom -12390.771025 kJ/mol
# Density = 2.098794 g / cm^3
# Si number density = 21.035820 Si / 1000 Ang^3
#
#
#
# Elastic Constant Matrix: (Units=GPa)
#
#
# Indices 1 2 3 4 5 6 
#
# 1 51.7804 37.8031 49.1517 0.0000 0.0000 0.0000
# 2 37.8031 114.9066 42.6257 0.0000 0.0000 0.0000
# 3 49.1517 42.6257 114.4049 0.0000 0.0000 0.0000
# 4 0.0000 0.0000 0.0000 13.0919 0.0000 0.0000
# 5 0.0000 0.0000 0.0000 0.0000 -124.2267 0.0000
# 6 0.0000 0.0000 0.0000 0.0000 0.0000 -138.6243
#
#
#
# Elastic Compliance Matrix: (Units=1/GPa)
#
#
# Indices 1 2 3 4 5 6 
#
# 1 0.037275 -0.007336 -0.013281 0.000000 0.000000 0.000000
# 2 -0.007336 0.011542 -0.001149 0.000000 0.000000 0.000000
# 3 -0.013281 -0.001149 0.014875 0.000000 0.000000 0.000000
# 4 0.000000 0.000000 0.000000 0.076383 0.000000 0.000000
# 5 0.000000 0.000000 0.000000 0.000000 -0.008050 0.000000
# 6 0.000000 0.000000 0.000000 0.000000 0.000000 -0.007214
#
#
# Mechanical properties :
#
#
# Convention : Reuss Voigt Hill
#
# Bulk Modulus (GPa) = 49.60268 60.02809 54.81539
# Shear Modulus (GPa) = 28.56091 -39.85107 -5.64508
#
# Velocity S-wave (km/s) = 3.68873 -4.35724 -1.63993
# Velocity P-wave (km/s) = 6.46325 1.81220 4.74646
#
# Compressibility (1/GPa) = 0.02016020
#
# Stress axis : x y z
#
# Youngs Moduli (GPa) = 26.82748 86.63692 67.22793
#
# Poissons Ratio (x) = 0.63561 0.89286
# Poissons Ratio (y) = 0.19682 0.07722
# Poissons Ratio (z) = 0.35630 0.09951
#
# Static dielectric constant tensor:
#      x y z
#    x 3.646050 0.000000 0.000000 
#    y 0.000000 5.501220 0.000000 
#    z 0.000000 0.000000 5.367240 
# 
# 
# High freq. dielectric constant tensor:
#      x y z
#    x 1.813100 0.000000 0.000000 
#    y 0.000000 1.820940 0.000000 
#    z 0.000000 0.000000 1.822920 
# 
# From -- ./inp_files/13479.got.cif
#   From: 2010.03.12/outbox.cif.g09.slc.cpg/sg54_7_cif.got.tgz:13479.got - 2010.04.16 15:00:50.
