data_PCOD8222184
_publ_section_title
;
Structure prediction by ZEFSAII (Michael W. Deem and Ramdas Pophale) SiO2 
 PCOD8222184
Probable space group: P M N A
;
_chemical_formula_sum "Si O2"
_cell_formula_units_Z 64
_cell_length_a 18.495343
_cell_length_b 21.940177
_cell_length_c 8.159630
_cell_angle_alpha 90.000000
_cell_angle_beta 90.000000
_cell_angle_gamma 90.000000
_cell_volume 3311.105226
_symmetry_space_group_name_H-M "P M N A"
_symmetry_group_IT_number 53
_symmetry_cell_setting 'orthorhombic'
loop_
_space_group_symop_operation_xyz
x,y,z
1/2-x,-y,1/2+z
x,-y,-z
1/2-x,y,1/2-z
-x,-y,-z
1/2+x,y,1/2-z
-x,y,z
1/2+x,-y,1/2+z
loop_
_atom_site_type_symbol
_atom_site_label
_atom_site_fract_x
_atom_site_fract_y
_atom_site_fract_z
Si Si1 0.669345 0.388956 0.186250
Si Si2 0.414101 0.141095 0.682145
Si Si3 0.913829 0.069339 0.500159
Si Si4 0.421189 0.499908 0.687993
Si Si5 0.669348 0.611190 0.186306
Si Si6 0.917702 0.279454 0.810594
Si Si7 0.914104 0.858830 0.817435
Si Si8 0.917698 0.279556 0.189378
O O1 0.750000 0.386642 0.250000
O O2 0.623147 0.439565 0.276557
O O3 0.633460 0.322845 0.205571
O O4 0.671490 0.408553 0.999915
O O5 0.500000 0.137308 0.679190
O O6 0.383217 0.100414 0.832442
O O7 0.390138 0.210487 0.715123
O O8 0.385969 0.119969 0.499760
O O9 0.883202 0.100536 0.332939
O O10 0.000000 0.073694 0.500154
O O11 0.886799 0.000000 0.500000
O O12 0.438366 0.500000 0.500000
O O13 0.500000 0.499829 0.779320
O O14 0.376763 0.439381 0.722958
O O15 0.750000 0.613669 0.250000
O O16 0.633391 0.677287 0.205285
O O17 0.000000 0.286289 0.748222
O O18 0.912349 0.298342 0.999950
O O19 0.890180 0.789415 0.784652
O O20 0.000000 0.862654 0.820358
O O21 0.000000 0.286463 0.251720
#
# Coordination Sequence:
#
# PCOD8222184 Si02
#       8
#     8   8   8   8   8   8   8   8
#     4  12  25  39  57  81 111 144 178 226 274 326
#     4   8  15  27  43  65  97 137 177 220 270 323
#     4   9  16  24  38  64 100 139 179 221 265 323
#     4  11  24  43  64  83 109 143 180 221 268 325
#     4  12  25  39  57  81 111 144 178 226 274 326
#     4   9  18  34  55  78 105 140 181 225 274 328
#     4   8  15  27  43  65  97 137 177 220 270 323
#     4   9  18  34  55  78 105 140 181 225 274 328
#
# _framework density 19.328893000000001
#
# number of rings (size 3 to 8) (size 9 to 14) (size 15 to 20)
#    0.000    2.250    0.000    5.250    1.750    5.000 
#    0.000    2.500    0.000    0.000    0.000    0.000 
#    0.000    1.000    0.500    0.000    0.000    0.000 
#
# Total GULP energy -793348.685102 kJ/mol
# GULP energy per Si atom -12396.073205 kJ/mol
# Density = 1.928490 g / cm^3
# Si number density = 19.328893 Si / 1000 Ang^3
#
#
#
# Elastic Constant Matrix: (Units=GPa)
#
#
# Indices 1 2 3 4 5 6 
#
# 1 81.8774 41.5229 28.2402 0.0000 0.0000 0.0000
# 2 41.5229 128.8792 62.4223 0.0000 0.0000 0.0000
# 3 28.2402 62.4223 120.8946 0.0000 0.0000 0.0000
# 4 0.0000 0.0000 0.0000 36.3325 0.0000 0.0000
# 5 0.0000 0.0000 0.0000 0.0000 22.7194 0.0000
# 6 0.0000 0.0000 0.0000 0.0000 0.0000 -3.2664
#
#
#
# Elastic Compliance Matrix: (Units=1/GPa)
#
#
# Indices 1 2 3 4 5 6 
#
# 1 0.014756 -0.004113 -0.001323 0.000000 0.000000 0.000000
# 2 -0.004113 0.011493 -0.004974 0.000000 0.000000 0.000000
# 3 -0.001323 -0.004974 0.011149 0.000000 0.000000 0.000000
# 4 0.000000 0.000000 0.000000 0.027524 0.000000 0.000000
# 5 0.000000 0.000000 0.000000 0.000000 0.044015 0.000000
# 6 0.000000 0.000000 0.000000 0.000000 0.000000 -0.306143
#
#
# Mechanical properties :
#
#
# Convention : Reuss Voigt Hill
#
# Bulk Modulus (GPa) = 60.32065 66.22466 63.27265
# Shear Modulus (GPa) = -29.26356 24.45481 -2.40438
#
# Velocity S-wave (km/s) = -3.89521 3.56082 -1.11653
# Velocity P-wave (km/s) = 3.32341 7.15837 5.58065
#
# Compressibility (1/GPa) = 0.01657807
#
# Stress axis : x y z
#
# Youngs Moduli (GPa) = 67.77047 87.00640 89.69590
#
# Poissons Ratio (x) = 0.35788 0.11867
# Poissons Ratio (y) = 0.27876 0.44611
# Poissons Ratio (z) = 0.08966 0.43274
#
# Static dielectric constant tensor:
#      x y z
#    x 3.139350 0.000000 0.000000 
#    y 0.000000 3.593200 0.000000 
#    z 0.000000 0.000000 3.843360 
# 
# 
# High freq. dielectric constant tensor:
#      x y z
#    x 1.706910 0.000000 0.000000 
#    y 0.000000 1.754490 0.000000 
#    z 0.000000 0.000000 1.764300 
# 
# From -- ./inp_files/10271.got.cif
#   From: 2010.03.12/outbox.cif.g09.slc.cpg/sg53_6_cif.got.tgz:10271.got - 2010.04.16 14:36:59.
