data_PCOD8222927
_publ_section_title
;
Structure prediction by ZEFSAII (Michael W. Deem and Ramdas Pophale) SiO2 
 PCOD8222927
Probable space group: P C C A
;
_chemical_formula_sum "Si O2"
_cell_formula_units_Z 64
_cell_length_a 16.976476
_cell_length_b 11.452092
_cell_length_c 16.050428
_cell_angle_alpha 90.000000
_cell_angle_beta 90.000000
_cell_angle_gamma 90.000000
_cell_volume 3120.462658
_symmetry_space_group_name_H-M "P C C A"
_symmetry_group_IT_number 54
_symmetry_cell_setting 'orthorhombic'
loop_
_space_group_symop_operation_xyz
x,y,z
1/2-x,-y,z
1/2+x,-y,1/2-z
-x,y,1/2-z
-x,-y,-z
1/2+x,y,-z
1/2-x,y,1/2+z
x,-y,1/2+z
loop_
_atom_site_type_symbol
_atom_site_label
_atom_site_fract_x
_atom_site_fract_y
_atom_site_fract_z
Si Si1 0.659197 0.490687 0.401974
Si Si2 0.942286 0.850394 0.352842
Si Si3 0.662020 0.741611 0.980317
Si Si4 0.614693 0.218744 0.119855
Si Si5 0.724820 0.878050 0.132134
Si Si6 0.334425 0.054968 0.693910
Si Si7 0.415317 0.382753 0.248941
Si Si8 0.337726 0.745880 0.066589
O O1 0.750000 0.500000 0.419989
O O2 0.626820 0.391017 0.467017
O O3 0.645004 0.459551 0.304434
O O4 0.622581 0.618722 0.417668
O O5 0.901238 0.831448 0.442687
O O6 0.921852 0.743952 0.292961
O O7 0.036779 0.858814 0.362972
O O8 0.906899 0.965542 0.311459
O O9 0.743060 0.742583 0.928878
O O10 0.679409 0.783894 0.074382
O O11 0.691919 0.169877 0.166698
O O12 0.608245 0.352912 0.155171
O O13 0.630855 0.212934 0.022118
O O14 0.669775 0.901319 0.211101
O O15 0.750000 0.000000 0.085411
O O16 0.362288 0.162778 0.636941
O O17 0.250000 0.000000 0.665427
O O18 0.500000 0.447285 0.250000
#
# Coordination Sequence:
#
# PCOD8222927 Si02
#       8
#     8   8   8   8   8   8   8   8
#     4   9  19  36  61  85 117 154 203 251 297 354
#     4  10  20  37  63  87 116 156 200 242 301 362
#     4   9  19  37  60  83 115 158 202 244 301 358
#     4  10  22  37  60  91 117 154 208 246 295 363
#     4  10  22  36  58  88 122 155 201 250 302 359
#     4  11  21  37  62  86 123 162 196 243 307 362
#     4   9  18  37  60  85 112 157 199 242 297 362
#     4  10  21  37  58  88 121 158 200 250 300 364
#
# _framework density 20.509778000000001
#
# number of rings (size 3 to 8) (size 9 to 14) (size 15 to 20)
#    0.000    2.250    1.250    1.500    7.000    0.500 
#    2.250    6.250    0.000    0.000    0.000    0.000 
#    0.000    0.000    0.000    0.000    0.000    0.000 
#
# Total GULP energy -792922.598913 kJ/mol
# GULP energy per Si atom -12389.415608 kJ/mol
# Density = 2.046310 g / cm^3
# Si number density = 20.509778 Si / 1000 Ang^3
#
#
#
# Elastic Constant Matrix: (Units=GPa)
#
#
# Indices 1 2 3 4 5 6 
#
# 1 74.4871 24.1860 30.3063 0.0000 0.0000 0.0000
# 2 24.1860 98.3761 46.6376 0.0000 0.0000 0.0000
# 3 30.3063 46.6376 97.8088 0.0000 0.0000 0.0000
# 4 0.0000 0.0000 0.0000 26.0859 0.0000 0.0000
# 5 0.0000 0.0000 0.0000 0.0000 28.5715 0.0000
# 6 0.0000 0.0000 0.0000 0.0000 0.0000 12.4677
#
#
#
# Elastic Compliance Matrix: (Units=1/GPa)
#
#
# Indices 1 2 3 4 5 6 
#
# 1 0.015661 -0.002002 -0.003898 0.000000 0.000000 0.000000
# 2 -0.002002 0.013390 -0.005764 0.000000 0.000000 0.000000
# 3 -0.003898 -0.005764 0.014180 0.000000 0.000000 0.000000
# 4 0.000000 0.000000 0.000000 0.038335 0.000000 0.000000
# 5 0.000000 0.000000 0.000000 0.000000 0.035000 0.000000
# 6 0.000000 0.000000 0.000000 0.000000 0.000000 0.080207
#
#
# Mechanical properties :
#
#
# Convention : Reuss Voigt Hill
#
# Bulk Modulus (GPa) = 50.24495 52.54799 51.39647
# Shear Modulus (GPa) = 22.05199 24.72782 23.38991
#
# Velocity S-wave (km/s) = 3.28257 3.47603 3.38068
# Velocity P-wave (km/s) = 6.23845 6.46428 6.35237
#
# Compressibility (1/GPa) = 0.01990250
#
# Stress axis : x y z
#
# Youngs Moduli (GPa) = 63.85182 74.68220 70.52031
#
# Poissons Ratio (x) = 0.14955 0.27488
# Poissons Ratio (y) = 0.12786 0.40650
# Poissons Ratio (z) = 0.24888 0.43049
#
# Static dielectric constant tensor:
#      x y z
#    x 3.748050 0.000000 0.000000 
#    y 0.000000 3.959940 0.000000 
#    z 0.000000 0.000000 3.690720 
# 
# 
# High freq. dielectric constant tensor:
#      x y z
#    x 1.784740 0.000000 0.000000 
#    y 0.000000 1.790730 0.000000 
#    z 0.000000 0.000000 1.795130 
# 
# From -- ./inp_files/14347.got.cif
#   From: 2010.03.12/outbox.cif.g09.slc.cpg/sg54_8_cif.got.tgz:14347.got - 2010.04.16 15:00:50.
