data_PCOD8222380
_publ_section_title
;
Structure prediction by ZEFSAII (Michael W. Deem and Ramdas Pophale) SiO2 
 PCOD8222380
Probable space group: P C C A
;
_chemical_formula_sum "Si O2"
_cell_formula_units_Z 40
_cell_length_a 12.879807
_cell_length_b 6.549163
_cell_length_c 17.276428
_cell_angle_alpha 90.000000
_cell_angle_beta 90.000000
_cell_angle_gamma 90.000000
_cell_volume 1457.300485
_symmetry_space_group_name_H-M "P C C A"
_symmetry_group_IT_number 54
_symmetry_cell_setting 'orthorhombic'
loop_
_space_group_symop_operation_xyz
x,y,z
1/2-x,-y,z
1/2+x,-y,1/2-z
-x,y,1/2-z
-x,-y,-z
1/2+x,y,-z
1/2-x,y,1/2+z
x,-y,1/2+z
loop_
_atom_site_type_symbol
_atom_site_label
_atom_site_fract_x
_atom_site_fract_y
_atom_site_fract_z
Si Si1 0.832431 0.229155 0.227069
Si Si2 0.048104 0.737252 0.924259
Si Si3 0.884140 0.306072 0.763963
Si Si4 0.159131 0.866831 0.603002
Si Si5 0.625891 0.573144 0.924485
O O1 0.707034 0.199117 0.213211
O O2 0.870763 0.454589 0.248748
O O3 0.862193 0.097951 0.303880
O O4 0.888488 0.169321 0.147889
O O5 0.952347 0.897732 0.940067
O O6 0.991163 0.518911 0.906376
O O7 0.126021 0.699407 0.995484
O O8 0.854450 0.264066 0.854739
O O9 0.000000 0.223666 0.750000
O O10 0.199443 0.632578 0.580424
O O11 0.250000 0.000000 0.565947
#
# Coordination Sequence:
#
# PCOD8222380 Si02
#       5
#     8   8   8   8   8
#     4  10  18  30  55  83 118 165 206 266 342 405
#     4   9  16  33  54  88 122 164 219 268 343 419
#     4  10  17  31  50  81 119 150 207 279 338 383
#     4   9  17  31  54  86 124 169 219 262 339 421
#     4   8  17  31  55  85 124 163 212 275 339 405
#
# _framework density 27.448011000000001
#
# number of rings (size 3 to 8) (size 9 to 14) (size 15 to 20)
#    1.200    1.600    2.000    0.600    0.000    0.000 
#    0.000   12.000    0.000    1.200    0.000   23.800 
#    0.000    1.600    0.000    0.000    0.000    0.000 
#
# Total GULP energy -495614.261859 kJ/mol
# GULP energy per Si atom -12390.356546 kJ/mol
# Density = 2.738554 g / cm^3
# Si number density = 27.448011 Si / 1000 Ang^3
#
#
#
# Elastic Constant Matrix: (Units=GPa)
#
#
# Indices 1 2 3 4 5 6 
#
# 1 206.9571 58.3327 86.7771 0.0000 0.0000 0.0000
# 2 58.3327 43.9217 50.8160 0.0000 0.0000 0.0000
# 3 86.7771 50.8160 137.2115 0.0000 0.0000 0.0000
# 4 0.0000 0.0000 0.0000 22.6892 0.0000 0.0000
# 5 0.0000 0.0000 0.0000 0.0000 47.1786 0.0000
# 6 0.0000 0.0000 0.0000 0.0000 0.0000 39.5073
#
#
#
# Elastic Compliance Matrix: (Units=1/GPa)
#
#
# Indices 1 2 3 4 5 6 
#
# 1 0.008017 -0.008366 -0.001972 0.000000 0.000000 0.000000
# 2 -0.008366 0.048567 -0.012696 0.000000 0.000000 0.000000
# 3 -0.001972 -0.012696 0.013237 0.000000 0.000000 0.000000
# 4 0.000000 0.000000 0.000000 0.044074 0.000000 0.000000
# 5 0.000000 0.000000 0.000000 0.000000 0.021196 0.000000
# 6 0.000000 0.000000 0.000000 0.000000 0.000000 0.025312
#
#
# Mechanical properties :
#
#
# Convention : Reuss Voigt Hill
#
# Bulk Modulus (GPa) = 42.09839 86.66020 64.37929
# Shear Modulus (GPa) = 23.32227 34.68598 29.00413
#
# Velocity S-wave (km/s) = 2.91810 3.55871 3.25421
# Velocity P-wave (km/s) = 5.16958 6.96613 6.13398
#
# Compressibility (1/GPa) = 0.02375388
#
# Stress axis : x y z
#
# Youngs Moduli (GPa) = 124.74099 20.59003 75.54588
#
# Poissons Ratio (x) = 0.17225 0.14896
# Poissons Ratio (y) = 1.04354 0.95913
# Poissons Ratio (z) = 0.24596 0.26141
#
# Static dielectric constant tensor:
#      x y z
#    x 5.347110 0.000000 0.000000 
#    y 0.000000 4.980580 0.000000 
#    z 0.000000 0.000000 4.581560 
# 
# 
# High freq. dielectric constant tensor:
#      x y z
#    x 2.139130 0.000000 0.000000 
#    y 0.000000 2.114100 0.000000 
#    z 0.000000 0.000000 2.063570 
# 
# From -- ./inp_files/17815.got.cif
#   From: 2010.03.12/outbox.cif.g09.slc.cpg/sg54_9_cif.got.tgz:17815.got - 2010.04.16 15:00:50.
