data_PCOD8222372
_publ_section_title
;
Structure prediction by ZEFSAII (Michael W. Deem and Ramdas Pophale) SiO2 
 PCOD8222372
Probable space group: P C C A
;
_chemical_formula_sum "Si O2"
_cell_formula_units_Z 64
_cell_length_a 23.883921
_cell_length_b 7.738638
_cell_length_c 18.140906
_cell_angle_alpha 90.000000
_cell_angle_beta 90.000000
_cell_angle_gamma 90.000000
_cell_volume 3352.965853
_symmetry_space_group_name_H-M "P C C A"
_symmetry_group_IT_number 54
_symmetry_cell_setting 'orthorhombic'
loop_
_space_group_symop_operation_xyz
x,y,z
1/2-x,-y,z
1/2+x,-y,1/2-z
-x,y,1/2-z
-x,-y,-z
1/2+x,y,-z
1/2-x,y,1/2+z
x,-y,1/2+z
loop_
_atom_site_type_symbol
_atom_site_label
_atom_site_fract_x
_atom_site_fract_y
_atom_site_fract_z
Si Si1 0.460745 0.634550 0.415056
Si Si2 0.406300 0.943203 0.485303
Si Si3 0.134717 0.360766 0.295052
Si Si4 0.130252 0.744659 0.283627
Si Si5 0.537281 0.747848 0.596235
Si Si6 0.312039 0.047051 0.865392
Si Si7 0.546544 0.749098 0.308514
Si Si8 0.923278 0.115115 0.854879
O O1 0.444736 0.770656 0.478504
O O2 0.415620 0.670156 0.351538
O O3 0.543405 0.562077 0.555364
O O4 0.523875 0.674412 0.386265
O O5 0.390860 0.954471 0.571886
O O6 0.443955 0.105105 0.460553
O O7 0.349224 0.938784 0.438915
O O8 0.158700 0.555905 0.295174
O O9 0.107606 0.326054 0.214097
O O10 0.183499 0.224615 0.317469
O O11 0.072771 0.752110 0.328854
O O12 0.171435 0.890365 0.312501
O O13 0.118381 0.776717 0.197225
O O14 0.473912 0.763087 0.621790
O O15 0.250000 0.000000 0.892095
O O16 0.500000 0.693193 0.250000
O O17 0.551769 0.955060 0.309844
#
# Coordination Sequence:
#
# PCOD8222372 Si02
#       8
#     8   8   8   8   8   8   8   8
#     4   9  18  32  50  74 110 152 185 210 250 309
#     4  10  22  36  48  77 114 143 184 222 258 324
#     4   9  18  34  55  82 105 131 178 229 264 317
#     4  10  20  35  56  83 107 137 181 224 270 317
#     4  10  19  33  53  76 111 155 190 208 248 317
#     4  10  21  40  62  77  94 134 183 234 279 316
#     4  10  17  29  51  77 113 148 175 215 261 312
#     4  12  20  31  51  81 118 150 170 215 270 320
#
# _framework density 19.087578000000001
#
# number of rings (size 3 to 8) (size 9 to 14) (size 15 to 20)
#    0.000    2.000    2.500    2.250    0.000    3.000 
#    2.250    0.625    0.000    0.000    0.000    0.000 
#    0.000    0.000    0.000    0.000    0.000    0.000 
#
# Total GULP energy -793374.415505 kJ/mol
# GULP energy per Si atom -12396.475242 kJ/mol
# Density = 1.904413 g / cm^3
# Si number density = 19.087578 Si / 1000 Ang^3
#
#
#
# Elastic Constant Matrix: (Units=GPa)
#
#
# Indices 1 2 3 4 5 6 
#
# 1 54.0379 24.5780 11.1774 0.0000 0.0000 0.0000
# 2 24.5780 139.2608 22.7084 0.0000 0.0000 0.0000
# 3 11.1774 22.7084 67.4930 0.0000 0.0000 0.0000
# 4 0.0000 0.0000 0.0000 17.7361 0.0000 0.0000
# 5 0.0000 0.0000 0.0000 0.0000 7.4431 0.0000
# 6 0.0000 0.0000 0.0000 0.0000 0.0000 14.6988
#
#
#
# Elastic Compliance Matrix: (Units=1/GPa)
#
#
# Indices 1 2 3 4 5 6 
#
# 1 0.020452 -0.003235 -0.002299 0.000000 0.000000 0.000000
# 2 -0.003235 0.008109 -0.002193 0.000000 0.000000 0.000000
# 3 -0.002299 -0.002193 0.015935 0.000000 0.000000 0.000000
# 4 0.000000 0.000000 0.000000 0.056382 0.000000 0.000000
# 5 0.000000 0.000000 0.000000 0.000000 0.134352 0.000000
# 6 0.000000 0.000000 0.000000 0.000000 0.000000 0.068033
#
#
# Mechanical properties :
#
#
# Convention : Reuss Voigt Hill
#
# Bulk Modulus (GPa) = 34.43059 41.96880 38.19970
# Shear Modulus (GPa) = 15.22548 21.46414 18.34481
#
# Velocity S-wave (km/s) = 2.82736 3.35701 3.10350
# Velocity P-wave (km/s) = 5.36060 6.08779 5.73573
#
# Compressibility (1/GPa) = 0.02904394
#
# Stress axis : x y z
#
# Youngs Moduli (GPa) = 48.89438 123.31643 62.75582
#
# Poissons Ratio (x) = 0.39890 0.14426
# Poissons Ratio (y) = 0.15816 0.13760
# Poissons Ratio (z) = 0.11239 0.27039
#
# Static dielectric constant tensor:
#      x y z
#    x 3.071640 0.000000 0.000000 
#    y 0.000000 3.705450 0.000000 
#    z 0.000000 0.000000 3.512660 
# 
# 
# High freq. dielectric constant tensor:
#      x y z
#    x 1.688200 0.000000 0.000000 
#    y 0.000000 1.760790 0.000000 
#    z 0.000000 0.000000 1.737300 
# 
# From -- ./inp_files/19140.got.cif
#   From: 2010.03.12/outbox.cif.g09.slc.cpg/sg54_10_cif.got.tgz:19140.got - 2010.04.16 15:00:50.
