data_PCOD8222911
_publ_section_title
;
Structure prediction by ZEFSAII (Michael W. Deem and Ramdas Pophale) SiO2 
 PCOD8222911
Probable space group: P C C A
;
_chemical_formula_sum "Si O2"
_cell_formula_units_Z 60
_cell_length_a 27.970375
_cell_length_b 6.813786
_cell_length_c 16.230168
_cell_angle_alpha 90.000000
_cell_angle_beta 90.000000
_cell_angle_gamma 90.000000
_cell_volume 3093.212766
_symmetry_space_group_name_H-M "P C C A"
_symmetry_group_IT_number 54
_symmetry_cell_setting 'orthorhombic'
loop_
_space_group_symop_operation_xyz
x,y,z
1/2-x,-y,z
1/2+x,-y,1/2-z
-x,y,1/2-z
-x,-y,-z
1/2+x,y,-z
1/2-x,y,1/2+z
x,-y,1/2+z
loop_
_atom_site_type_symbol
_atom_site_label
_atom_site_fract_x
_atom_site_fract_y
_atom_site_fract_z
Si Si1 0.750000 0.000000 0.768588
Si Si2 0.663491 0.862556 0.170921
Si Si3 0.150303 0.407064 0.485430
Si Si4 0.617433 0.747140 0.617558
Si Si5 0.943866 0.466669 0.917648
Si Si6 0.522182 0.801798 0.531774
Si Si7 0.884264 0.531608 0.760895
Si Si8 0.705750 0.361839 0.350717
O O1 0.716315 0.134226 0.710499
O O2 0.781234 0.137932 0.828727
O O3 0.662939 0.752980 0.083479
O O4 0.627273 0.754595 0.233865
O O5 0.648764 0.087520 0.160457
O O6 0.150505 0.628189 0.447987
O O7 0.097793 0.374495 0.524801
O O8 0.190919 0.383601 0.554065
O O9 0.571745 0.850302 0.576764
O O10 0.597092 0.590311 0.682812
O O11 0.925033 0.533714 0.829155
O O12 0.984164 0.300281 0.906702
O O13 0.967938 0.659395 0.955262
O O14 0.500000 0.000000 0.500000
O O15 0.836564 0.427555 0.791704
O O16 0.750000 0.500000 0.332334
#
# Coordination Sequence:
#
# PCOD8222911 Si02
#       8
#     4   8   8   8   8   8   8   8
#     4  12  24  36  62  90 120 156 202 252 302 362
#     4  11  22  39  60  90 121 158 199 253 306 359
#     4   9  22  39  60  84 116 159 200 242 300 362
#     4  10  21  38  60  87 118 158 197 247 308 361
#     4   9  20  39  60  85 116 158 201 245 297 362
#     4  10  20  37  60  88 120 154 199 251 299 358
#     4  10  21  40  61  82 120 161 197 246 306 359
#     4  11  22  41  59  86 117 158 199 247 299 363
#
# _framework density 19.397307000000001
#
# number of rings (size 3 to 8) (size 9 to 14) (size 15 to 20)
#    0.000    1.867    2.667    0.800    0.000    5.333 
#    2.400    0.000    0.000    0.000    0.000    0.000 
#    0.000    0.000    0.000    0.000    0.000    0.000 
#
# Total GULP energy -744092.321451 kJ/mol
# GULP energy per Si atom -12401.538691 kJ/mol
# Density = 1.935316 g / cm^3
# Si number density = 19.397307 Si / 1000 Ang^3
#
#
#
# Elastic Constant Matrix: (Units=GPa)
#
#
# Indices 1 2 3 4 5 6 
#
# 1 69.2186 38.3992 30.3376 0.0000 0.0000 0.0000
# 2 38.3992 99.5823 40.6521 0.0000 0.0000 0.0000
# 3 30.3376 40.6521 101.0605 0.0000 0.0000 0.0000
# 4 0.0000 0.0000 0.0000 29.6971 0.0000 0.0000
# 5 0.0000 0.0000 0.0000 0.0000 24.1829 0.0000
# 6 0.0000 0.0000 0.0000 0.0000 0.0000 35.7367
#
#
#
# Elastic Compliance Matrix: (Units=1/GPa)
#
#
# Indices 1 2 3 4 5 6 
#
# 1 0.019280 -0.006068 -0.003347 0.000000 0.000000 0.000000
# 2 -0.006068 0.013925 -0.003780 0.000000 0.000000 0.000000
# 3 -0.003347 -0.003780 0.012420 0.000000 0.000000 0.000000
# 4 0.000000 0.000000 0.000000 0.033673 0.000000 0.000000
# 5 0.000000 0.000000 0.000000 0.000000 0.041352 0.000000
# 6 0.000000 0.000000 0.000000 0.000000 0.000000 0.027982
#
#
# Mechanical properties :
#
#
# Convention : Reuss Voigt Hill
#
# Bulk Modulus (GPa) = 51.98658 54.29324 53.13991
# Shear Modulus (GPa) = 27.55824 28.62150 28.08987
#
# Velocity S-wave (km/s) = 3.77334 3.84544 3.80956
# Velocity P-wave (km/s) = 6.77076 6.91140 6.84144
#
# Compressibility (1/GPa) = 0.01923573
#
# Stress axis : x y z
#
# Youngs Moduli (GPa) = 51.86657 71.81403 80.51441
#
# Poissons Ratio (x) = 0.43579 0.26946
# Poissons Ratio (y) = 0.31474 0.30432
# Poissons Ratio (z) = 0.17359 0.27143
#
# Static dielectric constant tensor:
#      x y z
#    x 3.605600 0.000000 0.000000 
#    y 0.000000 3.465710 0.000000 
#    z 0.000000 0.000000 3.610810 
# 
# 
# High freq. dielectric constant tensor:
#      x y z
#    x 1.755470 0.000000 0.000000 
#    y 0.000000 1.756950 0.000000 
#    z 0.000000 0.000000 1.757160 
# 
# From -- ./inp_files/19265.got.cif
#   From: 2010.03.12/outbox.cif.g09.slc.cpg/sg54_10_cif.got.tgz:19265.got - 2010.04.16 15:00:50.
