data_PCOD8222411
_publ_section_title
;
Structure prediction by ZEFSAII (Michael W. Deem and Ramdas Pophale) SiO2 
 PCOD8222411
Probable space group: P C C A
;
_chemical_formula_sum "Si O2"
_cell_formula_units_Z 52
_cell_length_a 10.597362
_cell_length_b 8.766092
_cell_length_c 29.781592
_cell_angle_alpha 90.000000
_cell_angle_beta 90.000000
_cell_angle_gamma 90.000000
_cell_volume 2766.633961
_symmetry_space_group_name_H-M "P C C A"
_symmetry_group_IT_number 54
_symmetry_cell_setting 'orthorhombic'
loop_
_space_group_symop_operation_xyz
x,y,z
1/2-x,-y,z
1/2+x,-y,1/2-z
-x,y,1/2-z
-x,-y,-z
1/2+x,y,-z
1/2-x,y,1/2+z
x,-y,1/2+z
loop_
_atom_site_type_symbol
_atom_site_label
_atom_site_fract_x
_atom_site_fract_y
_atom_site_fract_z
Si Si1 0.755497 0.178606 0.239013
Si Si2 0.376306 0.402966 0.512334
Si Si3 0.000000 0.635699 0.250000
Si Si4 0.635663 0.614815 0.584230
Si Si5 0.982177 0.664403 0.899050
Si Si6 0.627383 0.400857 0.807480
Si Si7 0.219078 0.828647 0.863252
O O1 0.617958 0.254712 0.241111
O O2 0.852083 0.266395 0.271242
O O3 0.811376 0.198254 0.189002
O O4 0.750000 0.000000 0.252444
O O5 0.250000 0.500000 0.522785
O O6 0.500000 0.500000 0.500000
O O7 0.357847 0.308940 0.465763
O O8 0.404125 0.293207 0.555437
O O9 0.018999 0.520372 0.207869
O O10 0.750000 0.500000 0.589120
O O11 0.510750 0.516707 0.594850
O O12 0.652383 0.742529 0.622300
O O13 0.901341 0.683518 0.854097
O O14 0.103812 0.772554 0.894417
O O15 0.750000 0.500000 0.814120
O O16 0.250000 0.000000 0.874248
#
# Coordination Sequence:
#
# PCOD8222411 Si02
#       7
#     8   8   4   8   8   8   8
#     4  10  22  36  52  75 105 141 180 220 272 332
#     4   9  17  31  54  83 108 135 175 223 272 323
#     4  10  20  34  52  74 102 134 174 224 268 308
#     4   8  16  31  52  75  99 130 172 216 256 305
#     4  10  18  31  53  76 103 136 171 220 271 318
#     4  10  20  33  51  76 101 131 173 219 264 316
#     4  10  20  33  50  74 102 138 180 216 260 321
#
# _framework density 18.795401999999999
#
# number of rings (size 3 to 8) (size 9 to 14) (size 15 to 20)
#    0.000    2.462    0.000    3.231    0.000    7.385 
#    0.000    0.769    0.000    0.923    0.000    0.000 
#    0.000    0.000    0.000    0.000    0.000    0.000 
#
# Total GULP energy -644238.052660 kJ/mol
# GULP energy per Si atom -12389.193320 kJ/mol
# Density = 1.875262 g / cm^3
# Si number density = 18.795402 Si / 1000 Ang^3
#
#
#
# Elastic Constant Matrix: (Units=GPa)
#
#
# Indices 1 2 3 4 5 6 
#
# 1 64.1913 31.4173 32.2652 0.0000 0.0000 0.0000
# 2 31.4173 99.4925 57.6073 0.0000 0.0000 0.0000
# 3 32.2652 57.6073 117.7649 0.0000 0.0000 0.0000
# 4 0.0000 0.0000 0.0000 16.2576 0.0000 0.0000
# 5 0.0000 0.0000 0.0000 0.0000 30.2937 0.0000
# 6 0.0000 0.0000 0.0000 0.0000 0.0000 18.6259
#
#
#
# Elastic Compliance Matrix: (Units=1/GPa)
#
#
# Indices 1 2 3 4 5 6 
#
# 1 0.019259 -0.004222 -0.003211 0.000000 0.000000 0.000000
# 2 -0.004222 0.014948 -0.006156 0.000000 0.000000 0.000000
# 3 -0.003211 -0.006156 0.012382 0.000000 0.000000 0.000000
# 4 0.000000 0.000000 0.000000 0.061510 0.000000 0.000000
# 5 0.000000 0.000000 0.000000 0.000000 0.033010 0.000000
# 6 0.000000 0.000000 0.000000 0.000000 0.000000 0.053689
#
#
# Mechanical properties :
#
#
# Convention : Reuss Voigt Hill
#
# Bulk Modulus (GPa) = 51.51469 58.22537 54.87003
# Shear Modulus (GPa) = 21.88693 23.71271 22.79982
#
# Velocity S-wave (km/s) = 3.41615 3.55579 3.48667
# Velocity P-wave (km/s) = 6.55956 6.92127 6.74284
#
# Compressibility (1/GPa) = 0.01941194
#
# Stress axis : x y z
#
# Youngs Moduli (GPa) = 51.92384 66.89684 80.75970
#
# Poissons Ratio (x) = 0.28245 0.25934
# Poissons Ratio (y) = 0.21923 0.49712
# Poissons Ratio (z) = 0.16674 0.41179
#
# Static dielectric constant tensor:
#      x y z
#    x 3.533660 0.000000 0.000000 
#    y 0.000000 3.309230 0.000000 
#    z 0.000000 0.000000 3.893580 
# 
# 
# High freq. dielectric constant tensor:
#      x y z
#    x 1.728170 0.000000 0.000000 
#    y 0.000000 1.691190 0.000000 
#    z 0.000000 0.000000 1.746790 
# 
# From -- ./inp_files/26259.got.cif
#   From: 2010.03.12/outbox.cif.g09.slc.cpg/sg54_14_cif.got.tgz:26259.got - 2010.04.16 15:00:50.
