data_PCOD8222031
_publ_section_title
;
Structure prediction by ZEFSAII (Michael W. Deem and Ramdas Pophale) SiO2 
 PCOD8222031
Probable space group: P M N A
;
_chemical_formula_sum "Si O2"
_cell_formula_units_Z 48
_cell_length_a 16.117942
_cell_length_b 12.065341
_cell_length_c 13.731128
_cell_angle_alpha 90.000000
_cell_angle_beta 90.000000
_cell_angle_gamma 90.000000
_cell_volume 2670.271405
_symmetry_space_group_name_H-M "P M N A"
_symmetry_group_IT_number 53
_symmetry_cell_setting 'orthorhombic'
loop_
_space_group_symop_operation_xyz
x,y,z
1/2-x,-y,1/2+z
x,-y,-z
1/2-x,y,1/2-z
-x,-y,-z
1/2+x,y,1/2-z
-x,y,z
1/2+x,-y,1/2+z
loop_
_atom_site_type_symbol
_atom_site_label
_atom_site_fract_x
_atom_site_fract_y
_atom_site_fract_z
Si Si1 0.196805 0.271452 0.653838
Si Si2 0.245759 0.681978 0.555146
Si Si3 0.168725 0.143802 0.303697
Si Si4 0.092778 0.328452 0.175949
Si Si5 0.168178 0.511242 0.685469
Si Si6 0.096129 0.944477 0.402020
O O1 0.250000 0.243366 0.750000
O O2 0.254229 0.299670 0.560552
O O3 0.142578 0.383197 0.669931
O O4 0.138532 0.169597 0.628193
O O5 0.200214 0.788712 0.601783
O O6 0.340183 0.662176 0.589815
O O7 0.188810 0.575586 0.584261
O O8 0.250000 0.099444 0.250000
O O9 0.111770 0.218073 0.235536
O O10 0.111949 0.037345 0.321647
O O11 0.095882 0.430347 0.252533
O O12 0.000000 0.323623 0.131473
O O13 0.250000 0.521831 0.750000
O O14 0.000000 0.916914 0.414351
O O15 0.132899 0.000000 0.500000
#
# Coordination Sequence:
#
# PCOD8222031 Si02
#       6
#     8   8   8   8   8   8
#     4  11  21  35  54  75 103 145 182 210 252 315
#     4   9  17  33  54  78 104 137 175 213 255 308
#     4   9  17  33  56  76 100 135 176 216 257 313
#     4   9  17  31  56  85 107 130 168 221 271 308
#     4   8  17  32  53  77 104 135 171 209 250 310
#     4  11  22  35  51  73 105 137 171 221 271 308
#
# _framework density 17.9757
#
# number of rings (size 3 to 8) (size 9 to 14) (size 15 to 20)
#    0.000    2.500    1.667    3.500    0.000    0.667 
#    0.000    0.833    0.000   16.000    0.000    5.833 
#    0.000    0.000    0.000    0.000    0.000    0.000 
#
# Total GULP energy -594787.378850 kJ/mol
# GULP energy per Si atom -12391.403726 kJ/mol
# Density = 1.793479 g / cm^3
# Si number density = 17.975700 Si / 1000 Ang^3
#
#
#
# Elastic Constant Matrix: (Units=GPa)
#
#
# Indices 1 2 3 4 5 6 
#
# 1 74.4377 38.9214 23.1177 0.0000 0.0000 0.0000
# 2 38.9214 129.1694 36.6615 0.0000 0.0000 0.0000
# 3 23.1177 36.6615 99.2410 0.0000 0.0000 0.0000
# 4 0.0000 0.0000 0.0000 21.0536 0.0000 0.0000
# 5 0.0000 0.0000 0.0000 0.0000 16.3277 0.0000
# 6 0.0000 0.0000 0.0000 0.0000 0.0000 11.8728
#
#
#
# Elastic Compliance Matrix: (Units=1/GPa)
#
#
# Indices 1 2 3 4 5 6 
#
# 1 0.016375 -0.004303 -0.002225 0.000000 0.000000 0.000000
# 2 -0.004303 0.009779 -0.002610 0.000000 0.000000 0.000000
# 3 -0.002225 -0.002610 0.011559 0.000000 0.000000 0.000000
# 4 0.000000 0.000000 0.000000 0.047498 0.000000 0.000000
# 5 0.000000 0.000000 0.000000 0.000000 0.061246 0.000000
# 6 0.000000 0.000000 0.000000 0.000000 0.000000 0.084226
#
#
# Mechanical properties :
#
#
# Convention : Reuss Voigt Hill
#
# Bulk Modulus (GPa) = 51.44768 55.58327 53.51548
# Shear Modulus (GPa) = 19.57428 23.46065 21.51747
#
# Velocity S-wave (km/s) = 3.30347 3.61658 3.46357
# Velocity P-wave (km/s) = 6.57521 6.95902 6.76984
#
# Compressibility (1/GPa) = 0.01943722
#
# Stress axis : x y z
#
# Youngs Moduli (GPa) = 61.06973 102.25899 86.51210
#
# Poissons Ratio (x) = 0.43997 0.19249
# Poissons Ratio (y) = 0.26276 0.22582
# Poissons Ratio (z) = 0.13588 0.26693
#
# Static dielectric constant tensor:
#      x y z
#    x 3.002180 0.000000 0.000000 
#    y 0.000000 3.521460 0.000000 
#    z 0.000000 0.000000 3.311510 
# 
# 
# High freq. dielectric constant tensor:
#      x y z
#    x 1.667090 0.000000 0.000000 
#    y 0.000000 1.707770 0.000000 
#    z 0.000000 0.000000 1.688930 
# 
# From -- ./inp_files/22697.got.cif
#   From: 2010.03.12/outbox.cif.g09.slc.cpg/sg53_12_cif.got.tgz:22697.got - 2010.04.16 14:36:59.
