data_PCOD8222755
_publ_section_title
;
Structure prediction by ZEFSAII (Michael W. Deem and Ramdas Pophale) SiO2 
 PCOD8222755
Probable space group: P C C A
;
_chemical_formula_sum "Si O2"
_cell_formula_units_Z 44
_cell_length_a 16.493598
_cell_length_b 8.883431
_cell_length_c 14.512937
_cell_angle_alpha 90.000000
_cell_angle_beta 90.000000
_cell_angle_gamma 90.000000
_cell_volume 2126.431753
_symmetry_space_group_name_H-M "P C C A"
_symmetry_group_IT_number 54
_symmetry_cell_setting 'orthorhombic'
loop_
_space_group_symop_operation_xyz
x,y,z
1/2-x,-y,z
1/2+x,-y,1/2-z
-x,y,1/2-z
-x,-y,-z
1/2+x,y,-z
1/2-x,y,1/2+z
x,-y,1/2+z
loop_
_atom_site_type_symbol
_atom_site_label
_atom_site_fract_x
_atom_site_fract_y
_atom_site_fract_z
Si Si1 0.500000 0.329435 0.750000
Si Si2 0.657693 0.684152 0.335368
Si Si3 0.568267 0.434521 0.113068
Si Si4 0.771214 0.330332 0.666673
Si Si5 0.759215 0.824354 0.483484
Si Si6 0.607300 0.397157 0.430005
O O1 0.427969 0.238088 0.697535
O O2 0.448646 0.423594 0.822988
O O3 0.730634 0.713781 0.263538
O O4 0.681081 0.752928 0.433603
O O5 0.643264 0.503503 0.347979
O O6 0.630252 0.321662 0.165795
O O7 0.484700 0.346208 0.092384
O O8 0.609119 0.499449 0.020821
O O9 0.750000 0.500000 0.636422
O O10 0.738730 0.212985 0.591310
O O11 0.840539 0.754661 0.438235
O O12 0.750000 0.000000 0.467077
#
# Coordination Sequence:
#
# PCOD8222755 Si02
#       6
#     4   8   8   8   8   8
#     4  10  20  32  62 102 118 150 198 266 322 354
#     4  11  22  38  68  92 122 156 211 265 313 366
#     4  10  20  34  64  97 122 146 208 269 316 355
#     4  12  20  39  65  93 116 161 210 267 306 365
#     4  12  25  40  60  89 131 172 207 248 315 391
#     4  10  20  39  63  93 122 158 204 268 314 369
#
# _framework density 20.691941
#
# number of rings (size 3 to 8) (size 9 to 14) (size 15 to 20)
#    0.000    1.091    5.455    1.636    2.545    0.727 
#    0.000    0.909    4.000    0.000    0.000    0.000 
#    0.000    0.000    0.000    0.000    0.000    0.000 
#
# Total GULP energy -545341.109693 kJ/mol
# GULP energy per Si atom -12394.116129 kJ/mol
# Density = 2.064485 g / cm^3
# Si number density = 20.691941 Si / 1000 Ang^3
#
#
#
# Elastic Constant Matrix: (Units=GPa)
#
#
# Indices 1 2 3 4 5 6 
#
# 1 113.6896 31.2143 34.2301 0.0000 0.0000 0.0000
# 2 31.2143 79.6219 9.2747 0.0000 0.0000 0.0000
# 3 34.2301 9.2747 90.3158 0.0000 0.0000 0.0000
# 4 0.0000 0.0000 0.0000 13.7418 0.0000 0.0000
# 5 0.0000 0.0000 0.0000 0.0000 42.2838 0.0000
# 6 0.0000 0.0000 0.0000 0.0000 0.0000 13.3279
#
#
#
# Elastic Compliance Matrix: (Units=1/GPa)
#
#
# Indices 1 2 3 4 5 6 
#
# 1 0.010993 -0.003871 -0.003769 0.000000 0.000000 0.000000
# 2 -0.003871 0.014074 0.000022 0.000000 0.000000 0.000000
# 3 -0.003769 0.000022 0.012499 0.000000 0.000000 0.000000
# 4 0.000000 0.000000 0.000000 0.072770 0.000000 0.000000
# 5 0.000000 0.000000 0.000000 0.000000 0.023650 0.000000
# 6 0.000000 0.000000 0.000000 0.000000 0.000000 0.075031
#
#
# Mechanical properties :
#
#
# Convention : Reuss Voigt Hill
#
# Bulk Modulus (GPa) = 44.78272 48.11841 46.45057
# Shear Modulus (GPa) = 21.57995 27.79792 24.68893
#
# Velocity S-wave (km/s) = 3.23292 3.66924 3.45797
# Velocity P-wave (km/s) = 5.96869 6.42310 6.20006
#
# Compressibility (1/GPa) = 0.02233004
#
# Stress axis : x y z
#
# Youngs Moduli (GPa) = 90.96350 71.05163 80.00947
#
# Poissons Ratio (x) = 0.27502 0.30156
# Poissons Ratio (y) = 0.35210 -0.00174
# Poissons Ratio (z) = 0.34285 -0.00154
#
# Static dielectric constant tensor:
#      x y z
#    x 4.325330 0.000000 0.000000 
#    y 0.000000 3.019320 0.000000 
#    z 0.000000 0.000000 4.039250 
# 
# 
# High freq. dielectric constant tensor:
#      x y z
#    x 1.835790 0.000000 0.000000 
#    y 0.000000 1.719180 0.000000 
#    z 0.000000 0.000000 1.834160 
# 
# From -- ./inp_files/14029.got.cif
#   From: 2010.03.12/outbox.cif.g09.slc.cpg/sg54_8_cif.got.tgz:14029.got - 2010.04.16 15:00:50.
