data_PCOD8222306
_publ_section_title
;
Structure prediction by ZEFSAII (Michael W. Deem and Ramdas Pophale) SiO2 
 PCOD8222306
Probable space group: P C C A
;
_chemical_formula_sum "Si O2"
_cell_formula_units_Z 56
_cell_length_a 19.690875
_cell_length_b 9.198271
_cell_length_c 16.851130
_cell_angle_alpha 90.000000
_cell_angle_beta 90.000000
_cell_angle_gamma 90.000000
_cell_volume 3052.110443
_symmetry_space_group_name_H-M "P C C A"
_symmetry_group_IT_number 54
_symmetry_cell_setting 'orthorhombic'
loop_
_space_group_symop_operation_xyz
x,y,z
1/2-x,-y,z
1/2+x,-y,1/2-z
-x,y,1/2-z
-x,-y,-z
1/2+x,y,-z
1/2-x,y,1/2+z
x,-y,1/2+z
loop_
_atom_site_type_symbol
_atom_site_label
_atom_site_fract_x
_atom_site_fract_y
_atom_site_fract_z
Si Si1 0.168108 0.159359 0.275140
Si Si2 0.183769 0.820376 0.304590
Si Si3 0.518789 0.652289 0.961033
Si Si4 0.434693 0.775752 0.694035
Si Si5 0.393912 0.856390 0.953358
Si Si6 0.440765 0.165524 0.900529
Si Si7 0.910127 0.903597 0.871551
O O1 0.240529 0.239624 0.286807
O O2 0.113271 0.224115 0.336717
O O3 0.139363 0.183994 0.187191
O O4 0.178410 0.989234 0.285906
O O5 0.129758 0.733853 0.249476
O O6 0.169158 0.803763 0.399068
O O7 0.555089 0.651309 0.873971
O O8 0.447598 0.729375 0.949673
O O9 0.500000 0.500000 0.000000
O O10 0.568582 0.739868 0.020142
O O11 0.500000 0.789458 0.750000
O O12 0.421447 0.929414 0.651565
O O13 0.429649 0.996351 0.916085
O O14 0.372527 0.892578 0.043307
O O15 0.518053 0.181076 0.870135
#
# Coordination Sequence:
#
# PCOD8222306 Si02
#       7
#     8   8   8   8   8   8   8
#     4   9  18  30  47  85 114 139 175 229 262 322
#     4   9  18  31  50  78 116 142 180 217 271 331
#     4  11  21  33  52  85 105 131 186 233 266 319
#     4  11  17  32  54  77 106 149 178 216 274 332
#     4  10  17  33  55  79 109 140 175 223 280 321
#     4  10  17  33  54  78 110 140 175 219 281 318
#     4  10  16  28  54  82 109 136 181 218 274 323
#
# _framework density 18.34796
#
# number of rings (size 3 to 8) (size 9 to 14) (size 15 to 20)
#    0.000    2.000    4.286    3.000    0.000    0.000 
#    2.571    5.714    0.000    0.857    0.000    0.000 
#    0.000    0.000    0.000    0.000    0.000    0.000 
#
# Total GULP energy -694024.446521 kJ/mol
# GULP energy per Si atom -12393.293688 kJ/mol
# Density = 1.830620 g / cm^3
# Si number density = 18.347960 Si / 1000 Ang^3
#
#
#
# Elastic Constant Matrix: (Units=GPa)
#
#
# Indices 1 2 3 4 5 6 
#
# 1 131.2796 17.2856 89.0184 0.0000 0.0000 0.0000
# 2 17.2856 47.2374 25.7427 0.0000 0.0000 0.0000
# 3 89.0184 25.7427 177.5751 0.0000 0.0000 0.0000
# 4 0.0000 0.0000 0.0000 15.6887 0.0000 0.0000
# 5 0.0000 0.0000 0.0000 0.0000 26.8790 0.0000
# 6 0.0000 0.0000 0.0000 0.0000 0.0000 4.3794
#
#
#
# Elastic Compliance Matrix: (Units=1/GPa)
#
#
# Indices 1 2 3 4 5 6 
#
# 1 0.011599 -0.001168 -0.005645 0.000000 0.000000 0.000000
# 2 -0.001168 0.023103 -0.002764 0.000000 0.000000 0.000000
# 3 -0.005645 -0.002764 0.008862 0.000000 0.000000 0.000000
# 4 0.000000 0.000000 0.000000 0.063740 0.000000 0.000000
# 5 0.000000 0.000000 0.000000 0.000000 0.037204 0.000000
# 6 0.000000 0.000000 0.000000 0.000000 0.000000 0.228339
#
#
# Mechanical properties :
#
#
# Convention : Reuss Voigt Hill
#
# Bulk Modulus (GPa) = 40.96618 68.90949 54.93784
# Shear Modulus (GPa) = 12.49568 24.32579 18.41074
#
# Velocity S-wave (km/s) = 2.61250 3.64511 3.17112
# Velocity P-wave (km/s) = 5.61036 7.44005 6.58902
#
# Compressibility (1/GPa) = 0.02441038
#
# Stress axis : x y z
#
# Youngs Moduli (GPa) = 86.21349 43.28403 112.84044
#
# Poissons Ratio (x) = 0.05055 0.63702
# Poissons Ratio (y) = 0.10069 0.31186
# Poissons Ratio (z) = 0.48670 0.11963
#
# Static dielectric constant tensor:
#      x y z
#    x 3.651360 0.000000 0.000000 
#    y 0.000000 2.849200 0.000000 
#    z 0.000000 0.000000 3.963770 
# 
# 
# High freq. dielectric constant tensor:
#      x y z
#    x 1.698480 0.000000 0.000000 
#    y 0.000000 1.648660 0.000000 
#    z 0.000000 0.000000 1.734120 
# 
# From -- ./inp_files/18886.got.cif
#   From: 2010.03.12/outbox.cif.g09.slc.cpg/sg54_10_cif.got.tgz:18886.got - 2010.04.16 15:00:50.
