data_PCOD8222378
_publ_section_title
;
Structure prediction by ZEFSAII (Michael W. Deem and Ramdas Pophale) SiO2 
 PCOD8222378
Probable space group: P C C A
;
_chemical_formula_sum "Si O2"
_cell_formula_units_Z 48
_cell_length_a 14.479797
_cell_length_b 8.955994
_cell_length_c 19.137886
_cell_angle_alpha 90.000000
_cell_angle_beta 90.000000
_cell_angle_gamma 90.000000
_cell_volume 2481.819717
_symmetry_space_group_name_H-M "P C C A"
_symmetry_group_IT_number 54
_symmetry_cell_setting 'orthorhombic'
loop_
_space_group_symop_operation_xyz
x,y,z
1/2-x,-y,z
1/2+x,-y,1/2-z
-x,y,1/2-z
-x,-y,-z
1/2+x,y,-z
1/2-x,y,1/2+z
x,-y,1/2+z
loop_
_atom_site_type_symbol
_atom_site_label
_atom_site_fract_x
_atom_site_fract_y
_atom_site_fract_z
Si Si1 0.228806 0.826432 0.503044
Si Si2 0.249463 0.324321 0.858132
Si Si3 0.571345 0.162397 0.690189
Si Si4 0.174776 0.125840 0.632458
Si Si5 0.899469 0.179559 0.729026
Si Si6 0.456173 0.915070 0.064042
O O1 0.254474 0.722923 0.438760
O O2 0.295826 0.772344 0.566378
O O3 0.123935 0.810042 0.531462
O O4 0.250000 0.000000 0.484298
O O5 0.250000 0.500000 0.851847
O O6 0.334275 0.258240 0.812561
O O7 0.148731 0.268475 0.833252
O O8 0.500000 0.223045 0.750000
O O9 0.527322 0.178234 0.612112
O O10 0.599733 0.994311 0.709171
O O11 0.164249 0.216474 0.703553
O O12 0.250000 0.000000 0.643730
O O13 0.078479 0.042495 0.617401
O O14 0.000000 0.241592 0.750000
O O15 0.500000 0.000000 0.000000
#
# Coordination Sequence:
#
# PCOD8222378 Si02
#       6
#     8   8   8   8   8   8
#     4   9  20  36  62  85 117 155 201 254 294 357
#     4  12  26  42  57  83 130 171 203 243 303 372
#     4  11  21  37  67  97 119 154 200 264 307 360
#     4   9  17  32  57  94 119 141 185 255 309 349
#     4  11  21  37  68  94 118 150 202 258 309 363
#     4  10  17  30  59  96 118 140 191 251 305 344
#
# _framework density 19.340648000000002
#
# number of rings (size 3 to 8) (size 9 to 14) (size 15 to 20)
#    0.000    2.000    3.333    5.500    2.333    0.667 
#    0.000    1.667    0.000    0.000    0.000    0.000 
#    0.000    0.000    0.000    0.000    0.000    0.000 
#
# Total GULP energy -594842.803547 kJ/mol
# GULP energy per Si atom -12392.558407 kJ/mol
# Density = 1.929663 g / cm^3
# Si number density = 19.340648 Si / 1000 Ang^3
#
#
#
# Elastic Constant Matrix: (Units=GPa)
#
#
# Indices 1 2 3 4 5 6 
#
# 1 106.3695 40.5231 46.6639 0.0000 0.0000 0.0000
# 2 40.5231 67.3443 30.4787 0.0000 0.0000 0.0000
# 3 46.6639 30.4787 120.9928 0.0000 0.0000 0.0000
# 4 0.0000 0.0000 0.0000 3.2267 0.0000 0.0000
# 5 0.0000 0.0000 0.0000 0.0000 22.2367 0.0000
# 6 0.0000 0.0000 0.0000 0.0000 0.0000 12.5972
#
#
#
# Elastic Compliance Matrix: (Units=1/GPa)
#
#
# Indices 1 2 3 4 5 6 
#
# 1 0.013422 -0.006472 -0.003546 0.000000 0.000000 0.000000
# 2 -0.006472 0.019880 -0.002512 0.000000 0.000000 0.000000
# 3 -0.003546 -0.002512 0.010266 0.000000 0.000000 0.000000
# 4 0.000000 0.000000 0.000000 0.309918 0.000000 0.000000
# 5 0.000000 0.000000 0.000000 0.000000 0.044971 0.000000
# 6 0.000000 0.000000 0.000000 0.000000 0.000000 0.079382
#
#
# Mechanical properties :
#
#
# Convention : Reuss Voigt Hill
#
# Bulk Modulus (GPa) = 54.03079 58.89311 56.46195
# Shear Modulus (GPa) = 9.82186 19.41484 14.61835
#
# Velocity S-wave (km/s) = 2.25596 3.17177 2.75223
# Velocity P-wave (km/s) = 5.89770 6.62798 6.27347
#
# Compressibility (1/GPa) = 0.01850796
#
# Stress axis : x y z
#
# Youngs Moduli (GPa) = 74.50181 50.30161 97.41350
#
# Poissons Ratio (x) = 0.32553 0.34548
# Poissons Ratio (y) = 0.48215 0.24470
# Poissons Ratio (z) = 0.26422 0.12635
#
# Static dielectric constant tensor:
#      x y z
#    x 3.844980 0.000000 0.000000 
#    y 0.000000 2.838080 0.000000 
#    z 0.000000 0.000000 4.303300 
# 
# 
# High freq. dielectric constant tensor:
#      x y z
#    x 1.773790 0.000000 0.000000 
#    y 0.000000 1.672090 0.000000 
#    z 0.000000 0.000000 1.778990 
# 
# From -- ./inp_files/18052.got.cif
#   From: 2010.03.12/outbox.cif.g09.slc.cpg/sg54_10_cif.got.tgz:18052.got - 2010.04.16 15:00:50.
