data_PCOD8222588
_publ_section_title
;
Structure prediction by ZEFSAII (Michael W. Deem and Ramdas Pophale) SiO2 
 PCOD8222588
Probable space group: P C C A
;
_chemical_formula_sum "Si O2"
_cell_formula_units_Z 56
_cell_length_a 5.227836
_cell_length_b 34.762698
_cell_length_c 14.356770
_cell_angle_alpha 90.000000
_cell_angle_beta 90.000000
_cell_angle_gamma 90.000000
_cell_volume 2609.108703
_symmetry_space_group_name_H-M "P C C A"
_symmetry_group_IT_number 54
_symmetry_cell_setting 'orthorhombic'
loop_
_space_group_symop_operation_xyz
x,y,z
1/2-x,-y,z
1/2+x,-y,1/2-z
-x,y,1/2-z
-x,-y,-z
1/2+x,y,-z
1/2-x,y,1/2+z
x,-y,1/2+z
loop_
_atom_site_type_symbol
_atom_site_label
_atom_site_fract_x
_atom_site_fract_y
_atom_site_fract_z
Si Si1 0.750000 0.500000 0.812095
Si Si2 0.250000 0.000000 0.813800
Si Si3 0.319623 0.081050 0.393192
Si Si4 0.716232 0.737780 0.939548
Si Si5 0.250574 0.191213 0.188761
Si Si6 0.819043 0.113775 0.397776
Si Si7 0.249866 0.417495 0.688207
Si Si8 0.788640 0.652951 0.944362
O O1 0.500000 0.500966 0.750000
O O2 0.761256 0.540967 0.867783
O O3 0.226887 0.035703 0.884659
O O4 0.500000 0.004043 0.750000
O O5 0.588713 0.091777 0.343785
O O6 0.358572 0.096609 0.498737
O O7 0.084964 0.103924 0.344861
O O8 0.740752 0.766520 0.854062
O O9 0.739242 0.694616 0.897194
O O10 0.440374 0.744690 0.985805
O O11 0.500000 0.183461 0.250000
O O12 0.234696 0.159527 0.105632
O O13 0.000000 0.187375 0.250000
O O14 0.500000 0.411646 0.750000
O O15 0.218943 0.382087 0.620634
O O16 0.000000 0.417592 0.750000
O O17 0.587121 0.649881 0.029235
#
# Coordination Sequence:
#
# PCOD8222588 Si02
#       8
#     4   4   8   8   8   8   8   8
#     4   8  16  30  48  76 110 146 198 246 300 366
#     4  12  26  42  66  96 130 160 200 260 296 324
#     4  10  23  42  65  93 120 167 206 236 285 363
#     4  10  23  41  65  85 121 165 204 236 302 379
#     4  12  26  41  64  98 127 153 200 264 303 337
#     4  10  23  40  65  90 123 159 203 240 289 364
#     4  10  19  33  56  81 110 155 201 251 303 365
#     4  10  21  38  56  85 117 155 196 251 300 366
#
# _framework density 21.463269
#
# number of rings (size 3 to 8) (size 9 to 14) (size 15 to 20)
#    0.000    1.714    0.000    3.429    4.000    6.857 
#    0.000    0.714    0.000    0.000    0.000    0.000 
#    0.000    0.000    0.000    0.000    0.000    0.000 
#
# Total GULP energy -693867.411951 kJ/mol
# GULP energy per Si atom -12390.489499 kJ/mol
# Density = 2.141442 g / cm^3
# Si number density = 21.463269 Si / 1000 Ang^3
#
#
#
# Elastic Constant Matrix: (Units=GPa)
#
#
# Indices 1 2 3 4 5 6 
#
# 1 165.9907 28.5316 5.3674 0.0000 0.0000 0.0000
# 2 28.5316 183.7197 44.2304 0.0000 0.0000 0.0000
# 3 5.3674 44.2304 37.2766 0.0000 0.0000 0.0000
# 4 0.0000 0.0000 0.0000 39.1745 0.0000 0.0000
# 5 0.0000 0.0000 0.0000 0.0000 -7.0220 0.0000
# 6 0.0000 0.0000 0.0000 0.0000 0.0000 32.6778
#
#
#
# Elastic Compliance Matrix: (Units=1/GPa)
#
#
# Indices 1 2 3 4 5 6 
#
# 1 0.006193 -0.001046 0.000349 0.000000 0.000000 0.000000
# 2 -0.001046 0.007796 -0.009100 0.000000 0.000000 0.000000
# 3 0.000349 -0.009100 0.037574 0.000000 0.000000 0.000000
# 4 0.000000 0.000000 0.000000 0.025527 0.000000 0.000000
# 5 0.000000 0.000000 0.000000 0.000000 -0.142409 0.000000
# 6 0.000000 0.000000 0.000000 0.000000 0.000000 0.030602
#
#
# Mechanical properties :
#
#
# Convention : Reuss Voigt Hill
#
# Bulk Modulus (GPa) = 31.27962 60.36065 45.82014
# Shear Modulus (GPa) = -1119.34973 33.55657 -542.89658
#
# Velocity S-wave (km/s) = -22.86156 3.95833 -15.92141
# Velocity P-wave (km/s) = 26.12016 7.00535 17.79308
#
# Compressibility (1/GPa) = 0.03196969
#
# Stress axis : x y z
#
# Youngs Moduli (GPa) = 161.47511 128.26530 26.61420
#
# Poissons Ratio (x) = 0.13414 -0.00929
# Poissons Ratio (y) = 0.16888 0.24219
# Poissons Ratio (z) = -0.05639 1.16723
#
# Static dielectric constant tensor:
#      x y z
#    x 4.869510 0.000000 0.000000 
#    y 0.000000 4.494540 0.000000 
#    z 0.000000 0.000000 3.377850 
# 
# 
# High freq. dielectric constant tensor:
#      x y z
#    x 1.885920 0.000000 0.000000 
#    y 0.000000 1.866680 0.000000 
#    z 0.000000 0.000000 1.790690 
# 
# From -- ./inp_files/11022.got.cif
#   From: 2010.03.12/outbox.cif.g09.slc.cpg/sg54_6_cif.got.tgz:11022.got - 2010.04.16 15:00:50.
