data_PCOD8222822
_publ_section_title
;
Structure prediction by ZEFSAII (Michael W. Deem and Ramdas Pophale) SiO2 
 PCOD8222822
Probable space group: P C C A
;
_chemical_formula_sum "Si O2"
_cell_formula_units_Z 48
_cell_length_a 12.456292
_cell_length_b 8.840898
_cell_length_c 21.762345
_cell_angle_alpha 90.000000
_cell_angle_beta 90.000000
_cell_angle_gamma 90.000000
_cell_volume 2396.574044
_symmetry_space_group_name_H-M "P C C A"
_symmetry_group_IT_number 54
_symmetry_cell_setting 'orthorhombic'
loop_
_space_group_symop_operation_xyz
x,y,z
1/2-x,-y,z
1/2+x,-y,1/2-z
-x,y,1/2-z
-x,-y,-z
1/2+x,y,-z
1/2-x,y,1/2+z
x,-y,1/2+z
loop_
_atom_site_type_symbol
_atom_site_label
_atom_site_fract_x
_atom_site_fract_y
_atom_site_fract_z
Si Si1 0.598329 0.243519 0.704160
Si Si2 0.575485 0.844637 0.944469
Si Si3 0.486129 0.825784 0.077328
Si Si4 0.780909 0.325406 0.462833
Si Si5 0.750000 0.000000 0.173860
Si Si6 0.854307 0.255092 0.594822
Si Si7 0.750000 0.500000 0.674535
O O1 0.500000 0.249441 0.750000
O O2 0.560448 0.225674 0.633745
O O3 0.672686 0.097932 0.718221
O O4 0.671977 0.392294 0.714575
O O5 0.688761 0.768748 0.927621
O O6 0.481626 0.743885 0.915160
O O7 0.572677 0.012246 0.915156
O O8 0.562886 0.842232 0.018351
O O9 0.394454 0.697640 0.071361
O O10 0.750000 0.500000 0.463551
O O11 0.790485 0.259030 0.531129
O O12 0.677911 0.104311 0.130427
O O13 0.829787 0.403635 0.633086
#
# Coordination Sequence:
#
# PCOD8222822 Si02
#       7
#     8   8   8   8   4   8   4
#     4  11  24  46  66  91 121 163 217 264 305 366
#     4  10  20  36  60  92 125 162 200 250 316 366
#     4  10  22  38  62  88 125 163 204 261 303 369
#     4  11  23  33  54  96 134 166 192 245 316 380
#     4  10  20  42  68  90 112 162 214 256 298 364
#     4  10  20  35  63  88 124 161 208 243 300 377
#     4  10  22  40  66  90 118 166 200 254 312 372
#
# _framework density 20.028590000000001
#
# number of rings (size 3 to 8) (size 9 to 14) (size 15 to 20)
#    0.000    1.667    2.500    2.500    7.000    1.333 
#    4.500    3.333    0.000    0.000    0.000    0.000 
#    0.000    0.000    0.000    0.000    0.000    0.000 
#
# Total GULP energy -595195.725600 kJ/mol
# GULP energy per Si atom -12399.910950 kJ/mol
# Density = 1.998300 g / cm^3
# Si number density = 20.028590 Si / 1000 Ang^3
#
#
#
# Elastic Constant Matrix: (Units=GPa)
#
#
# Indices 1 2 3 4 5 6 
#
# 1 112.0428 53.8072 29.6512 0.0000 0.0000 0.0000
# 2 53.8072 120.7419 24.5627 0.0000 0.0000 0.0000
# 3 29.6512 24.5627 52.0479 0.0000 0.0000 0.0000
# 4 0.0000 0.0000 0.0000 -9.5526 0.0000 0.0000
# 5 0.0000 0.0000 0.0000 0.0000 36.0388 0.0000
# 6 0.0000 0.0000 0.0000 0.0000 0.0000 36.5191
#
#
#
# Elastic Compliance Matrix: (Units=1/GPa)
#
#
# Indices 1 2 3 4 5 6 
#
# 1 0.012403 -0.004524 -0.004931 0.000000 0.000000 0.000000
# 2 -0.004524 0.010812 -0.002525 0.000000 0.000000 0.000000
# 3 -0.004931 -0.002525 0.023214 0.000000 0.000000 0.000000
# 4 0.000000 0.000000 0.000000 -0.104684 0.000000 0.000000
# 5 0.000000 0.000000 0.000000 0.000000 0.027748 0.000000
# 6 0.000000 0.000000 0.000000 0.000000 0.000000 0.027383
#
#
# Mechanical properties :
#
#
# Convention : Reuss Voigt Hill
#
# Bulk Modulus (GPa) = 44.50653 55.65276 50.07964
# Shear Modulus (GPa) = 176.52805 24.38852 100.45828
#
# Velocity S-wave (km/s) = 9.39837 3.49332 7.08988
# Velocity P-wave (km/s) = 11.83394 6.64214 9.59584
#
# Compressibility (1/GPa) = 0.02246861
#
# Stress axis : x y z
#
# Youngs Moduli (GPa) = 80.62809 92.49073 43.07810
#
# Poissons Ratio (x) = 0.41843 0.21240
# Poissons Ratio (y) = 0.36476 0.10878
# Poissons Ratio (z) = 0.39755 0.23355
#
# Static dielectric constant tensor:
#      x y z
#    x 3.979730 0.000000 0.000000 
#    y 0.000000 6.317990 0.000000 
#    z 0.000000 0.000000 3.193830 
# 
# 
# High freq. dielectric constant tensor:
#      x y z
#    x 1.799770 0.000000 0.000000 
#    y 0.000000 1.794190 0.000000 
#    z 0.000000 0.000000 1.731240 
# 
# From -- ./inp_files/24103.got.cif
#   From: 2010.03.12/outbox.cif.g09.slc.cpg/sg54_13_cif.got.tgz:24103.got - 2010.04.16 15:00:50.
