data_PCOD8222507
_publ_section_title
;
Structure prediction by ZEFSAII (Michael W. Deem and Ramdas Pophale) SiO2 
 PCOD8222507
Probable space group: P C C A
;
_chemical_formula_sum "Si O2"
_cell_formula_units_Z 48
_cell_length_a 15.965448
_cell_length_b 15.213928
_cell_length_c 9.718560
_cell_angle_alpha 90.000000
_cell_angle_beta 90.000000
_cell_angle_gamma 90.000000
_cell_volume 2360.610782
_symmetry_space_group_name_H-M "P C C A"
_symmetry_group_IT_number 54
_symmetry_cell_setting 'orthorhombic'
loop_
_space_group_symop_operation_xyz
x,y,z
1/2-x,-y,z
1/2+x,-y,1/2-z
-x,y,1/2-z
-x,-y,-z
1/2+x,y,-z
1/2-x,y,1/2+z
x,-y,1/2+z
loop_
_atom_site_type_symbol
_atom_site_label
_atom_site_fract_x
_atom_site_fract_y
_atom_site_fract_z
Si Si1 0.559313 0.520423 0.623757
Si Si2 0.540378 0.707583 0.603473
Si Si3 0.828343 0.143465 0.533630
Si Si4 0.074606 0.334504 0.354739
Si Si5 0.058795 0.994657 0.870970
Si Si6 0.333512 0.164869 0.784278
O O1 0.500000 0.538131 0.750000
O O2 0.500000 0.500000 0.500000
O O3 0.598853 0.618049 0.601571
O O4 0.618617 0.433021 0.636281
O O5 0.500000 0.731266 0.750000
O O6 0.600410 0.784776 0.555615
O O7 0.461270 0.699331 0.500110
O O8 0.744030 0.163364 0.613440
O O9 0.808838 0.136096 0.370574
O O10 0.859496 0.052323 0.598978
O O11 0.138245 0.266031 0.287964
O O12 0.000000 0.349858 0.250000
O O13 0.090658 0.896354 0.837593
O O14 0.000000 0.031480 0.750000
O O15 0.000000 0.000000 0.000000
#
# Coordination Sequence:
#
# PCOD8222507 Si02
#       6
#     8   8   8   8   8   8
#     4   8  16  30  58  91 117 153 202 258 301 341
#     4  10  20  37  62  94 123 157 210 256 300 355
#     4  12  27  43  62  91 129 163 198 250 308 367
#     4  10  18  38  65  87 121 163 208 254 298 356
#     4  12  25  45  71  94 117 154 208 256 301 361
#     4  12  27  43  62  92 127 165 200 245 312 366
#
# _framework density 20.333721000000001
#
# number of rings (size 3 to 8) (size 9 to 14) (size 15 to 20)
#    0.000    1.333    3.333    2.500    4.667    1.333 
#    0.000    0.833    0.000    2.000    0.000    0.000 
#    0.000    0.000    0.000    0.000    0.000    0.000 
#
# Total GULP energy -594670.730044 kJ/mol
# GULP energy per Si atom -12388.973543 kJ/mol
# Density = 2.028744 g / cm^3
# Si number density = 20.333721 Si / 1000 Ang^3
#
#
#
# Elastic Constant Matrix: (Units=GPa)
#
#
# Indices 1 2 3 4 5 6 
#
# 1 46.5234 8.3358 10.2220 0.0000 0.0000 0.0000
# 2 8.3358 102.8295 -1.3376 0.0000 0.0000 0.0000
# 3 10.2220 -1.3376 125.0689 0.0000 0.0000 0.0000
# 4 0.0000 0.0000 0.0000 27.1372 0.0000 0.0000
# 5 0.0000 0.0000 0.0000 0.0000 32.8320 0.0000
# 6 0.0000 0.0000 0.0000 0.0000 0.0000 4.5629
#
#
#
# Elastic Compliance Matrix: (Units=1/GPa)
#
#
# Indices 1 2 3 4 5 6 
#
# 1 0.022225 -0.001826 -0.001836 0.000000 0.000000 0.000000
# 2 -0.001826 0.009876 0.000255 0.000000 0.000000 0.000000
# 3 -0.001836 0.000255 0.008148 0.000000 0.000000 0.000000
# 4 0.000000 0.000000 0.000000 0.036850 0.000000 0.000000
# 5 0.000000 0.000000 0.000000 0.000000 0.030458 0.000000
# 6 0.000000 0.000000 0.000000 0.000000 0.000000 0.219158
#
#
# Mechanical properties :
#
#
# Convention : Reuss Voigt Hill
#
# Bulk Modulus (GPa) = 29.90777 34.31804 32.11290
# Shear Modulus (GPa) = 14.50647 30.05319 22.27983
#
# Velocity S-wave (km/s) = 2.67389 3.84864 3.31374
# Velocity P-wave (km/s) = 4.92679 6.05504 5.51982
#
# Compressibility (1/GPa) = 0.03343613
#
# Stress axis : x y z
#
# Youngs Moduli (GPa) = 44.99426 101.25417 122.72385
#
# Poissons Ratio (x) = 0.18484 0.22532
# Poissons Ratio (y) = 0.08214 -0.03127
# Poissons Ratio (z) = 0.08261 -0.02580
#
# Static dielectric constant tensor:
#      x y z
#    x 2.824530 0.000000 0.000000 
#    y 0.000000 3.771950 0.000000 
#    z 0.000000 0.000000 3.954190 
# 
# 
# High freq. dielectric constant tensor:
#      x y z
#    x 1.740980 0.000000 0.000000 
#    y 0.000000 1.824410 0.000000 
#    z 0.000000 0.000000 1.822670 
# 
# From -- ./inp_files/4215.got.cif
#   From: 2010.03.12/outbox.cif.g09.slc.cpg/sg54_3_cif.got.tgz:4215.got - 2010.04.16 15:00:50.
