data_PCOD8222850
_publ_section_title
;
Structure prediction by ZEFSAII (Michael W. Deem and Ramdas Pophale) SiO2 
 PCOD8222850
Probable space group: P C C A
;
_chemical_formula_sum "Si O2"
_cell_formula_units_Z 32
_cell_length_a 6.291166
_cell_length_b 12.155179
_cell_length_c 14.774087
_cell_angle_alpha 90.000000
_cell_angle_beta 90.000000
_cell_angle_gamma 90.000000
_cell_volume 1129.778109
_symmetry_space_group_name_H-M "P C C A"
_symmetry_group_IT_number 54
_symmetry_cell_setting 'orthorhombic'
loop_
_space_group_symop_operation_xyz
x,y,z
1/2-x,-y,z
1/2+x,-y,1/2-z
-x,y,1/2-z
-x,-y,-z
1/2+x,y,-z
1/2-x,y,1/2+z
x,-y,1/2+z
loop_
_atom_site_type_symbol
_atom_site_label
_atom_site_fract_x
_atom_site_fract_y
_atom_site_fract_z
Si Si1 0.485970 0.512117 0.145251
Si Si2 0.121396 0.744827 0.613079
Si Si3 0.741629 0.874129 0.727533
Si Si4 0.100575 0.289944 0.908600
O O1 0.250000 0.500000 0.104848
O O2 0.500000 0.479154 0.250000
O O3 0.538805 0.642031 0.133530
O O4 0.645355 0.423820 0.094355
O O5 0.097865 0.849477 0.684931
O O6 0.365993 0.713924 0.635304
O O7 0.092489 0.767477 0.506971
O O8 0.500000 0.847795 0.750000
O O9 0.777736 0.787139 0.643357
O O10 0.750000 0.000000 0.696527
#
# Coordination Sequence:
#
# PCOD8222850 Si02
#       4
#     8   8   8   8
#     4  10  20  36  59  89 127 165 201 250 310 370
#     4  10  22  38  60  90 122 160 204 252 310 369
#     4  10  23  43  63  87 123 165 210 257 304 363
#     4  10  21  39  60  88 125 160 203 257 308 366
#
# _framework density 28.324145000000001
#
# number of rings (size 3 to 8) (size 9 to 14) (size 15 to 20)
#    0.000    2.000    0.000    4.500    0.000    8.000 
#    0.000    5.000    0.000    0.000    0.000    0.000 
#    0.000    0.000    0.000    0.000    0.000    0.000 
#
# Total GULP energy -396562.875268 kJ/mol
# GULP energy per Si atom -12392.589852 kJ/mol
# Density = 2.825968 g / cm^3
# Si number density = 28.324145 Si / 1000 Ang^3
#
#
#
# Elastic Constant Matrix: (Units=GPa)
#
#
# Indices 1 2 3 4 5 6 
#
# 1 129.1088 79.8546 24.3996 0.0000 0.0000 0.0000
# 2 79.8546 261.7613 107.6063 0.0000 0.0000 0.0000
# 3 24.3996 107.6063 184.2281 0.0000 0.0000 0.0000
# 4 0.0000 0.0000 0.0000 38.5181 0.0000 0.0000
# 5 0.0000 0.0000 0.0000 0.0000 24.5133 0.0000
# 6 0.0000 0.0000 0.0000 0.0000 0.0000 39.0366
#
#
#
# Elastic Compliance Matrix: (Units=1/GPa)
#
#
# Indices 1 2 3 4 5 6 
#
# 1 0.009593 -0.003164 0.000578 0.000000 0.000000 0.000000
# 2 -0.003164 0.006071 -0.003127 0.000000 0.000000 0.000000
# 3 0.000578 -0.003127 0.007178 0.000000 0.000000 0.000000
# 4 0.000000 0.000000 0.000000 0.025962 0.000000 0.000000
# 5 0.000000 0.000000 0.000000 0.000000 0.040794 0.000000
# 6 0.000000 0.000000 0.000000 0.000000 0.000000 0.025617
#
#
# Mechanical properties :
#
#
# Convention : Reuss Voigt Hill
#
# Bulk Modulus (GPa) = 87.60162 110.97989 99.29076
# Shear Modulus (GPa) = 38.32976 44.62946 41.47961
#
# Velocity S-wave (km/s) = 3.68265 3.97378 3.83098
# Velocity P-wave (km/s) = 7.00557 7.76670 7.39593
#
# Compressibility (1/GPa) = 0.01141531
#
# Stress axis : x y z
#
# Youngs Moduli (GPa) = 104.24053 164.71916 139.31462
#
# Poissons Ratio (x) = 0.52117 -0.08046
# Poissons Ratio (y) = 0.32981 0.43563
# Poissons Ratio (z) = -0.06020 0.51507
#
# Static dielectric constant tensor:
#      x y z
#    x 6.339590 0.000000 0.000000 
#    y 0.000000 5.413520 0.000000 
#    z 0.000000 0.000000 4.818500 
# 
# 
# High freq. dielectric constant tensor:
#      x y z
#    x 2.255990 0.000000 0.000000 
#    y 0.000000 2.137240 0.000000 
#    z 0.000000 0.000000 2.119570 
# 
# From -- ./inp_files/11207.got.cif
#   From: 2010.03.12/outbox.cif.g09.slc.cpg/sg54_6_cif.got.tgz:11207.got - 2010.04.16 15:00:50.
