data_PCOD8222728
_publ_section_title
;
Structure prediction by ZEFSAII (Michael W. Deem and Ramdas Pophale) SiO2 
 PCOD8222728
Probable space group: P C C A
;
_chemical_formula_sum "Si O2"
_cell_formula_units_Z 64
_cell_length_a 12.367894
_cell_length_b 14.022351
_cell_length_c 17.445922
_cell_angle_alpha 90.000000
_cell_angle_beta 90.000000
_cell_angle_gamma 90.000000
_cell_volume 3025.593056
_symmetry_space_group_name_H-M "P C C A"
_symmetry_group_IT_number 54
_symmetry_cell_setting 'orthorhombic'
loop_
_space_group_symop_operation_xyz
x,y,z
1/2-x,-y,z
1/2+x,-y,1/2-z
-x,y,1/2-z
-x,-y,-z
1/2+x,y,-z
1/2-x,y,1/2+z
x,-y,1/2+z
loop_
_atom_site_type_symbol
_atom_site_label
_atom_site_fract_x
_atom_site_fract_y
_atom_site_fract_z
Si Si1 0.699304 0.898585 0.132271
Si Si2 0.974234 0.959407 0.918277
Si Si3 0.284368 0.644182 0.098764
Si Si4 0.551016 0.326416 0.167454
Si Si5 0.729443 0.754665 0.748406
Si Si6 0.917059 0.846515 0.364033
Si Si7 0.717622 0.833015 0.473282
Si Si8 0.431498 0.527794 0.574000
O O1 0.574792 0.897331 0.108617
O O2 0.691792 0.826544 0.204325
O O3 0.750000 0.000000 0.157168
O O4 0.775009 0.862057 0.062124
O O5 0.865544 0.897530 0.924739
O O6 0.963555 0.046922 0.858566
O O7 0.000000 0.000000 0.000000
O O8 0.278990 0.693341 0.182446
O O9 0.318740 0.722503 0.035288
O O10 0.169757 0.601482 0.068536
O O11 0.379955 0.568302 0.107872
O O12 0.500000 0.332140 0.250000
O O13 0.679428 0.315346 0.182887
O O14 0.508119 0.234323 0.119313
O O15 0.523310 0.426062 0.127162
O O16 0.635824 0.822866 0.782331
O O17 0.834091 0.844499 0.434564
O O18 0.500000 0.500000 0.500000
#
# Coordination Sequence:
#
# PCOD8222728 Si02
#       8
#     8   8   8   8   8   8   8   8
#     4  12  24  39  64 104 135 179 244 281 323 413
#     4  12  23  38  64  99 134 179 232 288 333 394
#     4  10  24  47  67  98 143 172 211 292 356 394
#     4  10  19  41  71  98 127 175 222 260 342 422
#     4  10  23  42  70  92 137 188 214 273 342 420
#     4  10  20  41  64  91 133 186 221 271 348 395
#     4  11  22  41  66  92 140 183 224 287 349 387
#     4  11  23  42  76 102 128 169 231 284 338 416
#
# _framework density 21.152877
#
# number of rings (size 3 to 8) (size 9 to 14) (size 15 to 20)
#    0.000    1.250    6.250    1.125    1.750    3.000 
#    0.000    7.500    0.000    0.000    0.000    0.000 
#    0.000    0.000    0.000    0.000    0.000    0.000 
#
# Total GULP energy -793039.203195 kJ/mol
# GULP energy per Si atom -12391.237550 kJ/mol
# Density = 2.110473 g / cm^3
# Si number density = 21.152877 Si / 1000 Ang^3
#
#
#
# Elastic Constant Matrix: (Units=GPa)
#
#
# Indices 1 2 3 4 5 6 
#
# 1 65.3791 47.8548 47.0202 0.0000 0.0000 0.0000
# 2 47.8548 158.1049 66.5920 0.0000 0.0000 0.0000
# 3 47.0202 66.5920 94.4610 0.0000 0.0000 0.0000
# 4 0.0000 0.0000 0.0000 41.3887 0.0000 0.0000
# 5 0.0000 0.0000 0.0000 0.0000 25.4941 0.0000
# 6 0.0000 0.0000 0.0000 0.0000 0.0000 28.2840
#
#
#
# Elastic Compliance Matrix: (Units=1/GPa)
#
#
# Indices 1 2 3 4 5 6 
#
# 1 0.024983 -0.003305 -0.010106 0.000000 0.000000 0.000000
# 2 -0.003305 0.009433 -0.005005 0.000000 0.000000 0.000000
# 3 -0.010106 -0.005005 0.019145 0.000000 0.000000 0.000000
# 4 0.000000 0.000000 0.000000 0.024161 0.000000 0.000000
# 5 0.000000 0.000000 0.000000 0.000000 0.039225 0.000000
# 6 0.000000 0.000000 0.000000 0.000000 0.000000 0.035356
#
#
# Mechanical properties :
#
#
# Convention : Reuss Voigt Hill
#
# Bulk Modulus (GPa) = 59.77512 71.20877 65.49195
# Shear Modulus (GPa) = 25.67914 29.46524 27.57219
#
# Velocity S-wave (km/s) = 3.48800 3.73630 3.61428
# Velocity P-wave (km/s) = 6.67394 7.23534 6.96030
#
# Compressibility (1/GPa) = 0.01672937
#
# Stress axis : x y z
#
# Youngs Moduli (GPa) = 40.02786 106.00647 52.23305
#
# Poissons Ratio (x) = 0.35039 0.52784
# Poissons Ratio (y) = 0.13231 0.26142
# Poissons Ratio (z) = 0.40450 0.53056
#
# Static dielectric constant tensor:
#      x y z
#    x 3.464770 0.000000 0.000000 
#    y 0.000000 5.819470 0.000000 
#    z 0.000000 0.000000 3.974620 
# 
# 
# High freq. dielectric constant tensor:
#      x y z
#    x 1.822510 0.000000 0.000000 
#    y 0.000000 1.834300 0.000000 
#    z 0.000000 0.000000 1.819850 
# 
# From -- ./inp_files/17451.got.cif
#   From: 2010.03.12/outbox.cif.g09.slc.cpg/sg54_9_cif.got.tgz:17451.got - 2010.04.16 15:00:50.
