data_PCOD8222227
_publ_section_title
;
Structure prediction by ZEFSAII (Michael W. Deem and Ramdas Pophale) SiO2 
 PCOD8222227
Probable space group: P M N A
;
_chemical_formula_sum "Si O2"
_cell_formula_units_Z 20
_cell_length_a 29.147076
_cell_length_b 5.174651
_cell_length_c 5.264065
_cell_angle_alpha 90.000000
_cell_angle_beta 90.000000
_cell_angle_gamma 90.000000
_cell_volume 793.957583
_symmetry_space_group_name_H-M "P M N A"
_symmetry_group_IT_number 53
_symmetry_cell_setting 'orthorhombic'
loop_
_space_group_symop_operation_xyz
x,y,z
1/2-x,-y,1/2+z
x,-y,-z
1/2-x,y,1/2-z
-x,-y,-z
1/2+x,y,1/2-z
-x,y,z
1/2+x,-y,1/2+z
loop_
_atom_site_type_symbol
_atom_site_label
_atom_site_fract_x
_atom_site_fract_y
_atom_site_fract_z
Si Si1 0.599988 0.647721 0.246807
Si Si2 0.221149 0.500000 0.000000
Si Si3 0.661329 0.000000 0.500000
Si Si4 0.000000 0.832100 0.251128
O O1 0.615848 0.500000 0.500000
O O2 0.545040 0.657776 0.242235
O O3 0.626491 0.923443 0.265777
O O4 0.618300 0.500000 0.000000
O O5 0.250000 0.428251 0.750000
O O6 0.192063 0.245962 0.074033
O O7 0.000000 0.000000 0.500000
O O8 0.000000 0.000000 0.000000
#
# Coordination Sequence:
#
# PCOD8222227 Si02
#       4
#     8   4   4   4
#     4  12  27  47  76 113 161 211 264 321 384 466
#     4  12  30  54  82 115 156 201 256 332 418 490
#     4  12  28  53  84 118 156 204 266 331 398 484
#     4  12  24  44  72 109 163 215 261 317 382 453
#
# _framework density 25.190261
#
# number of rings (size 3 to 8) (size 9 to 14) (size 15 to 20)
#    0.000    0.000    4.000    4.800    2.800    3.200 
#    0.000    0.000    0.000    0.000    0.000    0.000 
#    0.000    0.000    0.000    0.000    0.000    0.000 
#
# Total GULP energy -247940.758149 kJ/mol
# GULP energy per Si atom -12397.037907 kJ/mol
# Density = 2.513293 g / cm^3
# Si number density = 25.190261 Si / 1000 Ang^3
#
#
#
# Elastic Constant Matrix: (Units=GPa)
#
#
# Indices 1 2 3 4 5 6 
#
# 1 157.3381 68.5647 46.2982 0.0000 0.0000 0.0000
# 2 68.5647 161.0258 70.2432 0.0000 0.0000 0.0000
# 3 46.2982 70.2432 215.5160 0.0000 0.0000 0.0000
# 4 0.0000 0.0000 0.0000 52.8872 0.0000 0.0000
# 5 0.0000 0.0000 0.0000 0.0000 -0.3512 0.0000
# 6 0.0000 0.0000 0.0000 0.0000 0.0000 83.7433
#
#
#
# Elastic Compliance Matrix: (Units=1/GPa)
#
#
# Indices 1 2 3 4 5 6 
#
# 1 0.007893 -0.003056 -0.000700 0.000000 0.000000 0.000000
# 2 -0.003056 0.008422 -0.002089 0.000000 0.000000 0.000000
# 3 -0.000700 -0.002089 0.005471 0.000000 0.000000 0.000000
# 4 0.000000 0.000000 0.000000 0.018908 0.000000 0.000000
# 5 0.000000 0.000000 0.000000 0.000000 -2.847451 0.000000
# 6 0.000000 0.000000 0.000000 0.000000 0.000000 0.011941
#
#
# Mechanical properties :
#
#
# Convention : Reuss Voigt Hill
#
# Bulk Modulus (GPa) = 99.02391 100.45470 99.73930
# Shear Modulus (GPa) = -1.79872 50.50745 24.35437
#
# Velocity S-wave (km/s) = -0.84593 4.48262 3.11274
# Velocity P-wave (km/s) = 6.20013 8.17049 7.25253
#
# Compressibility (1/GPa) = 0.01009857
#
# Stress axis : x y z
#
# Youngs Moduli (GPa) = 126.69048 118.73046 182.77823
#
# Poissons Ratio (x) = 0.36281 0.12789
# Poissons Ratio (y) = 0.38713 0.38177
# Poissons Ratio (z) = 0.08865 0.24799
#
# Static dielectric constant tensor:
#      x y z
#    x 4.680940 0.000000 0.000000 
#    y 0.000000 4.692920 0.000000 
#    z 0.000000 0.000000 4.740350 
# 
# 
# High freq. dielectric constant tensor:
#      x y z
#    x 2.026190 0.000000 0.000000 
#    y 0.000000 2.011930 0.000000 
#    z 0.000000 0.000000 2.007550 
# 
# From -- ./inp_files/3991.got.cif
#   From: 2010.03.12/outbox.cif.g09.slc.cpg/sg53_2_cif.got.tgz:3991.got - 2010.04.16 14:36:59.
