data_PCOD8222842
_publ_section_title
;
Structure prediction by ZEFSAII (Michael W. Deem and Ramdas Pophale) SiO2 
 PCOD8222842
Probable space group: P C C A
;
_chemical_formula_sum "Si O2"
_cell_formula_units_Z 36
_cell_length_a 6.242919
_cell_length_b 13.971215
_cell_length_c 16.018508
_cell_angle_alpha 90.000000
_cell_angle_beta 90.000000
_cell_angle_gamma 90.000000
_cell_volume 1397.152907
_symmetry_space_group_name_H-M "P C C A"
_symmetry_group_IT_number 54
_symmetry_cell_setting 'orthorhombic'
loop_
_space_group_symop_operation_xyz
x,y,z
1/2-x,-y,z
1/2+x,-y,1/2-z
-x,y,1/2-z
-x,-y,-z
1/2+x,y,-z
1/2-x,y,1/2+z
x,-y,1/2+z
loop_
_atom_site_type_symbol
_atom_site_label
_atom_site_fract_x
_atom_site_fract_y
_atom_site_fract_z
Si Si1 0.500000 0.716070 0.750000
Si Si2 0.092663 0.831860 0.390322
Si Si3 0.651314 0.402845 0.830166
Si Si4 0.622643 0.778738 0.424968
Si Si5 0.985854 0.033505 0.348388
O O1 0.669812 0.777570 0.693597
O O2 0.632245 0.647887 0.808135
O O3 0.171155 0.782569 0.476218
O O4 0.836213 0.813541 0.379329
O O5 0.140965 0.945937 0.379508
O O6 0.750000 0.500000 0.870901
O O7 0.500000 0.423784 0.750000
O O8 0.542822 0.328275 0.897460
O O9 0.451690 0.863932 0.396197
O O10 0.000000 0.048480 0.250000
O O11 0.750000 0.000000 0.376726
#
# Coordination Sequence:
#
# PCOD8222842 Si02
#       5
#     4   8   8   8   8
#     4  10  22  42  66  92 126 174 216 264 322 396
#     4  10  21  39  60  90 130 167 209 260 326 382
#     4  11  23  43  68  95 126 166 221 269 330 387
#     4  10  23  37  60  94 126 162 217 265 321 389
#     4  10  20  36  58  91 126 168 214 257 315 396
#
# _framework density 25.766684999999999
#
# number of rings (size 3 to 8) (size 9 to 14) (size 15 to 20)
#    0.000    1.778    2.222    1.333    3.111    1.778 
#    0.000    5.556    0.000    0.000    0.000    0.000 
#    0.000    0.000    0.000    0.000    0.000    0.000 
#
# Total GULP energy -446133.478893 kJ/mol
# GULP energy per Si atom -12392.596636 kJ/mol
# Density = 2.570804 g / cm^3
# Si number density = 25.766685 Si / 1000 Ang^3
#
#
#
# Elastic Constant Matrix: (Units=GPa)
#
#
# Indices 1 2 3 4 5 6 
#
# 1 41.9631 41.1002 1.7820 0.0000 0.0000 0.0000
# 2 41.1002 244.6584 87.6766 0.0000 0.0000 0.0000
# 3 1.7820 87.6766 152.4847 0.0000 0.0000 0.0000
# 4 0.0000 0.0000 0.0000 41.3139 0.0000 0.0000
# 5 0.0000 0.0000 0.0000 0.0000 28.9790 0.0000
# 6 0.0000 0.0000 0.0000 0.0000 0.0000 38.6525
#
#
#
# Elastic Compliance Matrix: (Units=1/GPa)
#
#
# Indices 1 2 3 4 5 6 
#
# 1 0.029696 -0.006127 0.003176 0.000000 0.000000 0.000000
# 2 -0.006127 0.006412 -0.003615 0.000000 0.000000 0.000000
# 3 0.003176 -0.003615 0.008600 0.000000 0.000000 0.000000
# 4 0.000000 0.000000 0.000000 0.024205 0.000000 0.000000
# 5 0.000000 0.000000 0.000000 0.000000 0.034508 0.000000
# 6 0.000000 0.000000 0.000000 0.000000 0.000000 0.025872
#
#
# Mechanical properties :
#
#
# Convention : Reuss Voigt Hill
#
# Bulk Modulus (GPa) = 31.66999 77.80263 54.73631
# Shear Modulus (GPa) = 32.69035 42.35891 37.52463
#
# Velocity S-wave (km/s) = 3.56575 4.05895 3.82032
# Velocity P-wave (km/s) = 5.41023 7.22685 6.38349
#
# Compressibility (1/GPa) = 0.03157563
#
# Stress axis : x y z
#
# Youngs Moduli (GPa) = 33.67409 155.95355 116.28350
#
# Poissons Ratio (x) = 0.95549 -0.36929
# Poissons Ratio (y) = 0.20631 0.42040
# Poissons Ratio (z) = -0.10694 0.56382
#
# Static dielectric constant tensor:
#      x y z
#    x 5.206320 0.000000 0.000000 
#    y 0.000000 5.343960 0.000000 
#    z 0.000000 0.000000 4.792670 
# 
# 
# High freq. dielectric constant tensor:
#      x y z
#    x 2.075860 0.000000 0.000000 
#    y 0.000000 2.041550 0.000000 
#    z 0.000000 0.000000 2.009680 
# 
# From -- ./inp_files/11412.got.cif
#   From: 2010.03.12/outbox.cif.g09.slc.cpg/sg54_6_cif.got.tgz:11412.got - 2010.04.16 15:00:50.
