data_PCOD8222290
_publ_section_title
;
Structure prediction by ZEFSAII (Michael W. Deem and Ramdas Pophale) SiO2 
 PCOD8222290
Probable space group: P C C A
;
_chemical_formula_sum "Si O2"
_cell_formula_units_Z 60
_cell_length_a 19.010131
_cell_length_b 27.972018
_cell_length_c 5.399234
_cell_angle_alpha 90.000000
_cell_angle_beta 90.000000
_cell_angle_gamma 90.000000
_cell_volume 2871.052001
_symmetry_space_group_name_H-M "P C C A"
_symmetry_group_IT_number 54
_symmetry_cell_setting 'orthorhombic'
loop_
_space_group_symop_operation_xyz
x,y,z
1/2-x,-y,z
1/2+x,-y,1/2-z
-x,y,1/2-z
-x,-y,-z
1/2+x,y,-z
1/2-x,y,1/2+z
x,-y,1/2+z
loop_
_atom_site_type_symbol
_atom_site_label
_atom_site_fract_x
_atom_site_fract_y
_atom_site_fract_z
Si Si1 0.000000 0.798236 0.750000
Si Si2 0.216826 0.860468 0.243760
Si Si3 0.434699 0.877859 0.582305
Si Si4 0.419596 0.519381 0.998376
Si Si5 0.578511 0.980907 0.039641
Si Si6 0.043992 0.623842 0.501229
Si Si7 0.070406 0.273830 0.906152
Si Si8 0.217529 0.749890 0.235685
O O1 0.058700 0.765495 0.618855
O O2 0.953315 0.830691 0.570335
O O3 0.250353 0.884050 0.492476
O O4 0.132780 0.866814 0.251940
O O5 0.238205 0.805211 0.239207
O O6 0.500000 0.892653 0.750000
O O7 0.419687 0.923874 0.409912
O O8 0.382171 0.500598 0.249555
O O9 0.408843 0.576498 0.992561
O O10 0.500000 0.500000 0.000000
O O11 0.616590 0.994112 0.776861
O O12 0.500000 0.000000 0.000000
O O13 0.087530 0.673534 0.517513
O O14 0.000000 0.619878 0.750000
O O15 0.000000 0.624068 0.250000
O O16 0.133854 0.257738 0.730994
O O17 0.000000 0.276100 0.750000
O O18 0.250094 0.726162 0.486452
#
# Coordination Sequence:
#
# PCOD8222290 Si02
#       8
#     4   8   8   8   8   8   8   8
#     4  12  24  36  58  94 124 154 200 256 304 346
#     4  10  24  42  61  89 125 160 197 248 302 354
#     4  12  25  38  68  95 121 155 208 252 296 359
#     4  10  15  25  45  68 103 145 192 229 285 366
#     4  10  20  39  60  92 117 149 190 245 291 344
#     4  11  19  31  48  75 111 161 181 237 308 362
#     4  11  25  39  56  87 130 158 202 253 316 363
#     4  10  23  41  63  80 114 166 212 244 289 359
#
# _framework density 20.898261999999999
#
# number of rings (size 3 to 8) (size 9 to 14) (size 15 to 20)
#    0.000    1.333    4.667    2.800    9.333    0.000 
#    0.000    0.000    0.000    2.400    0.000    0.000 
#    0.000    3.200    0.000    0.000    0.000    0.000 
#
# Total GULP energy -743615.243046 kJ/mol
# GULP energy per Si atom -12393.587384 kJ/mol
# Density = 2.085070 g / cm^3
# Si number density = 20.898262 Si / 1000 Ang^3
#
#
#
# Elastic Constant Matrix: (Units=GPa)
#
#
# Indices 1 2 3 4 5 6 
#
# 1 83.6302 -2.6112 35.7181 0.0000 0.0000 0.0000
# 2 -2.6112 125.1876 36.5512 0.0000 0.0000 0.0000
# 3 35.7181 36.5512 177.9067 0.0000 0.0000 0.0000
# 4 0.0000 0.0000 0.0000 3.8512 0.0000 0.0000
# 5 0.0000 0.0000 0.0000 0.0000 22.2989 0.0000
# 6 0.0000 0.0000 0.0000 0.0000 0.0000 5.2032
#
#
#
# Elastic Compliance Matrix: (Units=1/GPa)
#
#
# Indices 1 2 3 4 5 6 
#
# 1 0.013224 0.001118 -0.002885 0.000000 0.000000 0.000000
# 2 0.001118 0.008592 -0.001990 0.000000 0.000000 0.000000
# 3 -0.002885 -0.001990 0.006609 0.000000 0.000000 0.000000
# 4 0.000000 0.000000 0.000000 0.259662 0.000000 0.000000
# 5 0.000000 0.000000 0.000000 0.000000 0.044845 0.000000
# 6 0.000000 0.000000 0.000000 0.000000 0.000000 0.192188
#
#
# Mechanical properties :
#
#
# Convention : Reuss Voigt Hill
#
# Bulk Modulus (GPa) = 47.81784 58.44898 53.13341
# Shear Modulus (GPa) = 9.26605 27.40842 18.33724
#
# Velocity S-wave (km/s) = 2.10796 3.62542 2.96540
# Velocity P-wave (km/s) = 5.37174 6.74936 6.09957
#
# Compressibility (1/GPa) = 0.02091270
#
# Stress axis : x y z
#
# Youngs Moduli (GPa) = 75.61791 116.38341 151.31121
#
# Poissons Ratio (x) = -0.13013 0.43650
# Poissons Ratio (y) = -0.08455 0.30108
# Poissons Ratio (z) = 0.21814 0.23158
#
# Static dielectric constant tensor:
#      x y z
#    x 3.209730 0.000000 0.000000 
#    y 0.000000 4.174790 0.000000 
#    z 0.000000 0.000000 4.545190 
# 
# 
# High freq. dielectric constant tensor:
#      x y z
#    x 1.752210 0.000000 0.000000 
#    y 0.000000 1.813900 0.000000 
#    z 0.000000 0.000000 1.845120 
# 
# From -- ./inp_files/1072.got.cif
#   From: 2010.03.12/outbox.cif.g09.slc.cpg/sg54_1_cif.got.tgz:1072.got - 2010.04.16 15:00:50.
