data_PCOD8222624
_publ_section_title
;
Structure prediction by ZEFSAII (Michael W. Deem and Ramdas Pophale) SiO2 
 PCOD8222624
Probable space group: P C C A
;
_chemical_formula_sum "Si O2"
_cell_formula_units_Z 44
_cell_length_a 11.421289
_cell_length_b 7.050544
_cell_length_c 25.603155
_cell_angle_alpha 90.000000
_cell_angle_beta 90.000000
_cell_angle_gamma 90.000000
_cell_volume 2061.727357
_symmetry_space_group_name_H-M "P C C A"
_symmetry_group_IT_number 54
_symmetry_cell_setting 'orthorhombic'
loop_
_space_group_symop_operation_xyz
x,y,z
1/2-x,-y,z
1/2+x,-y,1/2-z
-x,y,1/2-z
-x,-y,-z
1/2+x,y,-z
1/2-x,y,1/2+z
x,-y,1/2+z
loop_
_atom_site_type_symbol
_atom_site_label
_atom_site_fract_x
_atom_site_fract_y
_atom_site_fract_z
Si Si1 0.702992 0.289541 0.951330
Si Si2 0.642917 0.260443 0.068246
Si Si3 0.089203 0.829996 0.113885
Si Si4 0.750000 0.000000 0.643857
Si Si5 0.016785 0.895639 0.810902
Si Si6 0.997062 0.433388 0.385652
O O1 0.750000 0.500000 0.953080
O O2 0.793488 0.149951 0.921113
O O3 0.577590 0.291039 0.922463
O O4 0.685902 0.221226 0.010126
O O5 0.525841 0.131826 0.077755
O O6 0.745211 0.187325 0.106984
O O7 0.891027 0.518185 0.081402
O O8 0.080836 0.612117 0.134880
O O9 0.087766 0.980926 0.161877
O O10 0.637877 0.994799 0.680887
O O11 0.000000 0.873003 0.750000
O O12 0.031507 0.685658 0.834858
#
# Coordination Sequence:
#
# PCOD8222624 Si02
#       6
#     8   8   8   4   8   8
#     4  10  19  34  62  92 128 172 192 244 321 364
#     4   9  20  36  58  88 127 161 199 244 303 377
#     4   8  21  39  56  89 132 153 207 261 293 380
#     4  10  24  42  58  92 118 164 202 258 312 372
#     4  11  24  43  65  85 120 160 215 265 316 354
#     4   9  21  38  60  92 122 157 210 252 297 381
#
# _framework density 21.341327
#
# number of rings (size 3 to 8) (size 9 to 14) (size 15 to 20)
#    1.091    1.455    0.000    0.545    2.545    4.364 
#    0.000    3.636    0.000    0.000    0.000    0.000 
#    0.000    0.000    0.000    0.000    0.000    0.000 
#
# Total GULP energy -545219.927141 kJ/mol
# GULP energy per Si atom -12391.361980 kJ/mol
# Density = 2.129275 g / cm^3
# Si number density = 21.341327 Si / 1000 Ang^3
#
#
#
# Elastic Constant Matrix: (Units=GPa)
#
#
# Indices 1 2 3 4 5 6 
#
# 1 68.9413 21.1706 58.7187 0.0000 0.0000 0.0000
# 2 21.1706 56.1257 53.1182 0.0000 0.0000 0.0000
# 3 58.7187 53.1182 173.3833 0.0000 0.0000 0.0000
# 4 0.0000 0.0000 0.0000 27.7267 0.0000 0.0000
# 5 0.0000 0.0000 0.0000 0.0000 26.6454 0.0000
# 6 0.0000 0.0000 0.0000 0.0000 0.0000 33.0148
#
#
#
# Elastic Compliance Matrix: (Units=1/GPa)
#
#
# Indices 1 2 3 4 5 6 
#
# 1 0.020491 -0.001636 -0.006438 0.000000 0.000000 0.000000
# 2 -0.001636 0.025223 -0.007173 0.000000 0.000000 0.000000
# 3 -0.006438 -0.007173 0.010146 0.000000 0.000000 0.000000
# 4 0.000000 0.000000 0.000000 0.036066 0.000000 0.000000
# 5 0.000000 0.000000 0.000000 0.000000 0.037530 0.000000
# 6 0.000000 0.000000 0.000000 0.000000 0.000000 0.030289
#
#
# Mechanical properties :
#
#
# Convention : Reuss Voigt Hill
#
# Bulk Modulus (GPa) = 39.42492 62.71836 51.07164
# Shear Modulus (GPa) = 25.16404 28.50691 26.83548
#
# Velocity S-wave (km/s) = 3.43756 3.65877 3.54989
# Velocity P-wave (km/s) = 5.85401 6.87756 6.38632
#
# Compressibility (1/GPa) = 0.02536467
#
# Stress axis : x y z
#
# Youngs Moduli (GPa) = 48.80147 39.64600 98.56363
#
# Poissons Ratio (x) = 0.06485 0.63460
# Poissons Ratio (y) = 0.07983 0.70704
# Poissons Ratio (z) = 0.31421 0.28440
#
# Static dielectric constant tensor:
#      x y z
#    x 3.884830 0.000000 0.000000 
#    y 0.000000 3.772070 0.000000 
#    z 0.000000 0.000000 3.485600 
# 
# 
# High freq. dielectric constant tensor:
#      x y z
#    x 1.835590 0.000000 0.000000 
#    y 0.000000 1.842250 0.000000 
#    z 0.000000 0.000000 1.802730 
# 
# From -- ./inp_files/23989.got.cif
#   From: 2010.03.12/outbox.cif.g09.slc.cpg/sg54_12_cif.got.tgz:23989.got - 2010.04.16 15:00:50.
