data_PCOD8222238
_publ_section_title
;
Structure prediction by ZEFSAII (Michael W. Deem and Ramdas Pophale) SiO2 
 PCOD8222238
Probable space group: P M N A
;
_chemical_formula_sum "Si O2"
_cell_formula_units_Z 56
_cell_length_a 9.373163
_cell_length_b 16.085280
_cell_length_c 24.691633
_cell_angle_alpha 90.000000
_cell_angle_beta 90.000000
_cell_angle_gamma 90.000000
_cell_volume 3722.756306
_symmetry_space_group_name_H-M "P M N A"
_symmetry_group_IT_number 53
_symmetry_cell_setting 'orthorhombic'
loop_
_space_group_symop_operation_xyz
x,y,z
1/2-x,-y,1/2+z
x,-y,-z
1/2-x,y,1/2-z
-x,-y,-z
1/2+x,y,1/2-z
-x,y,z
1/2+x,-y,1/2+z
loop_
_atom_site_type_symbol
_atom_site_label
_atom_site_fract_x
_atom_site_fract_y
_atom_site_fract_z
Si Si1 0.169325 0.522743 0.415594
Si Si2 0.834271 0.185218 0.481612
Si Si3 0.330679 0.628706 0.985028
Si Si4 0.164477 0.893084 0.402264
Si Si5 0.665373 0.782246 0.198133
Si Si6 0.833016 0.589910 0.302782
Si Si7 0.661424 0.039314 0.440858
O O1 0.216105 0.430549 0.435011
O O2 0.229245 0.590608 0.458571
O O3 0.226885 0.540384 0.355187
O O4 0.000000 0.530607 0.414882
O O5 0.772522 0.278544 0.475166
O O6 0.810741 0.158767 0.543360
O O7 0.744082 0.126997 0.441302
O O8 0.000000 0.178509 0.465168
O O9 0.500000 0.632542 0.989428
O O10 0.215270 0.834742 0.353489
O O11 0.000000 0.919727 0.396812
O O12 0.258738 0.976520 0.400310
O O13 0.750000 0.815623 0.250000
O O14 0.500000 0.795090 0.210207
O O15 0.700876 0.686341 0.186516
O O16 0.750000 0.556937 0.250000
O O17 0.000000 0.574238 0.293370
O O18 0.500000 0.053493 0.420699
O O19 0.665001 0.000000 0.500000
#
# Coordination Sequence:
#
# PCOD8222238 Si02
#       7
#     8   8   8   8   8   8   8
#     4   8  13  22  37  59  84 105 130 165 201 234
#     4   9  15  24  40  60  80 102 130 162 195 231
#     4   8  13  21  37  61  83 103 130 166 203 236
#     4   9  16  26  40  57  78 104 131 160 193 229
#     4   9  17  27  39  57  80 105 133 161 190 227
#     4   9  16  26  40  58  81 108 135 163 194 230
#     4   9  17  27  38  55  79 104 129 156 189 231
#
# _framework density 15.042617
#
# number of rings (size 3 to 8) (size 9 to 14) (size 15 to 20)
#    0.000    3.286    0.000    2.143    0.000    5.714 
#    0.000    0.000    0.000    3.429    0.000    3.000 
#    0.000    2.286    0.000    0.000    0.000    0.000 
#
# Total GULP energy -694160.931933 kJ/mol
# GULP energy per Si atom -12395.730927 kJ/mol
# Density = 1.500838 g / cm^3
# Si number density = 15.042617 Si / 1000 Ang^3
#
#
#
# Elastic Constant Matrix: (Units=GPa)
#
#
# Indices 1 2 3 4 5 6 
#
# 1 45.8769 39.6590 33.3739 0.0000 0.0000 0.0000
# 2 39.6590 116.2522 51.5464 0.0000 0.0000 0.0000
# 3 33.3739 51.5464 98.8678 0.0000 0.0000 0.0000
# 4 0.0000 0.0000 0.0000 25.2678 0.0000 0.0000
# 5 0.0000 0.0000 0.0000 0.0000 19.5998 0.0000
# 6 0.0000 0.0000 0.0000 0.0000 0.0000 11.5767
#
#
#
# Elastic Compliance Matrix: (Units=1/GPa)
#
#
# Indices 1 2 3 4 5 6 
#
# 1 0.034402 -0.008568 -0.007146 0.000000 0.000000 0.000000
# 2 -0.008568 0.013322 -0.004054 0.000000 0.000000 0.000000
# 3 -0.007146 -0.004054 0.014640 0.000000 0.000000 0.000000
# 4 0.000000 0.000000 0.000000 0.039576 0.000000 0.000000
# 5 0.000000 0.000000 0.000000 0.000000 0.051021 0.000000
# 6 0.000000 0.000000 0.000000 0.000000 0.000000 0.086380
#
#
# Mechanical properties :
#
#
# Convention : Reuss Voigt Hill
#
# Bulk Modulus (GPa) = 43.80181 56.68394 50.24288
# Shear Modulus (GPa) = 17.45283 20.38339 18.91811
#
# Velocity S-wave (km/s) = 3.40990 3.68508 3.55016
# Velocity P-wave (km/s) = 6.68468 7.47466 7.09068
#
# Compressibility (1/GPa) = 0.02283010
#
# Stress axis : x y z
#
# Youngs Moduli (GPa) = 29.06776 75.06251 68.30528
#
# Poissons Ratio (x) = 0.64311 0.48811
# Poissons Ratio (y) = 0.24904 0.27689
# Poissons Ratio (z) = 0.20772 0.30428
#
# Static dielectric constant tensor:
#      x y z
#    x 2.702920 0.000000 0.000000 
#    y 0.000000 3.018880 0.000000 
#    z 0.000000 0.000000 2.852750 
# 
# 
# High freq. dielectric constant tensor:
#      x y z
#    x 1.549560 0.000000 0.000000 
#    y 0.000000 1.570130 0.000000 
#    z 0.000000 0.000000 1.553020 
# 
# From -- ./inp_files/34360.got.cif
#   From: 2010.03.12/outbox.cif.g09.slc.cpg/sg53_18_cif.got.tgz:34360.got - 2010.04.16 14:36:59.
