data_PCOD8222909
_publ_section_title
;
Structure prediction by ZEFSAII (Michael W. Deem and Ramdas Pophale) SiO2 
 PCOD8222909
Probable space group: P C C A
;
_chemical_formula_sum "Si O2"
_cell_formula_units_Z 64
_cell_length_a 9.344199
_cell_length_b 13.656320
_cell_length_c 25.628981
_cell_angle_alpha 90.000000
_cell_angle_beta 90.000000
_cell_angle_gamma 90.000000
_cell_volume 3270.446904
_symmetry_space_group_name_H-M "P C C A"
_symmetry_group_IT_number 54
_symmetry_cell_setting 'orthorhombic'
loop_
_space_group_symop_operation_xyz
x,y,z
1/2-x,-y,z
1/2+x,-y,1/2-z
-x,y,1/2-z
-x,-y,-z
1/2+x,y,-z
1/2-x,y,1/2+z
x,-y,1/2+z
loop_
_atom_site_type_symbol
_atom_site_label
_atom_site_fract_x
_atom_site_fract_y
_atom_site_fract_z
Si Si1 0.464954 0.629594 0.611933
Si Si2 0.572504 0.713881 0.299903
Si Si3 0.553507 0.066317 0.192249
Si Si4 0.253254 0.720101 0.920480
Si Si5 0.498333 0.407824 0.893012
Si Si6 0.730315 0.389347 0.975346
Si Si7 0.389357 0.244145 0.202236
Si Si8 0.350281 0.868744 0.343052
O O1 0.585845 0.708190 0.598571
O O2 0.527887 0.521635 0.615787
O O3 0.344552 0.632692 0.568510
O O4 0.401878 0.659220 0.667384
O O5 0.500000 0.661024 0.250000
O O6 0.594490 0.635220 0.346025
O O7 0.723213 0.761073 0.282125
O O8 0.465327 0.799133 0.316880
O O9 0.500000 0.032476 0.250000
O O10 0.435020 0.144295 0.171364
O O11 0.709647 0.120160 0.193914
O O12 0.570312 0.974480 0.152694
O O13 0.156781 0.640022 0.891484
O O14 0.196134 0.827172 0.901004
O O15 0.252170 0.697158 0.982350
O O16 0.573764 0.384779 0.948682
O O17 0.750000 0.500000 0.999074
O O18 0.500000 0.252224 0.250000
#
# Coordination Sequence:
#
# PCOD8222909 Si02
#       8
#     8   8   8   8   8   8   8   8
#     4  11  21  38  57  86 121 158 201 252 289 358
#     4  11  22  37  57  85 121 157 194 246 298 365
#     4  10  20  38  62  87 116 151 196 243 297 357
#     4  11  21  36  59  88 116 154 194 254 305 350
#     4  10  22  36  56  86 121 156 204 247 296 351
#     4  10  20  37  60  87 118 159 211 254 297 351
#     4  11  23  37  59  86 118 159 200 243 308 358
#     4  10  22  38  59  91 119 147 193 247 302 354
#
# _framework density 19.569191
#
# number of rings (size 3 to 8) (size 9 to 14) (size 15 to 20)
#    0.000    1.500    2.500    3.750    1.750    5.000 
#    0.000    0.000    0.000    0.750    3.250    0.000 
#    0.000    0.000    0.000    0.000    0.000    0.000 
#
# Total GULP energy -793010.143939 kJ/mol
# GULP energy per Si atom -12390.783499 kJ/mol
# Density = 1.952465 g / cm^3
# Si number density = 19.569191 Si / 1000 Ang^3
#
#
#
# Elastic Constant Matrix: (Units=GPa)
#
#
# Indices 1 2 3 4 5 6 
#
# 1 66.5815 2.4691 12.8274 0.0000 0.0000 0.0000
# 2 2.4691 70.0490 42.6695 0.0000 0.0000 0.0000
# 3 12.8274 42.6695 84.1869 0.0000 0.0000 0.0000
# 4 0.0000 0.0000 0.0000 31.6042 0.0000 0.0000
# 5 0.0000 0.0000 0.0000 0.0000 22.4401 0.0000
# 6 0.0000 0.0000 0.0000 0.0000 0.0000 12.8441
#
#
#
# Elastic Compliance Matrix: (Units=1/GPa)
#
#
# Indices 1 2 3 4 5 6 
#
# 1 0.015554 0.001295 -0.003026 0.000000 0.000000 0.000000
# 2 0.001295 0.020760 -0.010719 0.000000 0.000000 0.000000
# 3 -0.003026 -0.010719 0.017772 0.000000 0.000000 0.000000
# 4 0.000000 0.000000 0.000000 0.031641 0.000000 0.000000
# 5 0.000000 0.000000 0.000000 0.000000 0.044563 0.000000
# 6 0.000000 0.000000 0.000000 0.000000 0.000000 0.077857
#
#
# Mechanical properties :
#
#
# Convention : Reuss Voigt Hill
#
# Bulk Modulus (GPa) = 34.26367 37.41660 35.84013
# Shear Modulus (GPa) = 20.59505 24.23443 22.41474
#
# Velocity S-wave (km/s) = 3.24762 3.52290 3.38806
# Velocity P-wave (km/s) = 5.62226 5.97574 5.80169
#
# Compressibility (1/GPa) = 0.02918543
#
# Stress axis : x y z
#
# Youngs Moduli (GPa) = 64.29121 48.17063 56.26698
#
# Poissons Ratio (x) = -0.06239 0.17029
# Poissons Ratio (y) = -0.08327 0.60314
# Poissons Ratio (z) = 0.19457 0.51635
#
# Static dielectric constant tensor:
#      x y z
#    x 3.740980 0.000000 0.000000 
#    y 0.000000 3.747850 0.000000 
#    z 0.000000 0.000000 3.539710 
# 
# 
# High freq. dielectric constant tensor:
#      x y z
#    x 1.784210 0.000000 0.000000 
#    y 0.000000 1.745740 0.000000 
#    z 0.000000 0.000000 1.741400 
# 
# From -- ./inp_files/23701.got.cif
#   From: 2010.03.12/outbox.cif.g09.slc.cpg/sg54_12_cif.got.tgz:23701.got - 2010.04.16 15:00:50.
