data_PCOD8222800
_publ_section_title
;
Structure prediction by ZEFSAII (Michael W. Deem and Ramdas Pophale) SiO2 
 PCOD8222800
Probable space group: P C C A
;
_chemical_formula_sum "Si O2"
_cell_formula_units_Z 60
_cell_length_a 24.768941
_cell_length_b 14.480901
_cell_length_c 9.030611
_cell_angle_alpha 90.000000
_cell_angle_beta 90.000000
_cell_angle_gamma 90.000000
_cell_volume 3239.068691
_symmetry_space_group_name_H-M "P C C A"
_symmetry_group_IT_number 54
_symmetry_cell_setting 'orthorhombic'
loop_
_space_group_symop_operation_xyz
x,y,z
1/2-x,-y,z
1/2+x,-y,1/2-z
-x,y,1/2-z
-x,-y,-z
1/2+x,y,-z
1/2-x,y,1/2+z
x,-y,1/2+z
loop_
_atom_site_type_symbol
_atom_site_label
_atom_site_fract_x
_atom_site_fract_y
_atom_site_fract_z
Si Si1 0.186095 0.087680 0.683467
Si Si2 0.161185 0.084169 0.356565
Si Si3 0.955779 0.061156 0.129628
Si Si4 0.750000 0.500000 0.460428
Si Si5 0.363617 0.231262 0.397677
Si Si6 0.526379 0.142614 0.092041
Si Si7 0.792867 0.380095 0.720525
Si Si8 0.782996 0.220024 0.324913
O O1 0.156168 0.063546 0.530652
O O2 0.147443 0.146016 0.789469
O O3 0.239338 0.142129 0.632929
O O4 0.197091 0.992386 0.770590
O O5 0.100392 0.088457 0.294413
O O6 0.186411 0.184026 0.321706
O O7 0.000000 0.044314 0.250000
O O8 0.947939 0.958788 0.059141
O O9 0.975554 0.144456 0.021392
O O10 0.778094 0.423642 0.562260
O O11 0.703540 0.456235 0.351839
O O12 0.427094 0.220830 0.439963
O O13 0.349127 0.324679 0.304354
O O14 0.324019 0.230855 0.538811
O O15 0.500000 0.161814 0.250000
O O16 0.744166 0.314557 0.774740
#
# Coordination Sequence:
#
# PCOD8222800 Si02
#       8
#     8   8   8   4   8   8   8   8
#     4  11  23  35  49  73 110 155 192 228 279 334
#     4  12  23  35  52  74 109 158 196 238 285 329
#     4  10  21  34  52  72 100 151 204 246 278 315
#     4  10  20  40  62  86 120 144 178 226 282 372
#     4  11  20  37  58  82 113 149 190 241 284 336
#     4  10  20  35  54  74 107 144 199 248 279 318
#     4  10  21  37  61  89 117 144 179 223 284 353
#     4  11  23  36  52  80 116 146 185 229 276 345
#
# _framework density 18.523841999999998
#
# number of rings (size 3 to 8) (size 9 to 14) (size 15 to 20)
#    0.000    1.333    2.667    4.400    5.600    1.067 
#    0.000    0.000    0.000    0.000    0.000    0.933 
#    0.000    0.000    0.000    0.000    0.000    0.000 
#
# Total GULP energy -743478.954225 kJ/mol
# GULP energy per Si atom -12391.315904 kJ/mol
# Density = 1.848168 g / cm^3
# Si number density = 18.523842 Si / 1000 Ang^3
#
#
#
# Elastic Constant Matrix: (Units=GPa)
#
#
# Indices 1 2 3 4 5 6 
#
# 1 92.6708 35.5769 21.6364 0.0000 0.0000 0.0000
# 2 35.5769 76.6128 38.9792 0.0000 0.0000 0.0000
# 3 21.6364 38.9792 100.7045 0.0000 0.0000 0.0000
# 4 0.0000 0.0000 0.0000 30.4774 0.0000 0.0000
# 5 0.0000 0.0000 0.0000 0.0000 25.9639 0.0000
# 6 0.0000 0.0000 0.0000 0.0000 0.0000 22.3231
#
#
#
# Elastic Compliance Matrix: (Units=1/GPa)
#
#
# Indices 1 2 3 4 5 6 
#
# 1 0.013159 -0.005818 -0.000575 0.000000 0.000000 0.000000
# 2 -0.005818 0.018826 -0.006037 0.000000 0.000000 0.000000
# 3 -0.000575 -0.006037 0.012390 0.000000 0.000000 0.000000
# 4 0.000000 0.000000 0.000000 0.032811 0.000000 0.000000
# 5 0.000000 0.000000 0.000000 0.000000 0.038515 0.000000
# 6 0.000000 0.000000 0.000000 0.000000 0.000000 0.044797
#
#
# Mechanical properties :
#
#
# Convention : Reuss Voigt Hill
#
# Bulk Modulus (GPa) = 51.24307 51.37480 51.30893
# Shear Modulus (GPa) = 26.06034 27.33925 26.69980
#
# Velocity S-wave (km/s) = 3.75487 3.84591 3.80066
# Velocity P-wave (km/s) = 6.82071 6.89318 6.85704
#
# Compressibility (1/GPa) = 0.01951483
#
# Stress axis : x y z
#
# Youngs Moduli (GPa) = 75.99528 53.11882 80.70851
#
# Poissons Ratio (x) = 0.30904 0.04643
# Poissons Ratio (y) = 0.44213 0.48722
# Poissons Ratio (z) = 0.04372 0.32067
#
# Static dielectric constant tensor:
#      x y z
#    x 3.319460 0.000000 0.000000 
#    y 0.000000 3.318440 0.000000 
#    z 0.000000 0.000000 3.261480 
# 
# 
# High freq. dielectric constant tensor:
#      x y z
#    x 1.703730 0.000000 0.000000 
#    y 0.000000 1.683890 0.000000 
#    z 0.000000 0.000000 1.737220 
# 
# From -- ./inp_files/5288.got.cif
#   From: 2010.03.12/outbox.cif.g09.slc.cpg/sg54_3_cif.got.tgz:5288.got - 2010.04.16 15:00:50.
