data_PCOD8222792
_publ_section_title
;
Structure prediction by ZEFSAII (Michael W. Deem and Ramdas Pophale) SiO2 
 PCOD8222792
Probable space group: P C C A
;
_chemical_formula_sum "Si O2"
_cell_formula_units_Z 52
_cell_length_a 17.094919
_cell_length_b 9.103584
_cell_length_c 17.152039
_cell_angle_alpha 90.000000
_cell_angle_beta 90.000000
_cell_angle_gamma 90.000000
_cell_volume 2669.286603
_symmetry_space_group_name_H-M "P C C A"
_symmetry_group_IT_number 54
_symmetry_cell_setting 'orthorhombic'
loop_
_space_group_symop_operation_xyz
x,y,z
1/2-x,-y,z
1/2+x,-y,1/2-z
-x,y,1/2-z
-x,-y,-z
1/2+x,y,-z
1/2-x,y,1/2+z
x,-y,1/2+z
loop_
_atom_site_type_symbol
_atom_site_label
_atom_site_fract_x
_atom_site_fract_y
_atom_site_fract_z
Si Si1 0.555347 0.168844 0.360132
Si Si2 0.662581 0.472731 0.634524
Si Si3 0.382531 0.787686 0.807807
Si Si4 0.983704 0.851251 0.870245
Si Si5 0.450434 0.354465 0.991727
Si Si6 0.250000 0.000000 0.787622
Si Si7 0.378356 0.213959 0.760353
O O1 0.610092 0.207408 0.286488
O O2 0.463509 0.161570 0.343278
O O3 0.577856 0.287187 0.426180
O O4 0.565930 0.999655 0.386484
O O5 0.750000 0.500000 0.608193
O O6 0.624204 0.623405 0.660866
O O7 0.623477 0.395355 0.560529
O O8 0.657202 0.364774 0.708211
O O9 0.308581 0.889538 0.836010
O O10 0.996199 0.770013 0.951657
O O11 0.066289 0.869696 0.823834
O O12 0.927996 0.748638 0.816598
O O13 0.500000 0.500000 0.000000
O O14 0.307139 0.104561 0.737652
#
# Coordination Sequence:
#
# PCOD8222792 Si02
#       7
#     8   8   8   8   8   4   8
#     4  11  21  40  61  91 113 164 201 252 294 352
#     4  11  23  39  59  91 121 162 192 251 306 357
#     4  11  22  36  67  88 120 150 212 248 301 354
#     4  10  20  38  58  88 117 154 201 249 292 350
#     4  11  24  39  60  85 125 160 204 240 296 368
#     4  12  18  36  60  96 114 148 198 260 298 356
#     4  10  20  34  62  87 117 149 201 250 295 349
#
# _framework density 19.480861999999998
#
# number of rings (size 3 to 8) (size 9 to 14) (size 15 to 20)
#    0.000    1.231    6.154    1.385    2.154    1.231 
#    0.000    2.308    0.000    1.846    0.000    0.000 
#    0.000    0.000    0.000    0.000    0.000    0.000 
#
# Total GULP energy -644377.666168 kJ/mol
# GULP energy per Si atom -12391.878196 kJ/mol
# Density = 1.943652 g / cm^3
# Si number density = 19.480862 Si / 1000 Ang^3
#
#
#
# Elastic Constant Matrix: (Units=GPa)
#
#
# Indices 1 2 3 4 5 6 
#
# 1 82.1613 19.4895 20.4140 0.0000 0.0000 0.0000
# 2 19.4895 99.1467 40.6012 0.0000 0.0000 0.0000
# 3 20.4140 40.6012 92.4133 0.0000 0.0000 0.0000
# 4 0.0000 0.0000 0.0000 33.6713 0.0000 0.0000
# 5 0.0000 0.0000 0.0000 0.0000 14.7832 0.0000
# 6 0.0000 0.0000 0.0000 0.0000 0.0000 33.0012
#
#
#
# Elastic Compliance Matrix: (Units=1/GPa)
#
#
# Indices 1 2 3 4 5 6 
#
# 1 0.013108 -0.001696 -0.002150 0.000000 0.000000 0.000000
# 2 -0.001696 0.012518 -0.005125 0.000000 0.000000 0.000000
# 3 -0.002150 -0.005125 0.013548 0.000000 0.000000 0.000000
# 4 0.000000 0.000000 0.000000 0.029699 0.000000 0.000000
# 5 0.000000 0.000000 0.000000 0.000000 0.067645 0.000000
# 6 0.000000 0.000000 0.000000 0.000000 0.000000 0.030302
#
#
# Mechanical properties :
#
#
# Convention : Reuss Voigt Hill
#
# Bulk Modulus (GPa) = 47.10185 48.30342 47.70263
# Shear Modulus (GPa) = 26.06352 29.17224 27.61788
#
# Velocity S-wave (km/s) = 3.66170 3.87393 3.76931
# Velocity P-wave (km/s) = 6.48910 6.69768 6.59422
#
# Compressibility (1/GPa) = 0.02123059
#
# Stress axis : x y z
#
# Youngs Moduli (GPa) = 76.29060 79.88342 73.81347
#
# Poissons Ratio (x) = 0.13549 0.15872
# Poissons Ratio (y) = 0.12939 0.37831
# Poissons Ratio (z) = 0.16405 0.40941
#
# Static dielectric constant tensor:
#      x y z
#    x 3.547280 0.000000 0.000000 
#    y 0.000000 3.901630 0.000000 
#    z 0.000000 0.000000 3.429620 
# 
# 
# High freq. dielectric constant tensor:
#      x y z
#    x 1.754850 0.000000 0.000000 
#    y 0.000000 1.780300 0.000000 
#    z 0.000000 0.000000 1.724440 
# 
# From -- ./inp_files/18590.got.cif
#   From: 2010.03.12/outbox.cif.g09.slc.cpg/sg54_10_cif.got.tgz:18590.got - 2010.04.16 15:00:50.
