data_PCOD8222060
_publ_section_title
;
Structure prediction by ZEFSAII (Michael W. Deem and Ramdas Pophale) SiO2 
 PCOD8222060
Probable space group: P M N A
;
_chemical_formula_sum "Si O2"
_cell_formula_units_Z 64
_cell_length_a 15.276176
_cell_length_b 22.542352
_cell_length_c 9.839738
_cell_angle_alpha 90.000000
_cell_angle_beta 90.000000
_cell_angle_gamma 90.000000
_cell_volume 3388.421394
_symmetry_space_group_name_H-M "P M N A"
_symmetry_group_IT_number 53
_symmetry_cell_setting 'orthorhombic'
loop_
_space_group_symop_operation_xyz
x,y,z
1/2-x,-y,1/2+z
x,-y,-z
1/2-x,y,1/2-z
-x,-y,-z
1/2+x,y,1/2-z
-x,y,z
1/2+x,-y,1/2+z
loop_
_atom_site_type_symbol
_atom_site_label
_atom_site_fract_x
_atom_site_fract_y
_atom_site_fract_z
Si Si1 0.099885 0.556148 0.092632
Si Si2 0.250812 0.776797 0.087694
Si Si3 0.147510 0.942407 0.276460
Si Si4 0.353066 0.075083 0.265615
Si Si5 0.598663 0.860407 0.992845
Si Si6 0.749849 0.356296 0.590064
Si Si7 0.400056 0.443775 0.907598
Si Si8 0.597380 0.137128 0.533992
O O1 0.162705 0.609082 0.042921
O O2 0.117678 0.539352 0.250126
O O3 0.000000 0.577118 0.071562
O O4 0.122013 0.500000 0.000000
O O5 0.250000 0.780818 0.250000
O O6 0.249271 0.709863 0.029456
O O7 0.165031 0.808720 0.029566
O O8 0.338822 0.805938 0.030279
O O9 0.250000 0.939033 0.250000
O O10 0.128040 0.919650 0.427750
O O11 0.098836 0.898419 0.174500
O O12 0.111389 0.009001 0.263727
O O13 0.250000 0.077548 0.250000
O O14 0.396335 0.123042 0.165687
O O15 0.379599 0.090235 0.417919
O O16 0.500000 0.841040 0.029241
O O17 0.750000 0.350047 0.750000
O O18 0.837251 0.390735 0.542932
O O19 0.500000 0.422882 0.928849
O O20 0.377822 0.500000 0.000000
O O21 0.500000 0.163453 0.514503
#
# Coordination Sequence:
#
# PCOD8222060 Si02
#       8
#     8   8   8   8   8   8   8   8
#     4   9  17  31  54  84 115 144 177 220 269 317
#     4  11  22  40  57  82 112 147 196 239 273 320
#     4  11  21  39  61  86 113 141 178 229 286 342
#     4  11  23  39  61  82 113 145 176 229 290 348
#     4  12  23  38  60  83 110 145 185 230 283 338
#     4   9  19  33  55  80 111 145 187 226 262 315
#     4   9  17  31  54  84 115 144 177 220 269 317
#     4  12  23  38  60  83 110 145 185 230 283 338
#
# _framework density 18.887851999999999
#
# number of rings (size 3 to 8) (size 9 to 14) (size 15 to 20)
#    0.000    1.500    3.750    1.875    0.000    6.000 
#    0.000    2.500    5.500    0.000    0.000    0.000 
#    0.000    0.000    0.000    0.000    0.000    0.000 
#
# Total GULP energy -793773.254103 kJ/mol
# GULP energy per Si atom -12402.707095 kJ/mol
# Density = 1.884486 g / cm^3
# Si number density = 18.887852 Si / 1000 Ang^3
#
#
#
# Elastic Constant Matrix: (Units=GPa)
#
#
# Indices 1 2 3 4 5 6 
#
# 1 141.4951 74.5508 12.3432 0.0000 0.0000 0.0000
# 2 74.5508 151.8481 29.4193 0.0000 0.0000 0.0000
# 3 12.3432 29.4193 48.1166 0.0000 0.0000 0.0000
# 4 0.0000 0.0000 0.0000 22.7326 0.0000 0.0000
# 5 0.0000 0.0000 0.0000 0.0000 22.8072 0.0000
# 6 0.0000 0.0000 0.0000 0.0000 0.0000 12.0840
#
#
#
# Elastic Compliance Matrix: (Units=1/GPa)
#
#
# Indices 1 2 3 4 5 6 
#
# 1 0.009543 -0.004777 0.000473 0.000000 0.000000 0.000000
# 2 -0.004777 0.009861 -0.004804 0.000000 0.000000 0.000000
# 3 0.000473 -0.004804 0.023599 0.000000 0.000000 0.000000
# 4 0.000000 0.000000 0.000000 0.043990 0.000000 0.000000
# 5 0.000000 0.000000 0.000000 0.000000 0.043846 0.000000
# 6 0.000000 0.000000 0.000000 0.000000 0.000000 0.082754
#
#
# Mechanical properties :
#
#
# Convention : Reuss Voigt Hill
#
# Bulk Modulus (GPa) = 40.34409 63.78738 52.06573
# Shear Modulus (GPa) = 20.82713 26.53452 23.68082
#
# Velocity S-wave (km/s) = 3.32425 3.75219 3.54469
# Velocity P-wave (km/s) = 6.01169 7.25375 6.66173
#
# Compressibility (1/GPa) = 0.02478678
#
# Stress axis : x y z
#
# Youngs Moduli (GPa) = 104.78983 101.40507 42.37477
#
# Poissons Ratio (x) = 0.48438 -0.02002
# Poissons Ratio (y) = 0.50055 0.20357
# Poissons Ratio (z) = -0.04952 0.48716
#
# Static dielectric constant tensor:
#      x y z
#    x 3.685030 0.000000 0.000000 
#    y 0.000000 3.536760 0.000000 
#    z 0.000000 0.000000 3.596070 
# 
# 
# High freq. dielectric constant tensor:
#      x y z
#    x 1.750520 0.000000 0.000000 
#    y 0.000000 1.717060 0.000000 
#    z 0.000000 0.000000 1.722820 
# 
# From -- ./inp_files/8985.got.cif
#   From: 2010.03.12/outbox.cif.g09.slc.cpg/sg53_5_cif.got.tgz:8985.got - 2010.04.16 14:36:59.
