data_PCOD8222063
_publ_section_title
;
Structure prediction by ZEFSAII (Michael W. Deem and Ramdas Pophale) SiO2 
 PCOD8222063
Probable space group: P M N A
;
_chemical_formula_sum "Si O2"
_cell_formula_units_Z 48
_cell_length_a 8.363166
_cell_length_b 15.035076
_cell_length_c 18.980663
_cell_angle_alpha 90.000000
_cell_angle_beta 90.000000
_cell_angle_gamma 90.000000
_cell_volume 2386.644441
_symmetry_space_group_name_H-M "P M N A"
_symmetry_group_IT_number 53
_symmetry_cell_setting 'orthorhombic'
loop_
_space_group_symop_operation_xyz
x,y,z
1/2-x,-y,1/2+z
x,-y,-z
1/2-x,y,1/2-z
-x,-y,-z
1/2+x,y,1/2-z
-x,y,z
1/2+x,-y,1/2+z
loop_
_atom_site_type_symbol
_atom_site_label
_atom_site_fract_x
_atom_site_fract_y
_atom_site_fract_z
Si Si1 0.689001 0.971782 0.924503
Si Si2 0.186142 0.227655 0.428663
Si Si3 0.684866 0.287680 0.575868
Si Si4 0.689623 0.130404 0.828895
Si Si5 0.685071 0.371706 0.327599
Si Si6 0.684852 0.522304 0.079184
O O1 0.500000 0.979437 0.928601
O O2 0.741613 0.871344 0.906330
O O3 0.751687 0.038711 0.864354
O O4 0.762664 0.000000 0.000000
O O5 0.285443 0.258714 0.495888
O O6 0.217538 0.291816 0.363336
O O7 0.000000 0.229378 0.449556
O O8 0.500000 0.310884 0.585173
O O9 0.734148 0.211553 0.629476
O O10 0.786782 0.374521 0.595371
O O11 0.750000 0.131979 0.750000
O O12 0.500000 0.138985 0.832022
O O13 0.750000 0.385760 0.250000
O O14 0.500000 0.346088 0.326330
O O15 0.708717 0.463517 0.368974
O O16 0.500000 0.497967 0.091123
O O17 0.738619 0.500000 0.000000
#
# Coordination Sequence:
#
# PCOD8222063 Si02
#       6
#     8   8   8   8   8   8
#     4   9  18  36  64  93 122 164 211 257 309 371
#     4  11  21  39  66  95 127 167 213 260 314 373
#     4  12  24  39  63  96 128 165 212 260 310 372
#     4  11  23  42  64  91 128 166 209 262 320 376
#     4  12  26  44  65  94 132 168 209 261 317 374
#     4  11  23  41  68  96 125 165 211 257 312 374
#
# _framework density 20.111919
#
# number of rings (size 3 to 8) (size 9 to 14) (size 15 to 20)
#    0.000    1.000    3.333    4.500    0.000    2.000 
#    0.000    9.167    0.000    0.000    0.000    0.000 
#    0.000    0.000    0.000    0.000    0.000    0.000 
#
# Total GULP energy -595467.225397 kJ/mol
# GULP energy per Si atom -12405.567196 kJ/mol
# Density = 2.006614 g / cm^3
# Si number density = 20.111919 Si / 1000 Ang^3
#
#
#
# Elastic Constant Matrix: (Units=GPa)
#
#
# Indices 1 2 3 4 5 6 
#
# 1 60.3941 11.8381 20.9498 0.0000 0.0000 0.0000
# 2 11.8381 157.2837 55.3792 0.0000 0.0000 0.0000
# 3 20.9498 55.3792 131.4295 0.0000 0.0000 0.0000
# 4 0.0000 0.0000 0.0000 22.1853 0.0000 0.0000
# 5 0.0000 0.0000 0.0000 0.0000 7.5280 0.0000
# 6 0.0000 0.0000 0.0000 0.0000 0.0000 9.1401
#
#
#
# Elastic Compliance Matrix: (Units=1/GPa)
#
#
# Indices 1 2 3 4 5 6 
#
# 1 0.017548 -0.000394 -0.002631 0.000000 0.000000 0.000000
# 2 -0.000394 0.007474 -0.003087 0.000000 0.000000 0.000000
# 3 -0.002631 -0.003087 0.009329 0.000000 0.000000 0.000000
# 4 0.000000 0.000000 0.000000 0.045075 0.000000 0.000000
# 5 0.000000 0.000000 0.000000 0.000000 0.132837 0.000000
# 6 0.000000 0.000000 0.000000 0.000000 0.000000 0.109407
#
#
# Mechanical properties :
#
#
# Convention : Reuss Voigt Hill
#
# Bulk Modulus (GPa) = 45.19360 58.38241 51.78801
# Shear Modulus (GPa) = 14.65117 25.16671 19.90894
#
# Velocity S-wave (km/s) = 2.70197 3.54126 3.14969
# Velocity P-wave (km/s) = 5.67926 6.76849 6.24766
#
# Compressibility (1/GPa) = 0.02212703
#
# Stress axis : x y z
#
# Youngs Moduli (GPa) = 56.98701 133.79018 107.19769
#
# Poissons Ratio (x) = 0.05277 0.28203
# Poissons Ratio (y) = 0.02248 0.33087
# Poissons Ratio (z) = 0.14993 0.41295
#
# Static dielectric constant tensor:
#      x y z
#    x 3.608300 0.000000 0.000000 
#    y 0.000000 3.623940 0.000000 
#    z 0.000000 0.000000 5.548060 
# 
# 
# High freq. dielectric constant tensor:
#      x y z
#    x 1.780880 0.000000 0.000000 
#    y 0.000000 1.803450 0.000000 
#    z 0.000000 0.000000 1.783070 
# 
# From -- ./inp_files/26262.got.cif
#   From: 2010.03.12/outbox.cif.g09.slc.cpg/sg53_14_cif.got.tgz:26262.got - 2010.04.16 14:36:59.
