data_PCOD8222941
_publ_section_title
;
Structure prediction by ZEFSAII (Michael W. Deem and Ramdas Pophale) SiO2 
 PCOD8222941
Probable space group: P C C A
;
_chemical_formula_sum "Si O2"
_cell_formula_units_Z 36
_cell_length_a 12.201675
_cell_length_b 8.752715
_cell_length_c 17.779672
_cell_angle_alpha 90.000000
_cell_angle_beta 90.000000
_cell_angle_gamma 90.000000
_cell_volume 1898.829566
_symmetry_space_group_name_H-M "P C C A"
_symmetry_group_IT_number 54
_symmetry_cell_setting 'orthorhombic'
loop_
_space_group_symop_operation_xyz
x,y,z
1/2-x,-y,z
1/2+x,-y,1/2-z
-x,y,1/2-z
-x,-y,-z
1/2+x,y,-z
1/2-x,y,1/2+z
x,-y,1/2+z
loop_
_atom_site_type_symbol
_atom_site_label
_atom_site_fract_x
_atom_site_fract_y
_atom_site_fract_z
Si Si1 0.500000 0.562138 0.250000
Si Si2 0.593933 0.875951 0.810940
Si Si3 0.987669 0.622643 0.106197
Si Si4 0.666216 0.209898 0.826187
Si Si5 0.149998 0.606386 0.529356
O O1 0.549674 0.451462 0.185638
O O2 0.398674 0.664620 0.221881
O O3 0.500000 0.846487 0.750000
O O4 0.559223 0.775721 0.882955
O O5 0.715532 0.817955 0.786389
O O6 0.596684 0.054400 0.830606
O O7 0.054372 0.489904 0.066463
O O8 0.888011 0.672546 0.051606
O O9 0.684127 0.260715 0.912582
O O10 0.250000 0.500000 0.510028
#
# Coordination Sequence:
#
# PCOD8222941 Si02
#       5
#     4   8   8   8   8
#     4  10  20  38  60  92 116 160 196 260 306 352
#     4  11  21  38  60  91 119 164 202 248 304 368
#     4  10  21  35  61  86 117 151 206 247 300 358
#     4  10  22  38  61  83 130 160 198 251 308 359
#     4  10  20  38  58  87 117 161 197 246 301 364
#
# _framework density 18.959049
#
# number of rings (size 3 to 8) (size 9 to 14) (size 15 to 20)
#    0.000    1.778    4.444    0.000    0.000    2.667 
#    0.000    0.000    0.000    0.000    0.000    0.000 
#    0.000    0.000    0.000    0.000    0.000    0.000 
#
# Total GULP energy -446157.625329 kJ/mol
# GULP energy per Si atom -12393.267370 kJ/mol
# Density = 1.891590 g / cm^3
# Si number density = 18.959049 Si / 1000 Ang^3
#
#
#
# Elastic Constant Matrix: (Units=GPa)
#
#
# Indices 1 2 3 4 5 6 
#
# 1 88.3716 36.5086 52.3851 0.0000 0.0000 0.0000
# 2 36.5086 96.4575 38.7467 0.0000 0.0000 0.0000
# 3 52.3851 38.7467 108.6505 0.0000 0.0000 0.0000
# 4 0.0000 0.0000 0.0000 13.2660 0.0000 0.0000
# 5 0.0000 0.0000 0.0000 0.0000 47.5082 0.0000
# 6 0.0000 0.0000 0.0000 0.0000 0.0000 33.0276
#
#
#
# Elastic Compliance Matrix: (Units=1/GPa)
#
#
# Indices 1 2 3 4 5 6 
#
# 1 0.016872 -0.003640 -0.006837 0.000000 0.000000 0.000000
# 2 -0.003640 0.012886 -0.002840 0.000000 0.000000 0.000000
# 3 -0.006837 -0.002840 0.013513 0.000000 0.000000 0.000000
# 4 0.000000 0.000000 0.000000 0.075381 0.000000 0.000000
# 5 0.000000 0.000000 0.000000 0.000000 0.021049 0.000000
# 6 0.000000 0.000000 0.000000 0.000000 0.000000 0.030278
#
#
# Mechanical properties :
#
#
# Convention : Reuss Voigt Hill
#
# Bulk Modulus (GPa) = 60.10629 60.97338 60.53983
# Shear Modulus (GPa) = 24.73305 29.81631 27.27468
#
# Velocity S-wave (km/s) = 3.61578 3.96999 3.79702
# Velocity P-wave (km/s) = 7.01454 7.29691 7.15712
#
# Compressibility (1/GPa) = 0.01663719
#
# Stress axis : x y z
#
# Youngs Moduli (GPa) = 59.26877 77.60432 74.00211
#
# Poissons Ratio (x) = 0.28246 0.50594
# Poissons Ratio (y) = 0.21572 0.21020
# Poissons Ratio (z) = 0.40521 0.22043
#
# Static dielectric constant tensor:
#      x y z
#    x 3.223780 0.000000 0.000000 
#    y 0.000000 3.812820 0.000000 
#    z 0.000000 0.000000 3.772300 
# 
# 
# High freq. dielectric constant tensor:
#      x y z
#    x 1.735600 0.000000 0.000000 
#    y 0.000000 1.742440 0.000000 
#    z 0.000000 0.000000 1.726790 
# 
# From -- ./inp_files/17063.got.cif
#   From: 2010.03.12/outbox.cif.g09.slc.cpg/sg54_9_cif.got.tgz:17063.got - 2010.04.16 15:00:50.
