data_PCOD8222466
_publ_section_title
;
Structure prediction by ZEFSAII (Michael W. Deem and Ramdas Pophale) SiO2 
 PCOD8222466
Probable space group: P C C A
;
_chemical_formula_sum "Si O2"
_cell_formula_units_Z 56
_cell_length_a 22.685090
_cell_length_b 6.629614
_cell_length_c 21.625483
_cell_angle_alpha 90.000000
_cell_angle_beta 90.000000
_cell_angle_gamma 90.000000
_cell_volume 3252.329704
_symmetry_space_group_name_H-M "P C C A"
_symmetry_group_IT_number 54
_symmetry_cell_setting 'orthorhombic'
loop_
_space_group_symop_operation_xyz
x,y,z
1/2-x,-y,z
1/2+x,-y,1/2-z
-x,y,1/2-z
-x,-y,-z
1/2+x,y,-z
1/2-x,y,1/2+z
x,-y,1/2+z
loop_
_atom_site_type_symbol
_atom_site_label
_atom_site_fract_x
_atom_site_fract_y
_atom_site_fract_z
Si Si1 0.306067 0.113688 0.894277
Si Si2 0.442455 0.928873 0.714986
Si Si3 0.250000 0.500000 0.338056
Si Si4 0.500000 0.312680 0.750000
Si Si5 0.349250 0.215183 0.305843
Si Si6 0.577473 0.146680 0.547489
Si Si7 0.477429 0.169812 0.081266
Si Si8 0.055803 0.516434 0.366639
O O1 0.289329 0.347206 0.879970
O O2 0.355322 0.074079 0.946887
O O3 0.250000 0.000000 0.922386
O O4 0.327279 0.999599 0.831819
O O5 0.500000 0.831641 0.750000
O O6 0.382805 0.831741 0.741916
O O7 0.441082 0.888027 0.642163
O O8 0.446296 0.171099 0.725124
O O9 0.293886 0.366345 0.295185
O O10 0.526354 0.451781 0.697248
O O11 0.393325 0.319999 0.354529
O O12 0.566668 0.195567 0.475971
O O13 0.580059 0.331500 0.594864
O O14 0.528140 0.994228 0.570991
O O15 0.506283 0.386915 0.089899
#
# Coordination Sequence:
#
# PCOD8222466 Si02
#       8
#     8   8   4   4   8   8   8   8
#     4  10  20  37  55  82 104 143 190 234 281 320
#     4  10  18  35  52  80 113 148 177 225 284 335
#     4  10  22  34  58  82 106 148 190 240 284 318
#     4  10  20  30  56  82 116 148 186 214 280 350
#     4  11  20  33  58  80 116 138 187 236 281 329
#     4  11  21  36  54  79 120 141 187 227 273 343
#     4  11  22  35  53  84 116 150 176 224 286 346
#     4  12  18  33  53  83 112 150 174 224 280 336
#
# _framework density 17.218425
#
# number of rings (size 3 to 8) (size 9 to 14) (size 15 to 20)
#    0.429    0.857    5.714    2.143    0.000    0.000 
#    0.000    0.000    0.000    3.429    0.000    0.000 
#    0.000    0.000    0.000    0.000    0.000    0.000 
#
# Total GULP energy -694040.489621 kJ/mol
# GULP energy per Si atom -12393.580172 kJ/mol
# Density = 1.717924 g / cm^3
# Si number density = 17.218425 Si / 1000 Ang^3
#
#
#
# Elastic Constant Matrix: (Units=GPa)
#
#
# Indices 1 2 3 4 5 6 
#
# 1 108.9661 26.4093 49.7796 0.0000 0.0000 0.0000
# 2 26.4093 67.0298 17.5924 0.0000 0.0000 0.0000
# 3 49.7796 17.5924 102.8392 0.0000 0.0000 0.0000
# 4 0.0000 0.0000 0.0000 51.8960 0.0000 0.0000
# 5 0.0000 0.0000 0.0000 0.0000 25.1078 0.0000
# 6 0.0000 0.0000 0.0000 0.0000 0.0000 38.2931
#
#
#
# Elastic Compliance Matrix: (Units=1/GPa)
#
#
# Indices 1 2 3 4 5 6 
#
# 1 0.012521 -0.003499 -0.005462 0.000000 0.000000 0.000000
# 2 -0.003499 0.016598 -0.001145 0.000000 0.000000 0.000000
# 3 -0.005462 -0.001145 0.012564 0.000000 0.000000 0.000000
# 4 0.000000 0.000000 0.000000 0.019269 0.000000 0.000000
# 5 0.000000 0.000000 0.000000 0.000000 0.039828 0.000000
# 6 0.000000 0.000000 0.000000 0.000000 0.000000 0.026114
#
#
# Mechanical properties :
#
#
# Convention : Reuss Voigt Hill
#
# Bulk Modulus (GPa) = 46.57959 51.82197 49.20078
# Shear Modulus (GPa) = 32.41189 35.39630 33.90409
#
# Velocity S-wave (km/s) = 4.34337 4.53893 4.44222
# Velocity P-wave (km/s) = 7.22938 7.59153 7.41267
#
# Compressibility (1/GPa) = 0.02146863
#
# Stress axis : x y z
#
# Youngs Moduli (GPa) = 79.86880 60.24769 79.59409
#
# Poissons Ratio (x) = 0.21084 0.43474
# Poissons Ratio (y) = 0.27950 0.09117
# Poissons Ratio (z) = 0.43624 0.06901
#
# Static dielectric constant tensor:
#      x y z
#    x 3.164390 0.000000 0.000000 
#    y 0.000000 3.383760 0.000000 
#    z 0.000000 0.000000 3.678040 
# 
# 
# High freq. dielectric constant tensor:
#      x y z
#    x 1.658210 0.000000 0.000000 
#    y 0.000000 1.682970 0.000000 
#    z 0.000000 0.000000 1.634470 
# 
# From -- ./inp_files/22320.got.cif
#   From: 2010.03.12/outbox.cif.g09.slc.cpg/sg54_12_cif.got.tgz:22320.got - 2010.04.16 15:00:50.
