data_PCOD8222949
_publ_section_title
;
Structure prediction by ZEFSAII (Michael W. Deem and Ramdas Pophale) SiO2 
 PCOD8222949
Probable space group: P C C A
;
_chemical_formula_sum "Si O2"
_cell_formula_units_Z 44
_cell_length_a 13.517802
_cell_length_b 10.092835
_cell_length_c 14.950173
_cell_angle_alpha 90.000000
_cell_angle_beta 90.000000
_cell_angle_gamma 90.000000
_cell_volume 2039.696133
_symmetry_space_group_name_H-M "P C C A"
_symmetry_group_IT_number 54
_symmetry_cell_setting 'orthorhombic'
loop_
_space_group_symop_operation_xyz
x,y,z
1/2-x,-y,z
1/2+x,-y,1/2-z
-x,y,1/2-z
-x,-y,-z
1/2+x,y,-z
1/2-x,y,1/2+z
x,-y,1/2+z
loop_
_atom_site_type_symbol
_atom_site_label
_atom_site_fract_x
_atom_site_fract_y
_atom_site_fract_z
Si Si1 0.438602 0.163611 0.129831
Si Si2 0.014115 0.874583 0.652644
Si Si3 0.362139 0.494285 0.896308
Si Si4 0.119109 0.757630 0.487665
Si Si5 0.500000 0.384177 0.250000
Si Si6 0.161585 0.795087 0.956988
O O1 0.539918 0.177239 0.076056
O O2 0.424825 0.283432 0.199828
O O3 0.439713 0.018898 0.174296
O O4 0.348597 0.171657 0.061290
O O5 0.092856 0.794174 0.590528
O O6 0.000000 0.804457 0.750000
O O7 0.906419 0.890045 0.604511
O O8 0.250000 0.500000 0.859223
O O9 0.378572 0.598089 0.977573
O O10 0.437122 0.522589 0.815226
O O11 0.383177 0.350613 0.936977
O O12 0.221569 0.813099 0.445143
#
# Coordination Sequence:
#
# PCOD8222949 Si02
#       6
#     8   8   8   8   4   8
#     4  10  21  39  59  83 123 165 198 246 311 365
#     4  11  23  39  60  93 125 155 212 259 293 359
#     4   9  20  40  62  90 124 158 206 251 305 369
#     4   9  20  40  63  84 122 164 199 246 308 371
#     4  10  20  38  60  84 124 160 194 258 314 340
#     4  10  21  40  62  88 121 164 201 245 311 372
#
# _framework density 21.571842
#
# number of rings (size 3 to 8) (size 9 to 14) (size 15 to 20)
#    0.000    2.182    0.909    2.182    1.273    9.455 
#    9.818    2.727    0.000    0.000    0.000    0.000 
#    0.000    0.000    0.000    0.000    0.000    0.000 
#
# Total GULP energy -545308.923139 kJ/mol
# GULP energy per Si atom -12393.384617 kJ/mol
# Density = 2.152274 g / cm^3
# Si number density = 21.571842 Si / 1000 Ang^3
#
#
#
# Elastic Constant Matrix: (Units=GPa)
#
#
# Indices 1 2 3 4 5 6 
#
# 1 68.6905 15.6828 13.6403 0.0000 0.0000 0.0000
# 2 15.6828 82.5107 18.8144 0.0000 0.0000 0.0000
# 3 13.6403 18.8144 108.7556 0.0000 0.0000 0.0000
# 4 0.0000 0.0000 0.0000 27.2075 0.0000 0.0000
# 5 0.0000 0.0000 0.0000 0.0000 24.4131 0.0000
# 6 0.0000 0.0000 0.0000 0.0000 0.0000 8.6623
#
#
#
# Elastic Compliance Matrix: (Units=1/GPa)
#
#
# Indices 1 2 3 4 5 6 
#
# 1 0.015446 -0.002597 -0.001488 0.000000 0.000000 0.000000
# 2 -0.002597 0.013054 -0.001933 0.000000 0.000000 0.000000
# 3 -0.001488 -0.001933 0.009716 0.000000 0.000000 0.000000
# 4 0.000000 0.000000 0.000000 0.036755 0.000000 0.000000
# 5 0.000000 0.000000 0.000000 0.000000 0.040962 0.000000
# 6 0.000000 0.000000 0.000000 0.000000 0.000000 0.115443
#
#
# Mechanical properties :
#
#
# Convention : Reuss Voigt Hill
#
# Bulk Modulus (GPa) = 38.19481 39.58130 38.88805
# Shear Modulus (GPa) = 19.83047 26.17786 23.00417
#
# Velocity S-wave (km/s) = 3.03525 3.48734 3.26912
# Velocity P-wave (km/s) = 5.47977 5.88250 5.68470
#
# Compressibility (1/GPa) = 0.02618157
#
# Stress axis : x y z
#
# Youngs Moduli (GPa) = 64.74007 76.60574 102.92404
#
# Poissons Ratio (x) = 0.19891 0.15316
# Poissons Ratio (y) = 0.16810 0.19891
# Poissons Ratio (z) = 0.09634 0.14805
#
# Static dielectric constant tensor:
#      x y z
#    x 3.814620 0.000000 0.000000 
#    y 0.000000 3.976190 0.000000 
#    z 0.000000 0.000000 3.986350 
# 
# 
# High freq. dielectric constant tensor:
#      x y z
#    x 1.838650 0.000000 0.000000 
#    y 0.000000 1.851960 0.000000 
#    z 0.000000 0.000000 1.836120 
# 
# From -- ./inp_files/13344.got.cif
#   From: 2010.03.12/outbox.cif.g09.slc.cpg/sg54_7_cif.got.tgz:13344.got - 2010.04.16 15:00:50.
