data_PCOD8222933
_publ_section_title
;
Structure prediction by ZEFSAII (Michael W. Deem and Ramdas Pophale) SiO2 
 PCOD8222933
Probable space group: P C C A
;
_chemical_formula_sum "Si O2"
_cell_formula_units_Z 48
_cell_length_a 11.045485
_cell_length_b 10.734890
_cell_length_c 20.405399
_cell_angle_alpha 90.000000
_cell_angle_beta 90.000000
_cell_angle_gamma 90.000000
_cell_volume 2419.510327
_symmetry_space_group_name_H-M "P C C A"
_symmetry_group_IT_number 54
_symmetry_cell_setting 'orthorhombic'
loop_
_space_group_symop_operation_xyz
x,y,z
1/2-x,-y,z
1/2+x,-y,1/2-z
-x,y,1/2-z
-x,-y,-z
1/2+x,y,-z
1/2-x,y,1/2+z
x,-y,1/2+z
loop_
_atom_site_type_symbol
_atom_site_label
_atom_site_fract_x
_atom_site_fract_y
_atom_site_fract_z
Si Si1 0.619337 0.223998 0.944360
Si Si2 0.573229 0.824016 0.814464
Si Si3 0.750000 0.000000 0.379544
Si Si4 0.369432 0.838601 0.909140
Si Si5 0.212152 0.359531 0.173662
Si Si6 0.500000 0.225651 0.750000
Si Si7 0.104644 0.874549 0.878895
O O1 0.698822 0.105137 0.925987
O O2 0.676450 0.339206 0.903216
O O3 0.478642 0.208600 0.926206
O O4 0.629062 0.234479 0.022057
O O5 0.500000 0.856304 0.750000
O O6 0.476416 0.775311 0.867850
O O7 0.671602 0.718010 0.804087
O O8 0.640103 0.951832 0.834800
O O9 0.238358 0.815594 0.877546
O O10 0.395524 0.986903 0.909441
O O11 0.250000 0.500000 0.186359
O O12 0.100804 0.316336 0.218961
O O13 0.444576 0.133185 0.804682
#
# Coordination Sequence:
#
# PCOD8222933 Si02
#       7
#     8   8   4   8   8   4   8
#     4  10  21  38  61  89 126 166 207 252 321 371
#     4  11  24  37  59  92 124 160 208 254 318 377
#     4  10  20  38  56  90 130 164 194 262 310 386
#     4  11  22  34  62  93 129 164 202 247 311 394
#     4  10  24  44  67  86 122 170 216 272 309 358
#     4  10  22  44  62  90 128 168 214 256 324 376
#     4  10  21  35  59  93 130 167 197 251 317 383
#
# _framework density 19.838725
#
# number of rings (size 3 to 8) (size 9 to 14) (size 15 to 20)
#    0.000    1.667    1.667    2.500    7.000    1.333 
#    0.000    0.833    0.000    0.000    0.000    0.000 
#    0.000    0.000    0.000    0.000    0.000    0.000 
#
# Total GULP energy -595072.308641 kJ/mol
# GULP energy per Si atom -12397.339763 kJ/mol
# Density = 1.979357 g / cm^3
# Si number density = 19.838725 Si / 1000 Ang^3
#
#
#
# Elastic Constant Matrix: (Units=GPa)
#
#
# Indices 1 2 3 4 5 6 
#
# 1 146.4189 6.3534 44.7888 0.0000 0.0000 0.0000
# 2 6.3534 23.5404 2.7731 0.0000 0.0000 0.0000
# 3 44.7888 2.7731 124.7148 0.0000 0.0000 0.0000
# 4 0.0000 0.0000 0.0000 16.8226 0.0000 0.0000
# 5 0.0000 0.0000 0.0000 0.0000 33.8482 0.0000
# 6 0.0000 0.0000 0.0000 0.0000 0.0000 22.1933
#
#
#
# Elastic Compliance Matrix: (Units=1/GPa)
#
#
# Indices 1 2 3 4 5 6 
#
# 1 0.007745 -0.001767 -0.002742 0.000000 0.000000 0.000000
# 2 -0.001767 0.042995 -0.000321 0.000000 0.000000 0.000000
# 3 -0.002742 -0.000321 0.009010 0.000000 0.000000 0.000000
# 4 0.000000 0.000000 0.000000 0.059444 0.000000 0.000000
# 5 0.000000 0.000000 0.000000 0.000000 0.029544 0.000000
# 6 0.000000 0.000000 0.000000 0.000000 0.000000 0.045059
#
#
# Mechanical properties :
#
#
# Convention : Reuss Voigt Hill
#
# Bulk Modulus (GPa) = 19.96457 44.72275 32.34366
# Shear Modulus (GPa) = 22.71130 30.62341 26.66735
#
# Velocity S-wave (km/s) = 3.38715 3.93315 3.67032
# Velocity P-wave (km/s) = 5.03809 6.57407 5.85665
#
# Compressibility (1/GPa) = 0.05008874
#
# Stress axis : x y z
#
# Youngs Moduli (GPa) = 129.11141 23.25849 110.98455
#
# Poissons Ratio (x) = 0.04111 0.30435
# Poissons Ratio (y) = 0.22818 0.03566
# Poissons Ratio (z) = 0.35406 0.00747
#
# Static dielectric constant tensor:
#      x y z
#    x 4.176390 0.000000 0.000000 
#    y 0.000000 3.290060 0.000000 
#    z 0.000000 0.000000 3.704290 
# 
# 
# High freq. dielectric constant tensor:
#      x y z
#    x 1.807600 0.000000 0.000000 
#    y 0.000000 1.720650 0.000000 
#    z 0.000000 0.000000 1.775770 
# 
# From -- ./inp_files/17338.got.cif
#   From: 2010.03.12/outbox.cif.g09.slc.cpg/sg54_9_cif.got.tgz:17338.got - 2010.04.16 15:00:50.
