data_PCOD8222570
_publ_section_title
;
Structure prediction by ZEFSAII (Michael W. Deem and Ramdas Pophale) SiO2 
 PCOD8222570
Probable space group: P C C A
;
_chemical_formula_sum "Si O2"
_cell_formula_units_Z 48
_cell_length_a 14.615797
_cell_length_b 28.098409
_cell_length_c 5.204178
_cell_angle_alpha 90.000000
_cell_angle_beta 90.000000
_cell_angle_gamma 90.000000
_cell_volume 2137.255162
_symmetry_space_group_name_H-M "P C C A"
_symmetry_group_IT_number 54
_symmetry_cell_setting 'orthorhombic'
loop_
_space_group_symop_operation_xyz
x,y,z
1/2-x,-y,z
1/2+x,-y,1/2-z
-x,y,1/2-z
-x,-y,-z
1/2+x,y,-z
1/2-x,y,1/2+z
x,-y,1/2+z
loop_
_atom_site_type_symbol
_atom_site_label
_atom_site_fract_x
_atom_site_fract_y
_atom_site_fract_z
Si Si1 0.897533 0.479932 0.035271
Si Si2 0.193004 0.281313 0.366493
Si Si3 0.894208 0.814308 0.740487
Si Si4 0.390958 0.973068 0.756398
Si Si5 0.191009 0.612496 0.832170
Si Si6 0.390515 0.865270 0.757884
O O1 0.847427 0.490277 0.763941
O O2 0.892019 0.424181 0.110327
O O3 0.000000 0.500000 0.000000
O O4 0.225659 0.274753 0.659779
O O5 0.117387 0.242148 0.297845
O O6 0.149872 0.334140 0.344374
O O7 0.849218 0.842420 0.501625
O O8 0.000000 0.826428 0.750000
O O9 0.850575 0.834184 0.004608
O O10 0.500000 0.973848 0.750000
O O11 0.355184 0.919211 0.781025
O O12 0.352605 0.996934 0.496874
O O13 0.230890 0.604391 0.547295
O O14 0.500000 0.863274 0.750000
#
# Coordination Sequence:
#
# PCOD8222570 Si02
#       6
#     8   8   8   8   8   8
#     4  10  21  37  56  82 116 144 179 222 270 313
#     4  10  21  38  58  80 110 140 180 230 271 317
#     4  10  19  33  52  77 105 140 179 215 279 329
#     4   9  15  23  37  61  96 138 176 209 264 323
#     4  10  21  37  59  83 109 145 184 222 271 321
#     4   9  17  28  45  69 106 140 174 224 268 326
#
# _framework density 22.458712999999999
#
# number of rings (size 3 to 8) (size 9 to 14) (size 15 to 20)
#    0.000    2.333    0.000    3.000    0.000    6.000 
#    3.000    0.000    7.333    0.000    0.000    0.000 
#    0.000   46.667    0.000    0.000    0.000    0.000 
#
# Total GULP energy -594931.311795 kJ/mol
# GULP energy per Si atom -12394.402329 kJ/mol
# Density = 2.240760 g / cm^3
# Si number density = 22.458713 Si / 1000 Ang^3
#
#
#
# Elastic Constant Matrix: (Units=GPa)
#
#
# Indices 1 2 3 4 5 6 
#
# 1 19.8127 24.1624 5.3324 0.0000 0.0000 0.0000
# 2 24.1624 203.5053 76.7846 0.0000 0.0000 0.0000
# 3 5.3324 76.7846 199.5980 0.0000 0.0000 0.0000
# 4 0.0000 0.0000 0.0000 43.9141 0.0000 0.0000
# 5 0.0000 0.0000 0.0000 0.0000 6.1388 0.0000
# 6 0.0000 0.0000 0.0000 0.0000 0.0000 21.1593
#
#
#
# Elastic Compliance Matrix: (Units=1/GPa)
#
#
# Indices 1 2 3 4 5 6 
#
# 1 0.059312 -0.007539 0.001315 0.000000 0.000000 0.000000
# 2 -0.007539 0.006706 -0.002379 0.000000 0.000000 0.000000
# 3 0.001315 -0.002379 0.005890 0.000000 0.000000 0.000000
# 4 0.000000 0.000000 0.000000 0.022772 0.000000 0.000000
# 5 0.000000 0.000000 0.000000 0.000000 0.162897 0.000000
# 6 0.000000 0.000000 0.000000 0.000000 0.000000 0.047261
#
#
# Mechanical properties :
#
#
# Convention : Reuss Voigt Hill
#
# Bulk Modulus (GPa) = 18.27972 70.60829 44.44401
# Shear Modulus (GPa) = 14.69393 35.35156 25.02275
#
# Velocity S-wave (km/s) = 2.56063 3.97176 3.34153
# Velocity P-wave (km/s) = 4.11089 7.24849 5.89237
#
# Compressibility (1/GPa) = 0.05470543
#
# Stress axis : x y z
#
# Youngs Moduli (GPa) = 16.85992 149.11188 169.78117
#
# Poissons Ratio (x) = 1.12409 -0.22335
# Poissons Ratio (y) = 0.12710 0.40383
# Poissons Ratio (z) = -0.02218 0.35467
#
# Static dielectric constant tensor:
#      x y z
#    x 3.183580 0.000000 0.000000 
#    y 0.000000 4.238300 0.000000 
#    z 0.000000 0.000000 10.904720 
# 
# 
# High freq. dielectric constant tensor:
#      x y z
#    x 1.826140 0.000000 0.000000 
#    y 0.000000 1.897040 0.000000 
#    z 0.000000 0.000000 1.916720 
# 
# From -- ./inp_files/1019.got.cif
#   From: 2010.03.12/outbox.cif.g09.slc.cpg/sg54_1_cif.got.tgz:1019.got - 2010.04.16 15:00:50.
