data_PCOD8222590
_publ_section_title
;
Structure prediction by ZEFSAII (Michael W. Deem and Ramdas Pophale) SiO2 
 PCOD8222590
Probable space group: P C C A
;
_chemical_formula_sum "Si O2"
_cell_formula_units_Z 56
_cell_length_a 8.761175
_cell_length_b 21.687057
_cell_length_c 14.236165
_cell_angle_alpha 90.000000
_cell_angle_beta 90.000000
_cell_angle_gamma 90.000000
_cell_volume 2704.929741
_symmetry_space_group_name_H-M "P C C A"
_symmetry_group_IT_number 54
_symmetry_cell_setting 'orthorhombic'
loop_
_space_group_symop_operation_xyz
x,y,z
1/2-x,-y,z
1/2+x,-y,1/2-z
-x,y,1/2-z
-x,-y,-z
1/2+x,y,-z
1/2-x,y,1/2+z
x,-y,1/2+z
loop_
_atom_site_type_symbol
_atom_site_label
_atom_site_fract_x
_atom_site_fract_y
_atom_site_fract_z
Si Si1 0.101230 0.785112 0.606912
Si Si2 0.631771 0.955624 0.965859
Si Si3 0.367738 0.875527 0.934712
Si Si4 0.270486 0.780880 0.304093
Si Si5 0.732393 0.352715 0.129995
Si Si6 0.066680 0.650349 0.550425
Si Si7 0.166323 0.561942 0.710560
O O1 0.128875 0.838820 0.532883
O O2 0.216339 0.794318 0.693658
O O3 0.134790 0.719053 0.560596
O O4 0.930152 0.787259 0.643533
O O5 0.536475 0.903275 0.910916
O O6 0.750000 0.000000 0.906470
O O7 0.732321 0.925989 0.051474
O O8 0.500000 0.000000 0.000000
O O9 0.341788 0.831530 0.846681
O O10 0.203792 0.712599 0.319518
O O11 0.734382 0.405099 0.208859
O O12 0.888206 0.351627 0.070642
O O13 0.597092 0.369409 0.057372
O O14 0.156909 0.605955 0.620828
O O15 0.250000 0.500000 0.678797
O O16 0.000000 0.546287 0.750000
#
# Coordination Sequence:
#
# PCOD8222590 Si02
#       7
#     8   8   8   8   8   8   8
#     4  10  19  33  57  88 121 150 190 247 304 354
#     4   9  20  36  58  86 120 159 196 232 280 345
#     4  11  18  34  62  88 113 157 201 235 295 352
#     4  10  19  33  57  88 121 151 192 243 304 359
#     4  10  20  36  58  84 117 153 192 247 305 352
#     4  10  20  36  58  84 117 153 192 245 307 352
#     4  10  22  40  60  80 114 163 202 238 296 368
#
# _framework density 20.702942
#
# number of rings (size 3 to 8) (size 9 to 14) (size 15 to 20)
#    0.000    2.000    4.286    0.000    0.000    1.714 
#    0.000    3.571    0.000   12.857    0.000    0.000 
#    0.000    0.000    0.000    0.000    0.000    0.000 
#
# Total GULP energy -694108.160744 kJ/mol
# GULP energy per Si atom -12394.788585 kJ/mol
# Density = 2.065582 g / cm^3
# Si number density = 20.702942 Si / 1000 Ang^3
#
#
#
# Elastic Constant Matrix: (Units=GPa)
#
#
# Indices 1 2 3 4 5 6 
#
# 1 64.7296 42.3330 6.4042 0.0000 0.0000 0.0000
# 2 42.3330 113.1179 19.8373 0.0000 0.0000 0.0000
# 3 6.4042 19.8373 58.3663 0.0000 0.0000 0.0000
# 4 0.0000 0.0000 0.0000 12.2455 0.0000 0.0000
# 5 0.0000 0.0000 0.0000 0.0000 26.3084 0.0000
# 6 0.0000 0.0000 0.0000 0.0000 0.0000 41.9456
#
#
#
# Elastic Compliance Matrix: (Units=1/GPa)
#
#
# Indices 1 2 3 4 5 6 
#
# 1 0.020463 -0.007725 0.000380 0.000000 0.000000 0.000000
# 2 -0.007725 0.012317 -0.003339 0.000000 0.000000 0.000000
# 3 0.000380 -0.003339 0.018226 0.000000 0.000000 0.000000
# 4 0.000000 0.000000 0.000000 0.081663 0.000000 0.000000
# 5 0.000000 0.000000 0.000000 0.000000 0.038011 0.000000
# 6 0.000000 0.000000 0.000000 0.000000 0.000000 0.023840
#
#
# Mechanical properties :
#
#
# Convention : Reuss Voigt Hill
#
# Bulk Modulus (GPa) = 33.73848 41.48476 37.61162
# Shear Modulus (GPa) = 22.14678 27.27584 24.71131
#
# Velocity S-wave (km/s) = 3.27424 3.63366 3.45862
# Velocity P-wave (km/s) = 5.53408 6.13891 5.84432
#
# Compressibility (1/GPa) = 0.02963974
#
# Stress axis : x y z
#
# Youngs Moduli (GPa) = 48.86807 81.19039 54.86618
#
# Poissons Ratio (x) = 0.62718 -0.02086
# Poissons Ratio (y) = 0.37750 0.18317
# Poissons Ratio (z) = -0.01858 0.27106
#
# Static dielectric constant tensor:
#      x y z
#    x 4.028500 0.000000 0.000000 
#    y 0.000000 4.103700 0.000000 
#    z 0.000000 0.000000 3.509760 
# 
# 
# High freq. dielectric constant tensor:
#      x y z
#    x 1.810140 0.000000 0.000000 
#    y 0.000000 1.821270 0.000000 
#    z 0.000000 0.000000 1.782520 
# 
# From -- ./inp_files/11879.got.cif
#   From: 2010.03.12/outbox.cif.g09.slc.cpg/sg54_6_cif.got.tgz:11879.got - 2010.04.16 15:00:50.
