data_PCOD8222342
_publ_section_title
;
Structure prediction by ZEFSAII (Michael W. Deem and Ramdas Pophale) SiO2 
 PCOD8222342
Probable space group: P C C A
;
_chemical_formula_sum "Si O2"
_cell_formula_units_Z 60
_cell_length_a 27.183173
_cell_length_b 21.518147
_cell_length_c 5.295422
_cell_angle_alpha 90.000000
_cell_angle_beta 90.000000
_cell_angle_gamma 90.000000
_cell_volume 3097.459200
_symmetry_space_group_name_H-M "P C C A"
_symmetry_group_IT_number 54
_symmetry_cell_setting 'orthorhombic'
loop_
_space_group_symop_operation_xyz
x,y,z
1/2-x,-y,z
1/2+x,-y,1/2-z
-x,y,1/2-z
-x,-y,-z
1/2+x,y,-z
1/2-x,y,1/2+z
x,-y,1/2+z
loop_
_atom_site_type_symbol
_atom_site_label
_atom_site_fract_x
_atom_site_fract_y
_atom_site_fract_z
Si Si1 0.572566 0.331840 0.133505
Si Si2 0.881436 0.285663 0.156461
Si Si3 0.444401 0.473433 0.282022
Si Si4 0.554244 0.172728 0.638552
Si Si5 0.695109 0.526013 0.028291
Si Si6 0.000000 0.762884 0.250000
Si Si7 0.780718 0.333147 0.064740
Si Si8 0.441814 0.967828 0.269751
O O1 0.592713 0.312660 0.408067
O O2 0.553902 0.401329 0.152861
O O3 0.527666 0.284863 0.057637
O O4 0.611474 0.328878 0.904104
O O5 0.902400 0.217721 0.234182
O O6 0.823255 0.281947 0.102125
O O7 0.500000 0.498947 0.250000
O O8 0.417936 0.511136 0.513132
O O9 0.500000 0.185138 0.750000
O O10 0.543184 0.191064 0.348761
O O11 0.573194 0.103256 0.681949
O O12 0.750000 0.500000 0.978998
O O13 0.668353 0.510437 0.760249
O O14 0.694721 0.599000 0.083151
O O15 0.741564 0.323794 0.287191
O O16 0.500000 0.975318 0.250000
O O17 0.419879 0.007937 0.503469
#
# Coordination Sequence:
#
# PCOD8222342 Si02
#       8
#     8   8   8   8   8   4   8   8
#     4  11  21  39  53  78 107 134 192 227 270 342
#     4  11  25  37  57  87 107 144 189 225 273 346
#     4  10  20  34  54  71  94 139 183 230 285 320
#     4  10  20  35  56  80 119 153 187 223 268 313
#     4  10  16  31  55  79  92 128 164 205 280 356
#     4  10  20  32  56  76 104 162 180 224 276 312
#     4  12  22  39  60  78 108 139 174 232 289 336
#     4   9  19  30  49  78 113 152 189 219 255 308
#
# _framework density 19.370714
#
# number of rings (size 3 to 8) (size 9 to 14) (size 15 to 20)
#    0.000    1.600    4.667    1.600    4.667    0.000 
#    0.000    4.000    0.000    0.000    0.000    0.000 
#    0.000    3.200    0.000    0.000    0.000    0.000 
#
# Total GULP energy -743485.875421 kJ/mol
# GULP energy per Si atom -12391.431257 kJ/mol
# Density = 1.932663 g / cm^3
# Si number density = 19.370714 Si / 1000 Ang^3
#
#
#
# Elastic Constant Matrix: (Units=GPa)
#
#
# Indices 1 2 3 4 5 6 
#
# 1 32.9468 26.4758 11.7141 0.0000 0.0000 0.0000
# 2 26.4758 122.3156 45.2186 0.0000 0.0000 0.0000
# 3 11.7141 45.2186 146.2927 0.0000 0.0000 0.0000
# 4 0.0000 0.0000 0.0000 20.9075 0.0000 0.0000
# 5 0.0000 0.0000 0.0000 0.0000 17.0221 0.0000
# 6 0.0000 0.0000 0.0000 0.0000 0.0000 14.1387
#
#
#
# Elastic Compliance Matrix: (Units=1/GPa)
#
#
# Indices 1 2 3 4 5 6 
#
# 1 0.036782 -0.007759 -0.000547 0.000000 0.000000 0.000000
# 2 -0.007759 0.010867 -0.002738 0.000000 0.000000 0.000000
# 3 -0.000547 -0.002738 0.007726 0.000000 0.000000 0.000000
# 4 0.000000 0.000000 0.000000 0.047830 0.000000 0.000000
# 5 0.000000 0.000000 0.000000 0.000000 0.058747 0.000000
# 6 0.000000 0.000000 0.000000 0.000000 0.000000 0.070728
#
#
# Mechanical properties :
#
#
# Convention : Reuss Voigt Hill
#
# Bulk Modulus (GPa) = 30.04201 52.04137 41.04169
# Shear Modulus (GPa) = 18.80667 24.95675 21.88171
#
# Velocity S-wave (km/s) = 3.11928 3.59329 3.36464
# Velocity P-wave (km/s) = 5.34002 6.64379 6.02726
#
# Compressibility (1/GPa) = 0.03328673
#
# Stress axis : x y z
#
# Youngs Moduli (GPa) = 27.18733 92.01969 129.43951
#
# Poissons Ratio (x) = 0.71402 0.07078
# Poissons Ratio (y) = 0.21096 0.35437
# Poissons Ratio (z) = 0.01487 0.25192
#
# Static dielectric constant tensor:
#      x y z
#    x 3.000910 0.000000 0.000000 
#    y 0.000000 3.373710 0.000000 
#    z 0.000000 0.000000 4.171760 
# 
# 
# High freq. dielectric constant tensor:
#      x y z
#    x 1.710230 0.000000 0.000000 
#    y 0.000000 1.728780 0.000000 
#    z 0.000000 0.000000 1.783070 
# 
# From -- ./inp_files/2229.got.cif
#   From: 2010.03.12/outbox.cif.g09.slc.cpg/sg54_2_cif.got.tgz:2229.got - 2010.04.16 15:00:50.
