data_PCOD8222257
_publ_section_title
;
Structure prediction by ZEFSAII (Michael W. Deem and Ramdas Pophale) SiO2 
 PCOD8222257
Probable space group: P M N A
;
_chemical_formula_sum "Si O2"
_cell_formula_units_Z 64
_cell_length_a 9.667261
_cell_length_b 22.253916
_cell_length_c 15.746088
_cell_angle_alpha 90.000000
_cell_angle_beta 90.000000
_cell_angle_gamma 90.000000
_cell_volume 3387.525419
_symmetry_space_group_name_H-M "P M N A"
_symmetry_group_IT_number 53
_symmetry_cell_setting 'orthorhombic'
loop_
_space_group_symop_operation_xyz
x,y,z
1/2-x,-y,1/2+z
x,-y,-z
1/2-x,y,1/2-z
-x,-y,-z
1/2+x,y,1/2-z
-x,y,z
1/2+x,-y,1/2+z
loop_
_atom_site_type_symbol
_atom_site_label
_atom_site_fract_x
_atom_site_fract_y
_atom_site_fract_z
Si Si1 0.842402 0.225478 0.671510
Si Si2 0.342402 0.774522 0.828490
Si Si3 0.335846 0.431980 1.000000
Si Si4 0.151189 0.102854 0.402749
Si Si5 0.345647 0.000000 0.398351
Si Si6 0.348811 0.897146 0.097251
Si Si7 0.162847 0.639174 0.665437
Si Si8 0.837153 0.360825 0.665437
O O1 0.750000 0.207693 0.750000
O O2 0.810652 0.173699 0.602788
O O3 0.807493 0.292026 0.637033
O O4 0.000000 0.224549 0.702231
O O5 0.250000 0.792306 0.750000
O O6 0.500000 0.775451 0.797769
O O7 0.310652 0.826301 0.897212
O O8 0.307493 0.707974 0.862967
O O9 0.500000 0.428975 1.000000
O O10 0.282366 0.400291 0.913723
O O11 0.280390 0.500000 0.000000
O O12 0.282366 0.400291 0.086277
O O13 0.266559 0.059177 0.362139
O O14 0.141011 0.085107 0.500000
O O15 0.000000 0.091397 0.360166
O O16 0.500000 0.000000 0.360194
O O17 0.353140 0.000000 0.500000
O O18 0.266559 0.940823 0.362139
O O19 0.500000 0.908604 0.139835
O O20 0.250000 0.622485 0.750000
O O21 0.000000 0.627949 0.683959
O O22 0.750000 0.377515 0.750000
O O23 0.000000 0.372051 0.683958
#
# Coordination Sequence:
#
# PCOD8222257 Si02
#       8
#     8   8   8   8   8   8   8   8
#     4   9  18  31  48  70  95 124 158 200 247 294
#     4   9  18  31  48  70  95 124 158 200 247 294
#     4   9  18  32  53  81 109 140 179 216 252 305
#     4   9  17  29  47  68  89 117 157 200 241 286
#     4   9  17  29  44  65  94 123 153 191 242 295
#     4   9  17  29  47  68  89 117 157 200 241 286
#     4   9  18  33  53  76 106 140 175 216 261 307
#     4   9  18  33  53  76 106 140 175 216 261 307
#
# _framework density 18.892847
#
# number of rings (size 3 to 8) (size 9 to 14) (size 15 to 20)
#    0.000    3.000    0.000    0.375    1.750    3.000 
#    0.000    1.250    0.000    0.750    0.000    0.000 
#    0.000    0.000    0.000    0.000    0.000    0.000 
#
# Total GULP energy -793008.943133 kJ/mol
# GULP energy per Si atom -12390.764736 kJ/mol
# Density = 1.884985 g / cm^3
# Si number density = 18.892847 Si / 1000 Ang^3
#
#
#
# Elastic Constant Matrix: (Units=GPa)
#
#
# Indices 1 2 3 4 5 6 
#
# 1 80.6499 59.7975 39.9388 0.0000 0.0000 0.0000
# 2 59.7975 146.6822 57.9178 0.0000 0.0000 0.0000
# 3 39.9388 57.9178 76.1295 0.0000 0.0000 0.0000
# 4 0.0000 0.0000 0.0000 16.7565 0.0000 0.0000
# 5 0.0000 0.0000 0.0000 0.0000 23.6152 0.0000
# 6 0.0000 0.0000 0.0000 0.0000 0.0000 3.4629
#
#
#
# Elastic Compliance Matrix: (Units=1/GPa)
#
#
# Indices 1 2 3 4 5 6 
#
# 1 0.019506 -0.005591 -0.005980 0.000000 0.000000 0.000000
# 2 -0.005591 0.011347 -0.005700 0.000000 0.000000 0.000000
# 3 -0.005980 -0.005700 0.020609 0.000000 0.000000 0.000000
# 4 0.000000 0.000000 0.000000 0.059678 0.000000 0.000000
# 5 0.000000 0.000000 0.000000 0.000000 0.042346 0.000000
# 6 0.000000 0.000000 0.000000 0.000000 0.000000 0.288777
#
#
# Mechanical properties :
#
#
# Convention : Reuss Voigt Hill
#
# Bulk Modulus (GPa) = 59.09684 68.75223 63.92453
# Shear Modulus (GPa) = 10.36392 18.48742 14.42567
#
# Velocity S-wave (km/s) = 2.34468 3.13156 2.76624
# Velocity P-wave (km/s) = 6.21916 7.03883 6.64165
#
# Compressibility (1/GPa) = 0.01692138
#
# Stress axis : x y z
#
# Youngs Moduli (GPa) = 51.26698 88.12771 48.52295
#
# Poissons Ratio (x) = 0.49270 0.29015
# Poissons Ratio (y) = 0.28662 0.27657
# Poissons Ratio (z) = 0.30656 0.50230
#
# Static dielectric constant tensor:
#      x y z
#    x 3.555130 0.000000 0.000000 
#    y 0.000000 3.661740 0.000000 
#    z 0.000000 0.000000 3.204320 
# 
# 
# High freq. dielectric constant tensor:
#      x y z
#    x 1.718980 0.000000 0.000000 
#    y 0.000000 1.743870 0.000000 
#    z 0.000000 0.000000 1.704300 
# 
# From -- ./inp_files/20817.got.cif
#   From: 2010.03.12/outbox.cif.g09.slc.cpg/sg53_11_cif.got.tgz:20817.got - 2010.04.16 14:36:59.
