data_PCOD8222921
_publ_section_title
;
Structure prediction by ZEFSAII (Michael W. Deem and Ramdas Pophale) SiO2 
 PCOD8222921
Probable space group: P C C A
;
_chemical_formula_sum "Si O2"
_cell_formula_units_Z 52
_cell_length_a 8.099087
_cell_length_b 20.373576
_cell_length_c 15.870430
_cell_angle_alpha 90.000000
_cell_angle_beta 90.000000
_cell_angle_gamma 90.000000
_cell_volume 2618.737828
_symmetry_space_group_name_H-M "P C C A"
_symmetry_group_IT_number 54
_symmetry_cell_setting 'orthorhombic'
loop_
_space_group_symop_operation_xyz
x,y,z
1/2-x,-y,z
1/2+x,-y,1/2-z
-x,y,1/2-z
-x,-y,-z
1/2+x,y,-z
1/2-x,y,1/2+z
x,-y,1/2+z
loop_
_atom_site_type_symbol
_atom_site_label
_atom_site_fract_x
_atom_site_fract_y
_atom_site_fract_z
Si Si1 0.500000 0.350553 0.750000
Si Si2 0.702013 0.574262 0.389334
Si Si3 0.750000 0.000000 0.325932
Si Si4 0.000000 0.093839 0.250000
Si Si5 0.187751 0.711341 0.898546
Si Si6 0.990786 0.067009 0.948398
Si Si7 0.011449 0.361729 0.969729
Si Si8 0.318766 0.860194 0.409243
O O1 0.383872 0.396889 0.693629
O O2 0.387218 0.303020 0.806734
O O3 0.750000 0.500000 0.370951
O O4 0.579898 0.579768 0.470066
O O5 0.868769 0.613914 0.408181
O O6 0.651383 0.952866 0.266448
O O7 0.859768 0.948113 0.376854
O O8 0.943752 0.135908 0.169811
O O9 0.344793 0.664555 0.909872
O O10 0.246893 0.786100 0.908869
O O11 0.051698 0.696751 0.970112
O O12 0.164960 0.088969 0.907407
O O13 0.927025 0.125526 0.007820
O O14 0.000000 0.000000 0.000000
#
# Coordination Sequence:
#
# PCOD8222921 Si02
#       8
#     4   8   4   4   8   8   8   8
#     4  10  23  38  56  86 132 161 194 248 304 340
#     4  10  20  37  62  92 122 161 204 247 299 356
#     4  12  24  40  60  80 120 142 180 232 308 352
#     4  12  25  38  58  88 114 151 182 240 294 364
#     4  10  21  40  58  86 117 159 200 245 289 355
#     4  12  22  41  62  87 111 149 189 247 295 357
#     4   9  20  38  62  86 119 159 202 254 292 332
#     4  12  23  39  64  87 115 154 201 237 297 363
#
# _framework density 19.856895000000002
#
# number of rings (size 3 to 8) (size 9 to 14) (size 15 to 20)
#    0.000    1.231    3.077    2.769    0.000    1.846 
#    0.000    7.692    0.000    0.000    0.000    0.000 
#    0.000    0.000    0.000    0.000    0.000    0.000 
#
# Total GULP energy -644817.865923 kJ/mol
# GULP energy per Si atom -12400.343575 kJ/mol
# Density = 1.981170 g / cm^3
# Si number density = 19.856895 Si / 1000 Ang^3
#
#
#
# Elastic Constant Matrix: (Units=GPa)
#
#
# Indices 1 2 3 4 5 6 
#
# 1 101.0224 22.0726 28.4834 0.0000 0.0000 0.0000
# 2 22.0726 106.5943 24.7989 0.0000 0.0000 0.0000
# 3 28.4834 24.7989 67.9670 0.0000 0.0000 0.0000
# 4 0.0000 0.0000 0.0000 10.6988 0.0000 0.0000
# 5 0.0000 0.0000 0.0000 0.0000 48.2475 0.0000
# 6 0.0000 0.0000 0.0000 0.0000 0.0000 27.4232
#
#
#
# Elastic Compliance Matrix: (Units=1/GPa)
#
#
# Indices 1 2 3 4 5 6 
#
# 1 0.011404 -0.001366 -0.004281 0.000000 0.000000 0.000000
# 2 -0.001366 0.010415 -0.003228 0.000000 0.000000 0.000000
# 3 -0.004281 -0.003228 0.017685 0.000000 0.000000 0.000000
# 4 0.000000 0.000000 0.000000 0.093468 0.000000 0.000000
# 5 0.000000 0.000000 0.000000 0.000000 0.020726 0.000000
# 6 0.000000 0.000000 0.000000 0.000000 0.000000 0.036465
#
#
# Mechanical properties :
#
#
# Convention : Reuss Voigt Hill
#
# Bulk Modulus (GPa) = 45.96571 47.36593 46.66582
# Shear Modulus (GPa) = 23.23799 30.62250 26.93025
#
# Velocity S-wave (km/s) = 3.42464 3.93129 3.68668
# Velocity P-wave (km/s) = 6.23187 6.67175 6.45556
#
# Compressibility (1/GPa) = 0.02175535
#
# Stress axis : x y z
#
# Youngs Moduli (GPa) = 87.68712 96.01466 56.54568
#
# Poissons Ratio (x) = 0.13111 0.24207
# Poissons Ratio (y) = 0.11974 0.18252
# Poissons Ratio (z) = 0.37539 0.30992
#
# Static dielectric constant tensor:
#      x y z
#    x 3.741580 0.000000 0.000000 
#    y 0.000000 3.331390 0.000000 
#    z 0.000000 0.000000 3.628130 
# 
# 
# High freq. dielectric constant tensor:
#      x y z
#    x 1.789850 0.000000 0.000000 
#    y 0.000000 1.766320 0.000000 
#    z 0.000000 0.000000 1.776610 
# 
# From -- ./inp_files/11860.got.cif
#   From: 2010.03.12/outbox.cif.g09.slc.cpg/sg54_6_cif.got.tgz:11860.got - 2010.04.16 15:00:50.
