data_PCOD8222546
_publ_section_title
;
Structure prediction by ZEFSAII (Michael W. Deem and Ramdas Pophale) SiO2 
 PCOD8222546
Probable space group: P C C A
;
_chemical_formula_sum "Si O2"
_cell_formula_units_Z 64
_cell_length_a 33.055560
_cell_length_b 19.441785
_cell_length_c 5.151374
_cell_angle_alpha 90.000000
_cell_angle_beta 90.000000
_cell_angle_gamma 90.000000
_cell_volume 3310.577330
_symmetry_space_group_name_H-M "P C C A"
_symmetry_group_IT_number 54
_symmetry_cell_setting 'orthorhombic'
loop_
_space_group_symop_operation_xyz
x,y,z
1/2-x,-y,z
1/2+x,-y,1/2-z
-x,y,1/2-z
-x,-y,-z
1/2+x,y,-z
1/2-x,y,1/2+z
x,-y,1/2+z
loop_
_atom_site_type_symbol
_atom_site_label
_atom_site_fract_x
_atom_site_fract_y
_atom_site_fract_z
Si Si1 0.224834 0.391516 0.114281
Si Si2 0.518170 0.076465 0.496431
Si Si3 0.045563 0.281505 0.654274
Si Si4 0.724541 0.231382 0.873619
Si Si5 0.139121 0.456959 0.150055
Si Si6 0.594818 0.142739 0.368711
Si Si7 0.863659 0.184068 0.361446
Si Si8 0.912929 0.323322 0.346625
O O1 0.257993 0.410191 0.331380
O O2 0.213070 0.311505 0.122870
O O3 0.185738 0.436179 0.171592
O O4 0.500000 0.116748 0.250000
O O5 0.566922 0.077573 0.458585
O O6 0.500000 0.000000 0.500000
O O7 0.500000 0.115241 0.750000
O O8 0.064044 0.206044 0.629367
O O9 0.051963 0.316534 0.372335
O O10 0.000000 0.276387 0.750000
O O11 0.068270 0.327638 0.867693
O O12 0.744430 0.211589 0.600242
O O13 0.683958 0.187690 0.915377
O O14 0.129475 0.514227 0.365343
O O15 0.111253 0.392204 0.210290
O O16 0.629789 0.148277 0.583682
O O17 0.615501 0.137493 0.086372
O O18 0.881908 0.260006 0.343545
#
# Coordination Sequence:
#
# PCOD8222546 Si02
#       8
#     8   8   8   8   8   8   8   8
#     4  10  21  35  52  74 100 131 168 210 259 327
#     4  10  20  34  52  77 117 163 189 209 247 309
#     4  10  20  34  57  78  98 127 165 222 267 311
#     4  10  19  32  52  74 104 143 175 213 274 336
#     4  12  24  37  55  72  97 132 167 215 270 330
#     4  10  20  31  53  81 109 142 184 223 255 303
#     4  10  19  34  52  76 106 140 180 228 265 313
#     4  10  21  37  52  74 101 125 168 214 273 329
#
# _framework density 19.331975
#
# number of rings (size 3 to 8) (size 9 to 14) (size 15 to 20)
#    0.000    1.750    1.250    3.750    0.000    3.500 
#    0.000    0.000    0.000    7.500    0.000    0.000 
#    0.000    0.000    0.000  157.500    0.000    0.000 
#
# Total GULP energy -793385.890698 kJ/mol
# GULP energy per Si atom -12396.654542 kJ/mol
# Density = 1.928797 g / cm^3
# Si number density = 19.331975 Si / 1000 Ang^3
#
#
#
# Elastic Constant Matrix: (Units=GPa)
#
#
# Indices 1 2 3 4 5 6 
#
# 1 80.8156 25.6893 32.7458 0.0000 0.0000 0.0000
# 2 25.6893 42.6652 18.5274 0.0000 0.0000 0.0000
# 3 32.7458 18.5274 137.4409 0.0000 0.0000 0.0000
# 4 0.0000 0.0000 0.0000 8.1226 0.0000 0.0000
# 5 0.0000 0.0000 0.0000 0.0000 25.8320 0.0000
# 6 0.0000 0.0000 0.0000 0.0000 0.0000 29.6111
#
#
#
# Elastic Compliance Matrix: (Units=1/GPa)
#
#
# Indices 1 2 3 4 5 6 
#
# 1 0.016196 -0.008578 -0.002702 0.000000 0.000000 0.000000
# 2 -0.008578 0.029439 -0.001925 0.000000 0.000000 0.000000
# 3 -0.002702 -0.001925 0.008179 0.000000 0.000000 0.000000
# 4 0.000000 0.000000 0.000000 0.123114 0.000000 0.000000
# 5 0.000000 0.000000 0.000000 0.000000 0.038712 0.000000
# 6 0.000000 0.000000 0.000000 0.000000 0.000000 0.033771
#
#
# Mechanical properties :
#
#
# Convention : Reuss Voigt Hill
#
# Bulk Modulus (GPa) = 36.49156 46.09409 41.29283
# Shear Modulus (GPa) = 17.54663 24.97707 21.26185
#
# Velocity S-wave (km/s) = 3.01599 3.59835 3.31996
# Velocity P-wave (km/s) = 5.57185 6.41556 6.00853
#
# Compressibility (1/GPa) = 0.02740359
#
# Stress axis : x y z
#
# Youngs Moduli (GPa) = 61.74530 33.96841 122.26213
#
# Poissons Ratio (x) = 0.29138 0.33039
# Poissons Ratio (y) = 0.52966 0.23532
# Poissons Ratio (z) = 0.16685 0.06538
#
# Static dielectric constant tensor:
#      x y z
#    x 3.430150 0.000000 0.000000 
#    y 0.000000 3.164420 0.000000 
#    z 0.000000 0.000000 2.110270 
# 
# 
# High freq. dielectric constant tensor:
#      x y z
#    x 1.745980 0.000000 0.000000 
#    y 0.000000 1.708130 0.000000 
#    z 0.000000 0.000000 1.780580 
# 
# From -- ./inp_files/2240.got.cif
#   From: 2010.03.12/outbox.cif.g09.slc.cpg/sg54_2_cif.got.tgz:2240.got - 2010.04.16 15:00:50.
