data_PCOD8222219
_publ_section_title
;
Structure prediction by ZEFSAII (Michael W. Deem and Ramdas Pophale) SiO2 
 PCOD8222219
Probable space group: P M N A
;
_chemical_formula_sum "Si O2"
_cell_formula_units_Z 28
_cell_length_a 18.239779
_cell_length_b 8.028792
_cell_length_c 9.257516
_cell_angle_alpha 90.000000
_cell_angle_beta 90.000000
_cell_angle_gamma 90.000000
_cell_volume 1355.702042
_symmetry_space_group_name_H-M "P M N A"
_symmetry_group_IT_number 53
_symmetry_cell_setting 'orthorhombic'
loop_
_space_group_symop_operation_xyz
x,y,z
1/2-x,-y,1/2+z
x,-y,-z
1/2-x,y,1/2-z
-x,-y,-z
1/2+x,y,1/2-z
-x,y,z
1/2+x,-y,1/2+z
loop_
_atom_site_type_symbol
_atom_site_label
_atom_site_fract_x
_atom_site_fract_y
_atom_site_fract_z
Si Si1 0.307253 0.500000 0.500000
Si Si2 0.580496 0.457621 0.757805
Si Si3 0.266106 0.155181 0.083200
Si Si4 0.919593 0.241575 0.478594
O O1 0.356669 0.529714 0.360503
O O2 0.257423 0.664242 0.520503
O O3 0.500000 0.456992 0.682644
O O4 0.586328 0.605872 0.869740
O O5 0.590219 0.291973 0.853416
O O6 0.250000 0.142529 0.250000
O O7 0.352946 0.122423 0.063061
O O8 0.226572 0.000000 0.000000
O O9 0.000000 0.156299 0.458334
#
# Coordination Sequence:
#
# PCOD8222219 Si02
#       4
#     4   8   8   8
#     4  12  23  40  69  94 132 174 206 270 335 366
#     4   9  18  35  65  98 125 166 218 261 315 386
#     4  12  28  43  65  98 132 169 218 266 319 385
#     4   9  19  39  64  90 125 170 217 259 313 382
#
# _framework density 20.653506
#
# number of rings (size 3 to 8) (size 9 to 14) (size 15 to 20)
#    0.000    1.714    2.857    3.857    4.000    0.571 
#    0.000    0.000    0.000    4.286    0.000    0.000 
#    0.000    0.000    0.000    0.000    0.000    0.000 
#
# Total GULP energy -346896.670576 kJ/mol
# GULP energy per Si atom -12389.166806 kJ/mol
# Density = 2.060650 g / cm^3
# Si number density = 20.653506 Si / 1000 Ang^3
#
#
#
# Elastic Constant Matrix: (Units=GPa)
#
#
# Indices 1 2 3 4 5 6 
#
# 1 144.4741 40.3253 59.2842 0.0000 0.0000 0.0000
# 2 40.3253 121.6652 49.8135 0.0000 0.0000 0.0000
# 3 59.2842 49.8135 116.3270 0.0000 0.0000 0.0000
# 4 0.0000 0.0000 0.0000 -1.1362 0.0000 0.0000
# 5 0.0000 0.0000 0.0000 0.0000 23.3456 0.0000
# 6 0.0000 0.0000 0.0000 0.0000 0.0000 24.8259
#
#
#
# Elastic Compliance Matrix: (Units=1/GPa)
#
#
# Indices 1 2 3 4 5 6 
#
# 1 0.008926 -0.001329 -0.003980 0.000000 0.000000 0.000000
# 2 -0.001329 0.010165 -0.003675 0.000000 0.000000 0.000000
# 3 -0.003980 -0.003675 0.012199 0.000000 0.000000 0.000000
# 4 0.000000 0.000000 0.000000 -0.880158 0.000000 0.000000
# 5 0.000000 0.000000 0.000000 0.000000 0.042835 0.000000
# 6 0.000000 0.000000 0.000000 0.000000 0.000000 0.040280
#
#
# Mechanical properties :
#
#
# Convention : Reuss Voigt Hill
#
# Bulk Modulus (GPa) = 75.07157 75.70137 75.38647
# Shear Modulus (GPa) = -6.72635 24.94330 9.10848
#
# Velocity S-wave (km/s) = -1.80661 3.47897 2.10231
# Velocity P-wave (km/s) = 5.66350 7.27119 6.51711
#
# Compressibility (1/GPa) = 0.01332062
#
# Stress axis : x y z
#
# Youngs Moduli (GPa) = 112.03666 98.38102 81.97694
#
# Poissons Ratio (x) = 0.13074 0.32625
# Poissons Ratio (y) = 0.14889 0.30130
# Poissons Ratio (z) = 0.44588 0.36159
#
# Static dielectric constant tensor:
#      x y z
#    x 4.286170 0.000000 0.000000 
#    y 0.000000 3.656410 0.000000 
#    z 0.000000 0.000000 3.275240 
# 
# 
# High freq. dielectric constant tensor:
#      x y z
#    x 1.822830 0.000000 0.000000 
#    y 0.000000 1.795590 0.000000 
#    z 0.000000 0.000000 1.805750 
# 
# From -- ./inp_files/9372.got.cif
#   From: 2010.03.12/outbox.cif.g09.slc.cpg/sg53_5_cif.got.tgz:9372.got - 2010.04.16 14:36:59.
