data_PCOD8222551
_publ_section_title
;
Structure prediction by ZEFSAII (Michael W. Deem and Ramdas Pophale) SiO2 
 PCOD8222551
Probable space group: P C C A
;
_chemical_formula_sum "Si O2"
_cell_formula_units_Z 36
_cell_length_a 5.010297
_cell_length_b 22.770430
_cell_length_c 15.739825
_cell_angle_alpha 90.000000
_cell_angle_beta 90.000000
_cell_angle_gamma 90.000000
_cell_volume 1795.703388
_symmetry_space_group_name_H-M "P C C A"
_symmetry_group_IT_number 54
_symmetry_cell_setting 'orthorhombic'
loop_
_space_group_symop_operation_xyz
x,y,z
1/2-x,-y,z
1/2+x,-y,1/2-z
-x,y,1/2-z
-x,-y,-z
1/2+x,y,-z
1/2-x,y,1/2+z
x,-y,1/2+z
loop_
_atom_site_type_symbol
_atom_site_label
_atom_site_fract_x
_atom_site_fract_y
_atom_site_fract_z
Si Si1 0.094864 0.651431 0.943772
Si Si2 0.998340 0.534877 0.649501
Si Si3 0.250000 0.000000 0.306173
Si Si4 0.848761 0.902370 0.559909
Si Si5 0.983551 0.221805 0.054028
O O1 0.015417 0.602729 0.875660
O O2 0.068335 0.715888 0.898711
O O3 0.398085 0.645033 0.975480
O O4 0.750000 0.500000 0.610608
O O5 0.250000 0.500000 0.611277
O O6 0.000000 0.532310 0.750000
O O7 0.368141 0.947936 0.363695
O O8 0.500000 0.022489 0.250000
O O9 0.567230 0.911458 0.513588
O O10 0.895397 0.837641 0.603418
O O11 0.796470 0.220359 0.969260
#
# Coordination Sequence:
#
# PCOD8222551 Si02
#       5
#     8   8   4   8   8
#     4  10  19  32  52  77 100 124 163 213 257 293
#     4  10  21  35  49  68  99 135 167 201 246 302
#     4  12  24  36  52  82 118 140 168 226 278 302
#     4  10  19  36  59  78 101 143 187 210 249 324
#     4   8  16  30  51  76  99 125 165 214 250 291
#
# _framework density 20.047854999999998
#
# number of rings (size 3 to 8) (size 9 to 14) (size 15 to 20)
#    0.000    2.222    0.000    3.333    0.000    2.667 
#    0.000    1.111    0.000    4.000    0.000    0.000 
#    0.000    0.000    0.000    0.000    0.000    0.000 
#
# Total GULP energy -446068.599622 kJ/mol
# GULP energy per Si atom -12390.794434 kJ/mol
# Density = 2.000222 g / cm^3
# Si number density = 20.047855 Si / 1000 Ang^3
#
#
#
# Elastic Constant Matrix: (Units=GPa)
#
#
# Indices 1 2 3 4 5 6 
#
# 1 107.7938 31.2178 14.4322 0.0000 0.0000 0.0000
# 2 31.2178 180.8786 37.9412 0.0000 0.0000 0.0000
# 3 14.4322 37.9412 28.7440 0.0000 0.0000 0.0000
# 4 0.0000 0.0000 0.0000 23.5650 0.0000 0.0000
# 5 0.0000 0.0000 0.0000 0.0000 8.4344 0.0000
# 6 0.0000 0.0000 0.0000 0.0000 0.0000 31.4981
#
#
#
# Elastic Compliance Matrix: (Units=1/GPa)
#
#
# Indices 1 2 3 4 5 6 
#
# 1 0.010059 -0.000936 -0.003815 0.000000 0.000000 0.000000
# 2 -0.000936 0.007732 -0.009737 0.000000 0.000000 0.000000
# 3 -0.003815 -0.009737 0.049558 0.000000 0.000000 0.000000
# 4 0.000000 0.000000 0.000000 0.042436 0.000000 0.000000
# 5 0.000000 0.000000 0.000000 0.000000 0.118563 0.000000
# 6 0.000000 0.000000 0.000000 0.000000 0.000000 0.031748
#
#
# Mechanical properties :
#
#
# Convention : Reuss Voigt Hill
#
# Bulk Modulus (GPa) = 26.05974 53.84429 39.95202
# Shear Modulus (GPa) = 16.56385 28.28785 22.42585
#
# Velocity S-wave (km/s) = 2.87751 3.76042 3.34820
# Velocity P-wave (km/s) = 4.90582 6.76540 5.90922
#
# Compressibility (1/GPa) = 0.03837336
#
# Stress axis : x y z
#
# Youngs Moduli (GPa) = 99.41555 129.32494 20.17845
#
# Poissons Ratio (x) = 0.12101 0.07699
# Poissons Ratio (y) = 0.09303 0.19647
# Poissons Ratio (z) = 0.37930 1.25921
#
# Static dielectric constant tensor:
#      x y z
#    x 4.039970 0.000000 0.000000 
#    y 0.000000 4.170710 0.000000 
#    z 0.000000 0.000000 2.951470 
# 
# 
# High freq. dielectric constant tensor:
#      x y z
#    x 1.809200 0.000000 0.000000 
#    y 0.000000 1.810890 0.000000 
#    z 0.000000 0.000000 1.708910 
# 
# From -- ./inp_files/10795.got.cif
#   From: 2010.03.12/outbox.cif.g09.slc.cpg/sg54_6_cif.got.tgz:10795.got - 2010.04.16 15:00:50.
