data_PCOD8223900
_publ_section_title
;
Structure prediction by ZEFSAII (Michael W. Deem and Ramdas Pophale) SiO2 
 PCOD8223900
Probable space group: P C C A
;
_chemical_formula_sum "Si O2"
_cell_formula_units_Z 60
_cell_length_a 14.268296
_cell_length_b 11.952063
_cell_length_c 16.783945
_cell_angle_alpha 90.000000
_cell_angle_beta 90.000000
_cell_angle_gamma 90.000000
_cell_volume 2862.259673
_symmetry_space_group_name_H-M "P C C A"
_symmetry_group_IT_number 54
_symmetry_cell_setting 'orthorhombic'
loop_
_space_group_symop_operation_xyz
x,y,z
1/2-x,-y,z
1/2+x,-y,1/2-z
-x,y,1/2-z
-x,-y,-z
1/2+x,y,-z
1/2-x,y,1/2+z
x,-y,1/2+z
loop_
_atom_site_type_symbol
_atom_site_label
_atom_site_fract_x
_atom_site_fract_y
_atom_site_fract_z
Si Si1 0.639827 0.192891 0.427816
Si Si2 0.331035 0.644362 0.841914
Si Si3 0.664826 0.576278 0.840219
Si Si4 0.750000 0.000000 0.844816
Si Si5 0.019861 0.520790 0.908453
Si Si6 0.642115 0.273968 0.602750
Si Si7 0.955974 0.854250 0.163452
Si Si8 0.600759 0.082180 0.718722
O O1 0.666420 0.311806 0.391267
O O2 0.713676 0.100109 0.400000
O O3 0.646076 0.202582 0.522359
O O4 0.534620 0.158698 0.403879
O O5 0.321511 0.606344 0.751315
O O6 0.394472 0.558242 0.888165
O O7 0.230762 0.644527 0.885327
O O8 0.372890 0.767974 0.849953
O O9 0.750000 0.500000 0.870436
O O10 0.568450 0.508363 0.852808
O O11 0.665509 0.046254 0.791916
O O12 0.048517 0.650033 0.894975
O O13 0.000000 0.500000 0.000000
O O14 0.645805 0.186979 0.675034
O O15 0.000000 0.831597 0.250000
O O16 0.911294 0.977543 0.158556
O O17 0.500000 0.120008 0.750000
#
# Coordination Sequence:
#
# PCOD8223900 Si02
#       8
#     8   8   8   4   8   8   8   8
#     4  12  25  46  69 103 141 184 237 291 365 434
#     4  12  24  44  74 100 139 187 239 283 348 443
#     4  12  25  44  74 102 135 189 239 286 355 430
#     4  12  24  46  76 102 138 192 240 294 366 440
#     4  12  25  46  69  99 144 185 232 296 356 423
#     4  12  28  43  69 109 146 181 235 301 370 416
#     4  11  19  45  75  95 134 190 233 282 350 431
#     4  11  24  45  72 101 142 179 235 304 346 422
#
# _framework density 20.962458999999999
#
# number of rings (size 3 to 8) (size 9 to 14) (size 15 to 20)
#    0.000    0.267    6.667    3.200    1.867    5.333 
#    2.400    0.000    0.000    0.000    0.000    0.000 
#    0.000    0.000    0.000    0.000    0.000    0.000 
#
# Total GULP energy -744364.519218 kJ/mol
# GULP energy per Si atom -12406.075320 kJ/mol
# Density = 2.091475 g / cm^3
# Si number density = 20.962459 Si / 1000 Ang^3
#
#
#
# Elastic Constant Matrix: (Units=GPa)
#
#
# Indices 1 2 3 4 5 6 
#
# 1 129.5851 51.9499 32.6608 0.0000 0.0000 0.0000
# 2 51.9499 129.4339 24.3770 0.0000 0.0000 0.0000
# 3 32.6608 24.3770 83.9220 0.0000 0.0000 0.0000
# 4 0.0000 0.0000 0.0000 36.0862 0.0000 0.0000
# 5 0.0000 0.0000 0.0000 0.0000 33.2415 0.0000
# 6 0.0000 0.0000 0.0000 0.0000 0.0000 21.7048
#
#
#
# Elastic Compliance Matrix: (Units=1/GPa)
#
#
# Indices 1 2 3 4 5 6 
#
# 1 0.009791 -0.003398 -0.002823 0.000000 0.000000 0.000000
# 2 -0.003398 0.009352 -0.001394 0.000000 0.000000 0.000000
# 3 -0.002823 -0.001394 0.013420 0.000000 0.000000 0.000000
# 4 0.000000 0.000000 0.000000 0.027711 0.000000 0.000000
# 5 0.000000 0.000000 0.000000 0.000000 0.030083 0.000000
# 6 0.000000 0.000000 0.000000 0.000000 0.000000 0.046073
#
#
# Mechanical properties :
#
#
# Convention : Reuss Voigt Hill
#
# Bulk Modulus (GPa) = 57.69760 62.32404 60.01082
# Shear Modulus (GPa) = 31.75854 33.80338 32.78096
#
# Velocity S-wave (km/s) = 3.89655 4.02004 3.95877
# Velocity P-wave (km/s) = 6.91579 7.16543 7.04172
#
# Compressibility (1/GPa) = 0.01733174
#
# Stress axis : x y z
#
# Youngs Moduli (GPa) = 102.13737 106.92535 74.51786
#
# Poissons Ratio (x) = 0.36332 0.21039
# Poissons Ratio (y) = 0.34705 0.10389
# Poissons Ratio (z) = 0.28837 0.14907
#
# Static dielectric constant tensor:
#      x y z
#    x 4.254960 0.000000 0.000000 
#    y 0.000000 4.080620 0.000000 
#    z 0.000000 0.000000 3.616670 
# 
# 
# High freq. dielectric constant tensor:
#      x y z
#    x 1.833730 0.000000 0.000000 
#    y 0.000000 1.838620 0.000000 
#    z 0.000000 0.000000 1.815450 
# 
# From -- ./inp_files/18199.got.cif
#   From: 2010.03.12/outbox.cif.g09.slc.cpg/sg54_10_cif.got.tgz:18199.got - 2010.04.16 15:00:50.
