data_PCOD8223471
_publ_section_title
;
Structure prediction by ZEFSAII (Michael W. Deem and Ramdas Pophale) SiO2 
 PCOD8223471
Probable space group: P C C A
;
_chemical_formula_sum "Si O2"
_cell_formula_units_Z 60
_cell_length_a 11.126260
_cell_length_b 11.755119
_cell_length_c 21.369783
_cell_angle_alpha 90.000000
_cell_angle_beta 90.000000
_cell_angle_gamma 90.000000
_cell_volume 2794.964824
_symmetry_space_group_name_H-M "P C C A"
_symmetry_group_IT_number 54
_symmetry_cell_setting 'orthorhombic'
loop_
_space_group_symop_operation_xyz
x,y,z
1/2-x,-y,z
1/2+x,-y,1/2-z
-x,y,1/2-z
-x,-y,-z
1/2+x,y,-z
1/2-x,y,1/2+z
x,-y,1/2+z
loop_
_atom_site_type_symbol
_atom_site_label
_atom_site_fract_x
_atom_site_fract_y
_atom_site_fract_z
Si Si1 0.364963 0.655681 0.384621
Si Si2 0.868964 0.386877 0.249234
Si Si3 0.591070 0.323671 0.963176
Si Si4 0.229124 0.124765 0.888537
Si Si5 0.388592 0.363263 0.207385
Si Si6 0.769637 0.123703 0.965911
Si Si7 0.250000 0.500000 0.986594
Si Si8 0.511829 0.759232 0.910805
O O1 0.351701 0.575763 0.323715
O O2 0.501178 0.670967 0.405482
O O3 0.314688 0.777531 0.360673
O O4 0.294609 0.604302 0.443730
O O5 0.884942 0.500045 0.290613
O O6 0.747183 0.320029 0.272172
O O7 0.000000 0.319615 0.250000
O O8 0.674021 0.217408 0.944209
O O9 0.655934 0.445698 0.965304
O O10 0.537067 0.317818 0.032979
O O11 0.092516 0.166199 0.878461
O O12 0.250000 0.000000 0.856831
O O13 0.268194 0.115375 0.960021
O O14 0.500000 0.317479 0.250000
O O15 0.416987 0.320373 0.137726
O O16 0.901547 0.152044 0.943331
O O17 0.750000 0.000000 0.935573
#
# Coordination Sequence:
#
# PCOD8223471 Si02
#       8
#     8   8   8   8   8   8   4   8
#     4  12  23  41  67  91 142 171 222 275 340 412
#     4  10  24  42  62  96 124 184 224 281 327 396
#     4  11  24  39  62 103 138 177 210 279 342 410
#     4  10  22  39  67 102 135 178 221 271 345 415
#     4  10  22  42  66  91 128 174 240 270 325 403
#     4  10  22  39  63  98 138 172 218 267 338 409
#     4  12  22  40  56  98 142 176 208 256 348 406
#     4  11  21  40  67  97 134 173 225 278 337 405
#
# _framework density 21.467174
#
# number of rings (size 3 to 8) (size 9 to 14) (size 15 to 20)
#    0.000    1.333    4.000    2.000    7.467    1.600 
#    0.000    0.000    0.000    5.600    0.000    0.000 
#    0.000    0.000    0.000    0.000    0.000    0.000 
#
# Total GULP energy -743409.919768 kJ/mol
# GULP energy per Si atom -12390.165329 kJ/mol
# Density = 2.141831 g / cm^3
# Si number density = 21.467174 Si / 1000 Ang^3
#
#
#
# Elastic Constant Matrix: (Units=GPa)
#
#
# Indices 1 2 3 4 5 6 
#
# 1 171.8382 47.2478 46.9661 0.0000 0.0000 0.0000
# 2 47.2478 111.1065 22.8765 0.0000 0.0000 0.0000
# 3 46.9661 22.8765 35.1028 0.0000 0.0000 0.0000
# 4 0.0000 0.0000 0.0000 12.9568 0.0000 0.0000
# 5 0.0000 0.0000 0.0000 0.0000 16.7513 0.0000
# 6 0.0000 0.0000 0.0000 0.0000 0.0000 1.6869
#
#
#
# Elastic Compliance Matrix: (Units=1/GPa)
#
#
# Indices 1 2 3 4 5 6 
#
# 1 0.009423 -0.001630 -0.011546 0.000000 0.000000 0.000000
# 2 -0.001630 0.010677 -0.004777 0.000000 0.000000 0.000000
# 3 -0.011546 -0.004777 0.047049 0.000000 0.000000 0.000000
# 4 0.000000 0.000000 0.000000 0.077180 0.000000 0.000000
# 5 0.000000 0.000000 0.000000 0.000000 0.059697 0.000000
# 6 0.000000 0.000000 0.000000 0.000000 0.000000 0.592790
#
#
# Mechanical properties :
#
#
# Convention : Reuss Voigt Hill
#
# Bulk Modulus (GPa) = 32.00707 61.35868 46.68287
# Shear Modulus (GPa) = 5.93024 19.67614 12.80319
#
# Velocity S-wave (km/s) = 1.66387 3.03077 2.44480
# Velocity P-wave (km/s) = 4.31665 6.39469 5.45552
#
# Compressibility (1/GPa) = 0.03124310
#
# Stress axis : x y z
#
# Youngs Moduli (GPa) = 106.12110 93.65759 21.25452
#
# Poissons Ratio (x) = 0.15266 0.24540
# Poissons Ratio (y) = 0.17298 0.10154
# Poissons Ratio (z) = 1.22523 0.44745
#
# Static dielectric constant tensor:
#      x y z
#    x 5.472130 0.000000 0.000000 
#    y 0.000000 4.245800 0.000000 
#    z 0.000000 0.000000 3.573220 
# 
# 
# High freq. dielectric constant tensor:
#      x y z
#    x 1.868230 0.000000 0.000000 
#    y 0.000000 1.816760 0.000000 
#    z 0.000000 0.000000 1.816590 
# 
# From -- ./inp_files/21217.got.cif
#   From: 2010.03.12/outbox.cif.g09.slc.cpg/sg54_11_cif.got.tgz:21217.got - 2010.04.16 15:00:50.
