data_PCOD8223516
_publ_section_title
;
Structure prediction by ZEFSAII (Michael W. Deem and Ramdas Pophale) SiO2 
 PCOD8223516
Probable space group: P C C A
;
_chemical_formula_sum "Si O2"
_cell_formula_units_Z 36
_cell_length_a 18.894850
_cell_length_b 7.389932
_cell_length_c 12.423282
_cell_angle_alpha 90.000000
_cell_angle_beta 90.000000
_cell_angle_gamma 90.000000
_cell_volume 1734.683447
_symmetry_space_group_name_H-M "P C C A"
_symmetry_group_IT_number 54
_symmetry_cell_setting 'orthorhombic'
loop_
_space_group_symop_operation_xyz
x,y,z
1/2-x,-y,z
1/2+x,-y,1/2-z
-x,y,1/2-z
-x,-y,-z
1/2+x,y,-z
1/2-x,y,1/2+z
x,-y,1/2+z
loop_
_atom_site_type_symbol
_atom_site_label
_atom_site_fract_x
_atom_site_fract_y
_atom_site_fract_z
Si Si1 0.362734 0.795707 0.900944
Si Si2 0.750000 0.000000 0.216687
Si Si3 0.522948 0.075063 0.614772
Si Si4 0.571086 0.555051 0.194409
Si Si5 0.373265 0.822183 0.155263
O O1 0.283723 0.842310 0.858250
O O2 0.386540 0.595776 0.869800
O O3 0.415407 0.940649 0.845318
O O4 0.362950 0.806254 0.028969
O O5 0.809083 0.069749 0.296711
O O6 0.553523 0.280700 0.610689
O O7 0.449925 0.081957 0.685893
O O8 0.500000 0.000000 0.500000
O O9 0.500000 0.475738 0.250000
O O10 0.622983 0.625059 0.289445
#
# Coordination Sequence:
#
# PCOD8223516 Si02
#       5
#     8   4   8   8   8
#     4  11  24  43  69  93 132 178 215 273 336 383
#     4  12  24  42  68  90 138 178 216 260 334 394
#     4   9  20  41  68  95 130 165 220 276 322 380
#     4  10  22  40  67 101 131 160 226 274 326 394
#     4  10  23  44  63  99 130 166 224 267 319 400
#
# _framework density 20.753066
#
# number of rings (size 3 to 8) (size 9 to 14) (size 15 to 20)
#    0.000    1.778    2.222    0.667    3.111    8.889 
#    4.000    2.222    0.000    0.000    0.000    0.000 
#    0.000    0.000    0.000    0.000    0.000    0.000 
#
# Total GULP energy -446179.277378 kJ/mol
# GULP energy per Si atom -12393.868816 kJ/mol
# Density = 2.070583 g / cm^3
# Si number density = 20.753066 Si / 1000 Ang^3
#
#
#
# Elastic Constant Matrix: (Units=GPa)
#
#
# Indices 1 2 3 4 5 6 
#
# 1 141.0221 73.4769 68.6066 0.0000 0.0000 0.0000
# 2 73.4769 128.2819 60.5787 0.0000 0.0000 0.0000
# 3 68.6066 60.5787 126.3934 0.0000 0.0000 0.0000
# 4 0.0000 0.0000 0.0000 33.6153 0.0000 0.0000
# 5 0.0000 0.0000 0.0000 0.0000 32.3263 0.0000
# 6 0.0000 0.0000 0.0000 0.0000 0.0000 31.1351
#
#
#
# Elastic Compliance Matrix: (Units=1/GPa)
#
#
# Indices 1 2 3 4 5 6 
#
# 1 0.011471 -0.004692 -0.003978 0.000000 0.000000 0.000000
# 2 -0.004692 0.011995 -0.003202 0.000000 0.000000 0.000000
# 3 -0.003978 -0.003202 0.011606 0.000000 0.000000 0.000000
# 4 0.000000 0.000000 0.000000 0.029748 0.000000 0.000000
# 5 0.000000 0.000000 0.000000 0.000000 0.030935 0.000000
# 6 0.000000 0.000000 0.000000 0.000000 0.000000 0.032118
#
#
# Mechanical properties :
#
#
# Convention : Reuss Voigt Hill
#
# Bulk Modulus (GPa) = 88.27754 89.00242 88.63998
# Shear Modulus (GPa) = 32.17672 32.28434 32.23053
#
# Velocity S-wave (km/s) = 3.94185 3.94844 3.94515
# Velocity P-wave (km/s) = 7.95909 7.98539 7.97225
#
# Compressibility (1/GPa) = 0.01132791
#
# Stress axis : x y z
#
# Youngs Moduli (GPa) = 87.17802 83.36860 86.16473
#
# Poissons Ratio (x) = 0.39115 0.34273
# Poissons Ratio (y) = 0.40903 0.27592
# Poissons Ratio (z) = 0.34676 0.26697
#
# Static dielectric constant tensor:
#      x y z
#    x 4.196380 0.000000 0.000000 
#    y 0.000000 3.667010 0.000000 
#    z 0.000000 0.000000 4.095720 
# 
# 
# High freq. dielectric constant tensor:
#      x y z
#    x 1.820420 0.000000 0.000000 
#    y 0.000000 1.794730 0.000000 
#    z 0.000000 0.000000 1.832310 
# 
# From -- ./inp_files/13854.got.cif
#   From: 2010.03.12/outbox.cif.g09.slc.cpg/sg54_7_cif.got.tgz:13854.got - 2010.04.16 15:00:50.
