data_PCOD8223795
_publ_section_title
;
Structure prediction by ZEFSAII (Michael W. Deem and Ramdas Pophale) SiO2 
 PCOD8223795
Probable space group: P C C A
;
_chemical_formula_sum "Si O2"
_cell_formula_units_Z 32
_cell_length_a 8.428067
_cell_length_b 10.337715
_cell_length_c 16.068475
_cell_angle_alpha 90.000000
_cell_angle_beta 90.000000
_cell_angle_gamma 90.000000
_cell_volume 1399.997293
_symmetry_space_group_name_H-M "P C C A"
_symmetry_group_IT_number 54
_symmetry_cell_setting 'orthorhombic'
loop_
_space_group_symop_operation_xyz
x,y,z
1/2-x,-y,z
1/2+x,-y,1/2-z
-x,y,1/2-z
-x,-y,-z
1/2+x,y,-z
1/2-x,y,1/2+z
x,-y,1/2+z
loop_
_atom_site_type_symbol
_atom_site_label
_atom_site_fract_x
_atom_site_fract_y
_atom_site_fract_z
Si Si1 0.500000 0.176533 0.250000
Si Si2 0.050771 0.311218 0.584091
Si Si3 0.069712 0.456556 0.338998
Si Si4 0.093721 0.228019 0.083332
Si Si5 0.750000 0.000000 0.327570
O O1 0.466888 0.261104 0.331542
O O2 0.656004 0.092832 0.266298
O O3 0.239022 0.300488 0.585059
O O4 0.013001 0.464125 0.584996
O O5 0.976371 0.227594 0.509494
O O6 0.250000 0.500000 0.339465
O O7 0.000000 0.494104 0.250000
O O8 0.033189 0.305275 0.358565
O O9 0.124746 0.081260 0.115316
#
# Coordination Sequence:
#
# PCOD8223795 Si02
#       5
#     4   8   8   8   4
#     4  10  24  42  68  90 142 178 242 296 354 428
#     4  11  23  45  66 102 138 183 232 300 363 426
#     4  12  25  42  72 106 141 183 233 303 370 433
#     4  11  25  43  70 101 144 184 243 294 362 434
#     4  10  26  44  66 106 134 198 244 290 354 434
#
# _framework density 22.857188000000001
#
# number of rings (size 3 to 8) (size 9 to 14) (size 15 to 20)
#    0.000    1.000    1.250    4.500    5.250    7.000 
#    0.000    0.000    0.000    0.000    0.000    0.000 
#    0.000    0.000    0.000    0.000    0.000    0.000 
#
# Total GULP energy -396693.109709 kJ/mol
# GULP energy per Si atom -12396.659678 kJ/mol
# Density = 2.280516 g / cm^3
# Si number density = 22.857188 Si / 1000 Ang^3
#
#
#
# Elastic Constant Matrix: (Units=GPa)
#
#
# Indices 1 2 3 4 5 6 
#
# 1 110.9181 41.8602 49.2541 0.0000 0.0000 0.0000
# 2 41.8602 97.7895 28.8284 0.0000 0.0000 0.0000
# 3 49.2541 28.8284 133.8971 0.0000 0.0000 0.0000
# 4 0.0000 0.0000 0.0000 12.0497 0.0000 0.0000
# 5 0.0000 0.0000 0.0000 0.0000 29.0255 0.0000
# 6 0.0000 0.0000 0.0000 0.0000 0.0000 46.9654
#
#
#
# Elastic Compliance Matrix: (Units=1/GPa)
#
#
# Indices 1 2 3 4 5 6 
#
# 1 0.012175 -0.004155 -0.003584 0.000000 0.000000 0.000000
# 2 -0.004155 0.012337 -0.001128 0.000000 0.000000 0.000000
# 3 -0.003584 -0.001128 0.009030 0.000000 0.000000 0.000000
# 4 0.000000 0.000000 0.000000 0.082989 0.000000 0.000000
# 5 0.000000 0.000000 0.000000 0.000000 0.034453 0.000000
# 6 0.000000 0.000000 0.000000 0.000000 0.000000 0.021292
#
#
# Mechanical properties :
#
#
# Convention : Reuss Voigt Hill
#
# Bulk Modulus (GPa) = 63.25867 64.72111 63.98989
# Shear Modulus (GPa) = 25.60428 32.45225 29.02827
#
# Velocity S-wave (km/s) = 3.35055 3.77209 3.56755
# Velocity P-wave (km/s) = 6.53482 6.88102 6.71015
#
# Compressibility (1/GPa) = 0.01580811
#
# Stress axis : x y z
#
# Youngs Moduli (GPa) = 82.13291 81.05553 110.74655
#
# Poissons Ratio (x) = 0.33681 0.39692
# Poissons Ratio (y) = 0.34128 0.12489
# Poissons Ratio (z) = 0.29437 0.09141
#
# Static dielectric constant tensor:
#      x y z
#    x 4.022930 0.000000 0.000000 
#    y 0.000000 4.414260 0.000000 
#    z 0.000000 0.000000 3.870430 
# 
# 
# High freq. dielectric constant tensor:
#      x y z
#    x 1.905040 0.000000 0.000000 
#    y 0.000000 1.907850 0.000000 
#    z 0.000000 0.000000 1.908810 
# 
# From -- ./inp_files/11253.got.cif
#   From: 2010.03.12/outbox.cif.g09.slc.cpg/sg54_6_cif.got.tgz:11253.got - 2010.04.16 15:00:50.
