data_PCOD8223927
_publ_section_title
;
Structure prediction by ZEFSAII (Michael W. Deem and Ramdas Pophale) SiO2 
 PCOD8223927
Probable space group: P C C A
;
_chemical_formula_sum "Si O2"
_cell_formula_units_Z 40
_cell_length_a 8.724838
_cell_length_b 9.448025
_cell_length_c 20.774935
_cell_angle_alpha 90.000000
_cell_angle_beta 90.000000
_cell_angle_gamma 90.000000
_cell_volume 1712.529571
_symmetry_space_group_name_H-M "P C C A"
_symmetry_group_IT_number 54
_symmetry_cell_setting 'orthorhombic'
loop_
_space_group_symop_operation_xyz
x,y,z
1/2-x,-y,z
1/2+x,-y,1/2-z
-x,y,1/2-z
-x,-y,-z
1/2+x,y,-z
1/2-x,y,1/2+z
x,-y,1/2+z
loop_
_atom_site_type_symbol
_atom_site_label
_atom_site_fract_x
_atom_site_fract_y
_atom_site_fract_z
Si Si1 0.932087 0.603018 0.448295
Si Si2 0.327922 0.784555 0.007113
Si Si3 0.487193 0.108757 0.319942
Si Si4 0.581587 0.429290 0.184501
Si Si5 0.750000 0.000000 0.089417
Si Si6 0.750000 0.000000 0.894829
O O1 0.752562 0.642563 0.461129
O O2 0.000000 0.500000 0.500000
O O3 0.021575 0.749518 0.464563
O O4 0.971138 0.540980 0.377327
O O5 0.362166 0.900449 0.062292
O O6 0.220330 0.860298 0.954008
O O7 0.500000 0.037908 0.250000
O O8 0.403080 0.260036 0.312130
O O9 0.395170 0.003128 0.364500
O O10 0.656126 0.113496 0.351767
O O11 0.750000 0.500000 0.175963
O O12 0.500000 0.486638 0.250000
#
# Coordination Sequence:
#
# PCOD8223927 Si02
#       6
#     8   8   8   8   4   4
#     4  12  24  42  68  99 133 176 229 283 332 410
#     4  11  22  39  65  99 133 172 216 278 349 396
#     4  11  23  42  67  95 132 173 224 276 338 413
#     4  11  25  48  68  94 136 180 229 288 347 407
#     4  11  21  40  66  94 139 169 218 280 342 403
#     4  11  21  42  66  98 133 169 220 274 342 403
#
# _framework density 23.35726
#
# number of rings (size 3 to 8) (size 9 to 14) (size 15 to 20)
#    0.000    0.800    4.000    3.600    0.000    4.800 
#    0.000    1.000    0.000    0.000    0.000    0.000 
#    0.000    0.000    0.000    0.000    0.000    0.000 
#
# Total GULP energy -495629.595523 kJ/mol
# GULP energy per Si atom -12390.739888 kJ/mol
# Density = 2.330410 g / cm^3
# Si number density = 23.357260 Si / 1000 Ang^3
#
#
#
# Elastic Constant Matrix: (Units=GPa)
#
#
# Indices 1 2 3 4 5 6 
#
# 1 77.3724 -4.8926 31.0156 0.0000 0.0000 0.0000
# 2 -4.8926 45.3746 11.2352 0.0000 0.0000 0.0000
# 3 31.0156 11.2352 176.0195 0.0000 0.0000 0.0000
# 4 0.0000 0.0000 0.0000 23.1316 0.0000 0.0000
# 5 0.0000 0.0000 0.0000 0.0000 31.0310 0.0000
# 6 0.0000 0.0000 0.0000 0.0000 0.0000 22.0117
#
#
#
# Elastic Compliance Matrix: (Units=1/GPa)
#
#
# Indices 1 2 3 4 5 6 
#
# 1 0.014114 0.002172 -0.002626 0.000000 0.000000 0.000000
# 2 0.002172 0.022727 -0.001833 0.000000 0.000000 0.000000
# 3 -0.002626 -0.001833 0.006261 0.000000 0.000000 0.000000
# 4 0.000000 0.000000 0.000000 0.043231 0.000000 0.000000
# 5 0.000000 0.000000 0.000000 0.000000 0.032226 0.000000
# 6 0.000000 0.000000 0.000000 0.000000 0.000000 0.045430
#
#
# Mechanical properties :
#
#
# Convention : Reuss Voigt Hill
#
# Bulk Modulus (GPa) = 25.95502 41.49810 33.72656
# Shear Modulus (GPa) = 27.56248 32.66208 30.11228
#
# Velocity S-wave (km/s) = 3.43890 3.74353 3.59444
# Velocity P-wave (km/s) = 5.18694 6.04075 5.63005
#
# Compressibility (1/GPa) = 0.03852819
#
# Stress axis : x y z
#
# Youngs Moduli (GPa) = 70.84973 44.00065 159.72225
#
# Poissons Ratio (x) = -0.09557 0.41938
# Poissons Ratio (y) = -0.15389 0.29283
# Poissons Ratio (z) = 0.18603 0.08067
#
# Static dielectric constant tensor:
#      x y z
#    x 2.834650 0.000000 0.000000 
#    y 0.000000 4.606090 0.000000 
#    z 0.000000 0.000000 4.672500 
# 
# 
# High freq. dielectric constant tensor:
#      x y z
#    x 1.910470 0.000000 0.000000 
#    y 0.000000 1.915030 0.000000 
#    z 0.000000 0.000000 1.945290 
# 
# From -- ./inp_files/20331.got.cif
#   From: 2010.03.12/outbox.cif.g09.slc.cpg/sg54_11_cif.got.tgz:20331.got - 2010.04.16 15:00:50.
