data_PCOD8223374
_publ_section_title
;
Structure prediction by ZEFSAII (Michael W. Deem and Ramdas Pophale) SiO2 
 PCOD8223374
Probable space group: P C C A
;
_chemical_formula_sum "Si O2"
_cell_formula_units_Z 60
_cell_length_a 29.655115
_cell_length_b 5.203490
_cell_length_c 17.543201
_cell_angle_alpha 90.000000
_cell_angle_beta 90.000000
_cell_angle_gamma 90.000000
_cell_volume 2707.093002
_symmetry_space_group_name_H-M "P C C A"
_symmetry_group_IT_number 54
_symmetry_cell_setting 'orthorhombic'
loop_
_space_group_symop_operation_xyz
x,y,z
1/2-x,-y,z
1/2+x,-y,1/2-z
-x,y,1/2-z
-x,-y,-z
1/2+x,y,-z
1/2-x,y,1/2+z
x,-y,1/2+z
loop_
_atom_site_type_symbol
_atom_site_label
_atom_site_fract_x
_atom_site_fract_y
_atom_site_fract_z
Si Si1 0.199274 0.001538 0.576265
Si Si2 0.381043 0.831762 0.166414
Si Si3 0.500000 0.808593 0.750000
Si Si4 0.301396 0.500859 0.981310
Si Si5 0.469434 0.125263 0.895146
Si Si6 0.094498 0.671156 0.250616
Si Si7 0.107911 0.472223 0.405119
Si Si8 0.054676 0.257832 0.028722
O O1 0.190765 0.290961 0.547288
O O2 0.250000 0.000000 0.606211
O O3 0.169277 0.927876 0.648288
O O4 0.189506 0.789676 0.510514
O O5 0.378749 0.546449 0.203187
O O6 0.410173 0.851149 0.089924
O O7 0.399475 0.036633 0.225494
O O8 0.541518 0.613431 0.761788
O O9 0.492198 0.978869 0.825143
O O10 0.250000 0.500000 0.948338
O O11 0.338886 0.422957 0.918472
O O12 0.422176 0.247695 0.866586
O O13 0.507602 0.329787 0.927551
O O14 0.456284 0.949238 0.965431
O O15 0.107085 0.690182 0.340165
O O16 0.081237 0.515716 0.484966
#
# Coordination Sequence:
#
# PCOD8223374 Si02
#       8
#     8   8   4   8   8   8   8   8
#     4  10  21  42  72 104 133 171 224 287 348 404
#     4  12  25  45  67 101 133 179 224 286 333 414
#     4  12  24  48  62  94 142 190 232 282 344 422
#     4  10  22  41  72 105 134 172 228 290 348 406
#     4  11  25  43  65 101 136 183 230 287 342 404
#     4  12  29  42  67  94 141 185 226 269 356 399
#     4  12  25  42  68  98 140 183 230 288 346 418
#     4  11  24  40  68  97 133 173 239 280 336 388
#
# _framework density 22.163999
#
# number of rings (size 3 to 8) (size 9 to 14) (size 15 to 20)
#    0.000    0.800    4.000    2.800    3.733    0.533 
#    0.000    1.333    0.000    0.000    0.000    0.000 
#    0.000    0.000    0.000    0.000    0.000    0.000 
#
# Total GULP energy -743432.998782 kJ/mol
# GULP energy per Si atom -12390.549980 kJ/mol
# Density = 2.211355 g / cm^3
# Si number density = 22.163999 Si / 1000 Ang^3
#
#
#
# Elastic Constant Matrix: (Units=GPa)
#
#
# Indices 1 2 3 4 5 6 
#
# 1 154.8891 19.5925 39.7933 0.0000 0.0000 0.0000
# 2 19.5925 73.4342 20.9618 0.0000 0.0000 0.0000
# 3 39.7933 20.9618 97.4863 0.0000 0.0000 0.0000
# 4 0.0000 0.0000 0.0000 19.3982 0.0000 0.0000
# 5 0.0000 0.0000 0.0000 0.0000 26.2253 0.0000
# 6 0.0000 0.0000 0.0000 0.0000 0.0000 35.9598
#
#
#
# Elastic Compliance Matrix: (Units=1/GPa)
#
#
# Indices 1 2 3 4 5 6 
#
# 1 0.007306 -0.001170 -0.002731 0.000000 0.000000 0.000000
# 2 -0.001170 0.014695 -0.002682 0.000000 0.000000 0.000000
# 3 -0.002731 -0.002682 0.011949 0.000000 0.000000 0.000000
# 4 0.000000 0.000000 0.000000 0.051551 0.000000 0.000000
# 5 0.000000 0.000000 0.000000 0.000000 0.038131 0.000000
# 6 0.000000 0.000000 0.000000 0.000000 0.000000 0.027809
#
#
# Mechanical properties :
#
#
# Convention : Reuss Voigt Hill
#
# Bulk Modulus (GPa) = 48.11184 54.05608 51.08396
# Shear Modulus (GPa) = 29.14854 32.68081 30.91467
#
# Velocity S-wave (km/s) = 3.63041 3.84409 3.73877
# Velocity P-wave (km/s) = 6.27116 6.64415 6.46035
#
# Compressibility (1/GPa) = 0.02078490
#
# Stress axis : x y z
#
# Youngs Moduli (GPa) = 136.87875 68.04852 83.68727
#
# Poissons Ratio (x) = 0.07960 0.22852
# Poissons Ratio (y) = 0.16011 0.22448
# Poissons Ratio (z) = 0.37377 0.18253
#
# Static dielectric constant tensor:
#      x y z
#    x 4.316700 0.000000 0.000000 
#    y 0.000000 3.877610 0.000000 
#    z 0.000000 0.000000 4.087510 
# 
# 
# High freq. dielectric constant tensor:
#      x y z
#    x 1.881590 0.000000 0.000000 
#    y 0.000000 1.868400 0.000000 
#    z 0.000000 0.000000 1.865180 
# 
# From -- ./inp_files/19307.got.cif
#   From: 2010.03.12/outbox.cif.g09.slc.cpg/sg54_10_cif.got.tgz:19307.got - 2010.04.16 15:00:50.
