data_PCOD8223354
_publ_section_title
;
Structure prediction by ZEFSAII (Michael W. Deem and Ramdas Pophale) SiO2 
 PCOD8223354
Probable space group: P C C A
;
_chemical_formula_sum "Si O2"
_cell_formula_units_Z 56
_cell_length_a 19.016526
_cell_length_b 9.194614
_cell_length_c 15.512963
_cell_angle_alpha 90.000000
_cell_angle_beta 90.000000
_cell_angle_gamma 90.000000
_cell_volume 2712.435627
_symmetry_space_group_name_H-M "P C C A"
_symmetry_group_IT_number 54
_symmetry_cell_setting 'orthorhombic'
loop_
_space_group_symop_operation_xyz
x,y,z
1/2-x,-y,z
1/2+x,-y,1/2-z
-x,y,1/2-z
-x,-y,-z
1/2+x,y,-z
1/2-x,y,1/2+z
x,-y,1/2+z
loop_
_atom_site_type_symbol
_atom_site_label
_atom_site_fract_x
_atom_site_fract_y
_atom_site_fract_z
Si Si1 0.450813 0.162773 0.918573
Si Si2 0.467846 0.577109 0.164317
Si Si3 0.916015 0.707518 0.405290
Si Si4 0.052884 0.013992 0.674346
Si Si5 0.262966 0.669009 0.532654
Si Si6 0.794198 0.147785 0.135965
Si Si7 0.664089 0.773327 0.317054
O O1 0.476402 0.309497 0.872009
O O2 0.376301 0.111601 0.879238
O O3 0.509609 0.037743 0.910087
O O4 0.444881 0.196286 0.017911
O O5 0.500000 0.507366 0.250000
O O6 0.457505 0.443591 0.099039
O O7 0.393378 0.647259 0.188342
O O8 0.930253 0.813878 0.323697
O O9 0.834407 0.677892 0.414570
O O10 0.000000 0.966843 0.750000
O O11 0.127136 0.930885 0.678401
O O12 0.250000 0.500000 0.514229
O O13 0.264832 0.748246 0.439871
O O14 0.206739 0.746673 0.594756
O O15 0.787789 0.226909 0.229987
O O16 0.750000 0.000000 0.135697
#
# Coordination Sequence:
#
# PCOD8223354 Si02
#       7
#     8   8   8   8   8   8   8
#     4  10  21  42  63  95 131 169 213 273 327 391
#     4  11  20  42  68  95 128 177 213 269 336 397
#     4  11  24  38  66  98 135 166 222 272 323 397
#     4  11  22  41  66  99 131 169 218 275 333 397
#     4  11  26  46  64  97 135 178 227 268 334 405
#     4  11  25  43  69  98 130 175 227 273 330 399
#     4  11  23  44  68  93 137 178 215 279 338 390
#
# _framework density 20.64565
#
# number of rings (size 3 to 8) (size 9 to 14) (size 15 to 20)
#    0.000    1.143    4.286    2.143    6.000    0.571 
#    0.000    0.000    0.000    0.000    0.000    0.000 
#    0.000    0.000    0.000    0.000    0.000    0.000 
#
# Total GULP energy -694218.685208 kJ/mol
# GULP energy per Si atom -12396.762236 kJ/mol
# Density = 2.059866 g / cm^3
# Si number density = 20.645650 Si / 1000 Ang^3
#
#
#
# Elastic Constant Matrix: (Units=GPa)
#
#
# Indices 1 2 3 4 5 6 
#
# 1 109.3330 54.4303 49.3580 0.0000 0.0000 0.0000
# 2 54.4303 125.1289 18.5592 0.0000 0.0000 0.0000
# 3 49.3580 18.5592 56.3773 0.0000 0.0000 0.0000
# 4 0.0000 0.0000 0.0000 -49.3802 0.0000 0.0000
# 5 0.0000 0.0000 0.0000 0.0000 26.8431 0.0000
# 6 0.0000 0.0000 0.0000 0.0000 0.0000 44.0277
#
#
#
# Elastic Compliance Matrix: (Units=1/GPa)
#
#
# Indices 1 2 3 4 5 6 
#
# 1 0.018563 -0.005955 -0.014291 0.000000 0.000000 0.000000
# 2 -0.005955 0.010312 0.001819 0.000000 0.000000 0.000000
# 3 -0.014291 0.001819 0.029651 0.000000 0.000000 0.000000
# 4 0.000000 0.000000 0.000000 -0.020251 0.000000 0.000000
# 5 0.000000 0.000000 0.000000 0.000000 0.037254 0.000000
# 6 0.000000 0.000000 0.000000 0.000000 0.000000 0.022713
#
#
# Mechanical properties :
#
#
# Convention : Reuss Voigt Hill
#
# Bulk Modulus (GPa) = 46.14454 59.50379 52.82416
# Shear Modulus (GPa) = 35.13209 15.53088 25.33149
#
# Velocity S-wave (km/s) = 4.12961 2.74571 3.50661
# Velocity P-wave (km/s) = 6.71844 6.23987 6.48357
#
# Compressibility (1/GPa) = 0.02167104
#
# Stress axis : x y z
#
# Youngs Moduli (GPa) = 53.87141 96.97086 33.72588
#
# Poissons Ratio (x) = 0.57746 0.48198
# Poissons Ratio (y) = 0.32080 -0.06134
# Poissons Ratio (z) = 0.76989 -0.17637
#
# Static dielectric constant tensor:
#      x y z
#    x 3.849620 0.000000 0.000000 
#    y 0.000000 3.673380 0.000000 
#    z 0.000000 0.000000 3.906530 
# 
# 
# High freq. dielectric constant tensor:
#      x y z
#    x 1.809730 0.000000 0.000000 
#    y 0.000000 1.809230 0.000000 
#    z 0.000000 0.000000 1.815490 
# 
# From -- ./inp_files/14682.got.cif
#   From: 2010.03.12/outbox.cif.g09.slc.cpg/sg54_8_cif.got.tgz:14682.got - 2010.04.16 15:00:50.
