data_PCOD8223775
_publ_section_title
;
Structure prediction by ZEFSAII (Michael W. Deem and Ramdas Pophale) SiO2 
 PCOD8223775
Probable space group: P C C A
;
_chemical_formula_sum "Si O2"
_cell_formula_units_Z 40
_cell_length_a 10.787456
_cell_length_b 18.935616
_cell_length_c 8.852311
_cell_angle_alpha 90.000000
_cell_angle_beta 90.000000
_cell_angle_gamma 90.000000
_cell_volume 1808.236113
_symmetry_space_group_name_H-M "P C C A"
_symmetry_group_IT_number 54
_symmetry_cell_setting 'orthorhombic'
loop_
_space_group_symop_operation_xyz
x,y,z
1/2-x,-y,z
1/2+x,-y,1/2-z
-x,y,1/2-z
-x,-y,-z
1/2+x,y,-z
1/2-x,y,1/2+z
x,-y,1/2+z
loop_
_atom_site_type_symbol
_atom_site_label
_atom_site_fract_x
_atom_site_fract_y
_atom_site_fract_z
Si Si1 0.157166 0.784404 0.911618
Si Si2 0.887065 0.265290 0.415557
Si Si3 0.750000 0.500000 0.591468
Si Si4 0.849521 0.939805 0.499618
Si Si5 0.117184 0.426745 0.166600
Si Si6 0.500000 0.993490 0.750000
O O1 0.150097 0.780758 0.730757
O O2 0.199117 0.861817 0.967528
O O3 0.021371 0.761990 0.979635
O O4 0.273346 0.736815 0.966234
O O5 0.906447 0.345793 0.370092
O O6 0.640343 0.527493 0.483433
O O7 0.778277 0.565929 0.703067
O O8 0.959499 0.954031 0.617161
O O9 0.750000 0.000000 0.530614
O O10 0.894846 0.943639 0.324767
O O11 0.000000 0.461105 0.250000
#
# Coordination Sequence:
#
# PCOD8223775 Si02
#       6
#     8   8   4   8   8   4
#     4  11  26  44  69  97 131 182 224 282 341 403
#     4  11  25  46  70  97 140 179 228 277 335 412
#     4  10  24  38  70 102 132 176 222 276 330 394
#     4  11  25  41  67  93 131 166 228 280 340 403
#     4  11  21  43  66  98 136 176 222 275 330 390
#     4  10  24  42  62  94 122 172 204 290 332 406
#
# _framework density 22.121006000000001
#
# number of rings (size 3 to 8) (size 9 to 14) (size 15 to 20)
#    0.000    1.200    2.000    3.600   11.200    0.800 
#    0.000    0.000    0.000    0.000    0.000    0.000 
#    0.000    0.000    0.000    0.000    0.000    0.000 
#
# Total GULP energy -495721.759561 kJ/mol
# GULP energy per Si atom -12393.043989 kJ/mol
# Density = 2.207066 g / cm^3
# Si number density = 22.121006 Si / 1000 Ang^3
#
#
#
# Elastic Constant Matrix: (Units=GPa)
#
#
# Indices 1 2 3 4 5 6 
#
# 1 124.6391 18.4663 28.7070 0.0000 0.0000 0.0000
# 2 18.4663 106.8051 18.5499 0.0000 0.0000 0.0000
# 3 28.7070 18.5499 87.9660 0.0000 0.0000 0.0000
# 4 0.0000 0.0000 0.0000 9.6421 0.0000 0.0000
# 5 0.0000 0.0000 0.0000 0.0000 38.6743 0.0000
# 6 0.0000 0.0000 0.0000 0.0000 0.0000 32.3079
#
#
#
# Elastic Compliance Matrix: (Units=1/GPa)
#
#
# Indices 1 2 3 4 5 6 
#
# 1 0.008789 -0.001060 -0.002645 0.000000 0.000000 0.000000
# 2 -0.001060 0.009847 -0.001730 0.000000 0.000000 0.000000
# 3 -0.002645 -0.001730 0.012596 0.000000 0.000000 0.000000
# 4 0.000000 0.000000 0.000000 0.103711 0.000000 0.000000
# 5 0.000000 0.000000 0.000000 0.000000 0.025857 0.000000
# 6 0.000000 0.000000 0.000000 0.000000 0.000000 0.030952
#
#
# Mechanical properties :
#
#
# Convention : Reuss Voigt Hill
#
# Bulk Modulus (GPa) = 49.11307 50.09517 49.60412
# Shear Modulus (GPa) = 23.87652 33.03732 28.45692
#
# Velocity S-wave (km/s) = 3.28893 3.86875 3.59056
# Velocity P-wave (km/s) = 6.05582 6.53081 6.29779
#
# Compressibility (1/GPa) = 0.02036118
#
# Stress axis : x y z
#
# Youngs Moduli (GPa) = 113.77337 101.55671 79.39014
#
# Poissons Ratio (x) = 0.10768 0.20997
# Poissons Ratio (y) = 0.12064 0.13738
# Poissons Ratio (z) = 0.30090 0.17573
#
# Static dielectric constant tensor:
#      x y z
#    x 5.462990 0.000000 0.000000 
#    y 0.000000 3.779990 0.000000 
#    z 0.000000 0.000000 4.110610 
# 
# 
# High freq. dielectric constant tensor:
#      x y z
#    x 1.873250 0.000000 0.000000 
#    y 0.000000 1.862610 0.000000 
#    z 0.000000 0.000000 1.875790 
# 
# From -- ./inp_files/3026.got.cif
#   From: 2010.03.12/outbox.cif.g09.slc.cpg/sg54_2_cif.got.tgz:3026.got - 2010.04.16 15:00:50.
