data_PCOD8223856
_publ_section_title
;
Structure prediction by ZEFSAII (Michael W. Deem and Ramdas Pophale) SiO2 
 PCOD8223856
Probable space group: P C C A
;
_chemical_formula_sum "Si O2"
_cell_formula_units_Z 32
_cell_length_a 24.949559
_cell_length_b 6.109710
_cell_length_c 9.258810
_cell_angle_alpha 90.000000
_cell_angle_beta 90.000000
_cell_angle_gamma 90.000000
_cell_volume 1411.362722
_symmetry_space_group_name_H-M "P C C A"
_symmetry_group_IT_number 54
_symmetry_cell_setting 'orthorhombic'
loop_
_space_group_symop_operation_xyz
x,y,z
1/2-x,-y,z
1/2+x,-y,1/2-z
-x,y,1/2-z
-x,-y,-z
1/2+x,y,-z
1/2-x,y,1/2+z
x,-y,1/2+z
loop_
_atom_site_type_symbol
_atom_site_label
_atom_site_fract_x
_atom_site_fract_y
_atom_site_fract_z
Si Si1 0.908317 0.268526 0.193542
Si Si2 0.790764 0.298166 0.225698
Si Si3 0.000000 0.427000 0.750000
Si Si4 0.250000 0.000000 0.025609
Si Si5 0.054615 0.068550 0.571964
O O1 0.851731 0.390579 0.221556
O O2 0.958597 0.426549 0.156962
O O3 0.922065 0.124292 0.332246
O O4 0.901656 0.116783 0.051968
O O5 0.750000 0.500000 0.234304
O O6 0.786703 0.146722 0.368231
O O7 0.783262 0.160550 0.078671
O O8 0.957951 0.286697 0.840116
O O9 0.000000 0.000000 0.500000
#
# Coordination Sequence:
#
# PCOD8223856 Si02
#       5
#     8   8   4   4   8
#     4  12  26  42  72 100 139 181 226 287 345 417
#     4  11  25  47  71 103 136 186 237 292 353 415
#     4  12  24  40  70 100 140 178 230 272 348 418
#     4  10  24  48  72  96 140 178 240 296 346 414
#     4  12  23  46  64 101 140 180 225 277 346 418
#
# _framework density 22.673121999999999
#
# number of rings (size 3 to 8) (size 9 to 14) (size 15 to 20)
#    0.000    0.500    5.000    3.000    0.000    8.000 
#    0.000    0.000    0.000    0.000    0.000    0.000 
#    0.000    0.000    0.000    0.000    0.000    0.000 
#
# Total GULP energy -396638.712660 kJ/mol
# GULP energy per Si atom -12394.959771 kJ/mol
# Density = 2.262152 g / cm^3
# Si number density = 22.673122 Si / 1000 Ang^3
#
#
#
# Elastic Constant Matrix: (Units=GPa)
#
#
# Indices 1 2 3 4 5 6 
#
# 1 155.7918 43.3659 21.9745 0.0000 0.0000 0.0000
# 2 43.3659 78.2665 11.2187 0.0000 0.0000 0.0000
# 3 21.9745 11.2187 105.5054 0.0000 0.0000 0.0000
# 4 0.0000 0.0000 0.0000 23.6930 0.0000 0.0000
# 5 0.0000 0.0000 0.0000 0.0000 15.7041 0.0000
# 6 0.0000 0.0000 0.0000 0.0000 0.0000 35.1153
#
#
#
# Elastic Compliance Matrix: (Units=1/GPa)
#
#
# Indices 1 2 3 4 5 6 
#
# 1 0.007730 -0.004115 -0.001172 0.000000 0.000000 0.000000
# 2 -0.004115 0.015165 -0.000756 0.000000 0.000000 0.000000
# 3 -0.001172 -0.000756 0.009803 0.000000 0.000000 0.000000
# 4 0.000000 0.000000 0.000000 0.042206 0.000000 0.000000
# 5 0.000000 0.000000 0.000000 0.000000 0.063678 0.000000
# 6 0.000000 0.000000 0.000000 0.000000 0.000000 0.028478
#
#
# Mechanical properties :
#
#
# Convention : Reuss Voigt Hill
#
# Bulk Modulus (GPa) = 48.51534 54.74241 51.62888
# Shear Modulus (GPa) = 26.87954 32.43613 29.65784
#
# Velocity S-wave (km/s) = 3.44688 3.78643 3.62064
# Velocity P-wave (km/s) = 6.10618 6.58124 6.34816
#
# Compressibility (1/GPa) = 0.02061204
#
# Stress axis : x y z
#
# Youngs Moduli (GPa) = 129.37344 65.94105 102.01265
#
# Poissons Ratio (x) = 0.27133 0.11960
# Poissons Ratio (y) = 0.53234 0.07707
# Poissons Ratio (z) = 0.15167 0.04982
#
# Static dielectric constant tensor:
#      x y z
#    x 3.856090 0.000000 0.000000 
#    y 0.000000 4.986430 0.000000 
#    z 0.000000 0.000000 3.850310 
# 
# 
# High freq. dielectric constant tensor:
#      x y z
#    x 1.891080 0.000000 0.000000 
#    y 0.000000 1.892050 0.000000 
#    z 0.000000 0.000000 1.913500 
# 
# From -- ./inp_files/5671.got.cif
#   From: 2010.03.12/outbox.cif.g09.slc.cpg/sg54_3_cif.got.tgz:5671.got - 2010.04.16 15:00:50.
