data_PCOD8223592
_publ_section_title
;
Structure prediction by ZEFSAII (Michael W. Deem and Ramdas Pophale) SiO2 
 PCOD8223592
Probable space group: P C C A
;
_chemical_formula_sum "Si O2"
_cell_formula_units_Z 40
_cell_length_a 12.761788
_cell_length_b 9.914913
_cell_length_c 14.025605
_cell_angle_alpha 90.000000
_cell_angle_beta 90.000000
_cell_angle_gamma 90.000000
_cell_volume 1774.688101
_symmetry_space_group_name_H-M "P C C A"
_symmetry_group_IT_number 54
_symmetry_cell_setting 'orthorhombic'
loop_
_space_group_symop_operation_xyz
x,y,z
1/2-x,-y,z
1/2+x,-y,1/2-z
-x,y,1/2-z
-x,-y,-z
1/2+x,y,-z
1/2-x,y,1/2+z
x,-y,1/2+z
loop_
_atom_site_type_symbol
_atom_site_label
_atom_site_fract_x
_atom_site_fract_y
_atom_site_fract_z
Si Si1 0.250000 0.500000 0.439603
Si Si2 0.941988 0.859103 0.990742
Si Si3 0.719857 0.149880 0.842574
Si Si4 0.307822 0.774839 0.845495
Si Si5 0.107179 0.652299 0.071156
Si Si6 0.500000 0.667187 0.750000
O O1 0.226827 0.624644 0.371912
O O2 0.350933 0.531907 0.505245
O O3 0.897719 0.830328 0.884283
O O4 0.838041 0.859573 0.060073
O O5 0.023803 0.741322 0.013773
O O6 0.000000 0.000000 0.000000
O O7 0.720142 0.162452 0.726011
O O8 0.796171 0.257805 0.892617
O O9 0.750000 0.000000 0.873255
O O10 0.413147 0.771990 0.784342
O O11 0.047530 0.581431 0.161639
#
# Coordination Sequence:
#
# PCOD8223592 Si02
#       6
#     4   8   8   8   8   4
#     4  12  24  44  68 100 152 190 230 288 354 444
#     4  11  22  43  76 106 135 184 245 300 359 425
#     4  11  22  42  71 101 142 185 236 301 361 415
#     4  10  24  43  63 102 139 190 226 288 356 414
#     4  10  22  42  68 102 138 187 229 293 362 417
#     4   8  20  40  62  90 132 172 238 278 332 406
#
# _framework density 22.539172000000001
#
# number of rings (size 3 to 8) (size 9 to 14) (size 15 to 20)
#    0.000    1.600    4.000    0.000    0.000    8.800 
#    3.600    2.000    0.000    2.400    0.000    0.000 
#    0.000    0.000    0.000    0.000    0.000    0.000 
#
# Total GULP energy -495644.035315 kJ/mol
# GULP energy per Si atom -12391.100883 kJ/mol
# Density = 2.248787 g / cm^3
# Si number density = 22.539172 Si / 1000 Ang^3
#
#
#
# Elastic Constant Matrix: (Units=GPa)
#
#
# Indices 1 2 3 4 5 6 
#
# 1 99.7857 41.0199 68.1724 0.0000 0.0000 0.0000
# 2 41.0199 71.3745 50.2130 0.0000 0.0000 0.0000
# 3 68.1724 50.2130 126.4679 0.0000 0.0000 0.0000
# 4 0.0000 0.0000 0.0000 37.1011 0.0000 0.0000
# 5 0.0000 0.0000 0.0000 0.0000 52.0389 0.0000
# 6 0.0000 0.0000 0.0000 0.0000 0.0000 37.6346
#
#
#
# Elastic Compliance Matrix: (Units=1/GPa)
#
#
# Indices 1 2 3 4 5 6 
#
# 1 0.016877 -0.004578 -0.007280 0.000000 0.000000 0.000000
# 2 -0.004578 0.020683 -0.005744 0.000000 0.000000 0.000000
# 3 -0.007280 -0.005744 0.014112 0.000000 0.000000 0.000000
# 4 0.000000 0.000000 0.000000 0.026953 0.000000 0.000000
# 5 0.000000 0.000000 0.000000 0.000000 0.019216 0.000000
# 6 0.000000 0.000000 0.000000 0.000000 0.000000 0.026571
#
#
# Mechanical properties :
#
#
# Convention : Reuss Voigt Hill
#
# Bulk Modulus (GPa) = 60.72478 68.49319 64.60899
# Shear Modulus (GPa) = 30.28363 34.56976 32.42669
#
# Velocity S-wave (km/s) = 3.66949 3.92058 3.79711
# Velocity P-wave (km/s) = 6.70477 7.13786 6.92470
#
# Compressibility (1/GPa) = 0.01646774
#
# Stress axis : x y z
#
# Youngs Moduli (GPa) = 59.25280 48.34960 70.86162
#
# Poissons Ratio (x) = 0.22134 0.51586
# Poissons Ratio (y) = 0.27125 0.40704
# Poissons Ratio (z) = 0.43135 0.27773
#
# Static dielectric constant tensor:
#      x y z
#    x 4.304570 0.000000 0.000000 
#    y 0.000000 3.661210 0.000000 
#    z 0.000000 0.000000 4.708680 
# 
# 
# High freq. dielectric constant tensor:
#      x y z
#    x 1.889160 0.000000 0.000000 
#    y 0.000000 1.860360 0.000000 
#    z 0.000000 0.000000 1.904540 
# 
# From -- ./inp_files/13272.got.cif
#   From: 2010.03.12/outbox.cif.g09.slc.cpg/sg54_7_cif.got.tgz:13272.got - 2010.04.16 15:00:50.
