data_PCOD8223310
_publ_section_title
;
Structure prediction by ZEFSAII (Michael W. Deem and Ramdas Pophale) SiO2 
 PCOD8223310
Probable space group: P C C A
;
_chemical_formula_sum "Si O2"
_cell_formula_units_Z 64
_cell_length_a 23.477259
_cell_length_b 15.359727
_cell_length_c 8.967511
_cell_angle_alpha 90.000000
_cell_angle_beta 90.000000
_cell_angle_gamma 90.000000
_cell_volume 3233.722928
_symmetry_space_group_name_H-M "P C C A"
_symmetry_group_IT_number 54
_symmetry_cell_setting 'orthorhombic'
loop_
_space_group_symop_operation_xyz
x,y,z
1/2-x,-y,z
1/2+x,-y,1/2-z
-x,y,1/2-z
-x,-y,-z
1/2+x,y,-z
1/2-x,y,1/2+z
x,-y,1/2+z
loop_
_atom_site_type_symbol
_atom_site_label
_atom_site_fract_x
_atom_site_fract_y
_atom_site_fract_z
Si Si1 0.434382 0.048294 0.280895
Si Si2 0.449151 0.724535 0.546220
Si Si3 0.811136 0.275362 0.460229
Si Si4 0.795529 0.225190 0.121736
Si Si5 0.426851 0.763659 0.881235
Si Si6 0.359625 0.393817 0.943228
Si Si7 0.690345 0.461476 0.851420
Si Si8 0.890570 0.892571 0.528635
O O1 0.500000 0.026924 0.250000
O O2 0.432641 0.131720 0.390053
O O3 0.405920 0.964877 0.352089
O O4 0.397462 0.067311 0.134611
O O5 0.420649 0.733873 0.710068
O O6 0.517049 0.718467 0.550892
O O7 0.425004 0.636747 0.468983
O O8 0.431667 0.809145 0.449343
O O9 0.803888 0.231464 0.298903
O O10 0.771119 0.224887 0.578461
O O11 0.875252 0.267173 0.517273
O O12 0.796122 0.378171 0.455445
O O13 0.821200 0.308222 0.035164
O O14 0.825526 0.137953 0.059236
O O15 0.351502 0.432952 0.779986
O O16 0.343739 0.465513 0.062483
O O17 0.750000 0.500000 0.789651
#
# Coordination Sequence:
#
# PCOD8223310 Si02
#       8
#     8   8   8   8   8   8   8   8
#     4  11  21  38  66 100 124 169 218 260 321 374
#     4   9  20  41  63  94 129 169 209 261 327 380
#     4  11  25  39  67  93 124 168 217 259 327 390
#     4  10  24  42  60  96 125 168 205 267 328 380
#     4  10  21  40  67  91 125 174 215 258 322 394
#     4  10  22  37  64  92 127 157 208 269 318 369
#     4  11  22  38  61 100 123 166 216 266 315 379
#     4  10  22  38  63  93 130 157 213 268 312 376
#
# _framework density 19.791429999999998
#
# number of rings (size 3 to 8) (size 9 to 14) (size 15 to 20)
#    0.000    1.750    3.750    0.750   10.500    0.000 
#    0.000    6.250    0.000    0.000    0.000    0.000 
#    0.000    0.000    0.000    0.000    0.000    0.000 
#
# Total GULP energy -793646.517950 kJ/mol
# GULP energy per Si atom -12400.726843 kJ/mol
# Density = 1.974638 g / cm^3
# Si number density = 19.791430 Si / 1000 Ang^3
#
#
#
# Elastic Constant Matrix: (Units=GPa)
#
#
# Indices 1 2 3 4 5 6 
#
# 1 139.4046 59.5858 72.1921 0.0000 0.0000 0.0000
# 2 59.5858 108.7502 57.8740 0.0000 0.0000 0.0000
# 3 72.1921 57.8740 96.8960 0.0000 0.0000 0.0000
# 4 0.0000 0.0000 0.0000 30.4077 0.0000 0.0000
# 5 0.0000 0.0000 0.0000 0.0000 31.2072 0.0000
# 6 0.0000 0.0000 0.0000 0.0000 0.0000 34.6151
#
#
#
# Elastic Compliance Matrix: (Units=1/GPa)
#
#
# Indices 1 2 3 4 5 6 
#
# 1 0.012201 -0.002708 -0.007472 0.000000 0.000000 0.000000
# 2 -0.002708 0.014081 -0.006393 0.000000 0.000000 0.000000
# 3 -0.007472 -0.006393 0.019706 0.000000 0.000000 0.000000
# 4 0.000000 0.000000 0.000000 0.032886 0.000000 0.000000
# 5 0.000000 0.000000 0.000000 0.000000 0.032044 0.000000
# 6 0.000000 0.000000 0.000000 0.000000 0.000000 0.028889
#
#
# Mechanical properties :
#
#
# Convention : Reuss Voigt Hill
#
# Bulk Modulus (GPa) = 77.87546 80.48384 79.17965
# Shear Modulus (GPa) = 28.21122 29.60593 28.90857
#
# Velocity S-wave (km/s) = 3.77958 3.87188 3.82601
# Velocity P-wave (km/s) = 7.64725 7.79377 7.72086
#
# Compressibility (1/GPa) = 0.01284102
#
# Stress axis : x y z
#
# Youngs Moduli (GPa) = 81.96289 71.01616 50.74623
#
# Poissons Ratio (x) = 0.19233 0.37920
# Poissons Ratio (y) = 0.22198 0.32441
# Poissons Ratio (z) = 0.61246 0.45398
#
# Static dielectric constant tensor:
#      x y z
#    x 3.555860 0.000000 0.000000 
#    y 0.000000 3.714000 0.000000 
#    z 0.000000 0.000000 3.506610 
# 
# 
# High freq. dielectric constant tensor:
#      x y z
#    x 1.763930 0.000000 0.000000 
#    y 0.000000 1.768710 0.000000 
#    z 0.000000 0.000000 1.768810 
# 
# From -- ./inp_files/5301.got.cif
#   From: 2010.03.12/outbox.cif.g09.slc.cpg/sg54_3_cif.got.tgz:5301.got - 2010.04.16 15:00:50.
