data_PCOD8223938
_publ_section_title
;
Structure prediction by ZEFSAII (Michael W. Deem and Ramdas Pophale) SiO2 
 PCOD8223938
Probable space group: P C C A
;
_chemical_formula_sum "Si O2"
_cell_formula_units_Z 40
_cell_length_a 11.714149
_cell_length_b 8.185491
_cell_length_c 18.633747
_cell_angle_alpha 90.000000
_cell_angle_beta 90.000000
_cell_angle_gamma 90.000000
_cell_volume 1786.716605
_symmetry_space_group_name_H-M "P C C A"
_symmetry_group_IT_number 54
_symmetry_cell_setting 'orthorhombic'
loop_
_space_group_symop_operation_xyz
x,y,z
1/2-x,-y,z
1/2+x,-y,1/2-z
-x,y,1/2-z
-x,-y,-z
1/2+x,y,-z
1/2-x,y,1/2+z
x,-y,1/2+z
loop_
_atom_site_type_symbol
_atom_site_label
_atom_site_fract_x
_atom_site_fract_y
_atom_site_fract_z
Si Si1 0.799406 0.681875 0.640305
Si Si2 0.513853 0.172267 0.914143
Si Si3 0.579907 0.813206 0.571347
Si Si4 0.175450 0.279834 0.198210
Si Si5 0.576381 0.363125 0.320160
O O1 0.750000 0.500000 0.650410
O O2 0.707255 0.793249 0.600830
O O3 0.835662 0.754115 0.717407
O O4 0.917009 0.687413 0.595985
O O5 0.604074 0.152613 0.849150
O O6 0.453206 0.998902 0.916254
O O7 0.579723 0.222219 0.986504
O O8 0.495248 0.685967 0.610011
O O9 0.118171 0.451509 0.176633
O O10 0.308540 0.256842 0.180117
O O11 0.500000 0.328918 0.250000
#
# Coordination Sequence:
#
# PCOD8223938 Si02
#       5
#     8   8   8   8   8
#     4  12  23  46  72  99 136 175 228 287 338 399
#     4  11  27  45  68 100 140 181 228 272 342 412
#     4  11  26  47  66  98 144 181 220 282 339 407
#     4  11  23  42  71 102 133 174 228 284 333 402
#     4  11  21  42  70 100 135 175 224 279 339 397
#
# _framework density 22.387433999999999
#
# number of rings (size 3 to 8) (size 9 to 14) (size 15 to 20)
#    0.000    0.800    4.000    3.600    2.800    5.600 
#    3.600    0.000    0.000    0.000    0.000    0.000 
#    0.000    0.000    0.000    0.000    0.000    0.000 
#
# Total GULP energy -495997.854126 kJ/mol
# GULP energy per Si atom -12399.946353 kJ/mol
# Density = 2.233648 g / cm^3
# Si number density = 22.387434 Si / 1000 Ang^3
#
#
#
# Elastic Constant Matrix: (Units=GPa)
#
#
# Indices 1 2 3 4 5 6 
#
# 1 156.4598 32.0503 75.7587 0.0000 0.0000 0.0000
# 2 32.0503 24.2397 48.9947 0.0000 0.0000 0.0000
# 3 75.7587 48.9947 179.4032 0.0000 0.0000 0.0000
# 4 0.0000 0.0000 0.0000 24.7778 0.0000 0.0000
# 5 0.0000 0.0000 0.0000 0.0000 41.2444 0.0000
# 6 0.0000 0.0000 0.0000 0.0000 0.0000 31.4652
#
#
#
# Elastic Compliance Matrix: (Units=1/GPa)
#
#
# Indices 1 2 3 4 5 6 
#
# 1 0.008882 -0.009293 -0.001213 0.000000 0.000000 0.000000
# 2 -0.009293 0.101809 -0.023880 0.000000 0.000000 0.000000
# 3 -0.001213 -0.023880 0.012608 0.000000 0.000000 0.000000
# 4 0.000000 0.000000 0.000000 0.040359 0.000000 0.000000
# 5 0.000000 0.000000 0.000000 0.000000 0.024246 0.000000
# 6 0.000000 0.000000 0.000000 0.000000 0.000000 0.031781
#
#
# Mechanical properties :
#
#
# Convention : Reuss Voigt Hill
#
# Bulk Modulus (GPa) = 18.33914 74.85667 46.59790
# Shear Modulus (GPa) = 16.30624 33.05074 24.67849
#
# Velocity S-wave (km/s) = 2.70175 3.84644 3.32375
# Velocity P-wave (km/s) = 4.23581 7.29632 5.96567
#
# Compressibility (1/GPa) = 0.05452819
#
# Stress axis : x y z
#
# Youngs Moduli (GPa) = 112.58288 9.82235 79.31603
#
# Poissons Ratio (x) = 0.09127 0.09622
# Poissons Ratio (y) = 1.04618 1.89404
# Poissons Ratio (z) = 0.13657 0.23455
#
# Static dielectric constant tensor:
#      x y z
#    x 4.449710 0.000000 0.000000 
#    y 0.000000 3.788230 0.000000 
#    z 0.000000 0.000000 4.197660 
# 
# 
# High freq. dielectric constant tensor:
#      x y z
#    x 1.907210 0.000000 0.000000 
#    y 0.000000 1.865750 0.000000 
#    z 0.000000 0.000000 1.884950 
# 
# From -- ./inp_files/17088.got.cif
#   From: 2010.03.12/outbox.cif.g09.slc.cpg/sg54_9_cif.got.tgz:17088.got - 2010.04.16 15:00:50.
