data_PCOD8223463
_publ_section_title
;
Structure prediction by ZEFSAII (Michael W. Deem and Ramdas Pophale) SiO2 
 PCOD8223463
Probable space group: P C C A
;
_chemical_formula_sum "Si O2"
_cell_formula_units_Z 48
_cell_length_a 9.712107
_cell_length_b 11.314164
_cell_length_c 22.717203
_cell_angle_alpha 90.000000
_cell_angle_beta 90.000000
_cell_angle_gamma 90.000000
_cell_volume 2496.265571
_symmetry_space_group_name_H-M "P C C A"
_symmetry_group_IT_number 54
_symmetry_cell_setting 'orthorhombic'
loop_
_space_group_symop_operation_xyz
x,y,z
1/2-x,-y,z
1/2+x,-y,1/2-z
-x,y,1/2-z
-x,-y,-z
1/2+x,y,-z
1/2-x,y,1/2+z
x,-y,1/2+z
loop_
_atom_site_type_symbol
_atom_site_label
_atom_site_fract_x
_atom_site_fract_y
_atom_site_fract_z
Si Si1 0.519488 0.757623 0.579971
Si Si2 0.341234 0.385014 0.746184
Si Si3 0.218198 0.635659 0.871562
Si Si4 0.914357 0.991685 0.559208
Si Si5 0.509549 0.742000 0.441654
Si Si6 0.252722 0.358270 0.122872
O O1 0.665869 0.701442 0.592574
O O2 0.484946 0.741557 0.511253
O O3 0.407417 0.690847 0.619320
O O4 0.533734 0.896327 0.597757
O O5 0.250000 0.500000 0.740298
O O6 0.500000 0.422692 0.750000
O O7 0.301486 0.311234 0.805192
O O8 0.310380 0.315194 0.685576
O O9 0.250000 0.500000 0.862402
O O10 0.079871 0.641077 0.910150
O O11 0.958376 0.866460 0.587598
O O12 0.750000 0.000000 0.547820
O O13 0.000000 0.000000 0.500000
O O14 0.667702 0.710348 0.427852
O O15 0.250000 0.500000 0.113287
#
# Coordination Sequence:
#
# PCOD8223463 Si02
#       6
#     8   8   8   8   8   8
#     4  11  24  37  60  91 122 159 199 244 304 358
#     4  10  22  39  61  84 116 162 209 243 287 357
#     4  11  22  37  61  87 121 160 196 244 306 352
#     4  10  22  39  61  86 118 162 212 244 286 357
#     4  11  22  39  61  87 126 158 197 247 299 357
#     4  11  24  39  60  91 125 157 202 245 298 365
#
# _framework density 19.228722999999999
#
# number of rings (size 3 to 8) (size 9 to 14) (size 15 to 20)
#    0.000    1.333    3.333    2.000   14.000    4.000 
#    0.000    0.000    0.000    6.000    0.000    0.000 
#    0.000    0.000    0.000    0.000    0.000    0.000 
#
# Total GULP energy -594935.081062 kJ/mol
# GULP energy per Si atom -12394.480855 kJ/mol
# Density = 1.918496 g / cm^3
# Si number density = 19.228723 Si / 1000 Ang^3
#
#
#
# Elastic Constant Matrix: (Units=GPa)
#
#
# Indices 1 2 3 4 5 6 
#
# 1 92.2229 30.8777 23.6557 0.0000 0.0000 0.0000
# 2 30.8777 88.4849 24.8755 0.0000 0.0000 0.0000
# 3 23.6557 24.8755 91.3897 0.0000 0.0000 0.0000
# 4 0.0000 0.0000 0.0000 2.0903 0.0000 0.0000
# 5 0.0000 0.0000 0.0000 0.0000 29.9088 0.0000
# 6 0.0000 0.0000 0.0000 0.0000 0.0000 32.2136
#
#
#
# Elastic Compliance Matrix: (Units=1/GPa)
#
#
# Indices 1 2 3 4 5 6 
#
# 1 0.012692 -0.003796 -0.002252 0.000000 0.000000 0.000000
# 2 -0.003796 0.013373 -0.002657 0.000000 0.000000 0.000000
# 3 -0.002252 -0.002657 0.012248 0.000000 0.000000 0.000000
# 4 0.000000 0.000000 0.000000 0.478410 0.000000 0.000000
# 5 0.000000 0.000000 0.000000 0.000000 0.033435 0.000000
# 6 0.000000 0.000000 0.000000 0.000000 0.000000 0.031043
#
#
# Mechanical properties :
#
#
# Convention : Reuss Voigt Hill
#
# Bulk Modulus (GPa) = 47.84090 47.87946 47.86018
# Shear Modulus (GPa) = 8.25655 25.68843 16.97249
#
# Velocity S-wave (km/s) = 2.07441 3.65902 2.97419
# Velocity P-wave (km/s) = 5.53819 6.54257 6.06122
#
# Compressibility (1/GPa) = 0.02090262
#
# Stress axis : x y z
#
# Youngs Moduli (GPa) = 78.79064 74.77721 81.64313
#
# Poissons Ratio (x) = 0.28384 0.18386
# Poissons Ratio (y) = 0.29908 0.21697
# Poissons Ratio (z) = 0.17744 0.19872
#
# Static dielectric constant tensor:
#      x y z
#    x 3.611730 0.000000 0.000000 
#    y 0.000000 4.369260 0.000000 
#    z 0.000000 0.000000 3.803360 
# 
# 
# High freq. dielectric constant tensor:
#      x y z
#    x 1.769770 0.000000 0.000000 
#    y 0.000000 1.733000 0.000000 
#    z 0.000000 0.000000 1.736880 
# 
# From -- ./inp_files/23454.got.cif
#   From: 2010.03.12/outbox.cif.g09.slc.cpg/sg54_12_cif.got.tgz:23454.got - 2010.04.16 15:00:50.
