data_PCOD8223399
_publ_section_title
;
Structure prediction by ZEFSAII (Michael W. Deem and Ramdas Pophale) SiO2 
 PCOD8223399
Probable space group: P C C A
;
_chemical_formula_sum "Si O2"
_cell_formula_units_Z 24
_cell_length_a 5.055623
_cell_length_b 10.696332
_cell_length_c 18.308528
_cell_angle_alpha 90.000000
_cell_angle_beta 90.000000
_cell_angle_gamma 90.000000
_cell_volume 990.063349
_symmetry_space_group_name_H-M "P C C A"
_symmetry_group_IT_number 54
_symmetry_cell_setting 'orthorhombic'
loop_
_space_group_symop_operation_xyz
x,y,z
1/2-x,-y,z
1/2+x,-y,1/2-z
-x,y,1/2-z
-x,-y,-z
1/2+x,y,-z
1/2-x,y,1/2+z
x,-y,1/2+z
loop_
_atom_site_type_symbol
_atom_site_label
_atom_site_fract_x
_atom_site_fract_y
_atom_site_fract_z
Si Si1 0.224804 0.644254 0.953024
Si Si2 0.250000 0.000000 0.199149
Si Si3 0.057477 0.748660 0.164078
Si Si4 0.750000 0.500000 0.800946
O O1 0.250000 0.500000 0.927616
O O2 0.290081 0.733061 0.883468
O O3 0.435485 0.675749 0.017045
O O4 0.300346 0.119761 0.146336
O O5 0.500000 0.969432 0.250000
O O6 0.236591 0.624311 0.147770
O O7 0.000000 0.751020 0.250000
O O8 0.500000 0.486886 0.750000
#
# Coordination Sequence:
#
# PCOD8223399 Si02
#       4
#     8   4   8   4
#     4  10  24  42  61  92 133 171 209 268 335 386
#     4  10  22  42  62  96 136 172 210 274 338 386
#     4  10  23  40  68  95 129 168 222 267 326 387
#     4  10  22  34  56  96 124 152 208 272 310 370
#
# _framework density 24.240870000000001
#
# number of rings (size 3 to 8) (size 9 to 14) (size 15 to 20)
#    0.000    2.000    0.000    1.000   16.333    5.333 
#    0.000    1.667    0.000    0.000    0.000    0.000 
#    0.000    0.000    0.000    0.000    0.000    0.000 
#
# Total GULP energy -297533.752724 kJ/mol
# GULP energy per Si atom -12397.239697 kJ/mol
# Density = 2.418570 g / cm^3
# Si number density = 24.240870 Si / 1000 Ang^3
#
#
#
# Elastic Constant Matrix: (Units=GPa)
#
#
# Indices 1 2 3 4 5 6 
#
# 1 99.0844 31.8153 13.5991 0.0000 0.0000 0.0000
# 2 31.8153 205.2751 33.1128 0.0000 0.0000 0.0000
# 3 13.5991 33.1128 95.7434 0.0000 0.0000 0.0000
# 4 0.0000 0.0000 0.0000 7.1867 0.0000 0.0000
# 5 0.0000 0.0000 0.0000 0.0000 14.4225 0.0000
# 6 0.0000 0.0000 0.0000 0.0000 0.0000 34.4806
#
#
#
# Elastic Compliance Matrix: (Units=1/GPa)
#
#
# Indices 1 2 3 4 5 6 
#
# 1 0.010711 -0.001498 -0.001003 0.000000 0.000000 0.000000
# 2 -0.001498 0.005369 -0.001644 0.000000 0.000000 0.000000
# 3 -0.001003 -0.001644 0.011156 0.000000 0.000000 0.000000
# 4 0.000000 0.000000 0.000000 0.139145 0.000000 0.000000
# 5 0.000000 0.000000 0.000000 0.000000 0.069336 0.000000
# 6 0.000000 0.000000 0.000000 0.000000 0.000000 0.029002
#
#
# Mechanical properties :
#
#
# Convention : Reuss Voigt Hill
#
# Bulk Modulus (GPa) = 52.78511 61.90638 57.34574
# Shear Modulus (GPa) = 17.90031 32.65635 25.27833
#
# Velocity S-wave (km/s) = 2.72036 3.67435 3.23274
# Velocity P-wave (km/s) = 5.62936 6.60262 6.13532
#
# Compressibility (1/GPa) = 0.01894474
#
# Stress axis : x y z
#
# Youngs Moduli (GPa) = 93.36032 186.25702 89.64055
#
# Poissons Ratio (x) = 0.27907 0.08993
# Poissons Ratio (y) = 0.13988 0.14737
# Poissons Ratio (z) = 0.09366 0.30621
#
# Static dielectric constant tensor:
#      x y z
#    x 3.825820 0.000000 0.000000 
#    y 0.000000 5.474510 0.000000 
#    z 0.000000 0.000000 4.108530 
# 
# 
# High freq. dielectric constant tensor:
#      x y z
#    x 1.970710 0.000000 0.000000 
#    y 0.000000 1.951620 0.000000 
#    z 0.000000 0.000000 1.946330 
# 
# From -- ./inp_files/15600.got.cif
#   From: 2010.03.12/outbox.cif.g09.slc.cpg/sg54_8_cif.got.tgz:15600.got - 2010.04.16 15:00:50.
