data_PCOD8223005
_publ_section_title
;
Structure prediction by ZEFSAII (Michael W. Deem and Ramdas Pophale) SiO2 
 PCOD8223005
Probable space group: P C C A
;
_chemical_formula_sum "Si O2"
_cell_formula_units_Z 40
_cell_length_a 9.747377
_cell_length_b 8.843746
_cell_length_c 22.503411
_cell_angle_alpha 90.000000
_cell_angle_beta 90.000000
_cell_angle_gamma 90.000000
_cell_volume 1939.868883
_symmetry_space_group_name_H-M "P C C A"
_symmetry_group_IT_number 54
_symmetry_cell_setting 'orthorhombic'
loop_
_space_group_symop_operation_xyz
x,y,z
1/2-x,-y,z
1/2+x,-y,1/2-z
-x,y,1/2-z
-x,-y,-z
1/2+x,y,-z
1/2-x,y,1/2+z
x,-y,1/2+z
loop_
_atom_site_type_symbol
_atom_site_label
_atom_site_fract_x
_atom_site_fract_y
_atom_site_fract_z
Si Si1 0.496614 0.743017 0.497687
Si Si2 0.097074 0.566950 0.195411
Si Si3 0.396991 0.924850 0.699251
Si Si4 0.399518 0.005281 0.576946
Si Si5 0.401325 0.512875 0.913709
O O1 0.586157 0.826495 0.448159
O O2 0.588095 0.668847 0.549299
O O3 0.407616 0.619995 0.462793
O O4 0.407298 0.877137 0.526429
O O5 0.250000 0.500000 0.199473
O O6 0.118091 0.745013 0.195838
O O7 0.000000 0.514542 0.250000
O O8 0.021290 0.508083 0.135304
O O9 0.500000 0.977716 0.750000
O O10 0.250000 0.000000 0.712987
O O11 0.479670 0.975634 0.638561
O O12 0.250000 0.000000 0.604622
O O13 0.250000 0.500000 0.883945
#
# Coordination Sequence:
#
# PCOD8223005 Si02
#       5
#     8   8   8   8   8
#     4  10  22  38  62  91 131 168 212 252 314 372
#     4  11  25  45  68  94 127 166 212 264 318 378
#     4  10  23  44  66  93 124 164 210 262 314 375
#     4  10  20  39  62  91 124 167 208 261 309 375
#     4  11  23  40  63  97 130 170 209 261 311 381
#
# _framework density 20.619949999999999
#
# number of rings (size 3 to 8) (size 9 to 14) (size 15 to 20)
#    0.000    1.600    2.000    1.800    5.600    4.000 
#    7.200    1.000    0.000    0.000    0.000    0.000 
#    0.000    0.000    0.000    0.000    0.000    0.000 
#
# Total GULP energy -495530.696059 kJ/mol
# GULP energy per Si atom -12388.267401 kJ/mol
# Density = 2.057302 g / cm^3
# Si number density = 20.619950 Si / 1000 Ang^3
#
#
#
# Elastic Constant Matrix: (Units=GPa)
#
#
# Indices 1 2 3 4 5 6 
#
# 1 124.9296 28.7295 49.9040 0.0000 0.0000 0.0000
# 2 28.7295 89.8086 36.4960 0.0000 0.0000 0.0000
# 3 49.9040 36.4960 139.6848 0.0000 0.0000 0.0000
# 4 0.0000 0.0000 0.0000 120.6741 0.0000 0.0000
# 5 0.0000 0.0000 0.0000 0.0000 32.0283 0.0000
# 6 0.0000 0.0000 0.0000 0.0000 0.0000 20.5624
#
#
#
# Elastic Compliance Matrix: (Units=1/GPa)
#
#
# Indices 1 2 3 4 5 6 
#
# 1 0.009612 -0.001879 -0.002943 0.000000 0.000000 0.000000
# 2 -0.001879 0.012825 -0.002680 0.000000 0.000000 0.000000
# 3 -0.002943 -0.002680 0.008911 0.000000 0.000000 0.000000
# 4 0.000000 0.000000 0.000000 0.008287 0.000000 0.000000
# 5 0.000000 0.000000 0.000000 0.000000 0.031222 0.000000
# 6 0.000000 0.000000 0.000000 0.000000 0.000000 0.048633
#
#
# Mechanical properties :
#
#
# Convention : Reuss Voigt Hill
#
# Bulk Modulus (GPa) = 61.18317 64.96465 63.07391
# Shear Modulus (GPa) = 35.72945 50.60586 43.16766
#
# Velocity S-wave (km/s) = 4.16716 4.95938 4.58043
# Velocity P-wave (km/s) = 7.27254 8.02297 7.65696
#
# Compressibility (1/GPa) = 0.01634436
#
# Stress axis : x y z
#
# Youngs Moduli (GPa) = 104.03371 77.97433 112.22656
#
# Poissons Ratio (x) = 0.14651 0.33030
# Poissons Ratio (y) = 0.19547 0.30071
# Poissons Ratio (z) = 0.30619 0.20893
#
# Static dielectric constant tensor:
#      x y z
#    x 3.551480 0.000000 0.000000 
#    y 0.000000 3.877860 0.000000 
#    z 0.000000 0.000000 3.987340 
# 
# 
# High freq. dielectric constant tensor:
#      x y z
#    x 1.790890 0.000000 0.000000 
#    y 0.000000 1.813970 0.000000 
#    z 0.000000 0.000000 1.825430 
# 
# From -- ./inp_files/23278.got.cif
#   From: 2010.03.12/outbox.cif.g09.slc.cpg/sg54_12_cif.got.tgz:23278.got - 2010.04.16 15:00:50.
