data_PCOD8223312
_publ_section_title
;
Structure prediction by ZEFSAII (Michael W. Deem and Ramdas Pophale) SiO2 
 PCOD8223312
Probable space group: P C C A
;
_chemical_formula_sum "Si O2"
_cell_formula_units_Z 56
_cell_length_a 14.625013
_cell_length_b 9.038424
_cell_length_c 19.018424
_cell_angle_alpha 90.000000
_cell_angle_beta 90.000000
_cell_angle_gamma 90.000000
_cell_volume 2513.989716
_symmetry_space_group_name_H-M "P C C A"
_symmetry_group_IT_number 54
_symmetry_cell_setting 'orthorhombic'
loop_
_space_group_symop_operation_xyz
x,y,z
1/2-x,-y,z
1/2+x,-y,1/2-z
-x,y,1/2-z
-x,-y,-z
1/2+x,y,-z
1/2-x,y,1/2+z
x,-y,1/2+z
loop_
_atom_site_type_symbol
_atom_site_label
_atom_site_fract_x
_atom_site_fract_y
_atom_site_fract_z
Si Si1 0.973411 0.306458 0.329098
Si Si2 0.495718 0.566483 0.577328
Si Si3 0.651961 0.048670 0.799017
Si Si4 0.301724 0.644989 0.919250
Si Si5 0.840473 0.160501 0.144665
Si Si6 0.440162 0.884020 0.591322
Si Si7 0.863884 0.940297 0.030683
O O1 0.883675 0.203674 0.330839
O O2 0.000000 0.346924 0.250000
O O3 0.946005 0.452846 0.370829
O O4 0.059712 0.231264 0.368421
O O5 0.500000 0.500000 0.500000
O O6 0.597560 0.598802 0.607893
O O7 0.430086 0.709650 0.577024
O O8 0.656446 0.061512 0.714958
O O9 0.750000 0.000000 0.828842
O O10 0.580575 0.923043 0.826686
O O11 0.250000 0.500000 0.951329
O O12 0.238506 0.710978 0.855385
O O13 0.317989 0.776843 0.976658
O O14 0.810186 0.055230 0.080505
O O15 0.541022 0.929777 0.571035
O O16 0.369897 0.984156 0.545641
#
# Coordination Sequence:
#
# PCOD8223312 Si02
#       7
#     8   8   8   8   8   8   8
#     4  10  22  43  69  96 137 185 221 283 360 418
#     4  11  24  46  69  98 145 181 230 294 358 437
#     4  11  24  43  66  97 134 177 233 291 345 419
#     4  11  23  38  67 103 132 175 234 293 339 420
#     4  11  21  44  68  98 131 176 237 285 341 414
#     4  10  23  41  65 100 133 181 225 285 354 418
#     4  10  21  40  67  96 132 177 230 285 336 420
#
# _framework density 22.275348999999999
#
# number of rings (size 3 to 8) (size 9 to 14) (size 15 to 20)
#    0.000    1.429    2.857    2.143    4.000    1.143 
#    7.714    0.714    0.000    0.857    0.000    0.000 
#    0.000    0.000    0.000    0.000    0.000    0.000 
#
# Total GULP energy -693911.611040 kJ/mol
# GULP energy per Si atom -12391.278769 kJ/mol
# Density = 2.222465 g / cm^3
# Si number density = 22.275349 Si / 1000 Ang^3
#
#
#
# Elastic Constant Matrix: (Units=GPa)
#
#
# Indices 1 2 3 4 5 6 
#
# 1 90.8760 44.1660 30.7861 0.0000 0.0000 0.0000
# 2 44.1660 169.5249 65.7497 0.0000 0.0000 0.0000
# 3 30.7861 65.7497 88.7895 0.0000 0.0000 0.0000
# 4 0.0000 0.0000 0.0000 39.0665 0.0000 0.0000
# 5 0.0000 0.0000 0.0000 0.0000 3.0213 0.0000
# 6 0.0000 0.0000 0.0000 0.0000 0.0000 50.2049
#
#
#
# Elastic Compliance Matrix: (Units=1/GPa)
#
#
# Indices 1 2 3 4 5 6 
#
# 1 0.013085 -0.002314 -0.002823 0.000000 0.000000 0.000000
# 2 -0.002314 0.008685 -0.005629 0.000000 0.000000 0.000000
# 3 -0.002823 -0.005629 0.016410 0.000000 0.000000 0.000000
# 4 0.000000 0.000000 0.000000 0.025597 0.000000 0.000000
# 5 0.000000 0.000000 0.000000 0.000000 0.330982 0.000000
# 6 0.000000 0.000000 0.000000 0.000000 0.000000 0.019918
#
#
# Mechanical properties :
#
#
# Convention : Reuss Voigt Hill
#
# Bulk Modulus (GPa) = 60.07059 70.06600 65.06830
# Shear Modulus (GPa) = 11.31838 32.35779 21.83809
#
# Velocity S-wave (km/s) = 2.25658 3.81547 3.13448
# Velocity P-wave (km/s) = 5.81510 7.13675 6.50955
#
# Compressibility (1/GPa) = 0.01664708
#
# Stress axis : x y z
#
# Youngs Moduli (GPa) = 76.42276 115.14308 60.93899
#
# Poissons Ratio (x) = 0.26644 0.17206
# Poissons Ratio (y) = 0.17684 0.34302
# Poissons Ratio (z) = 0.21578 0.64813
#
# Static dielectric constant tensor:
#      x y z
#    x 4.269370 0.000000 0.000000 
#    y 0.000000 4.395340 0.000000 
#    z 0.000000 0.000000 3.806160 
# 
# 
# High freq. dielectric constant tensor:
#      x y z
#    x 1.885160 0.000000 0.000000 
#    y 0.000000 1.888490 0.000000 
#    z 0.000000 0.000000 1.846980 
# 
# From -- ./inp_files/21606.got.cif
#   From: 2010.03.12/outbox.cif.g09.slc.cpg/sg54_11_cif.got.tgz:21606.got - 2010.04.16 15:00:50.
