data_PCOD8223044
_publ_section_title
;
Structure prediction by ZEFSAII (Michael W. Deem and Ramdas Pophale) SiO2 
 PCOD8223044
Probable space group: P C C A
;
_chemical_formula_sum "Si O2"
_cell_formula_units_Z 40
_cell_length_a 15.014340
_cell_length_b 13.857397
_cell_length_c 8.992533
_cell_angle_alpha 90.000000
_cell_angle_beta 90.000000
_cell_angle_gamma 90.000000
_cell_volume 1870.983449
_symmetry_space_group_name_H-M "P C C A"
_symmetry_group_IT_number 54
_symmetry_cell_setting 'orthorhombic'
loop_
_space_group_symop_operation_xyz
x,y,z
1/2-x,-y,z
1/2+x,-y,1/2-z
-x,y,1/2-z
-x,-y,-z
1/2+x,y,-z
1/2-x,y,1/2+z
x,-y,1/2+z
loop_
_atom_site_type_symbol
_atom_site_label
_atom_site_fract_x
_atom_site_fract_y
_atom_site_fract_z
Si Si1 0.361670 0.642485 0.835325
Si Si2 0.059301 0.553233 0.878495
Si Si3 0.792310 0.317371 0.970136
Si Si4 0.500000 0.204966 0.250000
Si Si5 0.340458 0.112587 0.089152
Si Si6 0.250000 0.000000 0.846884
O O1 0.390653 0.534407 0.797452
O O2 0.294420 0.670238 0.705652
O O3 0.303571 0.641769 0.984784
O O4 0.439731 0.722280 0.849256
O O5 0.124397 0.631405 0.949915
O O6 0.000000 0.604917 0.750000
O O7 0.000000 0.500000 0.000000
O O8 0.796285 0.203102 0.995053
O O9 0.442158 0.138219 0.137868
O O10 0.288548 0.083729 0.240453
O O11 0.331222 0.032410 0.958193
#
# Coordination Sequence:
#
# PCOD8223044 Si02
#       6
#     8   8   8   4   8   4
#     4  11  23  42  62  94 133 179 215 267 313 379
#     4  12  23  41  63  93 135 173 214 265 319 374
#     4  11  24  40  65  93 128 174 222 257 323 391
#     4  10  20  40  66  90 138 164 214 266 318 386
#     4  10  21  42  66  97 123 170 207 276 335 390
#     4  10  22  42  72  92 130 156 218 276 342 412
#
# _framework density 21.37913
#
# number of rings (size 3 to 8) (size 9 to 14) (size 15 to 20)
#    0.000    1.200    3.000    4.200    2.800    2.400 
#    0.000    0.000    2.200    0.000    0.000    0.000 
#    0.000    0.000    0.000    0.000    0.000    0.000 
#
# Total GULP energy -495700.735609 kJ/mol
# GULP energy per Si atom -12392.518390 kJ/mol
# Density = 2.133047 g / cm^3
# Si number density = 21.379130 Si / 1000 Ang^3
#
#
#
# Elastic Constant Matrix: (Units=GPa)
#
#
# Indices 1 2 3 4 5 6 
#
# 1 107.6496 38.2994 42.9781 0.0000 0.0000 0.0000
# 2 38.2994 104.6631 36.9894 0.0000 0.0000 0.0000
# 3 42.9781 36.9894 86.9925 0.0000 0.0000 0.0000
# 4 0.0000 0.0000 0.0000 38.9413 0.0000 0.0000
# 5 0.0000 0.0000 0.0000 0.0000 31.8637 0.0000
# 6 0.0000 0.0000 0.0000 0.0000 0.0000 36.1412
#
#
#
# Elastic Compliance Matrix: (Units=1/GPa)
#
#
# Indices 1 2 3 4 5 6 
#
# 1 0.012209 -0.002749 -0.004863 0.000000 0.000000 0.000000
# 2 -0.002749 0.011863 -0.003686 0.000000 0.000000 0.000000
# 3 -0.004863 -0.003686 0.015465 0.000000 0.000000 0.000000
# 4 0.000000 0.000000 0.000000 0.025680 0.000000 0.000000
# 5 0.000000 0.000000 0.000000 0.000000 0.031384 0.000000
# 6 0.000000 0.000000 0.000000 0.000000 0.000000 0.027669
#
#
# Mechanical properties :
#
#
# Convention : Reuss Voigt Hill
#
# Bulk Modulus (GPa) = 59.02782 59.53766 59.28274
# Shear Modulus (GPa) = 32.78419 33.45847 33.12133
#
# Velocity S-wave (km/s) = 3.92020 3.96031 3.94030
# Velocity P-wave (km/s) = 6.93978 6.98720 6.96353
#
# Compressibility (1/GPa) = 0.01694116
#
# Stress axis : x y z
#
# Youngs Moduli (GPa) = 81.90760 84.29482 64.66198
#
# Poissons Ratio (x) = 0.23173 0.31444
# Poissons Ratio (y) = 0.22516 0.23835
# Poissons Ratio (z) = 0.39830 0.31072
#
# Static dielectric constant tensor:
#      x y z
#    x 3.963660 0.000000 0.000000 
#    y 0.000000 2.093700 0.000000 
#    z 0.000000 0.000000 3.795780 
# 
# 
# High freq. dielectric constant tensor:
#      x y z
#    x 1.832590 0.000000 0.000000 
#    y 0.000000 1.838420 0.000000 
#    z 0.000000 0.000000 1.845770 
# 
# From -- ./inp_files/3484.got.cif
#   From: 2010.03.12/outbox.cif.g09.slc.cpg/sg54_2_cif.got.tgz:3484.got - 2010.04.16 15:00:50.
