data_PCOD8223591
_publ_section_title
;
Structure prediction by ZEFSAII (Michael W. Deem and Ramdas Pophale) SiO2 
 PCOD8223591
Probable space group: P C C A
;
_chemical_formula_sum "Si O2"
_cell_formula_units_Z 36
_cell_length_a 22.583098
_cell_length_b 5.527851
_cell_length_c 10.408354
_cell_angle_alpha 90.000000
_cell_angle_beta 90.000000
_cell_angle_gamma 90.000000
_cell_volume 1299.337289
_symmetry_space_group_name_H-M "P C C A"
_symmetry_group_IT_number 54
_symmetry_cell_setting 'orthorhombic'
loop_
_space_group_symop_operation_xyz
x,y,z
1/2-x,-y,z
1/2+x,-y,1/2-z
-x,y,1/2-z
-x,-y,-z
1/2+x,y,-z
1/2-x,y,1/2+z
x,-y,1/2+z
loop_
_atom_site_type_symbol
_atom_site_label
_atom_site_fract_x
_atom_site_fract_y
_atom_site_fract_z
Si Si1 0.066876 0.492496 0.293138
Si Si2 0.153998 0.205871 0.147803
Si Si3 0.250000 0.500000 0.748699
Si Si4 0.540364 0.999588 0.624057
Si Si5 0.315246 0.112927 0.374174
O O1 0.107759 0.428224 0.168408
O O2 0.082047 0.751131 0.364878
O O3 0.000000 0.532856 0.250000
O O4 0.074917 0.257921 0.386185
O O5 0.221901 0.297822 0.156853
O O6 0.147722 0.085002 0.007490
O O7 0.145344 0.007434 0.260442
O O8 0.196478 0.394555 0.837308
O O9 0.500000 0.020073 0.750000
O O10 0.500000 0.000000 0.500000
O O11 0.250000 0.000000 0.388223
#
# Coordination Sequence:
#
# PCOD8223591 Si02
#       5
#     8   8   4   8   8
#     4  10  24  45  71 108 142 192 240 302 365 447
#     4  11  24  43  72 100 145 187 246 307 377 447
#     4  10  22  42  68 102 138 186 246 304 376 446
#     4  10  22  45  70  98 142 186 239 292 353 433
#     4  10  22  43  68 102 139 189 244 307 376 452
#
# _framework density 27.706434000000002
#
# number of rings (size 3 to 8) (size 9 to 14) (size 15 to 20)
#    0.000    1.778    0.000    3.333    3.111    5.333 
#    8.000    0.000    0.000    0.000    0.000    0.000 
#    0.000    0.000    0.000    0.000    0.000    0.000 
#
# Total GULP energy -446068.468645 kJ/mol
# GULP energy per Si atom -12390.790796 kJ/mol
# Density = 2.764337 g / cm^3
# Si number density = 27.706434 Si / 1000 Ang^3
#
#
#
# Elastic Constant Matrix: (Units=GPa)
#
#
# Indices 1 2 3 4 5 6 
#
# 1 68.9506 25.3682 39.3993 0.0000 0.0000 0.0000
# 2 25.3682 209.5403 62.6019 0.0000 0.0000 0.0000
# 3 39.3993 62.6019 200.8256 0.0000 0.0000 0.0000
# 4 0.0000 0.0000 0.0000 30.9734 0.0000 0.0000
# 5 0.0000 0.0000 0.0000 0.0000 49.3520 0.0000
# 6 0.0000 0.0000 0.0000 0.0000 0.0000 56.1039
#
#
#
# Elastic Compliance Matrix: (Units=1/GPa)
#
#
# Indices 1 2 3 4 5 6 
#
# 1 0.016578 -0.001142 -0.002897 0.000000 0.000000 0.000000
# 2 -0.001142 0.005341 -0.001441 0.000000 0.000000 0.000000
# 3 -0.002897 -0.001441 0.005997 0.000000 0.000000 0.000000
# 4 0.000000 0.000000 0.000000 0.032286 0.000000 0.000000
# 5 0.000000 0.000000 0.000000 0.000000 0.020263 0.000000
# 6 0.000000 0.000000 0.000000 0.000000 0.000000 0.017824
#
#
# Mechanical properties :
#
#
# Convention : Reuss Voigt Hill
#
# Bulk Modulus (GPa) = 58.96964 81.56171 70.26567
# Shear Modulus (GPa) = 43.51618 50.74899 47.13259
#
# Velocity S-wave (km/s) = 3.96740 4.28444 4.12897
# Velocity P-wave (km/s) = 6.50515 7.34690 6.93880
#
# Compressibility (1/GPa) = 0.01695788
#
# Stress axis : x y z
#
# Youngs Moduli (GPa) = 60.31970 187.22854 166.75329
#
# Poissons Ratio (x) = 0.21376 0.48301
# Poissons Ratio (y) = 0.06887 0.24028
# Poissons Ratio (z) = 0.17472 0.26979
#
# Static dielectric constant tensor:
#      x y z
#    x 5.243430 0.000000 0.000000 
#    y 0.000000 6.366820 0.000000 
#    z 0.000000 0.000000 4.686200 
# 
# 
# High freq. dielectric constant tensor:
#      x y z
#    x 2.155710 0.000000 0.000000 
#    y 0.000000 2.136030 0.000000 
#    z 0.000000 0.000000 2.093080 
# 
# From -- ./inp_files/9769.got.cif
#   From: 2010.03.12/outbox.cif.g09.slc.cpg/sg54_5_cif.got.tgz:9769.got - 2010.04.16 15:00:50.
