data_PCOD8223402
_publ_section_title
;
Structure prediction by ZEFSAII (Michael W. Deem and Ramdas Pophale) SiO2 
 PCOD8223402
Probable space group: P C C A
;
_chemical_formula_sum "Si O2"
_cell_formula_units_Z 56
_cell_length_a 19.508323
_cell_length_b 8.681563
_cell_length_c 15.246678
_cell_angle_alpha 90.000000
_cell_angle_beta 90.000000
_cell_angle_gamma 90.000000
_cell_volume 2582.219088
_symmetry_space_group_name_H-M "P C C A"
_symmetry_group_IT_number 54
_symmetry_cell_setting 'orthorhombic'
loop_
_space_group_symop_operation_xyz
x,y,z
1/2-x,-y,z
1/2+x,-y,1/2-z
-x,y,1/2-z
-x,-y,-z
1/2+x,y,-z
1/2-x,y,1/2+z
x,-y,1/2+z
loop_
_atom_site_type_symbol
_atom_site_label
_atom_site_fract_x
_atom_site_fract_y
_atom_site_fract_z
Si Si1 0.246762 0.683589 0.229287
Si Si2 0.240350 0.682259 0.426833
Si Si3 0.889904 0.342619 0.473437
Si Si4 0.500000 0.042130 0.250000
Si Si5 0.000000 0.459464 0.250000
Si Si6 0.152005 0.313212 0.565637
Si Si7 0.899254 0.781412 0.792913
Si Si8 0.005780 0.711436 0.109220
O O1 0.250000 0.500000 0.225130
O O2 0.229375 0.741694 0.327531
O O3 0.191429 0.733712 0.155938
O O4 0.317792 0.770337 0.210765
O O5 0.250000 0.500000 0.424833
O O6 0.173690 0.739948 0.478909
O O7 0.306462 0.747971 0.480034
O O8 0.860062 0.503863 0.438688
O O9 0.919779 0.242650 0.394095
O O10 0.952140 0.353672 0.540339
O O11 0.430829 0.944797 0.234707
O O12 0.521182 0.147016 0.167047
O O13 0.066153 0.350811 0.268433
O O14 0.020667 0.561875 0.167692
O O15 0.077294 0.233982 0.565145
#
# Coordination Sequence:
#
# PCOD8223402 Si02
#       8
#     8   8   8   4   4   8   8   8
#     4  11  19  35  64  96 133 170 210 287 347 396
#     4   9  21  32  58  99 139 161 208 271 355 405
#     4  11  21  36  65 100 133 169 219 291 350 403
#     4  10  28  46  60  92 134 194 230 266 342 424
#     4  10  22  34  62  96 120 168 226 278 338 408
#     4  11  20  38  62 103 131 167 220 287 345 398
#     4  11  22  41  64  93 134 175 227 279 341 416
#     4  11  24  40  65  92 138 176 228 285 340 410
#
# _framework density 21.686774
#
# number of rings (size 3 to 8) (size 9 to 14) (size 15 to 20)
#    0.000    1.429    4.286    0.857   10.000    1.714 
#    0.000    0.714    0.000    1.714    0.000    0.000 
#    0.000    0.000    0.000    0.000    0.000    0.000 
#
# Total GULP energy -694035.605023 kJ/mol
# GULP energy per Si atom -12393.492947 kJ/mol
# Density = 2.163741 g / cm^3
# Si number density = 21.686774 Si / 1000 Ang^3
#
#
#
# Elastic Constant Matrix: (Units=GPa)
#
#
# Indices 1 2 3 4 5 6 
#
# 1 144.9046 20.4659 47.6929 0.0000 0.0000 0.0000
# 2 20.4659 59.8794 23.1588 0.0000 0.0000 0.0000
# 3 47.6929 23.1588 117.3166 0.0000 0.0000 0.0000
# 4 0.0000 0.0000 0.0000 8.3566 0.0000 0.0000
# 5 0.0000 0.0000 0.0000 0.0000 43.3586 0.0000
# 6 0.0000 0.0000 0.0000 0.0000 0.0000 23.6640
#
#
#
# Elastic Compliance Matrix: (Units=1/GPa)
#
#
# Indices 1 2 3 4 5 6 
#
# 1 0.008110 -0.001620 -0.002977 0.000000 0.000000 0.000000
# 2 -0.001620 0.018404 -0.002974 0.000000 0.000000 0.000000
# 3 -0.002977 -0.002974 0.010321 0.000000 0.000000 0.000000
# 4 0.000000 0.000000 0.000000 0.119665 0.000000 0.000000
# 5 0.000000 0.000000 0.000000 0.000000 0.023063 0.000000
# 6 0.000000 0.000000 0.000000 0.000000 0.000000 0.042258
#
#
# Mechanical properties :
#
#
# Convention : Reuss Voigt Hill
#
# Bulk Modulus (GPa) = 46.10002 56.08176 51.09089
# Shear Modulus (GPa) = 20.47529 30.46139 25.46834
#
# Velocity S-wave (km/s) = 3.07601 3.75187 3.43063
# Velocity P-wave (km/s) = 5.82402 6.68467 6.26913
#
# Compressibility (1/GPa) = 0.02169197
#
# Stress axis : x y z
#
# Youngs Moduli (GPa) = 123.30776 54.33476 96.88664
#
# Poissons Ratio (x) = 0.08805 0.28843
# Poissons Ratio (y) = 0.19981 0.28818
# Poissons Ratio (z) = 0.36709 0.16161
#
# Static dielectric constant tensor:
#      x y z
#    x 4.038700 0.000000 0.000000 
#    y 0.000000 3.418140 0.000000 
#    z 0.000000 0.000000 4.328390 
# 
# 
# High freq. dielectric constant tensor:
#      x y z
#    x 1.864000 0.000000 0.000000 
#    y 0.000000 1.798030 0.000000 
#    z 0.000000 0.000000 1.864320 
# 
# From -- ./inp_files/14729.got.cif
#   From: 2010.03.12/outbox.cif.g09.slc.cpg/sg54_8_cif.got.tgz:14729.got - 2010.04.16 15:00:50.
