data_PCOD8223659
_publ_section_title
;
Structure prediction by ZEFSAII (Michael W. Deem and Ramdas Pophale) SiO2 
 PCOD8223659
Probable space group: P C C A
;
_chemical_formula_sum "Si O2"
_cell_formula_units_Z 48
_cell_length_a 15.989125
_cell_length_b 7.674568
_cell_length_c 18.657730
_cell_angle_alpha 90.000000
_cell_angle_beta 90.000000
_cell_angle_gamma 90.000000
_cell_volume 2289.483090
_symmetry_space_group_name_H-M "P C C A"
_symmetry_group_IT_number 54
_symmetry_cell_setting 'orthorhombic'
loop_
_space_group_symop_operation_xyz
x,y,z
1/2-x,-y,z
1/2+x,-y,1/2-z
-x,y,1/2-z
-x,-y,-z
1/2+x,y,-z
1/2-x,y,1/2+z
x,-y,1/2+z
loop_
_atom_site_type_symbol
_atom_site_label
_atom_site_fract_x
_atom_site_fract_y
_atom_site_fract_z
Si Si1 0.088686 0.196107 0.110783
Si Si2 0.313575 0.629213 0.373372
Si Si3 0.801790 0.162630 0.520717
Si Si4 0.089886 0.864633 0.764149
Si Si5 0.014841 0.481858 0.916433
Si Si6 0.459609 0.900270 0.883193
O O1 0.131597 0.125759 0.184966
O O2 0.039891 0.377060 0.126143
O O3 0.157579 0.242195 0.051238
O O4 0.021887 0.049138 0.085129
O O5 0.250000 0.500000 0.331673
O O6 0.261992 0.708656 0.439816
O O7 0.347212 0.769117 0.317474
O O8 0.387134 0.513177 0.405568
O O9 0.875085 0.096843 0.571966
O O10 0.750000 0.000000 0.492831
O O11 0.000000 0.768497 0.750000
O O12 0.066506 0.050618 0.801127
O O13 0.994640 0.287312 0.887497
O O14 0.000000 0.500000 0.000000
#
# Coordination Sequence:
#
# PCOD8223659 Si02
#       6
#     8   8   8   8   8   8
#     4  11  24  47  67 101 142 179 235 295 338 425
#     4  12  23  42  67 101 138 182 232 286 360 402
#     4  12  23  40  68  96 136 181 226 294 352 405
#     4  10  22  46  68  93 139 185 224 286 351 424
#     4  12  23  40  72 103 133 185 238 286 344 427
#     4  11  22  41  72 100 131 184 234 277 356 427
#
# _framework density 20.965430999999999
#
# number of rings (size 3 to 8) (size 9 to 14) (size 15 to 20)
#    0.000    0.667    8.333    0.500    2.333    0.000 
#   12.000    2.500    0.000    0.000    0.000    0.000 
#    0.000    0.000    0.000    0.000    0.000    0.000 
#
# Total GULP energy -594763.582363 kJ/mol
# GULP energy per Si atom -12390.907966 kJ/mol
# Density = 2.091771 g / cm^3
# Si number density = 20.965431 Si / 1000 Ang^3
#
#
#
# Elastic Constant Matrix: (Units=GPa)
#
#
# Indices 1 2 3 4 5 6 
#
# 1 83.3088 41.7289 36.4556 0.0000 0.0000 0.0000
# 2 41.7289 147.9740 38.9772 0.0000 0.0000 0.0000
# 3 36.4556 38.9772 143.8448 0.0000 0.0000 0.0000
# 4 0.0000 0.0000 0.0000 21.8432 0.0000 0.0000
# 5 0.0000 0.0000 0.0000 0.0000 30.0707 0.0000
# 6 0.0000 0.0000 0.0000 0.0000 0.0000 23.8177
#
#
#
# Elastic Compliance Matrix: (Units=1/GPa)
#
#
# Indices 1 2 3 4 5 6 
#
# 1 0.014995 -0.003476 -0.002859 0.000000 0.000000 0.000000
# 2 -0.003476 0.008083 -0.001309 0.000000 0.000000 0.000000
# 3 -0.002859 -0.001309 0.008031 0.000000 0.000000 0.000000
# 4 0.000000 0.000000 0.000000 0.045781 0.000000 0.000000
# 5 0.000000 0.000000 0.000000 0.000000 0.033255 0.000000
# 6 0.000000 0.000000 0.000000 0.000000 0.000000 0.041986
#
#
# Mechanical properties :
#
#
# Convention : Reuss Voigt Hill
#
# Bulk Modulus (GPa) = 63.20211 67.71678 65.45944
# Shear Modulus (GPa) = 28.95319 32.34403 30.64861
#
# Velocity S-wave (km/s) = 3.72021 3.93202 3.82758
# Velocity P-wave (km/s) = 6.97600 7.27900 7.12911
#
# Compressibility (1/GPa) = 0.01582226
#
# Stress axis : x y z
#
# Youngs Moduli (GPa) = 66.68693 123.71635 124.51450
#
# Poissons Ratio (x) = 0.43001 0.35593
# Poissons Ratio (y) = 0.23179 0.16303
# Poissons Ratio (z) = 0.19063 0.16199
#
# Static dielectric constant tensor:
#      x y z
#    x 3.942760 0.000000 0.000000 
#    y 0.000000 3.983270 0.000000 
#    z 0.000000 0.000000 4.015510 
# 
# 
# High freq. dielectric constant tensor:
#      x y z
#    x 1.817700 0.000000 0.000000 
#    y 0.000000 1.820280 0.000000 
#    z 0.000000 0.000000 1.818590 
# 
# From -- ./inp_files/17982.got.cif
#   From: 2010.03.12/outbox.cif.g09.slc.cpg/sg54_9_cif.got.tgz:17982.got - 2010.04.16 15:00:50.
