data_PCOD8223239
_publ_section_title
;
Structure prediction by ZEFSAII (Michael W. Deem and Ramdas Pophale) SiO2 
 PCOD8223239
Probable space group: P C C A
;
_chemical_formula_sum "Si O2"
_cell_formula_units_Z 64
_cell_length_a 31.067168
_cell_length_b 9.024598
_cell_length_c 10.865492
_cell_angle_alpha 90.000000
_cell_angle_beta 90.000000
_cell_angle_gamma 90.000000
_cell_volume 3046.343891
_symmetry_space_group_name_H-M "P C C A"
_symmetry_group_IT_number 54
_symmetry_cell_setting 'orthorhombic'
loop_
_space_group_symop_operation_xyz
x,y,z
1/2-x,-y,z
1/2+x,-y,1/2-z
-x,y,1/2-z
-x,-y,-z
1/2+x,y,-z
1/2-x,y,1/2+z
x,-y,1/2+z
loop_
_atom_site_type_symbol
_atom_site_label
_atom_site_fract_x
_atom_site_fract_y
_atom_site_fract_z
Si Si1 0.202622 0.934625 0.972553
Si Si2 0.980404 0.838052 0.509610
Si Si3 0.090136 0.160632 0.699592
Si Si4 0.562126 0.324340 0.064478
Si Si5 0.921595 0.642540 0.643941
Si Si6 0.346409 0.668563 0.543052
Si Si7 0.630175 0.638435 0.373500
Si Si8 0.341379 0.934935 0.212840
O O1 0.184190 0.977003 0.837482
O O2 0.250000 0.000000 0.975725
O O3 0.197317 0.756623 0.001411
O O4 0.177912 0.008690 0.085006
O O5 0.945892 0.829822 0.402580
O O6 0.954264 0.784420 0.632754
O O7 0.018995 0.722477 0.503485
O O8 0.000000 0.000000 0.500000
O O9 0.066142 0.223376 0.816675
O O10 0.131933 0.256840 0.662842
O O11 0.109324 0.995540 0.724570
O O12 0.556205 0.499110 0.084967
O O13 0.606240 0.292322 0.990935
O O14 0.877770 0.682639 0.573024
O O15 0.909243 0.594687 0.782412
O O16 0.338999 0.497824 0.583922
O O17 0.659039 0.757871 0.302703
#
# Coordination Sequence:
#
# PCOD8223239 Si02
#       8
#     8   8   8   8   8   8   8   8
#     4  11  23  43  69 102 138 168 209 269 341 415
#     4  11  24  39  56  85 126 169 226 291 339 380
#     4  10  21  39  62  85 123 170 224 274 329 402
#     4  11  22  38  57  88 126 171 223 278 342 382
#     4  10  21  39  61  86 123 173 225 268 330 395
#     4   9  20  40  64  93 122 166 215 268 320 400
#     4  11  21  38  66  92 124 169 228 271 318 403
#     4  11  23  40  70 100 131 176 223 269 335 414
#
# _framework density 21.008789
#
# number of rings (size 3 to 8) (size 9 to 14) (size 15 to 20)
#    0.000    1.500    2.500    2.625    1.750    0.500 
#    4.500    0.625    0.000    1.500    0.000    0.000 
#    0.000    0.000    0.000    0.000    0.000    0.000 
#
# Total GULP energy -792881.183968 kJ/mol
# GULP energy per Si atom -12388.768500 kJ/mol
# Density = 2.096097 g / cm^3
# Si number density = 21.008789 Si / 1000 Ang^3
#
#
#
# Elastic Constant Matrix: (Units=GPa)
#
#
# Indices 1 2 3 4 5 6 
#
# 1 82.2969 59.8948 15.7589 0.0000 0.0000 0.0000
# 2 59.8948 115.7749 19.9884 0.0000 0.0000 0.0000
# 3 15.7589 19.9884 84.8245 0.0000 0.0000 0.0000
# 4 0.0000 0.0000 0.0000 28.5354 0.0000 0.0000
# 5 0.0000 0.0000 0.0000 0.0000 19.8582 0.0000
# 6 0.0000 0.0000 0.0000 0.0000 0.0000 36.1036
#
#
#
# Elastic Compliance Matrix: (Units=1/GPa)
#
#
# Indices 1 2 3 4 5 6 
#
# 1 0.019627 -0.009928 -0.001307 0.000000 0.000000 0.000000
# 2 -0.009928 0.014026 -0.001461 0.000000 0.000000 0.000000
# 3 -0.001307 -0.001461 0.012376 0.000000 0.000000 0.000000
# 4 0.000000 0.000000 0.000000 0.035044 0.000000 0.000000
# 5 0.000000 0.000000 0.000000 0.000000 0.050357 0.000000
# 6 0.000000 0.000000 0.000000 0.000000 0.000000 0.027698
#
#
# Mechanical properties :
#
#
# Convention : Reuss Voigt Hill
#
# Bulk Modulus (GPa) = 48.45527 52.68672 50.57100
# Shear Modulus (GPa) = 26.12351 29.38307 27.75329
#
# Velocity S-wave (km/s) = 3.53009 3.74385 3.63854
# Velocity P-wave (km/s) = 6.30316 6.61978 6.46341
#
# Compressibility (1/GPa) = 0.02063759
#
# Stress axis : x y z
#
# Youngs Moduli (GPa) = 50.95028 71.29697 80.80140
#
# Poissons Ratio (x) = 0.70785 0.10559
# Poissons Ratio (y) = 0.50584 0.11802
# Poissons Ratio (z) = 0.06658 0.10414
#
# Static dielectric constant tensor:
#      x y z
#    x 3.514830 0.000000 0.000000 
#    y 0.000000 4.108790 0.000000 
#    z 0.000000 0.000000 3.961250 
# 
# 
# High freq. dielectric constant tensor:
#      x y z
#    x 1.788130 0.000000 0.000000 
#    y 0.000000 1.831150 0.000000 
#    z 0.000000 0.000000 1.836700 
# 
# From -- ./inp_files/10544.got.cif
#   From: 2010.03.12/outbox.cif.g09.slc.cpg/sg54_6_cif.got.tgz:10544.got - 2010.04.16 15:00:50.
