data_PCOD8223394
_publ_section_title
;
Structure prediction by ZEFSAII (Michael W. Deem and Ramdas Pophale) SiO2 
 PCOD8223394
Probable space group: P C C A
;
_chemical_formula_sum "Si O2"
_cell_formula_units_Z 40
_cell_length_a 9.519963
_cell_length_b 10.474114
_cell_length_c 16.360761
_cell_angle_alpha 90.000000
_cell_angle_beta 90.000000
_cell_angle_gamma 90.000000
_cell_volume 1631.383470
_symmetry_space_group_name_H-M "P C C A"
_symmetry_group_IT_number 54
_symmetry_cell_setting 'orthorhombic'
loop_
_space_group_symop_operation_xyz
x,y,z
1/2-x,-y,z
1/2+x,-y,1/2-z
-x,y,1/2-z
-x,-y,-z
1/2+x,y,-z
1/2-x,y,1/2+z
x,-y,1/2+z
loop_
_atom_site_type_symbol
_atom_site_label
_atom_site_fract_x
_atom_site_fract_y
_atom_site_fract_z
Si Si1 0.603332 0.394771 0.316664
Si Si2 0.250000 0.500000 0.038979
Si Si3 0.248416 0.757981 0.450993
Si Si4 0.339627 0.255961 0.769223
Si Si5 0.457748 0.847182 0.588278
Si Si6 0.750000 0.000000 0.316350
O O1 0.500000 0.460540 0.250000
O O2 0.617188 0.472897 0.401079
O O3 0.757751 0.370505 0.277410
O O4 0.534112 0.259942 0.341283
O O5 0.299580 0.619453 0.984571
O O6 0.321501 0.734341 0.365332
O O7 0.359177 0.815795 0.512613
O O8 0.117575 0.858062 0.444345
O O9 0.500000 0.275826 0.750000
O O10 0.282894 0.120007 0.739664
O O11 0.390805 0.974245 0.629078
#
# Coordination Sequence:
#
# PCOD8223394 Si02
#       6
#     8   4   8   8   8   4
#     4  10  21  46  67 100 144 188 245 308 356 445
#     4  10  26  44  72 108 144 206 244 304 388 438
#     4  11  25  46  72 105 153 189 252 311 371 456
#     4  11  26  44  72 105 139 189 251 309 368 456
#     4  10  24  45  69 104 146 184 241 310 367 458
#     4  10  26  46  76 102 144 190 248 306 402 426
#
# _framework density 24.519067
#
# number of rings (size 3 to 8) (size 9 to 14) (size 15 to 20)
#    0.000    1.600    2.000    0.000   11.200    6.400 
#    0.000    0.000    0.000    0.000    0.000    0.000 
#    0.000    0.000    0.000    0.000    0.000    0.000 
#
# Total GULP energy -495994.201120 kJ/mol
# GULP energy per Si atom -12399.855028 kJ/mol
# Density = 2.446326 g / cm^3
# Si number density = 24.519067 Si / 1000 Ang^3
#
#
#
# Elastic Constant Matrix: (Units=GPa)
#
#
# Indices 1 2 3 4 5 6 
#
# 1 159.0145 17.0368 54.7704 0.0000 0.0000 0.0000
# 2 17.0368 70.1892 49.4906 0.0000 0.0000 0.0000
# 3 54.7704 49.4906 166.2541 0.0000 0.0000 0.0000
# 4 0.0000 0.0000 0.0000 12.8923 0.0000 0.0000
# 5 0.0000 0.0000 0.0000 0.0000 46.5028 0.0000
# 6 0.0000 0.0000 0.0000 0.0000 0.0000 19.7848
#
#
#
# Elastic Compliance Matrix: (Units=1/GPa)
#
#
# Indices 1 2 3 4 5 6 
#
# 1 0.007094 -0.000094 -0.002309 0.000000 0.000000 0.000000
# 2 -0.000094 0.018033 -0.005337 0.000000 0.000000 0.000000
# 3 -0.002309 -0.005337 0.008364 0.000000 0.000000 0.000000
# 4 0.000000 0.000000 0.000000 0.077566 0.000000 0.000000
# 5 0.000000 0.000000 0.000000 0.000000 0.021504 0.000000
# 6 0.000000 0.000000 0.000000 0.000000 0.000000 0.050544
#
#
# Mechanical properties :
#
#
# Convention : Reuss Voigt Hill
#
# Bulk Modulus (GPa) = 55.52014 70.89480 63.20747
# Shear Modulus (GPa) = 24.43916 34.11330 29.27623
#
# Velocity S-wave (km/s) = 3.16055 3.73406 3.45921
# Velocity P-wave (km/s) = 6.00096 6.89694 6.46449
#
# Compressibility (1/GPa) = 0.01801148
#
# Stress axis : x y z
#
# Youngs Moduli (GPa) = 140.96136 55.45301 119.55400
#
# Poissons Ratio (x) = 0.00520 0.27607
# Poissons Ratio (y) = 0.01321 0.63809
# Poissons Ratio (z) = 0.32550 0.29597
#
# Static dielectric constant tensor:
#      x y z
#    x 4.379220 0.000000 0.000000 
#    y 0.000000 4.505860 0.000000 
#    z 0.000000 0.000000 4.636910 
# 
# 
# High freq. dielectric constant tensor:
#      x y z
#    x 1.975030 0.000000 0.000000 
#    y 0.000000 1.967410 0.000000 
#    z 0.000000 0.000000 1.996570 
# 
# From -- ./inp_files/16409.got.cif
#   From: 2010.03.12/outbox.cif.g09.slc.cpg/sg54_9_cif.got.tgz:16409.got - 2010.04.16 15:00:50.
