data_PCOD8223611
_publ_section_title
;
Structure prediction by ZEFSAII (Michael W. Deem and Ramdas Pophale) SiO2 
 PCOD8223611
Probable space group: P C C A
;
_chemical_formula_sum "Si O2"
_cell_formula_units_Z 32
_cell_length_a 12.072403
_cell_length_b 14.671954
_cell_length_c 8.159535
_cell_angle_alpha 90.000000
_cell_angle_beta 90.000000
_cell_angle_gamma 90.000000
_cell_volume 1445.263687
_symmetry_space_group_name_H-M "P C C A"
_symmetry_group_IT_number 54
_symmetry_cell_setting 'orthorhombic'
loop_
_space_group_symop_operation_xyz
x,y,z
1/2-x,-y,z
1/2+x,-y,1/2-z
-x,y,1/2-z
-x,-y,-z
1/2+x,y,-z
1/2-x,y,1/2+z
x,-y,1/2+z
loop_
_atom_site_type_symbol
_atom_site_label
_atom_site_fract_x
_atom_site_fract_y
_atom_site_fract_z
Si Si1 0.750000 0.500000 0.314717
Si Si2 0.842909 0.884807 0.707914
Si Si3 0.910319 0.573726 0.553066
Si Si4 0.500000 0.270396 0.750000
Si Si5 0.888009 0.920659 0.329573
O O1 0.809768 0.579221 0.422596
O O2 0.649049 0.546175 0.221336
O O3 0.895094 0.794129 0.787162
O O4 0.878742 0.894681 0.519336
O O5 0.710801 0.877146 0.722686
O O6 0.885839 0.969648 0.815882
O O7 0.972252 0.669043 0.588112
O O8 0.000000 0.500000 0.500000
O O9 0.000000 0.881110 0.250000
#
# Coordination Sequence:
#
# PCOD8223611 Si02
#       5
#     4   8   8   4   8
#     4  10  22  42  78  96 130 194 236 268 388 440
#     4  11  25  42  73 105 141 194 247 305 358 452
#     4  11  22  46  72 101 140 188 226 304 364 431
#     4  12  26  42  72 106 148 178 264 298 352 444
#     4  11  23  45  73  97 150 198 236 295 393 422
#
# _framework density 22.141286000000001
#
# number of rings (size 3 to 8) (size 9 to 14) (size 15 to 20)
#    0.000    1.000    3.750    3.750    3.500    2.000 
#    0.000    2.500    0.000    0.000    0.000    0.000 
#    0.000    0.000    0.000    0.000    0.000    0.000 
#
# Total GULP energy -396688.523381 kJ/mol
# GULP energy per Si atom -12396.516356 kJ/mol
# Density = 2.209089 g / cm^3
# Si number density = 22.141286 Si / 1000 Ang^3
#
#
#
# Elastic Constant Matrix: (Units=GPa)
#
#
# Indices 1 2 3 4 5 6 
#
# 1 186.2448 77.8193 64.6345 0.0000 0.0000 0.0000
# 2 77.8193 139.0716 48.1178 0.0000 0.0000 0.0000
# 3 64.6345 48.1178 123.4893 0.0000 0.0000 0.0000
# 4 0.0000 0.0000 0.0000 32.7886 0.0000 0.0000
# 5 0.0000 0.0000 0.0000 0.0000 50.3894 0.0000
# 6 0.0000 0.0000 0.0000 0.0000 0.0000 43.8986
#
#
#
# Elastic Compliance Matrix: (Units=1/GPa)
#
#
# Indices 1 2 3 4 5 6 
#
# 1 0.007729 -0.003381 -0.002728 0.000000 0.000000 0.000000
# 2 -0.003381 0.009790 -0.002045 0.000000 0.000000 0.000000
# 3 -0.002728 -0.002045 0.010322 0.000000 0.000000 0.000000
# 4 0.000000 0.000000 0.000000 0.030498 0.000000 0.000000
# 5 0.000000 0.000000 0.000000 0.000000 0.019845 0.000000
# 6 0.000000 0.000000 0.000000 0.000000 0.000000 0.022780
#
#
# Mechanical properties :
#
#
# Convention : Reuss Voigt Hill
#
# Bulk Modulus (GPa) = 86.70413 92.21654 89.46033
# Shear Modulus (GPa) = 41.28253 42.63091 41.95672
#
# Velocity S-wave (km/s) = 4.32268 4.39270 4.35783
# Velocity P-wave (km/s) = 8.00990 8.21385 8.11252
#
# Compressibility (1/GPa) = 0.01153348
#
# Stress axis : x y z
#
# Youngs Moduli (GPa) = 129.39040 102.14592 96.87582
#
# Poissons Ratio (x) = 0.34534 0.26426
# Poissons Ratio (y) = 0.43744 0.19812
# Poissons Ratio (z) = 0.35295 0.20890
#
# Static dielectric constant tensor:
#      x y z
#    x 4.711370 0.000000 0.000000 
#    y 0.000000 3.782640 0.000000 
#    z 0.000000 0.000000 4.106910 
# 
# 
# High freq. dielectric constant tensor:
#      x y z
#    x 1.904390 0.000000 0.000000 
#    y 0.000000 1.835180 0.000000 
#    z 0.000000 0.000000 1.872290 
# 
# From -- ./inp_files/2815.got.cif
#   From: 2010.03.12/outbox.cif.g09.slc.cpg/sg54_2_cif.got.tgz:2815.got - 2010.04.16 15:00:50.
