data_PCOD8223941
_publ_section_title
;
Structure prediction by ZEFSAII (Michael W. Deem and Ramdas Pophale) SiO2 
 PCOD8223941
Probable space group: P C C A
;
_chemical_formula_sum "Si O2"
_cell_formula_units_Z 60
_cell_length_a 23.972714
_cell_length_b 8.602363
_cell_length_c 14.575901
_cell_angle_alpha 90.000000
_cell_angle_beta 90.000000
_cell_angle_gamma 90.000000
_cell_volume 3005.871280
_symmetry_space_group_name_H-M "P C C A"
_symmetry_group_IT_number 54
_symmetry_cell_setting 'orthorhombic'
loop_
_space_group_symop_operation_xyz
x,y,z
1/2-x,-y,z
1/2+x,-y,1/2-z
-x,y,1/2-z
-x,-y,-z
1/2+x,y,-z
1/2-x,y,1/2+z
x,-y,1/2+z
loop_
_atom_site_type_symbol
_atom_site_label
_atom_site_fract_x
_atom_site_fract_y
_atom_site_fract_z
Si Si1 0.493479 0.176695 0.536622
Si Si2 0.427959 0.335490 0.387551
Si Si3 0.500000 0.148322 0.250000
Si Si4 0.096371 0.688999 0.871189
Si Si5 0.808369 0.922876 0.340947
Si Si6 0.815951 0.157803 0.634134
Si Si7 0.415058 0.893750 0.191496
Si Si8 0.698842 0.822838 0.048745
O O1 0.465278 0.309318 0.476241
O O2 0.556079 0.225092 0.558124
O O3 0.453268 0.199896 0.622644
O O4 0.500000 0.000000 0.500000
O O5 0.467557 0.258610 0.315511
O O6 0.420936 0.512311 0.357110
O O7 0.368221 0.254462 0.402281
O O8 0.450555 0.047299 0.209055
O O9 0.096224 0.782465 0.776644
O O10 0.157382 0.688865 0.917419
O O11 0.817759 0.825985 0.246013
O O12 0.803596 0.828532 0.437136
O O13 0.750000 0.000000 0.322254
O O14 0.856343 0.052633 0.352036
O O15 0.759955 0.224194 0.586332
O O16 0.821817 0.981061 0.598450
#
# Coordination Sequence:
#
# PCOD8223941 Si02
#       8
#     8   8   4   8   8   8   8   8
#     4  12  23  42  68  95 129 173 230 273 324 407
#     4  12  27  41  65  98 141 176 218 279 353 400
#     4  12  22  42  68  96 126 180 222 274 322 406
#     4  12  25  44  62  98 138 179 212 284 348 401
#     4  12  21  38  70 103 120 163 231 287 318 383
#     4  11  21  43  66  98 131 172 227 279 331 390
#     4  12  22  41  69  93 129 175 230 271 333 393
#     4  11  23  41  71  94 131 172 231 277 327 394
#
# _framework density 19.960936
#
# number of rings (size 3 to 8) (size 9 to 14) (size 15 to 20)
#    0.000    0.267    8.000    2.800    1.867    0.533 
#    2.400    0.000    0.000    1.600    0.000    0.000 
#    0.000    0.000    0.000    0.000    0.000    0.000 
#
# Total GULP energy -743404.491351 kJ/mol
# GULP energy per Si atom -12390.074856 kJ/mol
# Density = 1.991550 g / cm^3
# Si number density = 19.960936 Si / 1000 Ang^3
#
#
#
# Elastic Constant Matrix: (Units=GPa)
#
#
# Indices 1 2 3 4 5 6 
#
# 1 119.0388 25.7035 23.8320 0.0000 0.0000 0.0000
# 2 25.7035 62.2447 13.4308 0.0000 0.0000 0.0000
# 3 23.8320 13.4308 127.3818 0.0000 0.0000 0.0000
# 4 0.0000 0.0000 0.0000 20.8328 0.0000 0.0000
# 5 0.0000 0.0000 0.0000 0.0000 -259.0345 0.0000
# 6 0.0000 0.0000 0.0000 0.0000 0.0000 28.0093
#
#
#
# Elastic Compliance Matrix: (Units=1/GPa)
#
#
# Indices 1 2 3 4 5 6 
#
# 1 0.009457 -0.003606 -0.001389 0.000000 0.000000 0.000000
# 2 -0.003606 0.017814 -0.001204 0.000000 0.000000 0.000000
# 3 -0.001389 -0.001204 0.008237 0.000000 0.000000 0.000000
# 4 0.000000 0.000000 0.000000 0.048001 0.000000 0.000000
# 5 0.000000 0.000000 0.000000 0.000000 -0.003860 0.000000
# 6 0.000000 0.000000 0.000000 0.000000 0.000000 0.035702
#
#
# Mechanical properties :
#
#
# Convention : Reuss Voigt Hill
#
# Bulk Modulus (GPa) = 43.26796 48.28865 45.77830
# Shear Modulus (GPa) = 36.91324 -25.65854 5.62735
#
# Velocity S-wave (km/s) = 4.30498 -3.58919 1.68086
# Velocity P-wave (km/s) = 6.81424 2.65852 5.17212
#
# Compressibility (1/GPa) = 0.02311179
#
# Stress axis : x y z
#
# Youngs Moduli (GPa) = 105.73870 56.13486 121.39987
#
# Poissons Ratio (x) = 0.20240 0.16865
# Poissons Ratio (y) = 0.38125 0.14613
# Poissons Ratio (z) = 0.14689 0.06757
#
# Static dielectric constant tensor:
#      x y z
#    x 4.043220 0.000000 0.000000 
#    y 0.000000 3.353080 0.000000 
#    z 0.000000 0.000000 3.769360 
# 
# 
# High freq. dielectric constant tensor:
#      x y z
#    x 1.809700 0.000000 0.000000 
#    y 0.000000 1.742110 0.000000 
#    z 0.000000 0.000000 1.795410 
# 
# From -- ./inp_files/14969.got.cif
#   From: 2010.03.12/outbox.cif.g09.slc.cpg/sg54_8_cif.got.tgz:14969.got - 2010.04.16 15:00:50.
