data_PCOD8223639
_publ_section_title
;
Structure prediction by ZEFSAII (Michael W. Deem and Ramdas Pophale) SiO2 
 PCOD8223639
Probable space group: P C C A
;
_chemical_formula_sum "Si O2"
_cell_formula_units_Z 40
_cell_length_a 9.214920
_cell_length_b 8.278855
_cell_length_c 23.790461
_cell_angle_alpha 90.000000
_cell_angle_beta 90.000000
_cell_angle_gamma 90.000000
_cell_volume 1814.950158
_symmetry_space_group_name_H-M "P C C A"
_symmetry_group_IT_number 54
_symmetry_cell_setting 'orthorhombic'
loop_
_space_group_symop_operation_xyz
x,y,z
1/2-x,-y,z
1/2+x,-y,1/2-z
-x,y,1/2-z
-x,-y,-z
1/2+x,y,-z
1/2-x,y,1/2+z
x,-y,1/2+z
loop_
_atom_site_type_symbol
_atom_site_label
_atom_site_fract_x
_atom_site_fract_y
_atom_site_fract_z
Si Si1 0.807707 0.320594 0.943705
Si Si2 0.932034 0.801162 0.328366
Si Si3 0.484426 0.175615 0.526111
Si Si4 0.108385 0.897048 0.856700
Si Si5 0.785531 0.683042 0.220570
O O1 0.750000 0.500000 0.937062
O O2 0.848881 0.253066 0.883321
O O3 0.685562 0.207794 0.970492
O O4 0.944659 0.309874 0.985410
O O5 0.821199 0.785437 0.276445
O O6 0.073358 0.687570 0.319831
O O7 0.981104 0.987848 0.333089
O O8 0.555908 0.192624 0.587349
O O9 0.500000 0.000000 0.500000
O O10 0.146782 0.762900 0.809908
O O11 0.250000 0.000000 0.872106
O O12 0.750000 0.500000 0.236762
#
# Coordination Sequence:
#
# PCOD8223639 Si02
#       5
#     8   8   8   8   8
#     4  12  27  45  72 104 143 186 238 299 360 426
#     4  10  23  47  66 103 141 185 239 291 361 433
#     4  12  25  46  71 103 141 186 239 294 355 423
#     4  10  22  44  70 100 137 187 235 292 354 430
#     4  10  23  45  71 100 143 184 238 301 356 420
#
# _framework density 22.039173000000002
#
# number of rings (size 3 to 8) (size 9 to 14) (size 15 to 20)
#    0.000    1.200    2.000    3.000    5.600    0.800 
#   21.600    0.000    0.000    0.000    0.000    0.000 
#    0.000    0.000    0.000    0.000    0.000    0.000 
#
# Total GULP energy -496223.116910 kJ/mol
# GULP energy per Si atom -12405.577923 kJ/mol
# Density = 2.198901 g / cm^3
# Si number density = 22.039173 Si / 1000 Ang^3
#
#
#
# Elastic Constant Matrix: (Units=GPa)
#
#
# Indices 1 2 3 4 5 6 
#
# 1 87.7354 42.6706 67.2914 0.0000 0.0000 0.0000
# 2 42.6706 106.7142 50.0676 0.0000 0.0000 0.0000
# 3 67.2914 50.0676 151.3831 0.0000 0.0000 0.0000
# 4 0.0000 0.0000 0.0000 16.3467 0.0000 0.0000
# 5 0.0000 0.0000 0.0000 0.0000 51.3752 0.0000
# 6 0.0000 0.0000 0.0000 0.0000 0.0000 38.0424
#
#
#
# Elastic Compliance Matrix: (Units=1/GPa)
#
#
# Indices 1 2 3 4 5 6 
#
# 1 0.018797 -0.004256 -0.006948 0.000000 0.000000 0.000000
# 2 -0.004256 0.012056 -0.002095 0.000000 0.000000 0.000000
# 3 -0.006948 -0.002095 0.010387 0.000000 0.000000 0.000000
# 4 0.000000 0.000000 0.000000 0.061174 0.000000 0.000000
# 5 0.000000 0.000000 0.000000 0.000000 0.019465 0.000000
# 6 0.000000 0.000000 0.000000 0.000000 0.000000 0.026286
#
#
# Mechanical properties :
#
#
# Convention : Reuss Voigt Hill
#
# Bulk Modulus (GPa) = 68.30121 73.98799 71.14460
# Shear Modulus (GPa) = 27.83285 33.53974 30.68629
#
# Velocity S-wave (km/s) = 3.55756 3.90529 3.73547
# Velocity P-wave (km/s) = 6.92337 7.34704 7.13835
#
# Compressibility (1/GPa) = 0.01464103
#
# Stress axis : x y z
#
# Youngs Moduli (GPa) = 53.20084 82.94746 96.27412
#
# Poissons Ratio (x) = 0.35306 0.66887
# Poissons Ratio (y) = 0.22644 0.20172
# Poissons Ratio (z) = 0.36962 0.17380
#
# Static dielectric constant tensor:
#      x y z
#    x 4.249190 0.000000 0.000000 
#    y 0.000000 3.879940 0.000000 
#    z 0.000000 0.000000 4.088170 
# 
# 
# High freq. dielectric constant tensor:
#      x y z
#    x 1.875440 0.000000 0.000000 
#    y 0.000000 1.859150 0.000000 
#    z 0.000000 0.000000 1.879240 
# 
# From -- ./inp_files/23235.got.cif
#   From: 2010.03.12/outbox.cif.g09.slc.cpg/sg54_12_cif.got.tgz:23235.got - 2010.04.16 15:00:50.
