data_PCOD8223136
_publ_section_title
;
Structure prediction by ZEFSAII (Michael W. Deem and Ramdas Pophale) SiO2 
 PCOD8223136
Probable space group: P C C A
;
_chemical_formula_sum "Si O2"
_cell_formula_units_Z 48
_cell_length_a 5.141057
_cell_length_b 26.974157
_cell_length_c 17.032402
_cell_angle_alpha 90.000000
_cell_angle_beta 90.000000
_cell_angle_gamma 90.000000
_cell_volume 2361.979907
_symmetry_space_group_name_H-M "P C C A"
_symmetry_group_IT_number 54
_symmetry_cell_setting 'orthorhombic'
loop_
_space_group_symop_operation_xyz
x,y,z
1/2-x,-y,z
1/2+x,-y,1/2-z
-x,y,1/2-z
-x,-y,-z
1/2+x,y,-z
1/2-x,y,1/2+z
x,-y,1/2+z
loop_
_atom_site_type_symbol
_atom_site_label
_atom_site_fract_x
_atom_site_fract_y
_atom_site_fract_z
Si Si1 0.257799 0.803875 0.299873
Si Si2 0.917324 0.054339 0.532426
Si Si3 0.250259 0.442459 0.300150
Si Si4 0.212463 0.737841 0.950387
Si Si5 0.754884 0.917963 0.699623
Si Si6 0.708827 0.624456 0.049691
O O1 0.500000 0.783372 0.250000
O O2 0.227833 0.773069 0.378314
O O3 0.305741 0.860994 0.322956
O O4 0.000000 0.796859 0.250000
O O5 0.698265 0.081652 0.476380
O O6 0.796972 0.051827 0.619559
O O7 0.000000 0.000000 0.500000
O O8 0.250000 0.500000 0.323736
O O9 0.500000 0.428100 0.250000
O O10 0.259814 0.411274 0.378549
O O11 0.000000 0.427751 0.250000
O O12 0.234613 0.681126 0.921623
O O13 0.426262 0.749107 0.016860
O O14 0.500000 0.924808 0.750000
O O15 0.000000 0.939195 0.750000
O O16 0.423505 0.613182 0.016379
#
# Coordination Sequence:
#
# PCOD8223136 Si02
#       6
#     8   8   8   8   8   8
#     4  10  21  36  56  83 112 145 187 227 270 328
#     4  10  21  38  58  84 113 143 183 226 266 319
#     4  10  21  36  54  78 106 138 181 230 280 335
#     4  10  21  36  54  80 112 145 183 228 277 329
#     4  10  21  38  59  84 115 150 186 228 276 325
#     4  10  21  36  54  78 108 142 182 226 276 335
#
# _framework density 20.321935
#
# number of rings (size 3 to 8) (size 9 to 14) (size 15 to 20)
#    0.000    2.000    0.000    3.000    0.000    3.333 
#    0.000    6.667    0.000    0.000    0.000    0.000 
#    0.000    0.000    0.000    0.000    0.000    0.000 
#
# Total GULP energy -595074.220668 kJ/mol
# GULP energy per Si atom -12397.379597 kJ/mol
# Density = 2.027568 g / cm^3
# Si number density = 20.321935 Si / 1000 Ang^3
#
#
#
# Elastic Constant Matrix: (Units=GPa)
#
#
# Indices 1 2 3 4 5 6 
#
# 1 153.2107 21.1429 39.0644 0.0000 0.0000 0.0000
# 2 21.1429 65.2066 56.5079 0.0000 0.0000 0.0000
# 3 39.0644 56.5079 124.4917 0.0000 0.0000 0.0000
# 4 0.0000 0.0000 0.0000 33.8570 0.0000 0.0000
# 5 0.0000 0.0000 0.0000 0.0000 25.9405 0.0000
# 6 0.0000 0.0000 0.0000 0.0000 0.0000 13.8932
#
#
#
# Elastic Compliance Matrix: (Units=1/GPa)
#
#
# Indices 1 2 3 4 5 6 
#
# 1 0.007109 -0.000613 -0.001953 0.000000 0.000000 0.000000
# 2 -0.000613 0.025333 -0.011306 0.000000 0.000000 0.000000
# 3 -0.001953 -0.011306 0.013777 0.000000 0.000000 0.000000
# 4 0.000000 0.000000 0.000000 0.029536 0.000000 0.000000
# 5 0.000000 0.000000 0.000000 0.000000 0.038550 0.000000
# 6 0.000000 0.000000 0.000000 0.000000 0.000000 0.071978
#
#
# Mechanical properties :
#
#
# Convention : Reuss Voigt Hill
#
# Bulk Modulus (GPa) = 54.12573 64.03772 59.08173
# Shear Modulus (GPa) = 22.70811 29.81771 26.26291
#
# Velocity S-wave (km/s) = 3.34641 3.83465 3.59882
# Velocity P-wave (km/s) = 6.45161 7.15444 6.81210
#
# Compressibility (1/GPa) = 0.01847550
#
# Stress axis : x y z
#
# Youngs Moduli (GPa) = 140.65848 39.47455 72.58237
#
# Poissons Ratio (x) = 0.02420 0.14172
# Poissons Ratio (y) = 0.08623 0.82065
# Poissons Ratio (z) = 0.27465 0.44632
#
# Static dielectric constant tensor:
#      x y z
#    x -0.905980 0.000000 0.000000 
#    y 0.000000 3.304570 0.000000 
#    z 0.000000 0.000000 3.775240 
# 
# 
# High freq. dielectric constant tensor:
#      x y z
#    x 1.828730 0.000000 0.000000 
#    y 0.000000 1.776350 0.000000 
#    z 0.000000 0.000000 1.792270 
# 
# From -- ./inp_files/10923.got.cif
#   From: 2010.03.12/outbox.cif.g09.slc.cpg/sg54_6_cif.got.tgz:10923.got - 2010.04.16 15:00:50.
