data_PCOD8223563
_publ_section_title
;
Structure prediction by ZEFSAII (Michael W. Deem and Ramdas Pophale) SiO2 
 PCOD8223563
Probable space group: P C C A
;
_chemical_formula_sum "Si O2"
_cell_formula_units_Z 60
_cell_length_a 24.889095
_cell_length_b 6.712335
_cell_length_c 16.380997
_cell_angle_alpha 90.000000
_cell_angle_beta 90.000000
_cell_angle_gamma 90.000000
_cell_volume 2736.673957
_symmetry_space_group_name_H-M "P C C A"
_symmetry_group_IT_number 54
_symmetry_cell_setting 'orthorhombic'
loop_
_space_group_symop_operation_xyz
x,y,z
1/2-x,-y,z
1/2+x,-y,1/2-z
-x,y,1/2-z
-x,-y,-z
1/2+x,y,-z
1/2-x,y,1/2+z
x,-y,1/2+z
loop_
_atom_site_type_symbol
_atom_site_label
_atom_site_fract_x
_atom_site_fract_y
_atom_site_fract_z
Si Si1 0.939549 0.848715 0.382668
Si Si2 0.639969 0.088444 0.619279
Si Si3 0.557540 0.457011 0.245736
Si Si4 0.442923 0.758538 0.920029
Si Si5 0.290025 0.338045 0.578014
Si Si6 0.250000 0.000000 0.465198
Si Si7 0.374990 0.815409 0.197545
Si Si8 0.116628 0.569762 0.995026
O O1 0.948621 0.742000 0.297670
O O2 0.896368 0.733015 0.436694
O O3 0.997518 0.851989 0.427718
O O4 0.916528 0.067215 0.361562
O O5 0.699157 0.024080 0.593516
O O6 0.635197 0.070168 0.717397
O O7 0.626327 0.312990 0.590271
O O8 0.597557 0.943141 0.575236
O O9 0.500000 0.571902 0.250000
O O10 0.571144 0.379602 0.156739
O O11 0.602564 0.597270 0.283437
O O12 0.430768 0.597949 0.991831
O O13 0.250000 0.500000 0.618596
O O14 0.319263 0.215057 0.649798
O O15 0.330040 0.452787 0.518177
O O16 0.254964 0.191063 0.522760
#
# Coordination Sequence:
#
# PCOD8223563 Si02
#       8
#     8   8   8   8   8   4   8   8
#     4  11  25  42  71 106 145 184 233 283 353 435
#     4  12  26  44  72 103 140 183 241 299 355 423
#     4  10  22  41  69  98 142 188 225 279 347 427
#     4  11  24  44  71 105 144 189 230 284 355 433
#     4  12  27  49  74  95 138 189 241 301 359 422
#     4  12  26  50  72 100 132 184 238 312 366 402
#     4  12  26  45  70 108 141 185 238 293 356 431
#     4  12  24  46  70 104 141 185 236 295 357 422
#
# _framework density 21.924424999999999
#
# number of rings (size 3 to 8) (size 9 to 14) (size 15 to 20)
#    0.000    0.533    6.667    1.200    1.867    1.067 
#    4.800    0.000    0.000    0.000    0.000    0.000 
#    0.000    0.000    0.000    0.000    0.000    0.000 
#
# Total GULP energy -744032.418470 kJ/mol
# GULP energy per Si atom -12400.540308 kJ/mol
# Density = 2.187452 g / cm^3
# Si number density = 21.924425 Si / 1000 Ang^3
#
#
#
# Elastic Constant Matrix: (Units=GPa)
#
#
# Indices 1 2 3 4 5 6 
#
# 1 99.4313 34.7283 7.4540 0.0000 0.0000 0.0000
# 2 34.7283 95.0158 25.8975 0.0000 0.0000 0.0000
# 3 7.4540 25.8975 55.9471 0.0000 0.0000 0.0000
# 4 0.0000 0.0000 0.0000 33.4599 0.0000 0.0000
# 5 0.0000 0.0000 0.0000 0.0000 33.6298 0.0000
# 6 0.0000 0.0000 0.0000 0.0000 0.0000 50.1001
#
#
#
# Elastic Compliance Matrix: (Units=1/GPa)
#
#
# Indices 1 2 3 4 5 6 
#
# 1 0.011540 -0.004347 0.000475 0.000000 0.000000 0.000000
# 2 -0.004347 0.013682 -0.005754 0.000000 0.000000 0.000000
# 3 0.000475 -0.005754 0.020474 0.000000 0.000000 0.000000
# 4 0.000000 0.000000 0.000000 0.029886 0.000000 0.000000
# 5 0.000000 0.000000 0.000000 0.000000 0.029735 0.000000
# 6 0.000000 0.000000 0.000000 0.000000 0.000000 0.019960
#
#
# Mechanical properties :
#
#
# Convention : Reuss Voigt Hill
#
# Bulk Modulus (GPa) = 37.81704 42.95042 40.38373
# Shear Modulus (GPa) = 32.60613 35.59227 34.09920
#
# Velocity S-wave (km/s) = 3.86061 4.03352 3.94802
# Velocity P-wave (km/s) = 6.09580 6.42847 6.26434
#
# Compressibility (1/GPa) = 0.02644310
#
# Stress axis : x y z
#
# Youngs Moduli (GPa) = 86.65529 73.08970 48.84180
#
# Poissons Ratio (x) = 0.31774 -0.02319
# Poissons Ratio (y) = 0.37672 0.28104
# Poissons Ratio (z) = -0.04115 0.42056
#
# Static dielectric constant tensor:
#      x y z
#    x 4.410300 0.000000 0.000000 
#    y 0.000000 4.072000 0.000000 
#    z 0.000000 0.000000 3.901900 
# 
# 
# High freq. dielectric constant tensor:
#      x y z
#    x 1.862440 0.000000 0.000000 
#    y 0.000000 1.873480 0.000000 
#    z 0.000000 0.000000 1.863850 
# 
# From -- ./inp_files/19244.got.cif
#   From: 2010.03.12/outbox.cif.g09.slc.cpg/sg54_10_cif.got.tgz:19244.got - 2010.04.16 15:00:50.
