data_PCOD8223123
_publ_section_title
;
Structure prediction by ZEFSAII (Michael W. Deem and Ramdas Pophale) SiO2 
 PCOD8223123
Probable space group: P C C A
;
_chemical_formula_sum "Si O2"
_cell_formula_units_Z 48
_cell_length_a 5.092389
_cell_length_b 28.353542
_cell_length_c 17.381380
_cell_angle_alpha 90.000000
_cell_angle_beta 90.000000
_cell_angle_gamma 90.000000
_cell_volume 2509.649927
_symmetry_space_group_name_H-M "P C C A"
_symmetry_group_IT_number 54
_symmetry_cell_setting 'orthorhombic'
loop_
_space_group_symop_operation_xyz
x,y,z
1/2-x,-y,z
1/2+x,-y,1/2-z
-x,y,1/2-z
-x,-y,-z
1/2+x,y,-z
1/2-x,y,1/2+z
x,-y,1/2+z
loop_
_atom_site_type_symbol
_atom_site_label
_atom_site_fract_x
_atom_site_fract_y
_atom_site_fract_z
Si Si1 0.121037 0.109752 0.047207
Si Si2 0.868835 0.219167 0.451682
Si Si3 0.497810 0.970237 0.159792
Si Si4 0.230116 0.554314 0.049419
Si Si5 0.743190 0.723293 0.800190
Si Si6 0.741746 0.615379 0.800010
O O1 0.121763 0.164327 0.070544
O O2 0.025809 0.080675 0.120972
O O3 0.415790 0.097328 0.020853
O O4 0.657690 0.232428 0.517749
O O5 0.785320 0.247158 0.376649
O O6 0.500000 0.960587 0.250000
O O7 0.250000 0.000000 0.132789
O O8 0.750000 0.000000 0.132854
O O9 0.250000 0.500000 0.074819
O O10 0.278592 0.585635 0.123528
O O11 0.446688 0.566393 0.985292
O O12 0.500000 0.743258 0.750000
O O13 0.687397 0.669353 0.824072
O O14 0.000000 0.727888 0.750000
O O15 0.500000 0.595486 0.750000
O O16 0.000000 0.610053 0.750000
#
# Coordination Sequence:
#
# PCOD8223123 Si02
#       6
#     8   8   8   8   8   8
#     4  10  21  36  54  78 105 134 172 213 254 306
#     4  10  21  37  56  80 109 140 177 220 265 317
#     4  10  21  36  53  76 105 135 170 211 254 304
#     4  10  21  36  54  79 110 143 182 226 272 326
#     4  10  21  37  56  81 110 141 181 225 270 323
#     4  10  21  36  55  80 109 141 181 226 270 323
#
# _framework density 19.126173999999999
#
# number of rings (size 3 to 8) (size 9 to 14) (size 15 to 20)
#    0.000    2.000    0.000    3.000    0.000    4.667 
#    0.000    2.500    0.000    0.000    0.000    0.000 
#    0.000    0.000    0.000    0.000    0.000    0.000 
#
# Total GULP energy -595297.008374 kJ/mol
# GULP energy per Si atom -12402.021008 kJ/mol
# Density = 1.908264 g / cm^3
# Si number density = 19.126174 Si / 1000 Ang^3
#
#
#
# Elastic Constant Matrix: (Units=GPa)
#
#
# Indices 1 2 3 4 5 6 
#
# 1 115.3330 34.6820 23.2683 0.0000 0.0000 0.0000
# 2 34.6820 87.1246 70.0484 0.0000 0.0000 0.0000
# 3 23.2683 70.0484 93.6726 0.0000 0.0000 0.0000
# 4 0.0000 0.0000 0.0000 -55.7323 0.0000 0.0000
# 5 0.0000 0.0000 0.0000 0.0000 12.5081 0.0000
# 6 0.0000 0.0000 0.0000 0.0000 0.0000 29.3121
#
#
#
# Elastic Compliance Matrix: (Units=1/GPa)
#
#
# Indices 1 2 3 4 5 6 
#
# 1 0.009905 -0.004927 0.001224 0.000000 0.000000 0.000000
# 2 -0.004927 0.031234 -0.022133 0.000000 0.000000 0.000000
# 3 0.001224 -0.022133 0.026923 0.000000 0.000000 0.000000
# 4 0.000000 0.000000 0.000000 -0.017943 0.000000 0.000000
# 5 0.000000 0.000000 0.000000 0.000000 0.079948 0.000000
# 6 0.000000 0.000000 0.000000 0.000000 0.000000 0.034116
#
#
# Mechanical properties :
#
#
# Convention : Reuss Voigt Hill
#
# Bulk Modulus (GPa) = 61.01395 61.34751 61.18073
# Shear Modulus (GPa) = 22.59186 8.42634 15.50910
#
# Velocity S-wave (km/s) = 3.44059 2.10124 2.85069
# Velocity P-wave (km/s) = 6.91039 6.16699 6.54925
#
# Compressibility (1/GPa) = 0.01638969
#
# Stress axis : x y z
#
# Youngs Moduli (GPa) = 100.95660 32.01618 37.14361
#
# Poissons Ratio (x) = 0.15775 -0.04547
# Poissons Ratio (y) = 0.49743 0.82210
# Poissons Ratio (z) = -0.12358 0.70862
#
# Static dielectric constant tensor:
#      x y z
#    x 3.816610 0.000000 0.000000 
#    y 0.000000 3.547310 0.000000 
#    z 0.000000 0.000000 3.214110 
# 
# 
# High freq. dielectric constant tensor:
#      x y z
#    x 1.769200 0.000000 0.000000 
#    y 0.000000 1.739210 0.000000 
#    z 0.000000 0.000000 1.737940 
# 
# From -- ./inp_files/10920.got.cif
#   From: 2010.03.12/outbox.cif.g09.slc.cpg/sg54_6_cif.got.tgz:10920.got - 2010.04.16 15:00:50.
