data_PCOD8223604
_publ_section_title
;
Structure prediction by ZEFSAII (Michael W. Deem and Ramdas Pophale) SiO2 
 PCOD8223604
Probable space group: P C C A
;
_chemical_formula_sum "Si O2"
_cell_formula_units_Z 40
_cell_length_a 9.122533
_cell_length_b 16.878808
_cell_length_c 11.806242
_cell_angle_alpha 90.000000
_cell_angle_beta 90.000000
_cell_angle_gamma 90.000000
_cell_volume 1817.895427
_symmetry_space_group_name_H-M "P C C A"
_symmetry_group_IT_number 54
_symmetry_cell_setting 'orthorhombic'
loop_
_space_group_symop_operation_xyz
x,y,z
1/2-x,-y,z
1/2+x,-y,1/2-z
-x,y,1/2-z
-x,-y,-z
1/2+x,y,-z
1/2-x,y,1/2+z
x,-y,1/2+z
loop_
_atom_site_type_symbol
_atom_site_label
_atom_site_fract_x
_atom_site_fract_y
_atom_site_fract_z
Si Si1 0.828225 0.352194 0.542708
Si Si2 0.965604 0.726842 0.624533
Si Si3 0.452838 0.931333 0.868949
Si Si4 0.000000 0.582463 0.250000
Si Si5 0.869021 0.101478 0.080700
Si Si6 0.250000 0.500000 0.107995
O O1 0.669479 0.322043 0.576191
O O2 0.925086 0.362097 0.655617
O O3 0.815079 0.433506 0.474104
O O4 0.899144 0.287099 0.459959
O O5 0.938320 0.820262 0.633233
O O6 0.000000 0.694639 0.750000
O O7 0.500000 0.893669 0.750000
O O8 0.306237 0.890235 0.915207
O O9 0.427490 0.025317 0.851118
O O10 0.587778 0.911571 0.950362
O O11 0.120286 0.528130 0.189627
#
# Coordination Sequence:
#
# PCOD8223604 Si02
#       6
#     8   8   8   4   8   4
#     4  12  27  48  70 105 138 182 229 282 346 418
#     4  12  27  46  70 101 146 184 227 287 352 414
#     4  10  22  42  71  96 136 180 235 292 340 400
#     4  12  26  46  76 100 136 174 232 286 340 408
#     4  10  23  43  66 102 133 181 238 282 344 416
#     4  12  26  48  76 104 134 178 234 280 346 410
#
# _framework density 22.003467000000001
#
# number of rings (size 3 to 8) (size 9 to 14) (size 15 to 20)
#    0.000    0.800    2.000    4.200    4.200    9.600 
#    3.600    0.000    0.000    0.000    0.000    0.000 
#    0.000    0.000    0.000    0.000    0.000    0.000 
#
# Total GULP energy -496217.173882 kJ/mol
# GULP energy per Si atom -12405.429347 kJ/mol
# Density = 2.195339 g / cm^3
# Si number density = 22.003467 Si / 1000 Ang^3
#
#
#
# Elastic Constant Matrix: (Units=GPa)
#
#
# Indices 1 2 3 4 5 6 
#
# 1 125.6218 21.4014 71.8982 0.0000 0.0000 0.0000
# 2 21.4014 80.6666 22.5378 0.0000 0.0000 0.0000
# 3 71.8982 22.5378 152.7390 0.0000 0.0000 0.0000
# 4 0.0000 0.0000 0.0000 15.8972 0.0000 0.0000
# 5 0.0000 0.0000 0.0000 0.0000 45.2393 0.0000
# 6 0.0000 0.0000 0.0000 0.0000 0.0000 35.4588
#
#
#
# Elastic Compliance Matrix: (Units=1/GPa)
#
#
# Indices 1 2 3 4 5 6 
#
# 1 0.011078 -0.001546 -0.004986 0.000000 0.000000 0.000000
# 2 -0.001546 0.013145 -0.001212 0.000000 0.000000 0.000000
# 3 -0.004986 -0.001212 0.009073 0.000000 0.000000 0.000000
# 4 0.000000 0.000000 0.000000 0.062904 0.000000 0.000000
# 5 0.000000 0.000000 0.000000 0.000000 0.022105 0.000000
# 6 0.000000 0.000000 0.000000 0.000000 0.000000 0.028202
#
#
# Mechanical properties :
#
#
# Convention : Reuss Voigt Hill
#
# Bulk Modulus (GPa) = 56.15539 65.63357 60.89448
# Shear Modulus (GPa) = 29.77403 35.53172 32.65288
#
# Velocity S-wave (km/s) = 3.68251 4.02285 3.85644
# Velocity P-wave (km/s) = 6.60740 7.17434 6.89670
#
# Compressibility (1/GPa) = 0.01780773
#
# Stress axis : x y z
#
# Youngs Moduli (GPa) = 90.27146 76.07188 110.21447
#
# Poissons Ratio (x) = 0.11759 0.54958
# Poissons Ratio (y) = 0.13954 0.13359
# Poissons Ratio (z) = 0.45014 0.09220
#
# Static dielectric constant tensor:
#      x y z
#    x 4.150900 0.000000 0.000000 
#    y 0.000000 3.892700 0.000000 
#    z 0.000000 0.000000 4.065040 
# 
# 
# High freq. dielectric constant tensor:
#      x y z
#    x 1.879060 0.000000 0.000000 
#    y 0.000000 1.861660 0.000000 
#    z 0.000000 0.000000 1.879350 
# 
# From -- ./inp_files/6903.got.cif
#   From: 2010.03.12/outbox.cif.g09.slc.cpg/sg54_4_cif.got.tgz:6903.got - 2010.04.16 15:00:50.
