data_PCOD8223819
_publ_section_title
;
Structure prediction by ZEFSAII (Michael W. Deem and Ramdas Pophale) SiO2 
 PCOD8223819
Probable space group: P C C A
;
_chemical_formula_sum "Si O2"
_cell_formula_units_Z 28
_cell_length_a 21.126459
_cell_length_b 6.317607
_cell_length_c 9.798747
_cell_angle_alpha 90.000000
_cell_angle_beta 90.000000
_cell_angle_gamma 90.000000
_cell_volume 1307.825683
_symmetry_space_group_name_H-M "P C C A"
_symmetry_group_IT_number 54
_symmetry_cell_setting 'orthorhombic'
loop_
_space_group_symop_operation_xyz
x,y,z
1/2-x,-y,z
1/2+x,-y,1/2-z
-x,y,1/2-z
-x,-y,-z
1/2+x,y,-z
1/2-x,y,1/2+z
x,-y,1/2+z
loop_
_atom_site_type_symbol
_atom_site_label
_atom_site_fract_x
_atom_site_fract_y
_atom_site_fract_z
Si Si1 0.250000 0.000000 0.378882
Si Si2 0.846729 0.323884 0.524142
Si Si3 0.456214 0.034549 0.371910
Si Si4 0.855489 0.712018 0.715396
O O1 0.285481 0.171957 0.473466
O O2 0.198800 0.110059 0.281192
O O3 0.906407 0.215814 0.595131
O O4 0.833456 0.536568 0.607521
O O5 0.861880 0.383103 0.367299
O O6 0.500000 0.118054 0.250000
O O7 0.500000 0.000000 0.500000
O O8 0.421881 0.815403 0.330444
#
# Coordination Sequence:
#
# PCOD8223819 Si02
#       4
#     4   8   8   8
#     4  10  24  44  68  92 132 166 218 266 322 376
#     4  11  25  42  67  97 129 169 215 265 321 382
#     4  11  24  45  66  94 133 171 212 263 319 380
#     4  11  25  42  67  98 128 170 215 265 321 381
#
# _framework density 21.409579999999998
#
# number of rings (size 3 to 8) (size 9 to 14) (size 15 to 20)
#    0.000    1.143    2.857    1.714    4.000    9.143 
#    0.000    0.000    0.000    0.000    0.000    0.000 
#    0.000    0.000    0.000    0.000    0.000    0.000 
#
# Total GULP energy -347321.698332 kJ/mol
# GULP energy per Si atom -12404.346369 kJ/mol
# Density = 2.136085 g / cm^3
# Si number density = 21.409580 Si / 1000 Ang^3
#
#
#
# Elastic Constant Matrix: (Units=GPa)
#
#
# Indices 1 2 3 4 5 6 
#
# 1 123.5899 35.2600 49.8675 0.0000 0.0000 0.0000
# 2 35.2600 97.7070 52.5146 0.0000 0.0000 0.0000
# 3 49.8675 52.5146 184.2280 0.0000 0.0000 0.0000
# 4 0.0000 0.0000 0.0000 31.6996 0.0000 0.0000
# 5 0.0000 0.0000 0.0000 0.0000 27.3409 0.0000
# 6 0.0000 0.0000 0.0000 0.0000 0.0000 26.2731
#
#
#
# Elastic Compliance Matrix: (Units=1/GPa)
#
#
# Indices 1 2 3 4 5 6 
#
# 1 0.009548 -0.002429 -0.001892 0.000000 0.000000 0.000000
# 2 -0.002429 0.012704 -0.002964 0.000000 0.000000 0.000000
# 3 -0.001892 -0.002964 0.006785 0.000000 0.000000 0.000000
# 4 0.000000 0.000000 0.000000 0.031546 0.000000 0.000000
# 5 0.000000 0.000000 0.000000 0.000000 0.036575 0.000000
# 6 0.000000 0.000000 0.000000 0.000000 0.000000 0.038062
#
#
# Mechanical properties :
#
#
# Convention : Reuss Voigt Hill
#
# Bulk Modulus (GPa) = 69.12009 75.64547 72.38278
# Shear Modulus (GPa) = 32.33909 34.92158 33.63033
#
# Velocity S-wave (km/s) = 3.89073 4.04309 3.96764
# Velocity P-wave (km/s) = 7.24834 7.56338 7.40753
#
# Compressibility (1/GPa) = 0.01446757
#
# Stress axis : x y z
#
# Youngs Moduli (GPa) = 104.73859 78.71459 147.38159
#
# Poissons Ratio (x) = 0.19116 0.27886
# Poissons Ratio (y) = 0.25436 0.43684
# Poissons Ratio (z) = 0.19818 0.23331
#
# Static dielectric constant tensor:
#      x y z
#    x 4.079200 0.000000 0.000000 
#    y 0.000000 7.472260 0.000000 
#    z 0.000000 0.000000 3.725270 
# 
# 
# High freq. dielectric constant tensor:
#      x y z
#    x 1.858470 0.000000 0.000000 
#    y 0.000000 1.831270 0.000000 
#    z 0.000000 0.000000 1.845990 
# 
# From -- ./inp_files/5376.got.cif
#   From: 2010.03.12/outbox.cif.g09.slc.cpg/sg54_3_cif.got.tgz:5376.got - 2010.04.16 15:00:50.
