data_PCOD8223979
_publ_section_title
;
Structure prediction by ZEFSAII (Michael W. Deem and Ramdas Pophale) SiO2 
 PCOD8223979
Probable space group: P C C A
;
_chemical_formula_sum "Si O2"
_cell_formula_units_Z 48
_cell_length_a 8.615162
_cell_length_b 15.992179
_cell_length_c 14.896032
_cell_angle_alpha 90.000000
_cell_angle_beta 90.000000
_cell_angle_gamma 90.000000
_cell_volume 2052.303979
_symmetry_space_group_name_H-M "P C C A"
_symmetry_group_IT_number 54
_symmetry_cell_setting 'orthorhombic'
loop_
_space_group_symop_operation_xyz
x,y,z
1/2-x,-y,z
1/2+x,-y,1/2-z
-x,y,1/2-z
-x,-y,-z
1/2+x,y,-z
1/2-x,y,1/2+z
x,-y,1/2+z
loop_
_atom_site_type_symbol
_atom_site_label
_atom_site_fract_x
_atom_site_fract_y
_atom_site_fract_z
Si Si1 0.877497 0.058764 0.455427
Si Si2 0.776700 0.705075 0.443729
Si Si3 0.180402 0.755188 0.737957
Si Si4 0.325752 0.582924 0.781100
Si Si5 0.834245 0.839772 0.587394
Si Si6 0.049808 0.590065 0.464536
O O1 0.783850 0.099393 0.537644
O O2 0.986856 0.124402 0.399926
O O3 0.750000 0.000000 0.400503
O O4 0.000000 0.000000 0.500000
O O5 0.745816 0.773191 0.362939
O O6 0.841110 0.754936 0.529524
O O7 0.619648 0.652000 0.460042
O O8 0.904893 0.636499 0.417190
O O9 0.221525 0.659396 0.751946
O O10 0.244850 0.817834 0.815500
O O11 0.000000 0.765128 0.750000
O O12 0.250000 0.500000 0.738635
O O13 0.500000 0.593178 0.750000
O O14 0.319036 0.577428 0.889279
O O15 0.000000 0.500000 0.500000
#
# Coordination Sequence:
#
# PCOD8223979 Si02
#       6
#     8   8   8   8   8   8
#     4   9  20  41  75 107 135 178 217 264 336 420
#     4  12  25  43  67  98 136 183 237 294 354 410
#     4  12  26  43  66 100 141 184 236 290 354 411
#     4  12  26  44  63  91 134 184 243 302 353 412
#     4  11  22  43  71 103 140 175 224 279 345 420
#     4  12  26  43  64  94 132 188 248 304 357 410
#
# _framework density 23.388345999999999
#
# number of rings (size 3 to 8) (size 9 to 14) (size 15 to 20)
#    0.000    0.667    3.333    5.000    4.667    0.000 
#    0.000    0.000    0.000   38.000    0.000    0.000 
#    0.000    0.000    0.000    0.000    0.000    0.000 
#
# Total GULP energy -594700.265626 kJ/mol
# GULP energy per Si atom -12389.588867 kJ/mol
# Density = 2.333511 g / cm^3
# Si number density = 23.388346 Si / 1000 Ang^3
#
#
#
# Elastic Constant Matrix: (Units=GPa)
#
#
# Indices 1 2 3 4 5 6 
#
# 1 85.9154 37.5105 19.4572 0.0000 0.0000 0.0000
# 2 37.5105 94.5843 14.8643 0.0000 0.0000 0.0000
# 3 19.4572 14.8643 100.6711 0.0000 0.0000 0.0000
# 4 0.0000 0.0000 0.0000 21.3718 0.0000 0.0000
# 5 0.0000 0.0000 0.0000 0.0000 50.6532 0.0000
# 6 0.0000 0.0000 0.0000 0.0000 0.0000 57.5580
#
#
#
# Elastic Compliance Matrix: (Units=1/GPa)
#
#
# Indices 1 2 3 4 5 6 
#
# 1 0.014457 -0.005420 -0.001994 0.000000 0.000000 0.000000
# 2 -0.005420 0.012856 -0.000851 0.000000 0.000000 0.000000
# 3 -0.001994 -0.000851 0.010444 0.000000 0.000000 0.000000
# 4 0.000000 0.000000 0.000000 0.046791 0.000000 0.000000
# 5 0.000000 0.000000 0.000000 0.000000 0.019742 0.000000
# 6 0.000000 0.000000 0.000000 0.000000 0.000000 0.017374
#
#
# Mechanical properties :
#
#
# Convention : Reuss Voigt Hill
#
# Bulk Modulus (GPa) = 47.10754 47.20386 47.15570
# Shear Modulus (GPa) = 34.41879 39.87251 37.14565
#
# Velocity S-wave (km/s) = 3.84033 4.13340 3.98956
# Velocity P-wave (km/s) = 6.31264 6.55793 6.43645
#
# Compressibility (1/GPa) = 0.02122802
#
# Stress axis : x y z
#
# Youngs Moduli (GPa) = 69.16894 77.78588 95.74593
#
# Poissons Ratio (x) = 0.42161 0.19091
# Poissons Ratio (y) = 0.37491 0.08144
# Poissons Ratio (z) = 0.13792 0.06616
#
# Static dielectric constant tensor:
#      x y z
#    x 4.616430 0.000000 0.000000 
#    y 0.000000 4.822570 0.000000 
#    z 0.000000 0.000000 8.318150 
# 
# 
# High freq. dielectric constant tensor:
#      x y z
#    x 1.936380 0.000000 0.000000 
#    y 0.000000 1.933120 0.000000 
#    z 0.000000 0.000000 1.910360 
# 
# From -- ./inp_files/11733.got.cif
#   From: 2010.03.12/outbox.cif.g09.slc.cpg/sg54_6_cif.got.tgz:11733.got - 2010.04.16 15:00:50.
