data_PCOD8223809
_publ_section_title
;
Structure prediction by ZEFSAII (Michael W. Deem and Ramdas Pophale) SiO2 
 PCOD8223809
Probable space group: P C C A
;
_chemical_formula_sum "Si O2"
_cell_formula_units_Z 52
_cell_length_a 18.465450
_cell_length_b 13.354948
_cell_length_c 9.005111
_cell_angle_alpha 90.000000
_cell_angle_beta 90.000000
_cell_angle_gamma 90.000000
_cell_volume 2220.706520
_symmetry_space_group_name_H-M "P C C A"
_symmetry_group_IT_number 54
_symmetry_cell_setting 'orthorhombic'
loop_
_space_group_symop_operation_xyz
x,y,z
1/2-x,-y,z
1/2+x,-y,1/2-z
-x,y,1/2-z
-x,-y,-z
1/2+x,y,-z
1/2-x,y,1/2+z
x,-y,1/2+z
loop_
_atom_site_type_symbol
_atom_site_label
_atom_site_fract_x
_atom_site_fract_y
_atom_site_fract_z
Si Si1 0.137155 0.730646 0.221011
Si Si2 0.424300 0.878931 0.310384
Si Si3 0.000000 0.621681 0.750000
Si Si4 0.879237 0.428260 0.038872
Si Si5 0.066871 0.069420 0.641298
Si Si6 0.615597 0.345142 0.977495
Si Si7 0.802147 0.280041 0.232052
O O1 0.122177 0.839936 0.161477
O O2 0.090069 0.700098 0.366068
O O3 0.217976 0.738627 0.286387
O O4 0.118018 0.646612 0.100733
O O5 0.500000 0.828775 0.250000
O O6 0.448780 0.933186 0.464585
O O7 0.357367 0.803234 0.336908
O O8 0.397868 0.964291 0.194090
O O9 0.955508 0.558967 0.627038
O O10 0.944020 0.684096 0.851653
O O11 0.818914 0.386137 0.151464
O O12 0.862320 0.538440 0.981547
O O13 0.000000 0.091658 0.750000
O O14 0.686218 0.289741 0.910098
#
# Coordination Sequence:
#
# PCOD8223809 Si02
#       7
#     8   8   4   8   8   8   8
#     4  12  26  43  69 108 137 189 241 278 344 428
#     4  11  25  49  72 103 138 176 230 291 360 410
#     4  10  24  44  64 100 136 186 232 304 346 388
#     4  11  24  46  64 103 142 188 237 287 345 407
#     4  11  26  45  75 103 136 177 229 293 352 421
#     4  11  26  40  72  97 147 187 233 290 343 415
#     4  11  26  44  69 102 145 187 231 288 352 413
#
# _framework density 23.415970999999999
#
# number of rings (size 3 to 8) (size 9 to 14) (size 15 to 20)
#    0.000    0.923    1.538    5.077   10.769    4.308 
#    0.000    1.538    0.000    0.000    0.000    0.000 
#    0.000    0.000    0.000    0.000    0.000    0.000 
#
# Total GULP energy -644248.506440 kJ/mol
# GULP energy per Si atom -12389.394355 kJ/mol
# Density = 2.336268 g / cm^3
# Si number density = 23.415971 Si / 1000 Ang^3
#
#
#
# Elastic Constant Matrix: (Units=GPa)
#
#
# Indices 1 2 3 4 5 6 
#
# 1 72.4020 20.8580 27.7388 0.0000 0.0000 0.0000
# 2 20.8580 90.8215 13.6730 0.0000 0.0000 0.0000
# 3 27.7388 13.6730 151.5182 0.0000 0.0000 0.0000
# 4 0.0000 0.0000 0.0000 37.0986 0.0000 0.0000
# 5 0.0000 0.0000 0.0000 0.0000 25.3828 0.0000
# 6 0.0000 0.0000 0.0000 0.0000 0.0000 13.1647
#
#
#
# Elastic Compliance Matrix: (Units=1/GPa)
#
#
# Indices 1 2 3 4 5 6 
#
# 1 0.015732 -0.003223 -0.002589 0.000000 0.000000 0.000000
# 2 -0.003223 0.011823 -0.000477 0.000000 0.000000 0.000000
# 3 -0.002589 -0.000477 0.007117 0.000000 0.000000 0.000000
# 4 0.000000 0.000000 0.000000 0.026955 0.000000 0.000000
# 5 0.000000 0.000000 0.000000 0.000000 0.039397 0.000000
# 6 0.000000 0.000000 0.000000 0.000000 0.000000 0.075961
#
#
# Mechanical properties :
#
#
# Convention : Reuss Voigt Hill
#
# Bulk Modulus (GPa) = 45.26272 48.80903 47.03588
# Shear Modulus (GPa) = 25.39005 31.96070 28.67538
#
# Velocity S-wave (km/s) = 3.29645 3.69848 3.50324
# Velocity P-wave (km/s) = 5.81899 6.25523 6.04105
#
# Compressibility (1/GPa) = 0.02209324
#
# Stress axis : x y z
#
# Youngs Moduli (GPa) = 63.56322 84.58350 140.51024
#
# Poissons Ratio (x) = 0.27264 0.36382
# Poissons Ratio (y) = 0.20488 0.06699
# Poissons Ratio (z) = 0.16458 0.04033
#
# Static dielectric constant tensor:
#      x y z
#    x 4.121440 0.000000 0.000000 
#    y 0.000000 4.147860 0.000000 
#    z 0.000000 0.000000 4.720560 
# 
# 
# High freq. dielectric constant tensor:
#      x y z
#    x 1.906350 0.000000 0.000000 
#    y 0.000000 1.922180 0.000000 
#    z 0.000000 0.000000 1.959880 
# 
# From -- ./inp_files/4761.got.cif
#   From: 2010.03.12/outbox.cif.g09.slc.cpg/sg54_3_cif.got.tgz:4761.got - 2010.04.16 15:00:50.
