data_PCOD8223494
_publ_section_title
;
Structure prediction by ZEFSAII (Michael W. Deem and Ramdas Pophale) SiO2 
 PCOD8223494
Probable space group: P C C A
;
_chemical_formula_sum "Si O2"
_cell_formula_units_Z 44
_cell_length_a 8.731603
_cell_length_b 11.963221
_cell_length_c 20.704300
_cell_angle_alpha 90.000000
_cell_angle_beta 90.000000
_cell_angle_gamma 90.000000
_cell_volume 2162.731765
_symmetry_space_group_name_H-M "P C C A"
_symmetry_group_IT_number 54
_symmetry_cell_setting 'orthorhombic'
loop_
_space_group_symop_operation_xyz
x,y,z
1/2-x,-y,z
1/2+x,-y,1/2-z
-x,y,1/2-z
-x,-y,-z
1/2+x,y,-z
1/2-x,y,1/2+z
x,-y,1/2+z
loop_
_atom_site_type_symbol
_atom_site_label
_atom_site_fract_x
_atom_site_fract_y
_atom_site_fract_z
Si Si1 0.792102 0.125596 0.924868
Si Si2 0.745339 0.347119 0.716039
Si Si3 0.331374 0.883523 0.724980
Si Si4 0.000000 0.500750 0.250000
Si Si5 0.296246 0.624836 0.426930
Si Si6 0.544978 0.750330 0.500591
O O1 0.830645 0.144860 0.850300
O O2 0.645654 0.200174 0.942535
O O3 0.750000 0.000000 0.941148
O O4 0.939374 0.154932 0.967718
O O5 0.753743 0.219204 0.737367
O O6 0.640393 0.416065 0.769022
O O7 0.657915 0.354919 0.647692
O O8 0.911543 0.408801 0.703723
O O9 0.500000 0.899237 0.750000
O O10 0.250000 0.000000 0.741332
O O11 0.250000 0.500000 0.443180
O O12 0.442628 0.651905 0.470762
O O13 0.153002 0.704019 0.443038
#
# Coordination Sequence:
#
# PCOD8223494 Si02
#       6
#     8   8   8   4   8   8
#     4  10  22  41  64  88 120 156 204 248 299 357
#     4  11  23  40  64  91 126 158 209 248 316 362
#     4  11  25  41  62  93 127 162 202 255 308 370
#     4  10  22  40  62  90 118 166 200 256 300 380
#     4  11  22  41  60  89 123 158 202 249 301 364
#     4  10  23  39  62  88 119 162 199 250 295 358
#
# _framework density 20.344642
#
# number of rings (size 3 to 8) (size 9 to 14) (size 15 to 20)
#    0.000    1.455    2.727    2.182    3.818    1.455 
#    0.000    4.545    0.000    0.000    0.000    0.000 
#    0.000    0.000    0.000    0.000    0.000    0.000 
#
# Total GULP energy -545099.417324 kJ/mol
# GULP energy per Si atom -12388.623121 kJ/mol
# Density = 2.029834 g / cm^3
# Si number density = 20.344642 Si / 1000 Ang^3
#
#
#
# Elastic Constant Matrix: (Units=GPa)
#
#
# Indices 1 2 3 4 5 6 
#
# 1 112.0311 52.3093 39.8111 0.0000 0.0000 0.0000
# 2 52.3093 142.6943 47.9420 0.0000 0.0000 0.0000
# 3 39.8111 47.9420 79.2913 0.0000 0.0000 0.0000
# 4 0.0000 0.0000 0.0000 28.2734 0.0000 0.0000
# 5 0.0000 0.0000 0.0000 0.0000 41.4216 0.0000
# 6 0.0000 0.0000 0.0000 0.0000 0.0000 -10.6074
#
#
#
# Elastic Compliance Matrix: (Units=1/GPa)
#
#
# Indices 1 2 3 4 5 6 
#
# 1 0.011761 -0.002921 -0.004139 0.000000 0.000000 0.000000
# 2 -0.002921 0.009520 -0.004290 0.000000 0.000000 0.000000
# 3 -0.004139 -0.004290 0.017283 0.000000 0.000000 0.000000
# 4 0.000000 0.000000 0.000000 0.035369 0.000000 0.000000
# 5 0.000000 0.000000 0.000000 0.000000 0.024142 0.000000
# 6 0.000000 0.000000 0.000000 0.000000 0.000000 -0.094274
#
#
# Mechanical properties :
#
#
# Convention : Reuss Voigt Hill
#
# Bulk Modulus (GPa) = 63.02952 68.23792 65.63372
# Shear Modulus (GPa) = 157.29540 24.74782 91.02161
#
# Velocity S-wave (km/s) = 8.80246 3.49152 6.69604
# Velocity P-wave (km/s) = 11.59134 7.06173 9.59758
#
# Compressibility (1/GPa) = 0.01586558
#
# Stress axis : x y z
#
# Youngs Moduli (GPa) = 85.02971 105.04371 57.85891
#
# Poissons Ratio (x) = 0.30680 0.23947
# Poissons Ratio (y) = 0.24834 0.24819
# Poissons Ratio (z) = 0.35193 0.45059
#
# Static dielectric constant tensor:
#      x y z
#    x 3.889880 0.000000 0.000000 
#    y 0.000000 3.979340 0.000000 
#    z 0.000000 0.000000 3.506080 
# 
# 
# High freq. dielectric constant tensor:
#      x y z
#    x 1.808860 0.000000 0.000000 
#    y 0.000000 1.814210 0.000000 
#    z 0.000000 0.000000 1.773740 
# 
# From -- ./inp_files/23412.got.cif
#   From: 2010.03.12/outbox.cif.g09.slc.cpg/sg54_12_cif.got.tgz:23412.got - 2010.04.16 15:00:50.
