data_PCOD8223749
_publ_section_title
;
Structure prediction by ZEFSAII (Michael W. Deem and Ramdas Pophale) SiO2 
 PCOD8223749
Probable space group: P C C A
;
_chemical_formula_sum "Si O2"
_cell_formula_units_Z 56
_cell_length_a 9.114973
_cell_length_b 21.112956
_cell_length_c 13.132914
_cell_angle_alpha 90.000000
_cell_angle_beta 90.000000
_cell_angle_gamma 90.000000
_cell_volume 2527.350816
_symmetry_space_group_name_H-M "P C C A"
_symmetry_group_IT_number 54
_symmetry_cell_setting 'orthorhombic'
loop_
_space_group_symop_operation_xyz
x,y,z
1/2-x,-y,z
1/2+x,-y,1/2-z
-x,y,1/2-z
-x,-y,-z
1/2+x,y,-z
1/2-x,y,1/2+z
x,-y,1/2+z
loop_
_atom_site_type_symbol
_atom_site_label
_atom_site_fract_x
_atom_site_fract_y
_atom_site_fract_z
Si Si1 0.376454 0.876361 0.449403
Si Si2 0.550382 0.338312 0.443924
Si Si3 0.659536 0.440652 0.291529
Si Si4 0.905782 0.199885 0.852489
Si Si5 0.630354 0.956814 0.455811
Si Si6 0.661804 0.224627 0.719182
Si Si7 0.759380 0.350925 0.129291
O O1 0.428441 0.853735 0.562122
O O2 0.527157 0.905529 0.397523
O O3 0.237337 0.924173 0.459091
O O4 0.325316 0.818557 0.380641
O O5 0.643034 0.387536 0.377214
O O6 0.570252 0.267783 0.403097
O O7 0.379955 0.355221 0.444682
O O8 0.595511 0.345943 0.561319
O O9 0.750000 0.500000 0.336300
O O10 0.500000 0.461194 0.250000
O O11 0.759940 0.412442 0.200767
O O12 0.737162 0.192094 0.816647
O O13 0.000000 0.188589 0.750000
O O14 0.750000 0.000000 0.391133
O O15 0.500000 0.000000 0.500000
O O16 0.500000 0.243598 0.750000
O O17 0.754194 0.288041 0.697537
#
# Coordination Sequence:
#
# PCOD8223749 Si02
#       7
#     8   8   8   8   8   8   8
#     4  11  22  39  66  95 127 169 224 267 327 400
#     4  11  23  41  64  92 134 173 214 273 341 389
#     4  10  23  45  66  91 130 178 224 269 328 403
#     4  12  22  39  64  92 138 171 209 277 345 390
#     4   9  20  40  67  91 125 178 216 261 326 386
#     4  12  25  37  62 101 135 168 221 274 339 404
#     4  11  24  41  63  94 132 173 214 274 336 392
#
# _framework density 22.157586999999999
#
# number of rings (size 3 to 8) (size 9 to 14) (size 15 to 20)
#    0.000    1.143    4.286    2.143    2.000    2.286 
#    0.000    2.857    0.000   60.000    0.000    0.000 
#    0.000    0.000    0.000    0.000    0.000    0.000 
#
# Total GULP energy -693828.461794 kJ/mol
# GULP energy per Si atom -12389.793961 kJ/mol
# Density = 2.210716 g / cm^3
# Si number density = 22.157587 Si / 1000 Ang^3
#
#
#
# Elastic Constant Matrix: (Units=GPa)
#
#
# Indices 1 2 3 4 5 6 
#
# 1 94.6064 35.4433 1.3891 0.0000 0.0000 0.0000
# 2 35.4433 101.6067 12.6821 0.0000 0.0000 0.0000
# 3 1.3891 12.6821 46.5069 0.0000 0.0000 0.0000
# 4 0.0000 0.0000 0.0000 -4.9583 0.0000 0.0000
# 5 0.0000 0.0000 0.0000 0.0000 38.8856 0.0000
# 6 0.0000 0.0000 0.0000 0.0000 0.0000 40.2094
#
#
#
# Elastic Compliance Matrix: (Units=1/GPa)
#
#
# Indices 1 2 3 4 5 6 
#
# 1 0.012190 -0.004355 0.000823 0.000000 0.000000 0.000000
# 2 -0.004355 0.011744 -0.003073 0.000000 0.000000 0.000000
# 3 0.000823 -0.003073 0.022315 0.000000 0.000000 0.000000
# 4 0.000000 0.000000 0.000000 -0.201683 0.000000 0.000000
# 5 0.000000 0.000000 0.000000 0.000000 0.025716 0.000000
# 6 0.000000 0.000000 0.000000 0.000000 0.000000 0.024870
#
#
# Mechanical properties :
#
#
# Convention : Reuss Voigt Hill
#
# Bulk Modulus (GPa) = 30.26492 37.97213 34.11853
# Shear Modulus (GPa) = -62.01547 27.70769 -17.15389
#
# Velocity S-wave (km/s) = -5.29614 3.54005 -2.78542
# Velocity P-wave (km/s) = 4.86932 5.82098 2.25539
#
# Compressibility (1/GPa) = 0.03304155
#
# Stress axis : x y z
#
# Youngs Moduli (GPa) = 82.03779 85.14654 44.81194
#
# Poissons Ratio (x) = 0.37080 -0.03690
# Poissons Ratio (y) = 0.35726 0.13769
# Poissons Ratio (z) = -0.06755 0.26162
#
# Static dielectric constant tensor:
#      x y z
#    x 4.389260 0.000000 0.000000 
#    y 0.000000 4.141270 0.000000 
#    z 0.000000 0.000000 2.997130 
# 
# 
# High freq. dielectric constant tensor:
#      x y z
#    x 1.893960 0.000000 0.000000 
#    y 0.000000 1.879700 0.000000 
#    z 0.000000 0.000000 1.838380 
# 
# From -- ./inp_files/11862.got.cif
#   From: 2010.03.12/outbox.cif.g09.slc.cpg/sg54_6_cif.got.tgz:11862.got - 2010.04.16 15:00:50.
