data_PCOD8223747
_publ_section_title
;
Structure prediction by ZEFSAII (Michael W. Deem and Ramdas Pophale) SiO2 
 PCOD8223747
Probable space group: P C C A
;
_chemical_formula_sum "Si O2"
_cell_formula_units_Z 64
_cell_length_a 23.088302
_cell_length_b 8.948705
_cell_length_c 15.412824
_cell_angle_alpha 90.000000
_cell_angle_beta 90.000000
_cell_angle_gamma 90.000000
_cell_volume 3184.449786
_symmetry_space_group_name_H-M "P C C A"
_symmetry_group_IT_number 54
_symmetry_cell_setting 'orthorhombic'
loop_
_space_group_symop_operation_xyz
x,y,z
1/2-x,-y,z
1/2+x,-y,1/2-z
-x,y,1/2-z
-x,-y,-z
1/2+x,y,-z
1/2-x,y,1/2+z
x,-y,1/2+z
loop_
_atom_site_type_symbol
_atom_site_label
_atom_site_fract_x
_atom_site_fract_y
_atom_site_fract_z
Si Si1 0.498538 0.306490 0.153750
Si Si2 0.815829 0.170586 0.749752
Si Si3 0.997027 0.395150 0.085686
Si Si4 0.890367 0.835003 0.084344
Si Si5 0.181892 0.172468 0.248031
Si Si6 0.886860 0.812200 0.582094
Si Si7 0.124931 0.327362 0.086695
Si Si8 0.869764 0.325834 0.909354
O O1 0.500000 0.236251 0.250000
O O2 0.514997 0.482830 0.161102
O O3 0.543959 0.222837 0.091981
O O4 0.435869 0.283547 0.111861
O O5 0.853201 0.220029 0.666689
O O6 0.748802 0.194002 0.728340
O O7 0.829489 0.274730 0.831085
O O8 0.831329 0.000096 0.772851
O O9 0.948317 0.270371 0.082956
O O10 0.056607 0.308528 0.105551
O O11 0.000000 0.500000 0.000000
O O12 0.894127 0.011574 0.075708
O O13 0.859606 0.764479 0.000090
O O14 0.147169 0.231953 0.331219
O O15 0.163245 0.266488 0.164994
O O16 0.851280 0.758743 0.497529
O O17 0.140083 0.500105 0.073451
#
# Coordination Sequence:
#
# PCOD8223747 Si02
#       8
#     8   8   8   8   8   8   8   8
#     4  11  21  37  60  91 124 166 196 252 319 375
#     4  10  23  45  63  86 121 166 212 264 315 362
#     4  11  21  40  59  91 129 166 196 249 316 381
#     4  11  22  39  65  92 126 163 210 257 312 377
#     4  10  25  43  62  88 122 163 217 261 308 369
#     4  11  23  39  62  95 125 166 207 257 309 379
#     4  11  23  40  62  94 125 163 205 253 314 378
#     4  11  22  39  65  91 127 161 204 254 319 375
#
# _framework density 20.097664999999999
#
# number of rings (size 3 to 8) (size 9 to 14) (size 15 to 20)
#    0.000    1.250    5.000    0.750    3.500    5.500 
#    0.000    2.500    0.000    0.000    0.000    0.000 
#    0.000    0.000    0.000    0.000    0.000    0.000 
#
# Total GULP energy -793701.712529 kJ/mol
# GULP energy per Si atom -12401.589258 kJ/mol
# Density = 2.005192 g / cm^3
# Si number density = 20.097665 Si / 1000 Ang^3
#
#
#
# Elastic Constant Matrix: (Units=GPa)
#
#
# Indices 1 2 3 4 5 6 
#
# 1 65.2564 28.2115 21.0264 0.0000 0.0000 0.0000
# 2 28.2115 76.6156 41.8764 0.0000 0.0000 0.0000
# 3 21.0264 41.8764 122.2717 0.0000 0.0000 0.0000
# 4 0.0000 0.0000 0.0000 35.9118 0.0000 0.0000
# 5 0.0000 0.0000 0.0000 0.0000 19.2761 0.0000
# 6 0.0000 0.0000 0.0000 0.0000 0.0000 30.1305
#
#
#
# Elastic Compliance Matrix: (Units=1/GPa)
#
#
# Indices 1 2 3 4 5 6 
#
# 1 0.018331 -0.006185 -0.001034 0.000000 0.000000 0.000000
# 2 -0.006185 0.018145 -0.005151 0.000000 0.000000 0.000000
# 3 -0.001034 -0.005151 0.010120 0.000000 0.000000 0.000000
# 4 0.000000 0.000000 0.000000 0.027846 0.000000 0.000000
# 5 0.000000 0.000000 0.000000 0.000000 0.051878 0.000000
# 6 0.000000 0.000000 0.000000 0.000000 0.000000 0.033189
#
#
# Mechanical properties :
#
#
# Convention : Reuss Voigt Hill
#
# Bulk Modulus (GPa) = 45.75168 49.59693 47.67431
# Shear Modulus (GPa) = 26.10505 28.59899 27.35202
#
# Velocity S-wave (km/s) = 3.60795 3.77636 3.69311
# Velocity P-wave (km/s) = 6.33802 6.61408 6.47752
#
# Compressibility (1/GPa) = 0.02185712
#
# Stress axis : x y z
#
# Youngs Moduli (GPa) = 54.55205 55.11219 98.81004
#
# Poissons Ratio (x) = 0.34085 0.10218
# Poissons Ratio (y) = 0.33739 0.50895
# Poissons Ratio (z) = 0.05641 0.28387
#
# Static dielectric constant tensor:
#      x y z
#    x 3.591070 0.000000 0.000000 
#    y 0.000000 3.766330 0.000000 
#    z 0.000000 0.000000 3.939770 
# 
# 
# High freq. dielectric constant tensor:
#      x y z
#    x 1.774030 0.000000 0.000000 
#    y 0.000000 1.785940 0.000000 
#    z 0.000000 0.000000 1.799760 
# 
# From -- ./inp_files/15006.got.cif
#   From: 2010.03.12/outbox.cif.g09.slc.cpg/sg54_8_cif.got.tgz:15006.got - 2010.04.16 15:00:50.
