data_PCOD8223685
_publ_section_title
;
Structure prediction by ZEFSAII (Michael W. Deem and Ramdas Pophale) SiO2 
 PCOD8223685
Probable space group: P C C A
;
_chemical_formula_sum "Si O2"
_cell_formula_units_Z 32
_cell_length_a 5.470004
_cell_length_b 9.045078
_cell_length_c 28.100529
_cell_angle_alpha 90.000000
_cell_angle_beta 90.000000
_cell_angle_gamma 90.000000
_cell_volume 1390.318994
_symmetry_space_group_name_H-M "P C C A"
_symmetry_group_IT_number 54
_symmetry_cell_setting 'orthorhombic'
loop_
_space_group_symop_operation_xyz
x,y,z
1/2-x,-y,z
1/2+x,-y,1/2-z
-x,y,1/2-z
-x,-y,-z
1/2+x,y,-z
1/2-x,y,1/2+z
x,-y,1/2+z
loop_
_atom_site_type_symbol
_atom_site_label
_atom_site_fract_x
_atom_site_fract_y
_atom_site_fract_z
Si Si1 0.250000 0.000000 0.351460
Si Si2 0.079873 0.744575 0.119271
Si Si3 0.232528 0.174718 0.023853
Si Si4 0.027800 0.750955 0.694440
Si Si5 0.250000 0.500000 0.360529
O O1 0.438826 0.915577 0.317562
O O2 0.108907 0.882230 0.384732
O O3 0.283628 0.771465 0.078821
O O4 0.199620 0.736363 0.172221
O O5 0.951912 0.586219 0.108057
O O6 0.250000 0.000000 0.020572
O O7 0.485841 0.237368 0.000797
O O8 0.000000 0.725454 0.750000
O O9 0.859047 0.627105 0.672039
#
# Coordination Sequence:
#
# PCOD8223685 Si02
#       5
#     4   8   8   8   4
#     4  10  24  38  68 100 134 174 220 288 354 404
#     4  11  24  45  67 101 139 182 231 289 351 421
#     4  10  23  40  72 106 142 184 236 297 362 427
#     4  11  25  41  69  95 135 177 230 283 346 417
#     4  10  26  42  68  92 136 184 230 274 354 410
#
# _framework density 23.016303000000001
#
# number of rings (size 3 to 8) (size 9 to 14) (size 15 to 20)
#    0.000    1.500    0.000    3.000   19.250    2.000 
#    0.000    1.250    0.000    0.000    0.000    0.000 
#    0.000    0.000    0.000    0.000    0.000    0.000 
#
# Total GULP energy -396724.063223 kJ/mol
# GULP energy per Si atom -12397.626976 kJ/mol
# Density = 2.296392 g / cm^3
# Si number density = 23.016303 Si / 1000 Ang^3
#
#
#
# Elastic Constant Matrix: (Units=GPa)
#
#
# Indices 1 2 3 4 5 6 
#
# 1 125.8403 25.8737 36.2518 0.0000 0.0000 0.0000
# 2 25.8737 94.9913 3.6543 0.0000 0.0000 0.0000
# 3 36.2518 3.6543 104.8776 0.0000 0.0000 0.0000
# 4 0.0000 0.0000 0.0000 10.8809 0.0000 0.0000
# 5 0.0000 0.0000 0.0000 0.0000 30.6914 0.0000
# 6 0.0000 0.0000 0.0000 0.0000 0.0000 27.7566
#
#
#
# Elastic Compliance Matrix: (Units=1/GPa)
#
#
# Indices 1 2 3 4 5 6 
#
# 1 0.009352 -0.002426 -0.003148 0.000000 0.000000 0.000000
# 2 -0.002426 0.011171 0.000449 0.000000 0.000000 0.000000
# 3 -0.003148 0.000449 0.010607 0.000000 0.000000 0.000000
# 4 0.000000 0.000000 0.000000 0.091904 0.000000 0.000000
# 5 0.000000 0.000000 0.000000 0.000000 0.032582 0.000000
# 6 0.000000 0.000000 0.000000 0.000000 0.000000 0.036027
#
#
# Mechanical properties :
#
#
# Convention : Reuss Voigt Hill
#
# Bulk Modulus (GPa) = 47.89130 50.80764 49.34947
# Shear Modulus (GPa) = 23.94008 31.19441 27.56724
#
# Velocity S-wave (km/s) = 3.22861 3.68546 3.46457
# Velocity P-wave (km/s) = 5.89502 6.34292 6.12307
#
# Compressibility (1/GPa) = 0.02088062
#
# Stress axis : x y z
#
# Youngs Moduli (GPa) = 106.92486 89.51863 94.27329
#
# Poissons Ratio (x) = 0.21720 0.29679
# Poissons Ratio (y) = 0.25943 -0.04237
# Poissons Ratio (z) = 0.33662 -0.04023
#
# Static dielectric constant tensor:
#      x y z
#    x 4.528830 0.000000 0.000000 
#    y 0.000000 4.287920 0.000000 
#    z 0.000000 0.000000 3.881680 
# 
# 
# High freq. dielectric constant tensor:
#      x y z
#    x 1.920430 0.000000 0.000000 
#    y 0.000000 1.908720 0.000000 
#    z 0.000000 0.000000 1.888360 
# 
# From -- ./inp_files/26899.got.cif
#   From: 2010.03.12/outbox.cif.g09.slc.cpg/sg54_14_cif.got.tgz:26899.got - 2010.04.16 15:00:50.
