data_PCOD8223497
_publ_section_title
;
Structure prediction by ZEFSAII (Michael W. Deem and Ramdas Pophale) SiO2 
 PCOD8223497
Probable space group: P C C A
;
_chemical_formula_sum "Si O2"
_cell_formula_units_Z 24
_cell_length_a 4.989119
_cell_length_b 16.472320
_cell_length_c 11.825904
_cell_angle_alpha 90.000000
_cell_angle_beta 90.000000
_cell_angle_gamma 90.000000
_cell_volume 971.880755
_symmetry_space_group_name_H-M "P C C A"
_symmetry_group_IT_number 54
_symmetry_cell_setting 'orthorhombic'
loop_
_space_group_symop_operation_xyz
x,y,z
1/2-x,-y,z
1/2+x,-y,1/2-z
-x,y,1/2-z
-x,-y,-z
1/2+x,y,-z
1/2-x,y,1/2+z
x,-y,1/2+z
loop_
_atom_site_type_symbol
_atom_site_label
_atom_site_fract_x
_atom_site_fract_y
_atom_site_fract_z
Si Si1 0.750548 0.175346 0.920480
Si Si2 0.750000 0.000000 0.921148
Si Si3 0.000000 0.704324 0.750000
Si Si4 0.230770 0.406965 0.926387
O O1 0.697139 0.241687 0.825809
O O2 0.739479 0.086567 0.855597
O O3 0.542516 0.186215 0.024190
O O4 0.500000 0.000000 0.000000
O O5 0.796813 0.649083 0.679266
O O6 0.250000 0.500000 0.886377
O O7 0.431475 0.388193 0.030635
#
# Coordination Sequence:
#
# PCOD8223497 Si02
#       4
#     8   4   4   8
#     4  10  22  40  62  93 130 168 212 262 315 377
#     4   8  16  36  60  82 122 168 202 250 312 368
#     4  12  24  40  70 100 128 166 218 270 322 376
#     4  10  24  44  64  91 129 169 211 261 320 386
#
# _framework density 24.694388
#
# number of rings (size 3 to 8) (size 9 to 14) (size 15 to 20)
#    0.000    2.000    0.000    2.000    0.000    9.333 
#    0.000   10.000    0.000    0.000    0.000    0.000 
#    0.000    0.000    0.000    0.000    0.000    0.000 
#
# Total GULP energy -297480.670211 kJ/mol
# GULP energy per Si atom -12395.027925 kJ/mol
# Density = 2.463818 g / cm^3
# Si number density = 24.694388 Si / 1000 Ang^3
#
#
#
# Elastic Constant Matrix: (Units=GPa)
#
#
# Indices 1 2 3 4 5 6 
#
# 1 95.6181 13.8274 1.8527 0.0000 0.0000 0.0000
# 2 13.8274 182.8237 79.7962 0.0000 0.0000 0.0000
# 3 1.8527 79.7962 84.9673 0.0000 0.0000 0.0000
# 4 0.0000 0.0000 0.0000 -132.4195 0.0000 0.0000
# 5 0.0000 0.0000 0.0000 0.0000 10.8938 0.0000
# 6 0.0000 0.0000 0.0000 0.0000 0.0000 35.1906
#
#
#
# Elastic Compliance Matrix: (Units=1/GPa)
#
#
# Indices 1 2 3 4 5 6 
#
# 1 0.010613 -0.001189 0.000885 0.000000 0.000000 0.000000
# 2 -0.001189 0.009402 -0.008804 0.000000 0.000000 0.000000
# 3 0.000885 -0.008804 0.020018 0.000000 0.000000 0.000000
# 4 0.000000 0.000000 0.000000 -0.007552 0.000000 0.000000
# 5 0.000000 0.000000 0.000000 0.000000 0.091796 0.000000
# 6 0.000000 0.000000 0.000000 0.000000 0.000000 0.028417
#
#
# Mechanical properties :
#
#
# Convention : Reuss Voigt Hill
#
# Bulk Modulus (GPa) = 45.83423 61.59577 53.71500
# Shear Modulus (GPa) = 28.06101 0.59515 14.32808
#
# Velocity S-wave (km/s) = 3.37461 0.49146 2.41138
# Velocity P-wave (km/s) = 5.81247 5.03184 5.43619
#
# Compressibility (1/GPa) = 0.02181775
#
# Stress axis : x y z
#
# Youngs Moduli (GPa) = 94.22340 106.35521 49.95406
#
# Poissons Ratio (x) = 0.12647 -0.04422
# Poissons Ratio (y) = 0.11204 0.43981
# Poissons Ratio (z) = -0.08342 0.93638
#
# Static dielectric constant tensor:
#      x y z
#    x 4.535730 0.000000 0.000000 
#    y 0.000000 5.605850 0.000000 
#    z 0.000000 0.000000 3.918950 
# 
# 
# High freq. dielectric constant tensor:
#      x y z
#    x 2.000840 0.000000 0.000000 
#    y 0.000000 2.021680 0.000000 
#    z 0.000000 0.000000 1.939900 
# 
# From -- ./inp_files/6192.got.cif
#   From: 2010.03.12/outbox.cif.g09.slc.cpg/sg54_4_cif.got.tgz:6192.got - 2010.04.16 15:00:50.
