data_PCOD8223590
_publ_section_title
;
Structure prediction by ZEFSAII (Michael W. Deem and Ramdas Pophale) SiO2 
 PCOD8223590
Probable space group: P C C A
;
_chemical_formula_sum "Si O2"
_cell_formula_units_Z 32
_cell_length_a 9.211452
_cell_length_b 8.729565
_cell_length_c 17.092967
_cell_angle_alpha 90.000000
_cell_angle_beta 90.000000
_cell_angle_gamma 90.000000
_cell_volume 1374.479132
_symmetry_space_group_name_H-M "P C C A"
_symmetry_group_IT_number 54
_symmetry_cell_setting 'orthorhombic'
loop_
_space_group_symop_operation_xyz
x,y,z
1/2-x,-y,z
1/2+x,-y,1/2-z
-x,y,1/2-z
-x,-y,-z
1/2+x,y,-z
1/2-x,y,1/2+z
x,-y,1/2+z
loop_
_atom_site_type_symbol
_atom_site_label
_atom_site_fract_x
_atom_site_fract_y
_atom_site_fract_z
Si Si1 0.072278 0.258484 0.540542
Si Si2 0.750000 0.000000 0.866678
Si Si3 0.255912 0.818918 0.902660
Si Si4 0.750000 0.500000 0.382095
Si Si5 0.656945 0.250204 0.764477
O O1 0.157311 0.118201 0.582088
O O2 0.113975 0.242508 0.448987
O O3 0.118806 0.432392 0.565009
O O4 0.900424 0.239945 0.552783
O O5 0.859829 0.913814 0.807426
O O6 0.252570 0.753719 0.814573
O O7 0.250000 0.000000 0.899453
O O8 0.771434 0.357453 0.327028
O O9 0.500000 0.318758 0.750000
#
# Coordination Sequence:
#
# PCOD8223590 Si02
#       5
#     8   4   8   4   8
#     4  11  26  45  71 104 147 187 240 298 358 441
#     4  10  22  42  68 100 138 178 238 294 344 424
#     4  12  25  44  75 108 142 190 245 304 358 423
#     4  10  28  46  66 104 144 192 236 294 370 428
#     4  11  25  43  71 100 141 182 236 292 360 421
#
# _framework density 23.281545999999999
#
# number of rings (size 3 to 8) (size 9 to 14) (size 15 to 20)
#    0.000    1.000    2.500    2.250   10.500    4.000 
#    0.000    0.000    0.000    0.000    0.000    0.000 
#    0.000    0.000    0.000    0.000    0.000    0.000 
#
# Total GULP energy -396593.495896 kJ/mol
# GULP energy per Si atom -12393.546747 kJ/mol
# Density = 2.322856 g / cm^3
# Si number density = 23.281546 Si / 1000 Ang^3
#
#
#
# Elastic Constant Matrix: (Units=GPa)
#
#
# Indices 1 2 3 4 5 6 
#
# 1 77.3388 8.7028 -1.6635 0.0000 0.0000 0.0000
# 2 8.7028 94.0185 36.7202 0.0000 0.0000 0.0000
# 3 -1.6635 36.7202 105.8802 0.0000 0.0000 0.0000
# 4 0.0000 0.0000 0.0000 10.9702 0.0000 0.0000
# 5 0.0000 0.0000 0.0000 0.0000 31.6058 0.0000
# 6 0.0000 0.0000 0.0000 0.0000 0.0000 26.0268
#
#
#
# Elastic Compliance Matrix: (Units=1/GPa)
#
#
# Indices 1 2 3 4 5 6 
#
# 1 0.013114 -0.001497 0.000725 0.000000 0.000000 0.000000
# 2 -0.001497 0.012474 -0.004349 0.000000 0.000000 0.000000
# 3 0.000725 -0.004349 0.010964 0.000000 0.000000 0.000000
# 4 0.000000 0.000000 0.000000 0.091156 0.000000 0.000000
# 5 0.000000 0.000000 0.000000 0.000000 0.031640 0.000000
# 6 0.000000 0.000000 0.000000 0.000000 0.000000 0.038422
#
#
# Mechanical properties :
#
#
# Convention : Reuss Voigt Hill
#
# Bulk Modulus (GPa) = 38.00911 40.52849 39.26880
# Shear Modulus (GPa) = 23.06463 29.28577 26.17520
#
# Velocity S-wave (km/s) = 3.15093 3.55053 3.35668
# Velocity P-wave (km/s) = 5.44050 5.85270 5.65036
#
# Compressibility (1/GPa) = 0.02630948
#
# Stress axis : x y z
#
# Youngs Moduli (GPa) = 76.25321 80.16980 91.20382
#
# Poissons Ratio (x) = 0.12003 -0.06615
# Poissons Ratio (y) = 0.11416 0.39669
# Poissons Ratio (z) = -0.05530 0.34869
#
# Static dielectric constant tensor:
#      x y z
#    x 3.795310 0.000000 0.000000 
#    y 0.000000 2.939910 0.000000 
#    z 0.000000 0.000000 4.560630 
# 
# 
# High freq. dielectric constant tensor:
#      x y z
#    x 1.904400 0.000000 0.000000 
#    y 0.000000 1.927890 0.000000 
#    z 0.000000 0.000000 1.944350 
# 
# From -- ./inp_files/20048.got.cif
#   From: 2010.03.12/outbox.cif.g09.slc.cpg/sg54_11_cif.got.tgz:20048.got - 2010.04.16 15:00:50.
