data_PCOD8223745
_publ_section_title
;
Structure prediction by ZEFSAII (Michael W. Deem and Ramdas Pophale) SiO2 
 PCOD8223745
Probable space group: P C C A
;
_chemical_formula_sum "Si O2"
_cell_formula_units_Z 28
_cell_length_a 21.139304
_cell_length_b 5.134304
_cell_length_c 9.114626
_cell_angle_alpha 90.000000
_cell_angle_beta 90.000000
_cell_angle_gamma 90.000000
_cell_volume 989.261521
_symmetry_space_group_name_H-M "P C C A"
_symmetry_group_IT_number 54
_symmetry_cell_setting 'orthorhombic'
loop_
_space_group_symop_operation_xyz
x,y,z
1/2-x,-y,z
1/2+x,-y,1/2-z
-x,y,1/2-z
-x,-y,-z
1/2+x,y,-z
1/2-x,y,1/2+z
x,-y,1/2+z
loop_
_atom_site_type_symbol
_atom_site_label
_atom_site_fract_x
_atom_site_fract_y
_atom_site_fract_z
Si Si1 0.000000 0.560919 0.250000
Si Si2 0.179903 0.964503 0.354422
Si Si3 0.819044 0.537057 0.833324
Si Si4 0.418400 0.291887 0.989071
O O1 0.967380 0.744468 0.374390
O O2 0.950867 0.374711 0.164092
O O3 0.175067 0.172112 0.224331
O O4 0.122296 0.027009 0.467306
O O5 0.250000 0.000000 0.428218
O O6 0.168569 0.676087 0.292990
O O7 0.750000 0.500000 0.904490
O O8 0.868874 0.517177 0.965320
#
# Coordination Sequence:
#
# PCOD8223745 Si02
#       4
#     4   8   8   8
#     4  10  24  46  82 118 166 226 268 328 398 498
#     4  10  23  44  75 114 152 201 262 331 401 466
#     4  10  23  44  75 112 153 199 260 332 399 468
#     4  11  22  48  80 115 165 212 277 325 406 482
#
# _framework density 28.303941999999999
#
# number of rings (size 3 to 8) (size 9 to 14) (size 15 to 20)
#    0.000    1.714    2.857    0.000    0.000    9.143 
#    0.000    4.286    0.000    0.000    0.000    0.000 
#    0.000    0.000    0.000    0.000    0.000    0.000 
#
# Total GULP energy -347019.238142 kJ/mol
# GULP energy per Si atom -12393.544219 kJ/mol
# Density = 2.823952 g / cm^3
# Si number density = 28.303942 Si / 1000 Ang^3
#
#
#
# Elastic Constant Matrix: (Units=GPa)
#
#
# Indices 1 2 3 4 5 6 
#
# 1 186.4597 21.8702 76.2897 0.0000 0.0000 0.0000
# 2 21.8702 89.1718 51.0953 0.0000 0.0000 0.0000
# 3 76.2897 51.0953 154.6780 0.0000 0.0000 0.0000
# 4 0.0000 0.0000 0.0000 38.7520 0.0000 0.0000
# 5 0.0000 0.0000 0.0000 0.0000 58.7974 0.0000
# 6 0.0000 0.0000 0.0000 0.0000 0.0000 41.3630
#
#
#
# Elastic Compliance Matrix: (Units=1/GPa)
#
#
# Indices 1 2 3 4 5 6 
#
# 1 0.006726 0.000310 -0.003420 0.000000 0.000000 0.000000
# 2 0.000310 0.013847 -0.004727 0.000000 0.000000 0.000000
# 3 -0.003420 -0.004727 0.009713 0.000000 0.000000 0.000000
# 4 0.000000 0.000000 0.000000 0.025805 0.000000 0.000000
# 5 0.000000 0.000000 0.000000 0.000000 0.017008 0.000000
# 6 0.000000 0.000000 0.000000 0.000000 0.000000 0.024176
#
#
# Mechanical properties :
#
#
# Convention : Reuss Voigt Hill
#
# Bulk Modulus (GPa) = 68.43482 80.97998 74.70740
# Shear Modulus (GPa) = 42.43799 46.51944 44.47871
#
# Velocity S-wave (km/s) = 3.87637 4.05849 3.96847
# Velocity P-wave (km/s) = 6.65327 7.11581 6.88842
#
# Compressibility (1/GPa) = 0.01461244
#
# Stress axis : x y z
#
# Youngs Moduli (GPa) = 148.67893 72.21884 102.95325
#
# Poissons Ratio (x) = -0.02238 0.35207
# Poissons Ratio (y) = -0.04607 0.48665
# Poissons Ratio (z) = 0.50844 0.34137
#
# Static dielectric constant tensor:
#      x y z
#    x 6.069400 0.000000 0.000000 
#    y 0.000000 4.659210 0.000000 
#    z 0.000000 0.000000 5.093630 
# 
# 
# High freq. dielectric constant tensor:
#      x y z
#    x 2.167660 0.000000 0.000000 
#    y 0.000000 2.129770 0.000000 
#    z 0.000000 0.000000 2.153700 
# 
# From -- ./inp_files/4930.got.cif
#   From: 2010.03.12/outbox.cif.g09.slc.cpg/sg54_3_cif.got.tgz:4930.got - 2010.04.16 15:00:50.
