data_PCOD8223120
_publ_section_title
;
Structure prediction by ZEFSAII (Michael W. Deem and Ramdas Pophale) SiO2 
 PCOD8223120
Probable space group: P C C A
;
_chemical_formula_sum "Si O2"
_cell_formula_units_Z 64
_cell_length_a 8.817305
_cell_length_b 14.524478
_cell_length_c 25.800512
_cell_angle_alpha 90.000000
_cell_angle_beta 90.000000
_cell_angle_gamma 90.000000
_cell_volume 3304.187784
_symmetry_space_group_name_H-M "P C C A"
_symmetry_group_IT_number 54
_symmetry_cell_setting 'orthorhombic'
loop_
_space_group_symop_operation_xyz
x,y,z
1/2-x,-y,z
1/2+x,-y,1/2-z
-x,y,1/2-z
-x,-y,-z
1/2+x,y,-z
1/2-x,y,1/2+z
x,-y,1/2+z
loop_
_atom_site_type_symbol
_atom_site_label
_atom_site_fract_x
_atom_site_fract_y
_atom_site_fract_z
Si Si1 0.120723 0.161294 0.349027
Si Si2 0.942615 0.185972 0.691375
Si Si3 0.913169 0.698560 0.395992
Si Si4 0.428172 0.505635 0.556551
Si Si5 0.564715 0.314423 0.904764
Si Si6 0.930057 0.999205 0.805583
Si Si7 0.045116 0.206772 0.992800
Si Si8 0.187641 0.903445 0.957075
O O1 0.257799 0.181060 0.308887
O O2 0.186812 0.099788 0.395268
O O3 0.050155 0.257754 0.368405
O O4 0.987089 0.099069 0.325551
O O5 0.000000 0.203715 0.750000
O O6 0.997252 0.270303 0.655453
O O7 0.010191 0.091531 0.665354
O O8 0.973755 0.598159 0.412927
O O9 0.734503 0.700004 0.383540
O O10 0.945532 0.767126 0.443238
O O11 0.250000 0.500000 0.547347
O O12 0.500000 0.500000 0.500000
O O13 0.481127 0.421979 0.594239
O O14 0.551454 0.286754 0.964948
O O15 0.000000 0.015350 0.750000
O O16 0.750000 0.000000 0.805459
O O17 0.214351 0.183475 0.975834
O O18 0.977512 0.113592 0.018580
O O19 0.250000 0.000000 0.977029
#
# Coordination Sequence:
#
# PCOD8223120 Si02
#       8
#     8   8   8   8   8   8   8   8
#     4  11  23  38  61  86 121 159 205 250 301 359
#     4  11  23  40  63  88 118 161 208 254 303 352
#     4  11  21  38  59  84 121 156 198 256 304 368
#     4  10  21  35  61  88 122 156 198 253 313 368
#     4  10  22  38  56  91 120 158 198 246 313 370
#     4  11  22  40  63  90 120 156 207 258 300 353
#     4  11  20  34  56  78 119 155 198 242 295 357
#     4  11  22  36  50  80 119 165 198 239 291 366
#
# _framework density 19.36936
#
# number of rings (size 3 to 8) (size 9 to 14) (size 15 to 20)
#    0.000    1.250    3.750    3.750    0.000    1.000 
#    0.000    0.000    0.000    5.250    0.000    0.000 
#    0.000    0.000    0.000    0.000    0.000    0.000 
#
# Total GULP energy -793466.507880 kJ/mol
# GULP energy per Si atom -12397.914186 kJ/mol
# Density = 1.932527 g / cm^3
# Si number density = 19.369360 Si / 1000 Ang^3
#
#
#
# Elastic Constant Matrix: (Units=GPa)
#
#
# Indices 1 2 3 4 5 6 
#
# 1 116.5577 45.2472 41.8558 0.0000 0.0000 0.0000
# 2 45.2472 122.9633 44.8811 0.0000 0.0000 0.0000
# 3 41.8558 44.8811 84.5438 0.0000 0.0000 0.0000
# 4 0.0000 0.0000 0.0000 23.3735 0.0000 0.0000
# 5 0.0000 0.0000 0.0000 0.0000 33.1317 0.0000
# 6 0.0000 0.0000 0.0000 0.0000 0.0000 27.2851
#
#
#
# Elastic Compliance Matrix: (Units=1/GPa)
#
#
# Indices 1 2 3 4 5 6 
#
# 1 0.011051 -0.002567 -0.004109 0.000000 0.000000 0.000000
# 2 -0.002567 0.010683 -0.004400 0.000000 0.000000 0.000000
# 3 -0.004109 -0.004400 0.016198 0.000000 0.000000 0.000000
# 4 0.000000 0.000000 0.000000 0.042783 0.000000 0.000000
# 5 0.000000 0.000000 0.000000 0.000000 0.030183 0.000000
# 6 0.000000 0.000000 0.000000 0.000000 0.000000 0.036650
#
#
# Mechanical properties :
#
#
# Convention : Reuss Voigt Hill
#
# Bulk Modulus (GPa) = 63.36801 65.33700 64.35250
# Shear Modulus (GPa) = 28.57778 29.56345 29.07061
#
# Velocity S-wave (km/s) = 3.84528 3.91103 3.87829
# Velocity P-wave (km/s) = 7.24579 7.36208 7.30417
#
# Compressibility (1/GPa) = 0.01578083
#
# Stress axis : x y z
#
# Youngs Moduli (GPa) = 90.48698 93.60451 61.73496
#
# Poissons Ratio (x) = 0.24028 0.25364
# Poissons Ratio (y) = 0.23228 0.27166
# Poissons Ratio (z) = 0.37177 0.41190
#
# Static dielectric constant tensor:
#      x y z
#    x 3.601180 0.000000 0.000000 
#    y 0.000000 3.789320 0.000000 
#    z 0.000000 0.000000 3.341120 
# 
# 
# High freq. dielectric constant tensor:
#      x y z
#    x 1.764440 0.000000 0.000000 
#    y 0.000000 1.754880 0.000000 
#    z 0.000000 0.000000 1.733400 
# 
# From -- ./inp_files/23656.got.cif
#   From: 2010.03.12/outbox.cif.g09.slc.cpg/sg54_12_cif.got.tgz:23656.got - 2010.04.16 15:00:50.
