data_PCOD8223273
_publ_section_title
;
Structure prediction by ZEFSAII (Michael W. Deem and Ramdas Pophale) SiO2 
 PCOD8223273
Probable space group: P C C A
;
_chemical_formula_sum "Si O2"
_cell_formula_units_Z 40
_cell_length_a 25.265270
_cell_length_b 12.740164
_cell_length_c 5.197378
_cell_angle_alpha 90.000000
_cell_angle_beta 90.000000
_cell_angle_gamma 90.000000
_cell_volume 1672.951174
_symmetry_space_group_name_H-M "P C C A"
_symmetry_group_IT_number 54
_symmetry_cell_setting 'orthorhombic'
loop_
_space_group_symop_operation_xyz
x,y,z
1/2-x,-y,z
1/2+x,-y,1/2-z
-x,y,1/2-z
-x,-y,-z
1/2+x,y,-z
1/2-x,y,1/2+z
x,-y,1/2+z
loop_
_atom_site_type_symbol
_atom_site_label
_atom_site_fract_x
_atom_site_fract_y
_atom_site_fract_z
Si Si1 0.125094 0.432105 0.559465
Si Si2 0.784865 0.268348 0.890128
Si Si3 0.441150 0.959614 0.376048
Si Si4 0.174022 0.048539 0.751846
Si Si5 0.465531 0.267291 0.000278
O O1 0.123670 0.476718 0.270870
O O2 0.178622 0.370026 0.622221
O O3 0.073961 0.359256 0.579482
O O4 0.739894 0.269057 0.673770
O O5 0.821423 0.167352 0.841114
O O6 0.432158 0.838109 0.442270
O O7 0.470465 0.032245 0.596788
O O8 0.387688 0.017714 0.268424
O O9 0.200949 0.974644 0.528719
O O10 0.500000 0.244185 0.250000
O O11 0.500000 0.299725 0.750000
#
# Coordination Sequence:
#
# PCOD8223273 Si02
#       5
#     8   8   8   8   8
#     4  12  28  50  76 102 136 183 236 304 371 423
#     4  12  27  46  72 106 142 184 237 292 352 424
#     4  10  21  39  65  97 141 185 225 274 332 406
#     4  10  21  39  65  97 141 183 222 272 330 405
#     4  12  27  46  72 107 144 186 240 296 355 426
#
# _framework density 23.909844
#
# number of rings (size 3 to 8) (size 9 to 14) (size 15 to 20)
#    0.000    0.800    0.000    7.200    0.000   16.000 
#    0.000    0.000    0.000    0.000    0.000    0.000 
#    0.000    0.000    0.000    0.000    0.000    0.000 
#
# Total GULP energy -495942.153089 kJ/mol
# GULP energy per Si atom -12398.553827 kJ/mol
# Density = 2.385542 g / cm^3
# Si number density = 23.909844 Si / 1000 Ang^3
#
#
#
# Elastic Constant Matrix: (Units=GPa)
#
#
# Indices 1 2 3 4 5 6 
#
# 1 101.9726 47.2653 26.0796 0.0000 0.0000 0.0000
# 2 47.2653 129.3278 33.9806 0.0000 0.0000 0.0000
# 3 26.0796 33.9806 176.1922 0.0000 0.0000 0.0000
# 4 0.0000 0.0000 0.0000 47.3646 0.0000 0.0000
# 5 0.0000 0.0000 0.0000 0.0000 30.9858 0.0000
# 6 0.0000 0.0000 0.0000 0.0000 0.0000 28.8818
#
#
#
# Elastic Compliance Matrix: (Units=1/GPa)
#
#
# Indices 1 2 3 4 5 6 
#
# 1 0.011964 -0.004116 -0.000977 0.000000 0.000000 0.000000
# 2 -0.004116 0.009561 -0.001235 0.000000 0.000000 0.000000
# 3 -0.000977 -0.001235 0.006058 0.000000 0.000000 0.000000
# 4 0.000000 0.000000 0.000000 0.021113 0.000000 0.000000
# 5 0.000000 0.000000 0.000000 0.000000 0.032273 0.000000
# 6 0.000000 0.000000 0.000000 0.000000 0.000000 0.034624
#
#
# Mechanical properties :
#
#
# Convention : Reuss Voigt Hill
#
# Bulk Modulus (GPa) = 66.98746 69.12707 68.05727
# Shear Modulus (GPa) = 37.53068 41.45758 39.49413
#
# Velocity S-wave (km/s) = 3.96621 4.16854 4.06864
# Velocity P-wave (km/s) = 7.00371 7.22103 7.11320
#
# Compressibility (1/GPa) = 0.01492817
#
# Stress axis : x y z
#
# Youngs Moduli (GPa) = 83.58297 104.59268 165.06055
#
# Poissons Ratio (x) = 0.43048 0.16129
# Poissons Ratio (y) = 0.34401 0.20380
# Poissons Ratio (z) = 0.08167 0.12914
#
# Static dielectric constant tensor:
#      x y z
#    x 4.669550 0.000000 0.000000 
#    y 0.000000 4.183160 0.000000 
#    z 0.000000 0.000000 5.547010 
# 
# 
# High freq. dielectric constant tensor:
#      x y z
#    x 1.978510 0.000000 0.000000 
#    y 0.000000 1.939350 0.000000 
#    z 0.000000 0.000000 1.994770 
# 
# From -- ./inp_files/1824.got.cif
#   From: 2010.03.12/outbox.cif.g09.slc.cpg/sg54_1_cif.got.tgz:1824.got - 2010.04.16 15:00:50.
