data_PCOD8223968
_publ_section_title
;
Structure prediction by ZEFSAII (Michael W. Deem and Ramdas Pophale) SiO2 
 PCOD8223968
Probable space group: P C C A
;
_chemical_formula_sum "Si O2"
_cell_formula_units_Z 40
_cell_length_a 13.420654
_cell_length_b 9.842648
_cell_length_c 13.479281
_cell_angle_alpha 90.000000
_cell_angle_beta 90.000000
_cell_angle_gamma 90.000000
_cell_volume 1780.542567
_symmetry_space_group_name_H-M "P C C A"
_symmetry_group_IT_number 54
_symmetry_cell_setting 'orthorhombic'
loop_
_space_group_symop_operation_xyz
x,y,z
1/2-x,-y,z
1/2+x,-y,1/2-z
-x,y,1/2-z
-x,-y,-z
1/2+x,y,-z
1/2-x,y,1/2+z
x,-y,1/2+z
loop_
_atom_site_type_symbol
_atom_site_label
_atom_site_fract_x
_atom_site_fract_y
_atom_site_fract_z
Si Si1 0.467154 0.258081 0.857618
Si Si2 0.784015 0.855903 0.351198
Si Si3 0.748374 0.347724 0.174789
Si Si4 0.496167 0.061609 0.136988
Si Si5 0.123711 0.247638 0.993816
O O1 0.500000 0.312743 0.750000
O O2 0.352217 0.294444 0.871228
O O3 0.537015 0.325121 0.943099
O O4 0.493668 0.099581 0.868277
O O5 0.788868 0.748578 0.262390
O O6 0.890884 0.880289 0.403446
O O7 0.708100 0.808058 0.433989
O O8 0.750000 0.000000 0.303706
O O9 0.750000 0.500000 0.217905
O O10 0.670099 0.353088 0.084131
O O11 0.500000 0.112453 0.250000
O O12 0.582889 0.120506 0.069030
#
# Coordination Sequence:
#
# PCOD8223968 Si02
#       5
#     8   8   8   8   8
#     4  11  23  45  70 105 144 187 237 305 362 421
#     4  12  24  46  76 108 142 189 242 308 359 422
#     4  12  29  49  70 106 153 198 236 296 366 446
#     4  11  22  41  71 110 143 177 241 304 363 421
#     4  12  25  42  76 107 140 189 236 302 366 426
#
# _framework density 22.465063000000001
#
# number of rings (size 3 to 8) (size 9 to 14) (size 15 to 20)
#    0.000    0.400    6.000    3.000    2.800    1.600 
#    3.600    0.000    0.000    0.000    0.000    0.000 
#    0.000    0.000    0.000    0.000    0.000    0.000 
#
# Total GULP energy -495986.013613 kJ/mol
# GULP energy per Si atom -12399.650340 kJ/mol
# Density = 2.241393 g / cm^3
# Si number density = 22.465063 Si / 1000 Ang^3
#
#
#
# Elastic Constant Matrix: (Units=GPa)
#
#
# Indices 1 2 3 4 5 6 
#
# 1 117.6284 19.8677 28.5396 0.0000 0.0000 0.0000
# 2 19.8677 95.6342 26.4626 0.0000 0.0000 0.0000
# 3 28.5396 26.4626 130.0986 0.0000 0.0000 0.0000
# 4 0.0000 0.0000 0.0000 11.9169 0.0000 0.0000
# 5 0.0000 0.0000 0.0000 0.0000 53.5612 0.0000
# 6 0.0000 0.0000 0.0000 0.0000 0.0000 12.3395
#
#
#
# Elastic Compliance Matrix: (Units=1/GPa)
#
#
# Indices 1 2 3 4 5 6 
#
# 1 0.009159 -0.001427 -0.001719 0.000000 0.000000 0.000000
# 2 -0.001427 0.011303 -0.001986 0.000000 0.000000 0.000000
# 3 -0.001719 -0.001986 0.008468 0.000000 0.000000 0.000000
# 4 0.000000 0.000000 0.000000 0.083914 0.000000 0.000000
# 5 0.000000 0.000000 0.000000 0.000000 0.018670 0.000000
# 6 0.000000 0.000000 0.000000 0.000000 0.000000 0.081040
#
#
# Mechanical properties :
#
#
# Convention : Reuss Voigt Hill
#
# Bulk Modulus (GPa) = 53.57531 54.78899 54.18215
# Shear Modulus (GPa) = 21.83020 33.46295 27.64658
#
# Velocity S-wave (km/s) = 3.12066 3.86366 3.51186
# Velocity P-wave (km/s) = 6.07328 6.65923 6.37299
#
# Compressibility (1/GPa) = 0.01866531
#
# Stress axis : x y z
#
# Youngs Moduli (GPa) = 109.17649 88.47591 118.09836
#
# Poissons Ratio (x) = 0.12627 0.20301
# Poissons Ratio (y) = 0.15582 0.23453
# Poissons Ratio (z) = 0.18768 0.17570
#
# Static dielectric constant tensor:
#      x y z
#    x 4.494100 0.000000 0.000000 
#    y 0.000000 3.634180 0.000000 
#    z 0.000000 0.000000 4.514710 
# 
# 
# High freq. dielectric constant tensor:
#      x y z
#    x 1.906430 0.000000 0.000000 
#    y 0.000000 1.846320 0.000000 
#    z 0.000000 0.000000 1.902540 
# 
# From -- ./inp_files/13208.got.cif
#   From: 2010.03.12/outbox.cif.g09.slc.cpg/sg54_7_cif.got.tgz:13208.got - 2010.04.16 15:00:50.
