data_PCOD8223814
_publ_section_title
;
Structure prediction by ZEFSAII (Michael W. Deem and Ramdas Pophale) SiO2 
 PCOD8223814
Probable space group: P C C A
;
_chemical_formula_sum "Si O2"
_cell_formula_units_Z 40
_cell_length_a 16.008510
_cell_length_b 7.722127
_cell_length_c 14.895523
_cell_angle_alpha 90.000000
_cell_angle_beta 90.000000
_cell_angle_gamma 90.000000
_cell_volume 1841.380789
_symmetry_space_group_name_H-M "P C C A"
_symmetry_group_IT_number 54
_symmetry_cell_setting 'orthorhombic'
loop_
_space_group_symop_operation_xyz
x,y,z
1/2-x,-y,z
1/2+x,-y,1/2-z
-x,y,1/2-z
-x,-y,-z
1/2+x,y,-z
1/2-x,y,1/2+z
x,-y,1/2+z
loop_
_atom_site_type_symbol
_atom_site_label
_atom_site_fract_x
_atom_site_fract_y
_atom_site_fract_z
Si Si1 0.734245 0.801166 0.755371
Si Si2 0.620255 0.752048 0.119212
Si Si3 0.682231 0.625001 0.930851
Si Si4 0.564084 0.122223 0.174306
Si Si5 0.992179 0.465815 0.897868
O O1 0.804280 0.719809 0.689447
O O2 0.735504 0.725514 0.855554
O O3 0.643887 0.776378 0.711995
O O4 0.750000 0.000000 0.769137
O O5 0.548393 0.613720 0.150470
O O6 0.587231 0.949021 0.120483
O O7 0.648310 0.734820 0.015274
O O8 0.750000 0.500000 0.976153
O O9 0.607045 0.526241 0.877102
O O10 0.500000 0.060541 0.250000
O O11 0.520277 0.268038 0.115049
O O12 0.000000 0.500000 0.000000
#
# Coordination Sequence:
#
# PCOD8223814 Si02
#       5
#     8   8   8   8   8
#     4  10  24  44  67 102 135 181 228 288 353 409
#     4  10  26  46  72 100 139 189 230 285 357 413
#     4  11  25  44  67 105 140 181 236 287 348 424
#     4  11  23  44  71 100 139 177 234 289 347 418
#     4  10  24  44  70 100 134 184 232 286 352 413
#
# _framework density 21.722829999999998
#
# number of rings (size 3 to 8) (size 9 to 14) (size 15 to 20)
#    0.000    1.600    2.000    0.000    8.400    9.600 
#    0.000    0.000    0.000    0.000    0.000    0.000 
#    0.000    0.000    0.000    0.000    0.000    0.000 
#
# Total GULP energy -495581.479671 kJ/mol
# GULP energy per Si atom -12389.536992 kJ/mol
# Density = 2.167339 g / cm^3
# Si number density = 21.722830 Si / 1000 Ang^3
#
#
#
# Elastic Constant Matrix: (Units=GPa)
#
#
# Indices 1 2 3 4 5 6 
#
# 1 144.6821 54.3235 51.9589 0.0000 0.0000 0.0000
# 2 54.3235 107.3416 48.8304 0.0000 0.0000 0.0000
# 3 51.9589 48.8304 119.5381 0.0000 0.0000 0.0000
# 4 0.0000 0.0000 0.0000 32.4594 0.0000 0.0000
# 5 0.0000 0.0000 0.0000 0.0000 33.6230 0.0000
# 6 0.0000 0.0000 0.0000 0.0000 0.0000 22.3341
#
#
#
# Elastic Compliance Matrix: (Units=1/GPa)
#
#
# Indices 1 2 3 4 5 6 
#
# 1 0.009127 -0.003457 -0.002555 0.000000 0.000000 0.000000
# 2 -0.003457 0.012751 -0.003706 0.000000 0.000000 0.000000
# 3 -0.002555 -0.003706 0.010990 0.000000 0.000000 0.000000
# 4 0.000000 0.000000 0.000000 0.030808 0.000000 0.000000
# 5 0.000000 0.000000 0.000000 0.000000 0.029742 0.000000
# 6 0.000000 0.000000 0.000000 0.000000 0.000000 0.044775
#
#
# Mechanical properties :
#
#
# Convention : Reuss Voigt Hill
#
# Bulk Modulus (GPa) = 74.44748 75.75416 75.10082
# Shear Modulus (GPa) = 30.84385 32.11324 31.47855
#
# Velocity S-wave (km/s) = 3.77222 3.84906 3.81083
# Velocity P-wave (km/s) = 7.30197 7.39611 7.34919
#
# Compressibility (1/GPa) = 0.01343229
#
# Stress axis : x y z
#
# Youngs Moduli (GPa) = 109.56209 78.42224 90.98995
#
# Poissons Ratio (x) = 0.27108 0.23250
# Poissons Ratio (y) = 0.37873 0.33724
# Poissons Ratio (z) = 0.27996 0.29066
#
# Static dielectric constant tensor:
#      x y z
#    x 6.455900 0.000000 0.000000 
#    y 0.000000 5.074730 0.000000 
#    z 0.000000 0.000000 3.734320 
# 
# 
# High freq. dielectric constant tensor:
#      x y z
#    x 1.878160 0.000000 0.000000 
#    y 0.000000 1.852300 0.000000 
#    z 0.000000 0.000000 1.850800 
# 
# From -- ./inp_files/13210.got.cif
#   From: 2010.03.12/outbox.cif.g09.slc.cpg/sg54_7_cif.got.tgz:13210.got - 2010.04.16 15:00:50.
