data_PCOD8223602
_publ_section_title
;
Structure prediction by ZEFSAII (Michael W. Deem and Ramdas Pophale) SiO2 
 PCOD8223602
Probable space group: P C C A
;
_chemical_formula_sum "Si O2"
_cell_formula_units_Z 36
_cell_length_a 10.351491
_cell_length_b 12.763676
_cell_length_c 12.558939
_cell_angle_alpha 90.000000
_cell_angle_beta 90.000000
_cell_angle_gamma 90.000000
_cell_volume 1659.325668
_symmetry_space_group_name_H-M "P C C A"
_symmetry_group_IT_number 54
_symmetry_cell_setting 'orthorhombic'
loop_
_space_group_symop_operation_xyz
x,y,z
1/2-x,-y,z
1/2+x,-y,1/2-z
-x,y,1/2-z
-x,-y,-z
1/2+x,y,-z
1/2-x,y,1/2+z
x,-y,1/2+z
loop_
_atom_site_type_symbol
_atom_site_label
_atom_site_fract_x
_atom_site_fract_y
_atom_site_fract_z
Si Si1 0.964499 0.694231 0.531578
Si Si2 0.728961 0.615536 0.402165
Si Si3 0.500000 0.043129 0.750000
Si Si4 0.320203 0.779640 0.278162
Si Si5 0.442102 0.156913 0.357914
O O1 0.844585 0.630075 0.485824
O O2 0.935318 0.728314 0.652740
O O3 0.092963 0.622760 0.534816
O O4 0.988971 0.798121 0.461929
O O5 0.750000 0.500000 0.352640
O O6 0.736012 0.700508 0.308784
O O7 0.623806 0.115704 0.778366
O O8 0.531921 0.968782 0.647948
O O9 0.209164 0.814717 0.360586
O O10 0.500000 0.209573 0.250000
#
# Coordination Sequence:
#
# PCOD8223602 Si02
#       5
#     8   8   4   8   8
#     4  12  24  46  72 101 141 183 238 291 352 429
#     4  12  26  46  70 101 136 186 236 300 354 413
#     4  10  22  42  70 100 138 188 234 284 358 418
#     4  12  23  46  68 100 147 176 240 293 350 424
#     4  10  23  42  69 100 139 186 223 293 348 421
#
# _framework density 21.69556
#
# number of rings (size 3 to 8) (size 9 to 14) (size 15 to 20)
#    0.667    0.000    6.667    1.333    0.000    1.778 
#    8.000    0.000    0.000    0.000    0.000    0.000 
#    0.000    0.000    0.000    0.000    0.000    0.000 
#
# Total GULP energy -446359.355188 kJ/mol
# GULP energy per Si atom -12398.870977 kJ/mol
# Density = 2.164618 g / cm^3
# Si number density = 21.695560 Si / 1000 Ang^3
#
#
#
# Elastic Constant Matrix: (Units=GPa)
#
#
# Indices 1 2 3 4 5 6 
#
# 1 140.7492 48.3974 27.0395 0.0000 0.0000 0.0000
# 2 48.3974 137.3489 37.5013 0.0000 0.0000 0.0000
# 3 27.0395 37.5013 85.4922 0.0000 0.0000 0.0000
# 4 0.0000 0.0000 0.0000 24.1229 0.0000 0.0000
# 5 0.0000 0.0000 0.0000 0.0000 39.8297 0.0000
# 6 0.0000 0.0000 0.0000 0.0000 0.0000 30.8679
#
#
#
# Elastic Compliance Matrix: (Units=1/GPa)
#
#
# Indices 1 2 3 4 5 6 
#
# 1 0.008254 -0.002494 -0.001516 0.000000 0.000000 0.000000
# 2 -0.002494 0.009025 -0.003170 0.000000 0.000000 0.000000
# 3 -0.001516 -0.003170 0.013567 0.000000 0.000000 0.000000
# 4 0.000000 0.000000 0.000000 0.041454 0.000000 0.000000
# 5 0.000000 0.000000 0.000000 0.000000 0.025107 0.000000
# 6 0.000000 0.000000 0.000000 0.000000 0.000000 0.032396
#
#
# Mechanical properties :
#
#
# Convention : Reuss Voigt Hill
#
# Bulk Modulus (GPa) = 60.66243 65.49629 63.07936
# Shear Modulus (GPa) = 33.40908 35.67424 34.54166
#
# Velocity S-wave (km/s) = 3.92842 4.05941 3.99445
# Velocity P-wave (km/s) = 6.97123 7.22676 7.10015
#
# Compressibility (1/GPa) = 0.01648467
#
# Stress axis : x y z
#
# Youngs Moduli (GPa) = 121.15552 110.80096 73.70770
#
# Poissons Ratio (x) = 0.27638 0.11177
# Poissons Ratio (y) = 0.30221 0.23365
# Poissons Ratio (z) = 0.18372 0.35124
#
# Static dielectric constant tensor:
#      x y z
#    x 4.139060 0.000000 0.000000 
#    y 0.000000 3.789130 0.000000 
#    z 0.000000 0.000000 3.483700 
# 
# 
# High freq. dielectric constant tensor:
#      x y z
#    x 1.876130 0.000000 0.000000 
#    y 0.000000 1.843370 0.000000 
#    z 0.000000 0.000000 1.828860 
# 
# From -- ./inp_files/7415.got.cif
#   From: 2010.03.12/outbox.cif.g09.slc.cpg/sg54_4_cif.got.tgz:7415.got - 2010.04.16 15:00:50.
