data_PCOD8223850
_publ_section_title
;
Structure prediction by ZEFSAII (Michael W. Deem and Ramdas Pophale) SiO2 
 PCOD8223850
Probable space group: P C C A
;
_chemical_formula_sum "Si O2"
_cell_formula_units_Z 32
_cell_length_a 5.035142
_cell_length_b 15.237061
_cell_length_c 17.441189
_cell_angle_alpha 90.000000
_cell_angle_beta 90.000000
_cell_angle_gamma 90.000000
_cell_volume 1338.101377
_symmetry_space_group_name_H-M "P C C A"
_symmetry_group_IT_number 54
_symmetry_cell_setting 'orthorhombic'
loop_
_space_group_symop_operation_xyz
x,y,z
1/2-x,-y,z
1/2+x,-y,1/2-z
-x,y,1/2-z
-x,-y,-z
1/2+x,y,-z
1/2-x,y,1/2+z
x,-y,1/2+z
loop_
_atom_site_type_symbol
_atom_site_label
_atom_site_fract_x
_atom_site_fract_y
_atom_site_fract_z
Si Si1 0.910284 0.583155 0.335674
Si Si2 0.726168 0.899487 0.949036
Si Si3 0.928762 0.237409 0.336130
Si Si4 0.764076 0.324994 0.554882
O O1 0.750000 0.500000 0.367403
O O2 0.733255 0.671141 0.340342
O O3 0.000000 0.563748 0.250000
O O4 0.169779 0.591259 0.390812
O O5 0.755640 0.839761 0.873822
O O6 0.750000 0.000000 0.922259
O O7 0.442578 0.877471 0.985905
O O8 0.000000 0.210586 0.250000
O O9 0.207468 0.247664 0.382902
O O10 0.504042 0.319988 0.503513
#
# Coordination Sequence:
#
# PCOD8223850 Si02
#       4
#     8   8   8   8
#     4  12  28  48  74 106 150 206 255 310 380 456
#     4  10  24  47  76 109 147 194 242 301 381 457
#     4  12  25  46  75 111 149 200 254 312 380 450
#     4  12  26  46  72 106 144 190 248 313 371 438
#
# _framework density 23.914484000000002
#
# number of rings (size 3 to 8) (size 9 to 14) (size 15 to 20)
#    0.000    0.500    5.000    2.250    3.500    1.000 
#    0.000    5.000    0.000    0.000    0.000    0.000 
#    0.000    0.000    0.000    0.000    0.000    0.000 
#
# Total GULP energy -396470.883958 kJ/mol
# GULP energy per Si atom -12389.715124 kJ/mol
# Density = 2.386005 g / cm^3
# Si number density = 23.914484 Si / 1000 Ang^3
#
#
#
# Elastic Constant Matrix: (Units=GPa)
#
#
# Indices 1 2 3 4 5 6 
#
# 1 141.0014 38.9533 67.6012 0.0000 0.0000 0.0000
# 2 38.9533 134.1031 50.5964 0.0000 0.0000 0.0000
# 3 67.6012 50.5964 175.0802 0.0000 0.0000 0.0000
# 4 0.0000 0.0000 0.0000 60.8815 0.0000 0.0000
# 5 0.0000 0.0000 0.0000 0.0000 33.7637 0.0000
# 6 0.0000 0.0000 0.0000 0.0000 0.0000 35.1270
#
#
#
# Elastic Compliance Matrix: (Units=1/GPa)
#
#
# Indices 1 2 3 4 5 6 
#
# 1 0.008949 -0.001454 -0.003035 0.000000 0.000000 0.000000
# 2 -0.001454 0.008606 -0.001925 0.000000 0.000000 0.000000
# 3 -0.003035 -0.001925 0.007440 0.000000 0.000000 0.000000
# 4 0.000000 0.000000 0.000000 0.016425 0.000000 0.000000
# 5 0.000000 0.000000 0.000000 0.000000 0.029618 0.000000
# 6 0.000000 0.000000 0.000000 0.000000 0.000000 0.028468
#
#
# Mechanical properties :
#
#
# Convention : Reuss Voigt Hill
#
# Bulk Modulus (GPa) = 82.20205 84.94293 83.57249
# Shear Modulus (GPa) = 42.95872 45.49002 44.22437
#
# Velocity S-wave (km/s) = 4.24293 4.36615 4.30498
# Velocity P-wave (km/s) = 7.64534 7.81116 7.72870
#
# Compressibility (1/GPa) = 0.01216515
#
# Stress axis : x y z
#
# Youngs Moduli (GPa) = 111.74391 116.19986 134.40868
#
# Poissons Ratio (x) = 0.16899 0.40794
# Poissons Ratio (y) = 0.16251 0.25880
# Poissons Ratio (z) = 0.33915 0.22374
#
# Static dielectric constant tensor:
#      x y z
#    x 3.714500 0.000000 0.000000 
#    y 0.000000 4.446980 0.000000 
#    z 0.000000 0.000000 4.813010 
# 
# 
# High freq. dielectric constant tensor:
#      x y z
#    x 1.966680 0.000000 0.000000 
#    y 0.000000 1.937620 0.000000 
#    z 0.000000 0.000000 1.963360 
# 
# From -- ./inp_files/15714.got.cif
#   From: 2010.03.12/outbox.cif.g09.slc.cpg/sg54_8_cif.got.tgz:15714.got - 2010.04.16 15:00:50.
