data_PCOD8223038
_publ_section_title
;
Structure prediction by ZEFSAII (Michael W. Deem and Ramdas Pophale) SiO2 
 PCOD8223038
Probable space group: P C C A
;
_chemical_formula_sum "Si O2"
_cell_formula_units_Z 40
_cell_length_a 15.589366
_cell_length_b 7.327654
_cell_length_c 16.925959
_cell_angle_alpha 90.000000
_cell_angle_beta 90.000000
_cell_angle_gamma 90.000000
_cell_volume 1933.511201
_symmetry_space_group_name_H-M "P C C A"
_symmetry_group_IT_number 54
_symmetry_cell_setting 'orthorhombic'
loop_
_space_group_symop_operation_xyz
x,y,z
1/2-x,-y,z
1/2+x,-y,1/2-z
-x,y,1/2-z
-x,-y,-z
1/2+x,y,-z
1/2-x,y,1/2+z
x,-y,1/2+z
loop_
_atom_site_type_symbol
_atom_site_label
_atom_site_fract_x
_atom_site_fract_y
_atom_site_fract_z
Si Si1 0.315372 0.836133 0.919068
Si Si2 0.750000 0.000000 0.827757
Si Si3 0.909474 0.901668 0.234048
Si Si4 0.811781 0.334291 0.420578
Si Si5 0.590474 0.493032 0.781019
Si Si6 0.750000 0.500000 0.672906
O O1 0.393845 0.885773 0.860427
O O2 0.262243 0.675718 0.879619
O O3 0.250000 0.000000 0.935368
O O4 0.353113 0.761327 0.001986
O O5 0.832827 0.983817 0.771790
O O6 0.748990 0.184581 0.878395
O O7 0.915343 0.711568 0.281662
O O8 0.000000 0.003914 0.250000
O O9 0.750000 0.500000 0.445039
O O10 0.890207 0.409099 0.367421
O O11 0.500000 0.411046 0.750000
O O12 0.669510 0.440049 0.725493
#
# Coordination Sequence:
#
# PCOD8223038 Si02
#       6
#     8   4   8   8   8   4
#     4  11  22  39  64  94 129 165 212 265 328 374
#     4  12  22  40  68  90 128 176 218 266 316 382
#     4  10  22  42  66  96 129 170 223 266 309 392
#     4  12  22  40  64  96 129 167 214 267 324 383
#     4  10  21  40  65  95 127 170 221 257 319 387
#     4  10  20  40  64  88 124 174 210 264 310 382
#
# _framework density 20.687752
#
# number of rings (size 3 to 8) (size 9 to 14) (size 15 to 20)
#    0.000    1.200    6.000    1.200    0.000    0.800 
#    0.000   12.000    0.000    0.000    0.000    0.000 
#    0.000    0.000    0.000    0.000    0.000    0.000 
#
# Total GULP energy -495879.865719 kJ/mol
# GULP energy per Si atom -12396.996643 kJ/mol
# Density = 2.064067 g / cm^3
# Si number density = 20.687752 Si / 1000 Ang^3
#
#
#
# Elastic Constant Matrix: (Units=GPa)
#
#
# Indices 1 2 3 4 5 6 
#
# 1 151.5449 17.4508 67.2942 0.0000 0.0000 0.0000
# 2 17.4508 72.8361 42.2066 0.0000 0.0000 0.0000
# 3 67.2942 42.2066 154.6737 0.0000 0.0000 0.0000
# 4 0.0000 0.0000 0.0000 21.6130 0.0000 0.0000
# 5 0.0000 0.0000 0.0000 0.0000 4.9567 0.0000
# 6 0.0000 0.0000 0.0000 0.0000 0.0000 18.8373
#
#
#
# Elastic Compliance Matrix: (Units=1/GPa)
#
#
# Indices 1 2 3 4 5 6 
#
# 1 0.008180 0.000122 -0.003592 0.000000 0.000000 0.000000
# 2 0.000122 0.016310 -0.004504 0.000000 0.000000 0.000000
# 3 -0.003592 -0.004504 0.009257 0.000000 0.000000 0.000000
# 4 0.000000 0.000000 0.000000 0.046268 0.000000 0.000000
# 5 0.000000 0.000000 0.000000 0.000000 0.201749 0.000000
# 6 0.000000 0.000000 0.000000 0.000000 0.000000 0.053086
#
#
# Mechanical properties :
#
#
# Convention : Reuss Voigt Hill
#
# Bulk Modulus (GPa) = 56.18310 70.32865 63.25588
# Shear Modulus (GPa) = 14.01618 25.88828 19.95223
#
# Velocity S-wave (km/s) = 2.60573 3.54133 3.10892
# Velocity P-wave (km/s) = 6.02243 7.12674 6.59773
#
# Compressibility (1/GPa) = 0.01779895
#
# Stress axis : x y z
#
# Youngs Moduli (GPa) = 122.25359 61.31219 108.02778
#
# Poissons Ratio (x) = -0.00746 0.38803
# Poissons Ratio (y) = -0.01487 0.48650
# Poissons Ratio (z) = 0.43913 0.27612
#
# Static dielectric constant tensor:
#      x y z
#    x 3.838800 0.000000 0.000000 
#    y 0.000000 3.898340 0.000000 
#    z 0.000000 0.000000 3.927870 
# 
# 
# High freq. dielectric constant tensor:
#      x y z
#    x 1.789680 0.000000 0.000000 
#    y 0.000000 1.822230 0.000000 
#    z 0.000000 0.000000 1.807680 
# 
# From -- ./inp_files/17871.got.cif
#   From: 2010.03.12/outbox.cif.g09.slc.cpg/sg54_9_cif.got.tgz:17871.got - 2010.04.16 15:00:50.
