data_PCOD8223128
_publ_section_title
;
Structure prediction by ZEFSAII (Michael W. Deem and Ramdas Pophale) SiO2 
 PCOD8223128
Probable space group: P C C A
;
_chemical_formula_sum "Si O2"
_cell_formula_units_Z 56
_cell_length_a 15.232518
_cell_length_b 34.044871
_cell_length_c 5.185865
_cell_angle_alpha 90.000000
_cell_angle_beta 90.000000
_cell_angle_gamma 90.000000
_cell_volume 2689.333117
_symmetry_space_group_name_H-M "P C C A"
_symmetry_group_IT_number 54
_symmetry_cell_setting 'orthorhombic'
loop_
_space_group_symop_operation_xyz
x,y,z
1/2-x,-y,z
1/2+x,-y,1/2-z
-x,y,1/2-z
-x,-y,-z
1/2+x,y,-z
1/2-x,y,1/2+z
x,-y,1/2+z
loop_
_atom_site_type_symbol
_atom_site_label
_atom_site_fract_x
_atom_site_fract_y
_atom_site_fract_z
Si Si1 0.194978 0.317477 0.013721
Si Si2 0.055145 0.251714 0.994172
Si Si3 0.943078 0.836943 0.007548
Si Si4 0.400642 0.982768 0.002587
Si Si5 0.309543 0.095865 0.525859
Si Si6 0.308877 0.597335 0.106650
Si Si7 0.898134 0.480148 0.289934
O O1 0.274627 0.314991 0.217154
O O2 0.133339 0.280764 0.058939
O O3 0.147325 0.359273 0.075788
O O4 0.088957 0.207628 0.937422
O O5 0.000000 0.250123 0.250000
O O6 0.000000 0.267603 0.750000
O O7 0.854249 0.861659 0.983422
O O8 0.000000 0.841127 0.750000
O O9 0.000000 0.852131 0.250000
O O10 0.351535 0.998624 0.748700
O O11 0.389783 0.935720 0.013240
O O12 0.500000 0.000000 0.000000
O O13 0.243133 0.090682 0.290066
O O14 0.254110 0.591601 0.365428
O O15 0.385000 0.564913 0.122958
O O16 0.855525 0.507931 0.514063
O O17 0.000000 0.488668 0.250000
#
# Coordination Sequence:
#
# PCOD8223128 Si02
#       7
#     8   8   8   8   8   8   8
#     4  10  21  37  58  85 119 156 188 241 300 352
#     4  10  21  39  61  92 118 154 202 240 281 349
#     4  10  23  41  66  88 123 164 197 235 291 360
#     4  10  23  40  63  88 116 163 203 232 292 361
#     4  12  26  41  64  97 125 152 200 257 296 338
#     4  10  21  36  54  80 110 144 191 230 283 349
#     4  10  21  36  53  76 107 143 186 237 289 339
#
# _framework density 20.823007
#
# number of rings (size 3 to 8) (size 9 to 14) (size 15 to 20)
#    0.000    1.714    0.000    3.429    4.000    5.143 
#    0.000    2.143    0.000    0.000    0.000    0.000 
#    0.000    0.000    0.000    0.000    0.000    0.000 
#
# Total GULP energy -694089.589698 kJ/mol
# GULP energy per Si atom -12394.456959 kJ/mol
# Density = 2.077561 g / cm^3
# Si number density = 20.823007 Si / 1000 Ang^3
#
#
#
# Elastic Constant Matrix: (Units=GPa)
#
#
# Indices 1 2 3 4 5 6 
#
# 1 47.6630 45.1207 14.7569 0.0000 0.0000 0.0000
# 2 45.1207 135.9368 24.0147 0.0000 0.0000 0.0000
# 3 14.7569 24.0147 157.1042 0.0000 0.0000 0.0000
# 4 0.0000 0.0000 0.0000 31.4839 0.0000 0.0000
# 5 0.0000 0.0000 0.0000 0.0000 14.5394 0.0000
# 6 0.0000 0.0000 0.0000 0.0000 0.0000 48.0934
#
#
#
# Elastic Compliance Matrix: (Units=1/GPa)
#
#
# Indices 1 2 3 4 5 6 
#
# 1 0.030878 -0.010007 -0.001371 0.000000 0.000000 0.000000
# 2 -0.010007 0.010804 -0.000711 0.000000 0.000000 0.000000
# 3 -0.001371 -0.000711 0.006603 0.000000 0.000000 0.000000
# 4 0.000000 0.000000 0.000000 0.031762 0.000000 0.000000
# 5 0.000000 0.000000 0.000000 0.000000 0.068779 0.000000
# 6 0.000000 0.000000 0.000000 0.000000 0.000000 0.020793
#
#
# Mechanical properties :
#
#
# Convention : Reuss Voigt Hill
#
# Bulk Modulus (GPa) = 41.48327 56.49872 48.99099
# Shear Modulus (GPa) = 24.77302 35.94412 30.35857
#
# Velocity S-wave (km/s) = 3.45294 4.15923 3.82243
# Velocity P-wave (km/s) = 5.98850 7.08924 6.56199
#
# Compressibility (1/GPa) = 0.02410611
#
# Stress axis : x y z
#
# Youngs Moduli (GPa) = 32.38509 92.56132 151.45301
#
# Poissons Ratio (x) = 0.92627 0.20760
# Poissons Ratio (y) = 0.32408 0.10775
# Poissons Ratio (z) = 0.04439 0.06585
#
# Static dielectric constant tensor:
#      x y z
#    x 3.292840 0.000000 0.000000 
#    y 0.000000 4.098900 0.000000 
#    z 0.000000 0.000000 -14.140270 
# 
# 
# High freq. dielectric constant tensor:
#      x y z
#    x 1.777760 0.000000 0.000000 
#    y 0.000000 1.826880 0.000000 
#    z 0.000000 0.000000 1.851040 
# 
# From -- ./inp_files/763.got.cif
#   From: 2010.03.12/outbox.cif.g09.slc.cpg/sg54_1_cif.got.tgz:763.got - 2010.04.16 15:00:50.
