data_PCOD8223614
_publ_section_title
;
Structure prediction by ZEFSAII (Michael W. Deem and Ramdas Pophale) SiO2 
 PCOD8223614
Probable space group: P C C A
;
_chemical_formula_sum "Si O2"
_cell_formula_units_Z 40
_cell_length_a 13.704400
_cell_length_b 13.216160
_cell_length_c 9.259949
_cell_angle_alpha 90.000000
_cell_angle_beta 90.000000
_cell_angle_gamma 90.000000
_cell_volume 1677.157732
_symmetry_space_group_name_H-M "P C C A"
_symmetry_group_IT_number 54
_symmetry_cell_setting 'orthorhombic'
loop_
_space_group_symop_operation_xyz
x,y,z
1/2-x,-y,z
1/2+x,-y,1/2-z
-x,y,1/2-z
-x,-y,-z
1/2+x,y,-z
1/2-x,y,1/2+z
x,-y,1/2+z
loop_
_atom_site_type_symbol
_atom_site_label
_atom_site_fract_x
_atom_site_fract_y
_atom_site_fract_z
Si Si1 0.477274 0.210729 0.098266
Si Si2 0.688745 0.909573 0.183880
Si Si3 0.750000 0.500000 0.240604
Si Si4 0.000000 0.018852 0.750000
Si Si5 0.679806 0.629937 0.990624
Si Si6 0.315802 0.202749 0.538040
O O1 0.500000 0.268426 0.250000
O O2 0.441012 0.095781 0.140023
O O3 0.573548 0.189943 0.007201
O O4 0.401049 0.279743 0.009275
O O5 0.741535 0.875901 0.037245
O O6 0.691747 0.814470 0.291206
O O7 0.750000 0.000000 0.254105
O O8 0.576586 0.947308 0.164109
O O9 0.676093 0.563934 0.137190
O O10 0.823299 0.563530 0.344174
O O11 0.785795 0.682309 0.993309
#
# Coordination Sequence:
#
# PCOD8223614 Si02
#       6
#     8   8   4   4   8   8
#     4  10  22  43  65 100 144 182 228 293 349 407
#     4  12  24  42  66 101 144 190 244 274 332 403
#     4  10  24  46  78 102 128 182 234 300 360 454
#     4  10  24  42  64 104 144 192 238 282 326 418
#     4  11  23  47  72 100 139 175 233 292 368 421
#     4  12  25  43  69 100 142 192 223 297 348 409
#
# _framework density 23.849875999999998
#
# number of rings (size 3 to 8) (size 9 to 14) (size 15 to 20)
#    0.600    0.400    2.000    5.400    2.800    0.800 
#    0.000   11.000    0.000    0.000    0.000    0.000 
#    0.000    0.000    0.000    0.000    0.000    0.000 
#
# Total GULP energy -495544.795251 kJ/mol
# GULP energy per Si atom -12388.619881 kJ/mol
# Density = 2.379559 g / cm^3
# Si number density = 23.849876 Si / 1000 Ang^3
#
#
#
# Elastic Constant Matrix: (Units=GPa)
#
#
# Indices 1 2 3 4 5 6 
#
# 1 109.4777 40.0590 28.4578 0.0000 0.0000 0.0000
# 2 40.0590 99.1053 28.0090 0.0000 0.0000 0.0000
# 3 28.4578 28.0090 95.3938 0.0000 0.0000 0.0000
# 4 0.0000 0.0000 0.0000 15.7542 0.0000 0.0000
# 5 0.0000 0.0000 0.0000 0.0000 -13.4891 0.0000
# 6 0.0000 0.0000 0.0000 0.0000 0.0000 42.9485
#
#
#
# Elastic Compliance Matrix: (Units=1/GPa)
#
#
# Indices 1 2 3 4 5 6 
#
# 1 0.011120 -0.003879 -0.002178 0.000000 0.000000 0.000000
# 2 -0.003879 0.012357 -0.002471 0.000000 0.000000 0.000000
# 3 -0.002178 -0.002471 0.011858 0.000000 0.000000 0.000000
# 4 0.000000 0.000000 0.000000 0.063475 0.000000 0.000000
# 5 0.000000 0.000000 0.000000 0.000000 -0.074134 0.000000
# 6 0.000000 0.000000 0.000000 0.000000 0.000000 0.023284
#
#
# Mechanical properties :
#
#
# Convention : Reuss Voigt Hill
#
# Bulk Modulus (GPa) = 54.71032 55.22536 54.96784
# Shear Modulus (GPa) = 70.31510 22.87280 46.59395
#
# Velocity S-wave (km/s) = 5.43566 3.10018 4.42479
# Velocity P-wave (km/s) = 7.89838 6.00171 7.01445
#
# Compressibility (1/GPa) = 0.01827809
#
# Stress axis : x y z
#
# Youngs Moduli (GPa) = 89.92866 80.92875 84.33002
#
# Poissons Ratio (x) = 0.31393 0.18370
# Poissons Ratio (y) = 0.34884 0.20837
# Poissons Ratio (z) = 0.19589 0.19996
#
# Static dielectric constant tensor:
#      x y z
#    x 4.037160 0.000000 0.000000 
#    y 0.000000 4.476710 0.000000 
#    z 0.000000 0.000000 4.224420 
# 
# 
# High freq. dielectric constant tensor:
#      x y z
#    x 1.925780 0.000000 0.000000 
#    y 0.000000 1.946660 0.000000 
#    z 0.000000 0.000000 1.952760 
# 
# From -- ./inp_files/3456.got.cif
#   From: 2010.03.12/outbox.cif.g09.slc.cpg/sg54_2_cif.got.tgz:3456.got - 2010.04.16 15:00:50.
