data_PCOD8223098
_publ_section_title
;
Structure prediction by ZEFSAII (Michael W. Deem and Ramdas Pophale) SiO2 
 PCOD8223098
Probable space group: P C C A
;
_chemical_formula_sum "Si O2"
_cell_formula_units_Z 56
_cell_length_a 14.497459
_cell_length_b 12.879810
_cell_length_c 14.604836
_cell_angle_alpha 90.000000
_cell_angle_beta 90.000000
_cell_angle_gamma 90.000000
_cell_volume 2727.080954
_symmetry_space_group_name_H-M "P C C A"
_symmetry_group_IT_number 54
_symmetry_cell_setting 'orthorhombic'
loop_
_space_group_symop_operation_xyz
x,y,z
1/2-x,-y,z
1/2+x,-y,1/2-z
-x,y,1/2-z
-x,-y,-z
1/2+x,y,-z
1/2-x,y,1/2+z
x,-y,1/2+z
loop_
_atom_site_type_symbol
_atom_site_label
_atom_site_fract_x
_atom_site_fract_y
_atom_site_fract_z
Si Si1 0.180071 0.906944 0.304127
Si Si2 0.814489 0.755147 0.942840
Si Si3 0.741071 0.687955 0.633484
Si Si4 0.394887 0.364651 0.731798
Si Si5 0.897144 0.602752 0.270348
Si Si6 0.369842 0.802055 0.626847
Si Si7 0.458066 0.896978 0.960068
O O1 0.237239 0.808535 0.339485
O O2 0.123267 0.877468 0.213682
O O3 0.102826 0.938175 0.376514
O O4 0.250000 0.000000 0.285271
O O5 0.846502 0.696771 0.850713
O O6 0.725978 0.828271 0.923773
O O7 0.780296 0.677651 0.024721
O O8 0.896916 0.831930 0.969285
O O9 0.840136 0.648452 0.671515
O O10 0.662087 0.618363 0.679048
O O11 0.500000 0.328293 0.750000
O O12 0.392521 0.483875 0.698530
O O13 0.860730 0.679298 0.349357
O O14 0.000000 0.639686 0.250000
O O15 0.459548 0.819357 0.566016
O O16 0.500000 0.000000 0.000000
#
# Coordination Sequence:
#
# PCOD8223098 Si02
#       7
#     8   8   8   8   8   8   8
#     4  10  22  41  69  92 125 174 222 270 335 399
#     4  11  25  43  68  99 135 181 223 280 341 399
#     4  10  22  43  63  95 135 171 217 274 335 402
#     4  11  24  43  68 104 137 173 225 283 332 398
#     4  10  20  43  69  94 131 173 221 276 332 408
#     4  11  23  44  70  90 134 182 222 271 342 404
#     4  11  27  41  66 100 135 172 229 283 334 405
#
# _framework density 20.534777999999999
#
# number of rings (size 3 to 8) (size 9 to 14) (size 15 to 20)
#    0.000    1.429    2.857    3.429    8.000    0.000 
#    5.143    2.143    0.000    0.000    0.000    0.000 
#    0.000    0.000    0.000    0.000    0.000    0.000 
#
# Total GULP energy -694227.686710 kJ/mol
# GULP energy per Si atom -12396.922977 kJ/mol
# Density = 2.048804 g / cm^3
# Si number density = 20.534778 Si / 1000 Ang^3
#
#
#
# Elastic Constant Matrix: (Units=GPa)
#
#
# Indices 1 2 3 4 5 6 
#
# 1 149.1512 37.4908 44.1565 0.0000 0.0000 0.0000
# 2 37.4908 75.8070 23.6283 0.0000 0.0000 0.0000
# 3 44.1565 23.6283 94.0458 0.0000 0.0000 0.0000
# 4 0.0000 0.0000 0.0000 16.9568 0.0000 0.0000
# 5 0.0000 0.0000 0.0000 0.0000 40.6109 0.0000
# 6 0.0000 0.0000 0.0000 0.0000 0.0000 23.8758
#
#
#
# Elastic Compliance Matrix: (Units=1/GPa)
#
#
# Indices 1 2 3 4 5 6 
#
# 1 0.008443 -0.003190 -0.003163 0.000000 0.000000 0.000000
# 2 -0.003190 0.015517 -0.002401 0.000000 0.000000 0.000000
# 3 -0.003163 -0.002401 0.012721 0.000000 0.000000 0.000000
# 4 0.000000 0.000000 0.000000 0.058973 0.000000 0.000000
# 5 0.000000 0.000000 0.000000 0.000000 0.024624 0.000000
# 6 0.000000 0.000000 0.000000 0.000000 0.000000 0.041883
#
#
# Mechanical properties :
#
#
# Convention : Reuss Voigt Hill
#
# Bulk Modulus (GPa) = 52.15217 58.83945 55.49581
# Shear Modulus (GPa) = 26.87308 30.53727 28.70517
#
# Velocity S-wave (km/s) = 3.62147 3.86048 3.74288
# Velocity P-wave (km/s) = 6.55277 6.97042 6.76482
#
# Compressibility (1/GPa) = 0.01917466
#
# Stress axis : x y z
#
# Youngs Moduli (GPa) = 118.44621 64.44464 78.60847
#
# Poissons Ratio (x) = 0.20555 0.24861
# Poissons Ratio (y) = 0.37780 0.18874
# Poissons Ratio (z) = 0.37460 0.15473
#
# Static dielectric constant tensor:
#      x y z
#    x 4.186890 0.000000 0.000000 
#    y 0.000000 3.595860 0.000000 
#    z 0.000000 0.000000 3.884970 
# 
# 
# High freq. dielectric constant tensor:
#      x y z
#    x 1.825290 0.000000 0.000000 
#    y 0.000000 1.793310 0.000000 
#    z 0.000000 0.000000 1.797930 
# 
# From -- ./inp_files/13523.got.cif
#   From: 2010.03.12/outbox.cif.g09.slc.cpg/sg54_7_cif.got.tgz:13523.got - 2010.04.16 15:00:50.
