data_PCOD8223132
_publ_section_title
;
Structure prediction by ZEFSAII (Michael W. Deem and Ramdas Pophale) SiO2 
 PCOD8223132
Probable space group: P C C A
;
_chemical_formula_sum "Si O2"
_cell_formula_units_Z 48
_cell_length_a 5.225531
_cell_length_b 24.135483
_cell_length_c 17.453717
_cell_angle_alpha 90.000000
_cell_angle_beta 90.000000
_cell_angle_gamma 90.000000
_cell_volume 2201.275261
_symmetry_space_group_name_H-M "P C C A"
_symmetry_group_IT_number 54
_symmetry_cell_setting 'orthorhombic'
loop_
_space_group_symop_operation_xyz
x,y,z
1/2-x,-y,z
1/2+x,-y,1/2-z
-x,y,1/2-z
-x,-y,-z
1/2+x,y,-z
1/2-x,y,1/2+z
x,-y,1/2+z
loop_
_atom_site_type_symbol
_atom_site_label
_atom_site_fract_x
_atom_site_fract_y
_atom_site_fract_z
Si Si1 0.002367 0.966245 0.839713
Si Si2 0.351246 0.254233 0.954242
Si Si3 0.752542 0.283495 0.215279
Si Si4 0.253130 0.434834 0.546737
Si Si5 0.379755 0.875517 0.455274
Si Si6 0.250022 0.406609 0.717844
O O1 0.000000 0.954766 0.750000
O O2 0.028779 0.906575 0.878957
O O3 0.750000 0.000000 0.865817
O O4 0.250000 0.000000 0.865850
O O5 0.271379 0.284648 0.876246
O O6 0.369439 0.189263 0.937117
O O7 0.630992 0.271966 0.985041
O O8 0.500000 0.253190 0.250000
O O9 0.750048 0.345943 0.245541
O O10 0.000000 0.252083 0.250000
O O11 0.250000 0.500000 0.564081
O O12 0.506989 0.416642 0.501825
O O13 0.248934 0.402331 0.626417
O O14 0.593560 0.892019 0.518626
O O15 0.500000 0.438734 0.750000
O O16 0.000000 0.438680 0.750000
#
# Coordination Sequence:
#
# PCOD8223132 Si02
#       6
#     8   8   8   8   8   8
#     4  10  21  36  53  78 112 146 181 221 271 330
#     4  10  21  39  60  83 113 147 188 238 287 340
#     4  10  21  39  58  84 116 148 192 238 289 348
#     4  10  21  38  60  86 117 155 196 238 289 345
#     4  10  21  36  56  82 108 141 185 228 275 327
#     4  10  21  38  57  85 118 149 191 238 286 344
#
# _framework density 21.805543
#
# number of rings (size 3 to 8) (size 9 to 14) (size 15 to 20)
#    0.000    2.000    0.000    3.000    0.000    3.333 
#    0.000   22.500    0.000    0.000    0.000    0.000 
#    0.000    0.000    0.000    0.000    0.000    0.000 
#
# Total GULP energy -595005.934414 kJ/mol
# GULP energy per Si atom -12395.956967 kJ/mol
# Density = 2.175591 g / cm^3
# Si number density = 21.805543 Si / 1000 Ang^3
#
#
#
# Elastic Constant Matrix: (Units=GPa)
#
#
# Indices 1 2 3 4 5 6 
#
# 1 215.9702 21.2153 63.3896 0.0000 0.0000 0.0000
# 2 21.2153 44.0502 45.5081 0.0000 0.0000 0.0000
# 3 63.3896 45.5081 152.5252 0.0000 0.0000 0.0000
# 4 0.0000 0.0000 0.0000 18.9835 0.0000 0.0000
# 5 0.0000 0.0000 0.0000 0.0000 38.7252 0.0000
# 6 0.0000 0.0000 0.0000 0.0000 0.0000 11.6337
#
#
#
# Elastic Compliance Matrix: (Units=1/GPa)
#
#
# Indices 1 2 3 4 5 6 
#
# 1 0.005278 -0.000399 -0.002075 0.000000 0.000000 0.000000
# 2 -0.000399 0.032847 -0.009635 0.000000 0.000000 0.000000
# 3 -0.002075 -0.009635 0.010293 0.000000 0.000000 0.000000
# 4 0.000000 0.000000 0.000000 0.052677 0.000000 0.000000
# 5 0.000000 0.000000 0.000000 0.000000 0.025823 0.000000
# 6 0.000000 0.000000 0.000000 0.000000 0.000000 0.085957
#
#
# Mechanical properties :
#
#
# Convention : Reuss Voigt Hill
#
# Bulk Modulus (GPa) = 41.31848 74.75241 58.03545
# Shear Modulus (GPa) = 20.39490 32.69733 26.54611
#
# Velocity S-wave (km/s) = 3.06160 3.87653 3.49291
# Velocity P-wave (km/s) = 5.61138 7.37513 6.55287
#
# Compressibility (1/GPa) = 0.02420224
#
# Stress axis : x y z
#
# Youngs Moduli (GPa) = 189.45152 30.44428 97.15175
#
# Poissons Ratio (x) = 0.01214 0.20156
# Poissons Ratio (y) = 0.07555 0.93602
# Poissons Ratio (z) = 0.39306 0.29332
#
# Static dielectric constant tensor:
#      x y z
#    x -5.066480 0.000000 0.000000 
#    y 0.000000 3.540210 0.000000 
#    z 0.000000 0.000000 3.750100 
# 
# 
# High freq. dielectric constant tensor:
#      x y z
#    x 1.893220 0.000000 0.000000 
#    y 0.000000 1.824640 0.000000 
#    z 0.000000 0.000000 1.856950 
# 
# From -- ./inp_files/10916.got.cif
#   From: 2010.03.12/outbox.cif.g09.slc.cpg/sg54_6_cif.got.tgz:10916.got - 2010.04.16 15:00:50.
