data_PCOD8223157
_publ_section_title
;
Structure prediction by ZEFSAII (Michael W. Deem and Ramdas Pophale) SiO2 
 PCOD8223157
Probable space group: P C C A
;
_chemical_formula_sum "Si O2"
_cell_formula_units_Z 64
_cell_length_a 23.785592
_cell_length_b 13.726941
_cell_length_c 9.780009
_cell_angle_alpha 90.000000
_cell_angle_beta 90.000000
_cell_angle_gamma 90.000000
_cell_volume 3193.206367
_symmetry_space_group_name_H-M "P C C A"
_symmetry_group_IT_number 54
_symmetry_cell_setting 'orthorhombic'
loop_
_space_group_symop_operation_xyz
x,y,z
1/2-x,-y,z
1/2+x,-y,1/2-z
-x,y,1/2-z
-x,-y,-z
1/2+x,y,-z
1/2-x,y,1/2+z
x,-y,1/2+z
loop_
_atom_site_type_symbol
_atom_site_label
_atom_site_fract_x
_atom_site_fract_y
_atom_site_fract_z
Si Si1 0.316745 0.613586 0.221582
Si Si2 0.961160 0.466859 0.618649
Si Si3 0.625724 0.681298 0.540609
Si Si4 0.565314 0.970433 0.770918
Si Si5 0.887563 0.639062 0.539513
Si Si6 0.027591 0.214704 0.606505
Si Si7 0.918788 0.117017 0.497344
Si Si8 0.191012 0.607788 0.216745
O O1 0.346167 0.680538 0.340840
O O2 0.253429 0.648526 0.185742
O O3 0.310361 0.502318 0.272382
O O4 0.353140 0.616687 0.084576
O O5 0.935516 0.359581 0.588376
O O6 0.911379 0.545640 0.623760
O O7 0.000000 0.462691 0.750000
O O8 0.000000 0.500000 0.500000
O O9 0.624041 0.793402 0.495647
O O10 0.667479 0.678282 0.667487
O O11 0.500000 0.992468 0.750000
O O12 0.572844 0.868161 0.851860
O O13 0.594259 0.957724 0.622399
O O14 0.591191 0.059793 0.855727
O O15 0.939179 0.705239 0.484308
O O16 0.848649 0.610515 0.414493
O O17 0.000000 0.255054 0.750000
O O18 0.981422 0.162079 0.510884
#
# Coordination Sequence:
#
# PCOD8223157 Si02
#       8
#     8   8   8   8   8   8   8   8
#     4  11  23  38  60  89 112 155 211 267 294 335
#     4  12  24  37  51  78 122 163 192 224 280 356
#     4  12  23  40  58  88 121 159 198 242 306 363
#     4   9  18  36  57  83 112 154 195 242 294 333
#     4  12  22  38  59  86 117 164 207 246 294 354
#     4   9  19  36  57  86 117 160 200 238 293 356
#     4  10  21  36  59  86 118 154 194 242 292 364
#     4  11  21  41  62  80 118 159 207 259 304 343
#
# _framework density 20.042549999999999
#
# number of rings (size 3 to 8) (size 9 to 14) (size 15 to 20)
#    0.000    1.500    2.500    6.000    0.000    6.500 
#    0.000    0.625    0.000    0.000    0.000   14.875 
#    0.000    0.000    0.000    0.000    0.000    0.000 
#
# Total GULP energy -793131.500930 kJ/mol
# GULP energy per Si atom -12392.679702 kJ/mol
# Density = 1.999693 g / cm^3
# Si number density = 20.042550 Si / 1000 Ang^3
#
#
#
# Elastic Constant Matrix: (Units=GPa)
#
#
# Indices 1 2 3 4 5 6 
#
# 1 91.0700 33.5355 53.8233 0.0000 0.0000 0.0000
# 2 33.5355 94.8848 50.4233 0.0000 0.0000 0.0000
# 3 53.8233 50.4233 122.6803 0.0000 0.0000 0.0000
# 4 0.0000 0.0000 0.0000 27.5640 0.0000 0.0000
# 5 0.0000 0.0000 0.0000 0.0000 23.7379 0.0000
# 6 0.0000 0.0000 0.0000 0.0000 0.0000 59.1801
#
#
#
# Elastic Compliance Matrix: (Units=1/GPa)
#
#
# Indices 1 2 3 4 5 6 
#
# 1 0.015221 -0.002343 -0.005715 0.000000 0.000000 0.000000
# 2 -0.002343 0.013845 -0.004663 0.000000 0.000000 0.000000
# 3 -0.005715 -0.004663 0.012575 0.000000 0.000000 0.000000
# 4 0.000000 0.000000 0.000000 0.036279 0.000000 0.000000
# 5 0.000000 0.000000 0.000000 0.000000 0.042127 0.000000
# 6 0.000000 0.000000 0.000000 0.000000 0.000000 0.016898
#
#
# Mechanical properties :
#
#
# Convention : Reuss Voigt Hill
#
# Bulk Modulus (GPa) = 61.72735 64.91104 63.31920
# Shear Modulus (GPa) = 29.80010 33.48659 31.64334
#
# Velocity S-wave (km/s) = 3.86014 4.09195 3.97773
# Velocity P-wave (km/s) = 7.12268 7.40151 7.26343
#
# Compressibility (1/GPa) = 0.01620027
#
# Stress axis : x y z
#
# Youngs Moduli (GPa) = 65.69963 72.22901 79.52275
#
# Poissons Ratio (x) = 0.16920 0.45447
# Poissons Ratio (y) = 0.15390 0.37079
# Poissons Ratio (z) = 0.37547 0.33678
#
# Static dielectric constant tensor:
#      x y z
#    x 3.692640 0.000000 0.000000 
#    y 0.000000 3.848240 0.000000 
#    z 0.000000 0.000000 3.754440 
# 
# 
# High freq. dielectric constant tensor:
#      x y z
#    x 1.761100 0.000000 0.000000 
#    y 0.000000 1.758450 0.000000 
#    z 0.000000 0.000000 1.794580 
# 
# From -- ./inp_files/5294.got.cif
#   From: 2010.03.12/outbox.cif.g09.slc.cpg/sg54_3_cif.got.tgz:5294.got - 2010.04.16 15:00:50.
