data_PCOD8223255
_publ_section_title
;
Structure prediction by ZEFSAII (Michael W. Deem and Ramdas Pophale) SiO2 
 PCOD8223255
Probable space group: P C C A
;
_chemical_formula_sum "Si O2"
_cell_formula_units_Z 48
_cell_length_a 14.729144
_cell_length_b 16.483616
_cell_length_c 9.217281
_cell_angle_alpha 90.000000
_cell_angle_beta 90.000000
_cell_angle_gamma 90.000000
_cell_volume 2237.859540
_symmetry_space_group_name_H-M "P C C A"
_symmetry_group_IT_number 54
_symmetry_cell_setting 'orthorhombic'
loop_
_space_group_symop_operation_xyz
x,y,z
1/2-x,-y,z
1/2+x,-y,1/2-z
-x,y,1/2-z
-x,-y,-z
1/2+x,y,-z
1/2-x,y,1/2+z
x,-y,1/2+z
loop_
_atom_site_type_symbol
_atom_site_label
_atom_site_fract_x
_atom_site_fract_y
_atom_site_fract_z
Si Si1 0.090321 0.942819 0.341422
Si Si2 0.757380 0.303791 0.286115
Si Si3 0.170459 0.943068 0.042092
Si Si4 0.793583 0.193251 0.537900
Si Si5 0.089318 0.416031 0.668218
Si Si6 0.339799 0.451500 0.875490
O O1 0.119681 0.867105 0.445712
O O2 0.000000 0.922725 0.250000
O O3 0.084437 0.024422 0.443896
O O4 0.162494 0.956835 0.213355
O O5 0.812687 0.266913 0.424179
O O6 0.725218 0.227480 0.195356
O O7 0.667629 0.349506 0.337325
O O8 0.819062 0.363498 0.191203
O O9 0.199754 0.851067 0.009720
O O10 0.250000 0.000000 0.981412
O O11 0.116219 0.497218 0.749364
O O12 0.082651 0.441611 0.499184
O O13 0.000000 0.380370 0.750000
O O14 0.250000 0.500000 0.935074
#
# Coordination Sequence:
#
# PCOD8223255 Si02
#       6
#     8   8   8   8   8   8
#     4  11  23  39  64  94 130 162 212 265 321 368
#     4  11  22  40  65  91 125 171 218 258 317 392
#     4  10  21  39  63  90 118 168 214 254 302 389
#     4  11  22  40  65  90 125 168 218 257 316 388
#     4  11  23  39  64  93 128 162 213 270 321 372
#     4  10  21  39  64  92 122 170 219 258 314 394
#
# _framework density 21.449065999999998
#
# number of rings (size 3 to 8) (size 9 to 14) (size 15 to 20)
#    0.000    1.333    3.333    4.000    4.667    0.667 
#    0.000    0.000    0.000    0.000    0.000    0.000 
#    0.000    0.000    0.000    0.000    0.000    0.000 
#
# Total GULP energy -594791.780853 kJ/mol
# GULP energy per Si atom -12391.495434 kJ/mol
# Density = 2.140025 g / cm^3
# Si number density = 21.449066 Si / 1000 Ang^3
#
#
#
# Elastic Constant Matrix: (Units=GPa)
#
#
# Indices 1 2 3 4 5 6 
#
# 1 63.6699 22.7355 24.0442 0.0000 0.0000 0.0000
# 2 22.7355 98.2485 45.3877 0.0000 0.0000 0.0000
# 3 24.0442 45.3877 120.5877 0.0000 0.0000 0.0000
# 4 0.0000 0.0000 0.0000 35.7050 0.0000 0.0000
# 5 0.0000 0.0000 0.0000 0.0000 32.7334 0.0000
# 6 0.0000 0.0000 0.0000 0.0000 0.0000 16.1114
#
#
#
# Elastic Compliance Matrix: (Units=1/GPa)
#
#
# Indices 1 2 3 4 5 6 
#
# 1 0.017678 -0.002981 -0.002403 0.000000 0.000000 0.000000
# 2 -0.002981 0.012823 -0.004232 0.000000 0.000000 0.000000
# 3 -0.002403 -0.004232 0.010365 0.000000 0.000000 0.000000
# 4 0.000000 0.000000 0.000000 0.028007 0.000000 0.000000
# 5 0.000000 0.000000 0.000000 0.000000 0.030550 0.000000
# 6 0.000000 0.000000 0.000000 0.000000 0.000000 0.062068
#
#
# Mechanical properties :
#
#
# Convention : Reuss Voigt Hill
#
# Bulk Modulus (GPa) = 46.22313 51.87121 49.04717
# Shear Modulus (GPa) = 26.60513 29.59920 28.10217
#
# Velocity S-wave (km/s) = 3.52573 3.71883 3.62357
# Velocity P-wave (km/s) = 6.17830 6.53265 6.35794
#
# Compressibility (1/GPa) = 0.02163419
#
# Stress axis : x y z
#
# Youngs Moduli (GPa) = 56.56805 77.98396 96.48080
#
# Poissons Ratio (x) = 0.23245 0.23183
# Poissons Ratio (y) = 0.16861 0.40832
# Poissons Ratio (z) = 0.13593 0.33004
#
# Static dielectric constant tensor:
#      x y z
#    x 3.824690 0.000000 0.000000 
#    y 0.000000 3.923120 0.000000 
#    z 0.000000 0.000000 4.105410 
# 
# 
# High freq. dielectric constant tensor:
#      x y z
#    x 1.806350 0.000000 0.000000 
#    y 0.000000 1.842710 0.000000 
#    z 0.000000 0.000000 1.865670 
# 
# From -- ./inp_files/3592.got.cif
#   From: 2010.03.12/outbox.cif.g09.slc.cpg/sg54_2_cif.got.tgz:3592.got - 2010.04.16 15:00:50.
