data_PCOD8223320
_publ_section_title
;
Structure prediction by ZEFSAII (Michael W. Deem and Ramdas Pophale) SiO2 
 PCOD8223320
Probable space group: P C C A
;
_chemical_formula_sum "Si O2"
_cell_formula_units_Z 36
_cell_length_a 10.479424
_cell_length_b 5.943634
_cell_length_c 27.024193
_cell_angle_alpha 90.000000
_cell_angle_beta 90.000000
_cell_angle_gamma 90.000000
_cell_volume 1683.225123
_symmetry_space_group_name_H-M "P C C A"
_symmetry_group_IT_number 54
_symmetry_cell_setting 'orthorhombic'
loop_
_space_group_symop_operation_xyz
x,y,z
1/2-x,-y,z
1/2+x,-y,1/2-z
-x,y,1/2-z
-x,-y,-z
1/2+x,y,-z
1/2-x,y,1/2+z
x,-y,1/2+z
loop_
_atom_site_type_symbol
_atom_site_label
_atom_site_fract_x
_atom_site_fract_y
_atom_site_fract_z
Si Si1 0.881209 0.576745 0.939004
Si Si2 0.617837 0.117194 0.212486
Si Si3 0.579864 0.863465 0.114653
Si Si4 0.250000 0.500000 0.842059
Si Si5 0.566350 0.186771 0.032604
O O1 0.750000 0.500000 0.913303
O O2 0.945508 0.767811 0.905045
O O3 0.968297 0.358004 0.942460
O O4 0.845550 0.674710 0.993985
O O5 0.500000 0.134587 0.250000
O O6 0.651581 0.367209 0.193410
O O7 0.750000 0.000000 0.232833
O O8 0.560670 0.969094 0.168311
O O9 0.680206 0.662942 0.119410
O O10 0.636430 0.054876 0.077382
O O11 0.500000 0.000000 0.000000
#
# Coordination Sequence:
#
# PCOD8223320 Si02
#       5
#     8   8   8   4   8
#     4  10  21  41  60  93 130 172 219 266 321 383
#     4  10  23  46  70  99 129 169 217 273 338 405
#     4  10  21  42  64  93 131 168 216 266 325 390
#     4  10  22  42  68 100 126 170 222 262 326 402
#     4   9  20  40  56  88 126 168 215 259 313 369
#
# _framework density 21.387512000000001
#
# number of rings (size 3 to 8) (size 9 to 14) (size 15 to 20)
#    0.000    2.222    0.000    1.333    0.000    7.111 
#   68.000    0.000    0.000    0.000    0.000    0.000 
#    0.000    0.000    0.000    0.000    0.000    0.000 
#
# Total GULP energy -446057.969218 kJ/mol
# GULP energy per Si atom -12390.499145 kJ/mol
# Density = 2.133883 g / cm^3
# Si number density = 21.387512 Si / 1000 Ang^3
#
#
#
# Elastic Constant Matrix: (Units=GPa)
#
#
# Indices 1 2 3 4 5 6 
#
# 1 129.6613 55.6950 71.2139 0.0000 0.0000 0.0000
# 2 55.6950 135.4394 54.9489 0.0000 0.0000 0.0000
# 3 71.2139 54.9489 105.8714 0.0000 0.0000 0.0000
# 4 0.0000 0.0000 0.0000 33.8514 0.0000 0.0000
# 5 0.0000 0.0000 0.0000 0.0000 25.3869 0.0000
# 6 0.0000 0.0000 0.0000 0.0000 0.0000 28.2307
#
#
#
# Elastic Compliance Matrix: (Units=1/GPa)
#
#
# Indices 1 2 3 4 5 6 
#
# 1 0.012743 -0.002233 -0.007412 0.000000 0.000000 0.000000
# 2 -0.002233 0.009744 -0.003555 0.000000 0.000000 0.000000
# 3 -0.007412 -0.003555 0.016277 0.000000 0.000000 0.000000
# 4 0.000000 0.000000 0.000000 0.029541 0.000000 0.000000
# 5 0.000000 0.000000 0.000000 0.000000 0.039390 0.000000
# 6 0.000000 0.000000 0.000000 0.000000 0.000000 0.035422
#
#
# Mechanical properties :
#
#
# Convention : Reuss Voigt Hill
#
# Bulk Modulus (GPa) = 80.89252 81.63195 81.26223
# Shear Modulus (GPa) = 28.79540 30.10142 29.44841
#
# Velocity S-wave (km/s) = 3.67327 3.75564 3.71468
# Velocity P-wave (km/s) = 7.47629 7.55363 7.51506
#
# Compressibility (1/GPa) = 0.01236208
#
# Stress axis : x y z
#
# Youngs Moduli (GPa) = 78.47706 102.62750 61.43742
#
# Poissons Ratio (x) = 0.22913 0.45540
# Poissons Ratio (y) = 0.17521 0.21844
# Poissons Ratio (z) = 0.58171 0.36489
#
# Static dielectric constant tensor:
#      x y z
#    x 3.667400 0.000000 0.000000 
#    y 0.000000 12.623080 0.000000 
#    z 0.000000 0.000000 3.892780 
# 
# 
# High freq. dielectric constant tensor:
#      x y z
#    x 1.820420 0.000000 0.000000 
#    y 0.000000 1.870410 0.000000 
#    z 0.000000 0.000000 1.820550 
# 
# From -- ./inp_files/23825.got.cif
#   From: 2010.03.12/outbox.cif.g09.slc.cpg/sg54_12_cif.got.tgz:23825.got - 2010.04.16 15:00:50.
