data_PCOD8223986
_publ_section_title
;
Structure prediction by ZEFSAII (Michael W. Deem and Ramdas Pophale) SiO2 
 PCOD8223986
Probable space group: P C C A
;
_chemical_formula_sum "Si O2"
_cell_formula_units_Z 56
_cell_length_a 14.295640
_cell_length_b 14.362826
_cell_length_c 12.837557
_cell_angle_alpha 90.000000
_cell_angle_beta 90.000000
_cell_angle_gamma 90.000000
_cell_volume 2635.881531
_symmetry_space_group_name_H-M "P C C A"
_symmetry_group_IT_number 54
_symmetry_cell_setting 'orthorhombic'
loop_
_space_group_symop_operation_xyz
x,y,z
1/2-x,-y,z
1/2+x,-y,1/2-z
-x,y,1/2-z
-x,-y,-z
1/2+x,y,-z
1/2-x,y,1/2+z
x,-y,1/2+z
loop_
_atom_site_type_symbol
_atom_site_label
_atom_site_fract_x
_atom_site_fract_y
_atom_site_fract_z
Si Si1 0.107050 0.469679 0.280861
Si Si2 0.676282 0.357161 0.527909
Si Si3 0.473439 0.232450 0.068317
Si Si4 0.250000 0.000000 0.609303
Si Si5 0.250000 0.500000 0.126370
Si Si6 0.367054 0.137498 0.244937
Si Si7 0.143769 0.673330 0.351914
Si Si8 0.081530 0.069720 0.969876
O O1 0.118672 0.402634 0.378411
O O2 0.177201 0.434553 0.190740
O O3 0.147281 0.574154 0.296044
O O4 0.000000 0.468233 0.250000
O O5 0.619385 0.267212 0.488541
O O6 0.682164 0.434362 0.439649
O O7 0.780348 0.324766 0.556066
O O8 0.451428 0.161618 0.164637
O O9 0.536852 0.318558 0.106997
O O10 0.541191 0.170839 0.994189
O O11 0.211773 0.082170 0.682016
O O12 0.327338 0.045081 0.535078
O O13 0.329051 0.239862 0.278087
O O14 0.394652 0.074808 0.345621
O O15 0.000000 0.000000 0.000000
#
# Coordination Sequence:
#
# PCOD8223986 Si02
#       8
#     8   8   8   4   4   8   8   8
#     4  12  25  45  70 102 140 189 240 302 360 425
#     4  12  26  44  67 108 139 184 251 294 361 435
#     4  11  26  42  72 101 137 190 233 299 355 440
#     4  12  26  44  76 106 142 190 230 316 362 428
#     4  12  22  44  70  94 142 192 236 298 368 424
#     4  11  25  45  70 105 139 186 239 289 366 440
#     4  11  22  46  69  97 141 182 236 288 353 444
#     4  11  24  47  74 103 140 186 241 287 367 443
#
# _framework density 21.245265
#
# number of rings (size 3 to 8) (size 9 to 14) (size 15 to 20)
#    0.000    0.571    4.286    4.714    6.000    2.286 
#    2.571    0.000    0.000    0.000    0.000    0.000 
#    0.000    0.000    0.000    0.000    0.000    0.000 
#
# Total GULP energy -694072.857877 kJ/mol
# GULP energy per Si atom -12394.158176 kJ/mol
# Density = 2.119691 g / cm^3
# Si number density = 21.245265 Si / 1000 Ang^3
#
#
#
# Elastic Constant Matrix: (Units=GPa)
#
#
# Indices 1 2 3 4 5 6 
#
# 1 144.6648 25.0184 63.8758 0.0000 0.0000 0.0000
# 2 25.0184 77.6320 40.5893 0.0000 0.0000 0.0000
# 3 63.8758 40.5893 120.4180 0.0000 0.0000 0.0000
# 4 0.0000 0.0000 0.0000 36.7394 0.0000 0.0000
# 5 0.0000 0.0000 0.0000 0.0000 36.0649 0.0000
# 6 0.0000 0.0000 0.0000 0.0000 0.0000 48.4626
#
#
#
# Elastic Compliance Matrix: (Units=1/GPa)
#
#
# Indices 1 2 3 4 5 6 
#
# 1 0.009042 -0.000493 -0.004630 0.000000 0.000000 0.000000
# 2 -0.000493 0.015664 -0.005018 0.000000 0.000000 0.000000
# 3 -0.004630 -0.005018 0.012452 0.000000 0.000000 0.000000
# 4 0.000000 0.000000 0.000000 0.027219 0.000000 0.000000
# 5 0.000000 0.000000 0.000000 0.000000 0.027728 0.000000
# 6 0.000000 0.000000 0.000000 0.000000 0.000000 0.020634
#
#
# Mechanical properties :
#
#
# Convention : Reuss Voigt Hill
#
# Bulk Modulus (GPa) = 59.25948 66.85354 63.05651
# Shear Modulus (GPa) = 36.06267 38.46881 37.26574
#
# Velocity S-wave (km/s) = 4.12448 4.25985 4.19271
# Velocity P-wave (km/s) = 7.11585 7.46531 7.29268
#
# Compressibility (1/GPa) = 0.01687494
#
# Stress axis : x y z
#
# Youngs Moduli (GPa) = 110.59165 63.84081 80.30817
#
# Poissons Ratio (x) = 0.03148 0.37185
# Poissons Ratio (y) = 0.05454 0.40301
# Poissons Ratio (z) = 0.51207 0.32037
#
# Static dielectric constant tensor:
#      x y z
#    x 4.017060 0.000000 0.000000 
#    y 0.000000 3.468410 0.000000 
#    z 0.000000 0.000000 4.127160 
# 
# 
# High freq. dielectric constant tensor:
#      x y z
#    x 1.853340 0.000000 0.000000 
#    y 0.000000 1.827170 0.000000 
#    z 0.000000 0.000000 1.832570 
# 
# From -- ./inp_files/8484.got.cif
#   From: 2010.03.12/outbox.cif.g09.slc.cpg/sg54_5_cif.got.tgz:8484.got - 2010.04.16 15:00:50.
