data_PCOD8223762
_publ_section_title
;
Structure prediction by ZEFSAII (Michael W. Deem and Ramdas Pophale) SiO2 
 PCOD8223762
Probable space group: P C C A
;
_chemical_formula_sum "Si O2"
_cell_formula_units_Z 28
_cell_length_a 11.094557
_cell_length_b 5.063481
_cell_length_c 19.180156
_cell_angle_alpha 90.000000
_cell_angle_beta 90.000000
_cell_angle_gamma 90.000000
_cell_volume 1077.485131
_symmetry_space_group_name_H-M "P C C A"
_symmetry_group_IT_number 54
_symmetry_cell_setting 'orthorhombic'
loop_
_space_group_symop_operation_xyz
x,y,z
1/2-x,-y,z
1/2+x,-y,1/2-z
-x,y,1/2-z
-x,-y,-z
1/2+x,y,-z
1/2-x,y,1/2+z
x,-y,1/2+z
loop_
_atom_site_type_symbol
_atom_site_label
_atom_site_fract_x
_atom_site_fract_y
_atom_site_fract_z
Si Si1 0.250000 0.500000 0.166108
Si Si2 0.404703 0.199038 0.567510
Si Si3 0.940917 0.703333 0.083113
Si Si4 0.869976 0.835577 0.231450
O O1 0.207595 0.259910 0.117006
O O2 0.361948 0.413077 0.215550
O O3 0.363903 0.229636 0.486469
O O4 0.514401 0.401871 0.581984
O O5 0.444682 0.901136 0.584454
O O6 0.859529 0.744617 0.151374
O O7 0.000000 0.973642 0.250000
O O8 0.750000 0.000000 0.248867
#
# Coordination Sequence:
#
# PCOD8223762 Si02
#       4
#     4   8   8   8
#     4  12  26  42  76 108 158 194 254 320 396 456
#     4  10  23  46  76 106 149 196 255 318 382 452
#     4  10  23  48  73 106 147 200 256 313 378 462
#     4  12  27  47  75 114 155 207 253 324 389 471
#
# _framework density 25.986433999999999
#
# number of rings (size 3 to 8) (size 9 to 14) (size 15 to 20)
#    0.000    1.143    2.857    1.714    4.000    2.286 
#   10.286    0.000    0.000    0.000    0.000    0.000 
#    0.000    0.000    0.000    0.000    0.000    0.000 
#
# Total GULP energy -347159.722931 kJ/mol
# GULP energy per Si atom -12398.561533 kJ/mol
# Density = 2.592729 g / cm^3
# Si number density = 25.986434 Si / 1000 Ang^3
#
#
#
# Elastic Constant Matrix: (Units=GPa)
#
#
# Indices 1 2 3 4 5 6 
#
# 1 128.0074 22.0359 54.5633 0.0000 0.0000 0.0000
# 2 22.0359 70.3616 18.2416 0.0000 0.0000 0.0000
# 3 54.5633 18.2416 228.2129 0.0000 0.0000 0.0000
# 4 0.0000 0.0000 0.0000 27.3896 0.0000 0.0000
# 5 0.0000 0.0000 0.0000 0.0000 37.8794 0.0000
# 6 0.0000 0.0000 0.0000 0.0000 0.0000 27.4285
#
#
#
# Elastic Compliance Matrix: (Units=1/GPa)
#
#
# Indices 1 2 3 4 5 6 
#
# 1 0.009056 -0.002323 -0.001979 0.000000 0.000000 0.000000
# 2 -0.002323 0.015109 -0.000652 0.000000 0.000000 0.000000
# 3 -0.001979 -0.000652 0.004907 0.000000 0.000000 0.000000
# 4 0.000000 0.000000 0.000000 0.036510 0.000000 0.000000
# 5 0.000000 0.000000 0.000000 0.000000 0.026400 0.000000
# 6 0.000000 0.000000 0.000000 0.000000 0.000000 0.036458
#
#
# Mechanical properties :
#
#
# Convention : Reuss Voigt Hill
#
# Bulk Modulus (GPa) = 52.18507 68.47373 60.32940
# Shear Modulus (GPa) = 34.54546 40.65557 37.60052
#
# Velocity S-wave (km/s) = 3.65000 3.95966 3.80798
# Velocity P-wave (km/s) = 6.15537 6.87839 6.52690
#
# Compressibility (1/GPa) = 0.01916257
#
# Stress axis : x y z
#
# Youngs Moduli (GPa) = 110.42820 66.18613 203.77895
#
# Poissons Ratio (x) = 0.15374 0.40337
# Poissons Ratio (y) = 0.25651 0.13293
# Poissons Ratio (z) = 0.21859 0.04317
#
# Static dielectric constant tensor:
#      x y z
#    x 4.148790 0.000000 0.000000 
#    y 0.000000 4.492190 0.000000 
#    z 0.000000 0.000000 5.256690 
# 
# 
# High freq. dielectric constant tensor:
#      x y z
#    x 2.008050 0.000000 0.000000 
#    y 0.000000 2.031300 0.000000 
#    z 0.000000 0.000000 2.079120 
# 
# From -- ./inp_files/20740.got.cif
#   From: 2010.03.12/outbox.cif.g09.slc.cpg/sg54_11_cif.got.tgz:20740.got - 2010.04.16 15:00:50.
