data_PCOD8223811
_publ_section_title
;
Structure prediction by ZEFSAII (Michael W. Deem and Ramdas Pophale) SiO2 
 PCOD8223811
Probable space group: P C C A
;
_chemical_formula_sum "Si O2"
_cell_formula_units_Z 64
_cell_length_a 28.392087
_cell_length_b 9.430019
_cell_length_c 10.571153
_cell_angle_alpha 90.000000
_cell_angle_beta 90.000000
_cell_angle_gamma 90.000000
_cell_volume 2830.298515
_symmetry_space_group_name_H-M "P C C A"
_symmetry_group_IT_number 54
_symmetry_cell_setting 'orthorhombic'
loop_
_space_group_symop_operation_xyz
x,y,z
1/2-x,-y,z
1/2+x,-y,1/2-z
-x,y,1/2-z
-x,-y,-z
1/2+x,y,-z
1/2-x,y,1/2+z
x,-y,1/2+z
loop_
_atom_site_type_symbol
_atom_site_label
_atom_site_fract_x
_atom_site_fract_y
_atom_site_fract_z
Si Si1 0.612912 0.550775 0.941276
Si Si2 0.841341 0.006122 0.231177
Si Si3 0.950281 0.243345 0.093655
Si Si4 0.205552 0.410462 0.958524
Si Si5 0.816898 0.711602 0.284292
Si Si6 0.099734 0.997512 0.515362
Si Si7 0.268034 0.850378 0.100419
Si Si8 0.442086 0.727027 0.118905
O O1 0.581990 0.628406 0.046264
O O2 0.659251 0.491191 0.003432
O O3 0.632197 0.662546 0.837607
O O4 0.582657 0.425344 0.879647
O O5 0.821845 0.851829 0.198662
O O6 0.866785 0.049439 0.101147
O O7 0.874582 0.979596 0.352407
O O8 0.799180 0.114865 0.272471
O O9 0.937074 0.207709 0.239819
O O10 0.003803 0.294902 0.082071
O O11 0.944152 0.104917 0.003688
O O12 0.250000 0.500000 0.008162
O O13 0.205158 0.408214 0.806356
O O14 0.200863 0.248176 0.009669
O O15 0.777684 0.751086 0.386636
O O16 0.081198 0.834983 0.516365
O O17 0.250000 0.000000 0.039659
#
# Coordination Sequence:
#
# PCOD8223811 Si02
#       8
#     8   8   8   8   8   8   8   8
#     4  12  24  46  69 100 143 188 241 296 364 438
#     4  11  23  42  73 103 141 187 243 294 362 424
#     4  11  25  46  73 106 145 191 241 308 367 449
#     4  12  26  42  67 100 139 184 238 294 356 427
#     4  11  24  41  64  97 136 184 238 288 352 418
#     4  12  23  45  73 106 141 190 237 303 364 438
#     4  10  24  44  65  97 136 186 237 293 345 422
#     4  11  25  46  74 107 144 189 245 303 377 440
#
# _framework density 22.612456000000002
#
# number of rings (size 3 to 8) (size 9 to 14) (size 15 to 20)
#    0.000    0.750    3.750    3.750    1.750    4.500 
#    0.000    0.000    0.000    0.000    0.000    0.000 
#    0.000    0.000    0.000    0.000    0.000    0.000 
#
# Total GULP energy -793037.015146 kJ/mol
# GULP energy per Si atom -12391.203362 kJ/mol
# Density = 2.256099 g / cm^3
# Si number density = 22.612456 Si / 1000 Ang^3
#
#
#
# Elastic Constant Matrix: (Units=GPa)
#
#
# Indices 1 2 3 4 5 6 
#
# 1 125.5127 49.2730 32.3175 0.0000 0.0000 0.0000
# 2 49.2730 84.9761 23.7723 0.0000 0.0000 0.0000
# 3 32.3175 23.7723 71.0449 0.0000 0.0000 0.0000
# 4 0.0000 0.0000 0.0000 26.2538 0.0000 0.0000
# 5 0.0000 0.0000 0.0000 0.0000 42.0428 0.0000
# 6 0.0000 0.0000 0.0000 0.0000 0.0000 46.2941
#
#
#
# Elastic Compliance Matrix: (Units=1/GPa)
#
#
# Indices 1 2 3 4 5 6 
#
# 1 0.010916 -0.005451 -0.003142 0.000000 0.000000 0.000000
# 2 -0.005451 0.015705 -0.002776 0.000000 0.000000 0.000000
# 3 -0.003142 -0.002776 0.016433 0.000000 0.000000 0.000000
# 4 0.000000 0.000000 0.000000 0.038090 0.000000 0.000000
# 5 0.000000 0.000000 0.000000 0.000000 0.023785 0.000000
# 6 0.000000 0.000000 0.000000 0.000000 0.000000 0.021601
#
#
# Mechanical properties :
#
#
# Convention : Reuss Voigt Hill
#
# Bulk Modulus (GPa) = 49.21616 54.69547 51.95582
# Shear Modulus (GPa) = 32.04316 34.66287 33.35302
#
# Velocity S-wave (km/s) = 3.76847 3.91949 3.84472
# Velocity P-wave (km/s) = 6.38337 6.68759 6.53725
#
# Compressibility (1/GPa) = 0.02031853
#
# Stress axis : x y z
#
# Youngs Moduli (GPa) = 91.60803 63.67371 60.85135
#
# Poissons Ratio (x) = 0.34707 0.19118
# Poissons Ratio (y) = 0.49933 0.16890
# Poissons Ratio (z) = 0.28781 0.17673
#
# Static dielectric constant tensor:
#      x y z
#    x 3.826730 0.000000 0.000000 
#    y 0.000000 4.913560 0.000000 
#    z 0.000000 0.000000 3.933140 
# 
# 
# High freq. dielectric constant tensor:
#      x y z
#    x 1.899340 0.000000 0.000000 
#    y 0.000000 1.903730 0.000000 
#    z 0.000000 0.000000 1.878780 
# 
# From -- ./inp_files/10555.got.cif
#   From: 2010.03.12/outbox.cif.g09.slc.cpg/sg54_6_cif.got.tgz:10555.got - 2010.04.16 15:00:50.
