data_PCOD8223982
_publ_section_title
;
Structure prediction by ZEFSAII (Michael W. Deem and Ramdas Pophale) SiO2 
 PCOD8223982
Probable space group: P C C A
;
_chemical_formula_sum "Si O2"
_cell_formula_units_Z 56
_cell_length_a 14.402389
_cell_length_b 11.769737
_cell_length_c 14.051004
_cell_angle_alpha 90.000000
_cell_angle_beta 90.000000
_cell_angle_gamma 90.000000
_cell_volume 2381.818437
_symmetry_space_group_name_H-M "P C C A"
_symmetry_group_IT_number 54
_symmetry_cell_setting 'orthorhombic'
loop_
_space_group_symop_operation_xyz
x,y,z
1/2-x,-y,z
1/2+x,-y,1/2-z
-x,y,1/2-z
-x,-y,-z
1/2+x,y,-z
1/2-x,y,1/2+z
x,-y,1/2+z
loop_
_atom_site_type_symbol
_atom_site_label
_atom_site_fract_x
_atom_site_fract_y
_atom_site_fract_z
Si Si1 0.704956 0.805281 0.532947
Si Si2 0.561874 0.752681 0.838609
Si Si3 0.035260 0.635289 0.953588
Si Si4 0.621620 0.173701 0.654259
Si Si5 0.756508 0.137006 0.324542
Si Si6 0.459371 0.955333 0.902414
Si Si7 0.842565 0.556447 0.996521
O O1 0.807167 0.839498 0.566291
O O2 0.694977 0.844873 0.425130
O O3 0.629426 0.873195 0.591974
O O4 0.689038 0.670827 0.549873
O O5 0.500000 0.701711 0.750000
O O6 0.669589 0.775494 0.814512
O O7 0.537903 0.884148 0.852216
O O8 0.544728 0.680659 0.936177
O O9 0.048591 0.729582 0.873503
O O10 0.931633 0.587310 0.930260
O O11 0.113589 0.539165 0.933469
O O12 0.674497 0.197332 0.751011
O O13 0.564895 0.058451 0.666171
O O14 0.750000 0.000000 0.304469
O O15 0.500000 0.000000 0.000000
O O16 0.750000 0.500000 0.946628
#
# Coordination Sequence:
#
# PCOD8223982 Si02
#       7
#     8   8   8   8   8   8   8
#     4  12  22  42  69  95 139 187 235 289 365 426
#     4  12  23  41  64  99 138 179 235 288 356 432
#     4  11  24  44  69 100 137 184 240 294 363 429
#     4  12  23  43  66 103 141 184 235 293 362 440
#     4  12  25  40  66 104 142 188 234 291 361 444
#     4  12  22  39  66  97 141 184 227 291 360 432
#     4  11  22  43  74  98 131 190 238 296 359 425
#
# _framework density 23.511448999999999
#
# number of rings (size 3 to 8) (size 9 to 14) (size 15 to 20)
#    0.000    0.286    5.714    4.714    0.000    0.000 
#    0.000    6.429    6.286    0.000    0.000    0.000 
#    0.000    0.000    0.000    0.000    0.000    0.000 
#
# Total GULP energy -693750.870999 kJ/mol
# GULP energy per Si atom -12388.408411 kJ/mol
# Density = 2.345794 g / cm^3
# Si number density = 23.511449 Si / 1000 Ang^3
#
#
#
# Elastic Constant Matrix: (Units=GPa)
#
#
# Indices 1 2 3 4 5 6 
#
# 1 107.6756 25.2095 6.8627 0.0000 0.0000 0.0000
# 2 25.2095 126.0282 11.3174 0.0000 0.0000 0.0000
# 3 6.8627 11.3174 78.1419 0.0000 0.0000 0.0000
# 4 0.0000 0.0000 0.0000 3.4786 0.0000 0.0000
# 5 0.0000 0.0000 0.0000 0.0000 28.4583 0.0000
# 6 0.0000 0.0000 0.0000 0.0000 0.0000 52.6254
#
#
#
# Elastic Compliance Matrix: (Units=1/GPa)
#
#
# Indices 1 2 3 4 5 6 
#
# 1 0.009770 -0.001902 -0.000583 0.000000 0.000000 0.000000
# 2 -0.001902 0.008410 -0.001051 0.000000 0.000000 0.000000
# 3 -0.000583 -0.001051 0.013001 0.000000 0.000000 0.000000
# 4 0.000000 0.000000 0.000000 0.287470 0.000000 0.000000
# 5 0.000000 0.000000 0.000000 0.000000 0.035139 0.000000
# 6 0.000000 0.000000 0.000000 0.000000 0.000000 0.019002
#
#
# Mechanical properties :
#
#
# Convention : Reuss Voigt Hill
#
# Bulk Modulus (GPa) = 41.47834 44.29164 42.88499
# Shear Modulus (GPa) = 12.88998 34.80954 23.84976
#
# Velocity S-wave (km/s) = 2.34400 3.85195 3.18840
# Velocity P-wave (km/s) = 5.00058 6.21792 5.64218
#
# Compressibility (1/GPa) = 0.02410897
#
# Stress axis : x y z
#
# Youngs Moduli (GPa) = 102.35873 118.91251 76.91950
#
# Poissons Ratio (x) = 0.22616 0.04481
# Poissons Ratio (y) = 0.19468 0.08084
# Poissons Ratio (z) = 0.05963 0.12497
#
# Static dielectric constant tensor:
#      x y z
#    x 4.714370 0.000000 0.000000 
#    y 0.000000 4.552140 0.000000 
#    z 0.000000 0.000000 3.402990 
# 
# 
# High freq. dielectric constant tensor:
#      x y z
#    x 1.957810 0.000000 0.000000 
#    y 0.000000 1.939760 0.000000 
#    z 0.000000 0.000000 1.892540 
# 
# From -- ./inp_files/13472.got.cif
#   From: 2010.03.12/outbox.cif.g09.slc.cpg/sg54_7_cif.got.tgz:13472.got - 2010.04.16 15:00:50.
