data_PCOD8223739
_publ_section_title
;
Structure prediction by ZEFSAII (Michael W. Deem and Ramdas Pophale) SiO2 
 PCOD8223739
Probable space group: P C C A
;
_chemical_formula_sum "Si O2"
_cell_formula_units_Z 44
_cell_length_a 15.721661
_cell_length_b 9.021233
_cell_length_c 14.835163
_cell_angle_alpha 90.000000
_cell_angle_beta 90.000000
_cell_angle_gamma 90.000000
_cell_volume 2104.052877
_symmetry_space_group_name_H-M "P C C A"
_symmetry_group_IT_number 54
_symmetry_cell_setting 'orthorhombic'
loop_
_space_group_symop_operation_xyz
x,y,z
1/2-x,-y,z
1/2+x,-y,1/2-z
-x,y,1/2-z
-x,-y,-z
1/2+x,y,-z
1/2-x,y,1/2+z
x,-y,1/2+z
loop_
_atom_site_type_symbol
_atom_site_label
_atom_site_fract_x
_atom_site_fract_y
_atom_site_fract_z
Si Si1 0.012070 0.644775 0.939519
Si Si2 0.500000 0.491912 0.750000
Si Si3 0.791398 0.151940 0.633448
Si Si4 0.682116 0.630208 0.792056
Si Si5 0.829153 0.807025 0.473256
Si Si6 0.084250 0.907856 0.502093
O O1 0.027006 0.607364 0.835036
O O2 0.091030 0.734888 0.976855
O O3 0.000000 0.500000 0.000000
O O4 0.928907 0.751912 0.945631
O O5 0.583293 0.585865 0.778447
O O6 0.785510 0.274822 0.708679
O O7 0.748754 0.212722 0.541555
O O8 0.888864 0.124126 0.602260
O O9 0.750000 0.000000 0.669755
O O10 0.750000 0.500000 0.801692
O O11 0.690981 0.726795 0.880996
O O12 0.845040 0.983027 0.452981
O O13 0.000000 0.000000 0.500000
#
# Coordination Sequence:
#
# PCOD8223739 Si02
#       6
#     8   4   8   8   8   8
#     4  11  21  42  66  96 137 174 226 280 334 414
#     4  12  26  42  68 106 136 184 230 278 352 416
#     4  10  23  44  68  94 134 175 228 282 340 413
#     4  12  27  44  70 103 138 183 232 284 358 415
#     4  10  23  45  67  96 137 178 224 287 347 405
#     4   9  21  41  66  96 131 178 221 278 346 406
#
# _framework density 20.912020999999999
#
# number of rings (size 3 to 8) (size 9 to 14) (size 15 to 20)
#    0.000    1.455    1.818    2.182    5.091    4.364 
#    9.818    0.000    0.000    0.000    0.000    0.000 
#    0.000    0.000    0.000    0.000    0.000    0.000 
#
# Total GULP energy -545357.749597 kJ/mol
# GULP energy per Si atom -12394.494309 kJ/mol
# Density = 2.086442 g / cm^3
# Si number density = 20.912021 Si / 1000 Ang^3
#
#
#
# Elastic Constant Matrix: (Units=GPa)
#
#
# Indices 1 2 3 4 5 6 
#
# 1 86.4563 36.7060 35.6673 0.0000 0.0000 0.0000
# 2 36.7060 141.9202 80.3857 0.0000 0.0000 0.0000
# 3 35.6673 80.3857 154.1367 0.0000 0.0000 0.0000
# 4 0.0000 0.0000 0.0000 43.0498 0.0000 0.0000
# 5 0.0000 0.0000 0.0000 0.0000 29.6607 0.0000
# 6 0.0000 0.0000 0.0000 0.0000 0.0000 28.4217
#
#
#
# Elastic Compliance Matrix: (Units=1/GPa)
#
#
# Indices 1 2 3 4 5 6 
#
# 1 0.013347 -0.002416 -0.001828 0.000000 0.000000 0.000000
# 2 -0.002416 0.010438 -0.004884 0.000000 0.000000 0.000000
# 3 -0.001828 -0.004884 0.009458 0.000000 0.000000 0.000000
# 4 0.000000 0.000000 0.000000 0.023229 0.000000 0.000000
# 5 0.000000 0.000000 0.000000 0.000000 0.033715 0.000000
# 6 0.000000 0.000000 0.000000 0.000000 0.000000 0.035184
#
#
# Mechanical properties :
#
#
# Convention : Reuss Voigt Hill
#
# Bulk Modulus (GPa) = 66.73544 76.44789 71.59167
# Shear Modulus (GPa) = 33.64210 35.54339 34.59275
#
# Velocity S-wave (km/s) = 4.01527 4.12717 4.07160
# Velocity P-wave (km/s) = 7.31288 7.70374 7.51086
#
# Compressibility (1/GPa) = 0.01498454
#
# Stress axis : x y z
#
# Youngs Moduli (GPa) = 74.92500 95.80592 105.72952
#
# Poissons Ratio (x) = 0.23151 0.19329
# Poissons Ratio (y) = 0.18105 0.51642
# Poissons Ratio (z) = 0.13698 0.46795
#
# Static dielectric constant tensor:
#      x y z
#    x 4.032930 0.000000 0.000000 
#    y 0.000000 4.286380 0.000000 
#    z 0.000000 0.000000 3.740730 
# 
# 
# High freq. dielectric constant tensor:
#      x y z
#    x 1.834010 0.000000 0.000000 
#    y 0.000000 1.836320 0.000000 
#    z 0.000000 0.000000 1.809430 
# 
# From -- ./inp_files/13980.got.cif
#   From: 2010.03.12/outbox.cif.g09.slc.cpg/sg54_7_cif.got.tgz:13980.got - 2010.04.16 15:00:50.
