data_PCOD8223138
_publ_section_title
;
Structure prediction by ZEFSAII (Michael W. Deem and Ramdas Pophale) SiO2 
 PCOD8223138
Probable space group: P C C A
;
_chemical_formula_sum "Si O2"
_cell_formula_units_Z 56
_cell_length_a 15.050858
_cell_length_b 33.162885
_cell_length_c 5.183969
_cell_angle_alpha 90.000000
_cell_angle_beta 90.000000
_cell_angle_gamma 90.000000
_cell_volume 2587.473789
_symmetry_space_group_name_H-M "P C C A"
_symmetry_group_IT_number 54
_symmetry_cell_setting 'orthorhombic'
loop_
_space_group_symop_operation_xyz
x,y,z
1/2-x,-y,z
1/2+x,-y,1/2-z
-x,y,1/2-z
-x,-y,-z
1/2+x,y,-z
1/2-x,y,1/2+z
x,-y,1/2+z
loop_
_atom_site_type_symbol
_atom_site_label
_atom_site_fract_x
_atom_site_fract_y
_atom_site_fract_z
Si Si1 0.100214 0.983145 0.543070
Si Si2 0.896326 0.521263 0.257476
Si Si3 0.192775 0.396992 0.767447
Si Si4 0.106141 0.180922 0.239431
Si Si5 0.806782 0.307723 0.738478
Si Si6 0.603416 0.226041 0.257873
Si Si7 0.808648 0.094478 0.310831
O O1 0.110411 0.936933 0.635226
O O2 0.147890 0.010109 0.766903
O O3 0.000000 0.000000 0.500000
O O4 0.852528 0.499004 0.504131
O O5 0.881680 0.569187 0.271789
O O6 0.000000 0.512630 0.250000
O O7 0.268697 0.402391 0.553571
O O8 0.149549 0.352348 0.735679
O O9 0.143779 0.200368 0.503868
O O10 0.146681 0.137763 0.181693
O O11 0.000000 0.177780 0.250000
O O12 0.142500 0.209535 0.010355
O O13 0.770064 0.302585 0.450081
O O14 0.879561 0.273562 0.790171
O O15 0.500000 0.218763 0.250000
O O16 0.734379 0.088375 0.530339
#
# Coordination Sequence:
#
# PCOD8223138 Si02
#       7
#     8   8   8   8   8   8   8
#     4  10  23  43  66  92 119 164 203 232 290 359
#     4  10  21  36  54  78 109 146 189 239 294 349
#     4  10  21  36  54  81 112 145 193 237 289 354
#     4  10  23  41  62  87 124 160 196 237 290 357
#     4  10  21  36  57  84 115 152 189 240 295 348
#     4  10  21  39  60  89 116 156 201 239 283 349
#     4  12  26  42  65  98 127 155 200 255 297 340
#
# _framework density 21.642733
#
# number of rings (size 3 to 8) (size 9 to 14) (size 15 to 20)
#    0.000    1.714    0.000    3.429    2.000    7.429 
#    5.143    0.000    0.000   10.286    0.000    0.000 
#    0.000    0.000    0.000    0.000    0.000    0.000 
#
# Total GULP energy -694100.152978 kJ/mol
# GULP energy per Si atom -12394.645589 kJ/mol
# Density = 2.159347 g / cm^3
# Si number density = 21.642733 Si / 1000 Ang^3
#
#
#
# Elastic Constant Matrix: (Units=GPa)
#
#
# Indices 1 2 3 4 5 6 
#
# 1 27.2687 33.5695 19.8423 0.0000 0.0000 0.0000
# 2 33.5695 189.1989 61.9298 0.0000 0.0000 0.0000
# 3 19.8423 61.9298 170.1368 0.0000 0.0000 0.0000
# 4 0.0000 0.0000 0.0000 38.3032 0.0000 0.0000
# 5 0.0000 0.0000 0.0000 0.0000 10.7432 0.0000
# 6 0.0000 0.0000 0.0000 0.0000 0.0000 44.5326
#
#
#
# Elastic Compliance Matrix: (Units=1/GPa)
#
#
# Indices 1 2 3 4 5 6 
#
# 1 0.048101 -0.007604 -0.002842 0.000000 0.000000 0.000000
# 2 -0.007604 0.007203 -0.001735 0.000000 0.000000 0.000000
# 3 -0.002842 -0.001735 0.006841 0.000000 0.000000 0.000000
# 4 0.000000 0.000000 0.000000 0.026107 0.000000 0.000000
# 5 0.000000 0.000000 0.000000 0.000000 0.093082 0.000000
# 6 0.000000 0.000000 0.000000 0.000000 0.000000 0.022455
#
#
# Mechanical properties :
#
#
# Convention : Reuss Voigt Hill
#
# Bulk Modulus (GPa) = 26.46740 68.58749 47.52744
# Shear Modulus (GPa) = 20.76881 36.80000 28.78440
#
# Velocity S-wave (km/s) = 3.10113 4.12799 3.65085
# Velocity P-wave (km/s) = 5.00784 7.38106 6.30708
#
# Compressibility (1/GPa) = 0.03778233
#
# Stress axis : x y z
#
# Youngs Moduli (GPa) = 20.78938 138.83956 146.18717
#
# Poissons Ratio (x) = 1.05579 0.41544
# Poissons Ratio (y) = 0.15809 0.25361
# Poissons Ratio (z) = 0.05908 0.24087
#
# Static dielectric constant tensor:
#      x y z
#    x 4.768430 0.000000 0.000000 
#    y 0.000000 4.105430 0.000000 
#    z 0.000000 0.000000 68.958550 
# 
# 
# High freq. dielectric constant tensor:
#      x y z
#    x 1.812700 0.000000 0.000000 
#    y 0.000000 1.863970 0.000000 
#    z 0.000000 0.000000 1.882570 
# 
# From -- ./inp_files/766.got.cif
#   From: 2010.03.12/outbox.cif.g09.slc.cpg/sg54_1_cif.got.tgz:766.got - 2010.04.16 15:00:50.
