data_PCOD8223194
_publ_section_title
;
Structure prediction by ZEFSAII (Michael W. Deem and Ramdas Pophale) SiO2 
 PCOD8223194
Probable space group: P C C A
;
_chemical_formula_sum "Si O2"
_cell_formula_units_Z 40
_cell_length_a 16.864347
_cell_length_b 6.662180
_cell_length_c 18.194706
_cell_angle_alpha 90.000000
_cell_angle_beta 90.000000
_cell_angle_gamma 90.000000
_cell_volume 2044.235540
_symmetry_space_group_name_H-M "P C C A"
_symmetry_group_IT_number 54
_symmetry_cell_setting 'orthorhombic'
loop_
_space_group_symop_operation_xyz
x,y,z
1/2-x,-y,z
1/2+x,-y,1/2-z
-x,y,1/2-z
-x,-y,-z
1/2+x,y,-z
1/2-x,y,1/2+z
x,-y,1/2+z
loop_
_atom_site_type_symbol
_atom_site_label
_atom_site_fract_x
_atom_site_fract_y
_atom_site_fract_z
Si Si1 0.664670 0.604669 0.140360
Si Si2 0.434690 0.746457 0.804610
Si Si3 0.950019 0.300041 0.015372
Si Si4 0.335193 0.939432 0.230752
Si Si5 0.548153 0.999766 0.395316
O O1 0.750000 0.500000 0.128532
O O2 0.597507 0.438390 0.150349
O O3 0.630546 0.697510 0.064767
O O4 0.666430 0.760091 0.208776
O O5 0.500000 0.655554 0.750000
O O6 0.362115 0.849181 0.763715
O O7 0.471450 0.925367 0.851802
O O8 0.020271 0.170015 0.049889
O O9 0.000000 0.500000 0.000000
O O10 0.918569 0.193043 0.940382
O O11 0.389610 0.892439 0.160042
O O12 0.250000 0.000000 0.200236
#
# Coordination Sequence:
#
# PCOD8223194 Si02
#       5
#     8   8   8   8   8
#     4  12  24  39  65  96 128 167 210 264 323 382
#     4  10  21  37  65  92 119 160 212 258 311 372
#     4  11  23  42  64  93 127 169 217 259 317 390
#     4  11  23  42  61  94 131 163 209 267 324 374
#     4  10  23  42  66  90 123 170 214 263 317 378
#
# _framework density 19.567216999999999
#
# number of rings (size 3 to 8) (size 9 to 14) (size 15 to 20)
#    0.000    1.200    6.000    0.000    2.800    0.000 
#    3.600    0.000    0.000    0.000    0.000    0.000 
#    0.000    0.000    0.000    0.000    0.000    0.000 
#
# Total GULP energy -495564.933732 kJ/mol
# GULP energy per Si atom -12389.123343 kJ/mol
# Density = 1.952268 g / cm^3
# Si number density = 19.567217 Si / 1000 Ang^3
#
#
#
# Elastic Constant Matrix: (Units=GPa)
#
#
# Indices 1 2 3 4 5 6 
#
# 1 115.0557 42.7456 44.3735 0.0000 0.0000 0.0000
# 2 42.7456 64.5600 27.1234 0.0000 0.0000 0.0000
# 3 44.3735 27.1234 98.7114 0.0000 0.0000 0.0000
# 4 0.0000 0.0000 0.0000 30.5844 0.0000 0.0000
# 5 0.0000 0.0000 0.0000 0.0000 22.9508 0.0000
# 6 0.0000 0.0000 0.0000 0.0000 0.0000 -31.2184
#
#
#
# Elastic Compliance Matrix: (Units=1/GPa)
#
#
# Indices 1 2 3 4 5 6 
#
# 1 0.012696 -0.006793 -0.003841 0.000000 0.000000 0.000000
# 2 -0.006793 0.021145 -0.002757 0.000000 0.000000 0.000000
# 3 -0.003841 -0.002757 0.012615 0.000000 0.000000 0.000000
# 4 0.000000 0.000000 0.000000 0.032696 0.000000 0.000000
# 5 0.000000 0.000000 0.000000 0.000000 0.043571 0.000000
# 6 0.000000 0.000000 0.000000 0.000000 0.000000 -0.032032
#
#
# Mechanical properties :
#
#
# Convention : Reuss Voigt Hill
#
# Bulk Modulus (GPa) = 50.82439 56.31243 53.56841
# Shear Modulus (GPa) = 40.31266 15.40234 27.85750
#
# Velocity S-wave (km/s) = 4.54388 2.80866 3.77726
# Velocity P-wave (km/s) = 7.31846 6.27372 6.81613
#
# Compressibility (1/GPa) = 0.01967559
#
# Stress axis : x y z
#
# Youngs Moduli (GPa) = 78.76255 47.29233 79.27330
#
# Poissons Ratio (x) = 0.32124 0.30448
# Poissons Ratio (y) = 0.53501 0.21853
# Poissons Ratio (z) = 0.30252 0.13037
#
# Static dielectric constant tensor:
#      x y z
#    x 3.508190 0.000000 0.000000 
#    y 0.000000 3.581960 0.000000 
#    z 0.000000 0.000000 3.976240 
# 
# 
# High freq. dielectric constant tensor:
#      x y z
#    x 1.757440 0.000000 0.000000 
#    y 0.000000 1.769700 0.000000 
#    z 0.000000 0.000000 1.766810 
# 
# From -- ./inp_files/18335.got.cif
#   From: 2010.03.12/outbox.cif.g09.slc.cpg/sg54_10_cif.got.tgz:18335.got - 2010.04.16 15:00:50.
