data_PCOD8223385
_publ_section_title
;
Structure prediction by ZEFSAII (Michael W. Deem and Ramdas Pophale) SiO2 
 PCOD8223385
Probable space group: P C C A
;
_chemical_formula_sum "Si O2"
_cell_formula_units_Z 40
_cell_length_a 8.606142
_cell_length_b 7.511874
_cell_length_c 28.213254
_cell_angle_alpha 90.000000
_cell_angle_beta 90.000000
_cell_angle_gamma 90.000000
_cell_volume 1823.937620
_symmetry_space_group_name_H-M "P C C A"
_symmetry_group_IT_number 54
_symmetry_cell_setting 'orthorhombic'
loop_
_space_group_symop_operation_xyz
x,y,z
1/2-x,-y,z
1/2+x,-y,1/2-z
-x,y,1/2-z
-x,-y,-z
1/2+x,y,-z
1/2-x,y,1/2+z
x,-y,1/2+z
loop_
_atom_site_type_symbol
_atom_site_label
_atom_site_fract_x
_atom_site_fract_y
_atom_site_fract_z
Si Si1 0.048897 0.159124 0.137386
Si Si2 0.367268 0.336635 0.039618
Si Si3 0.427720 0.545580 0.299827
Si Si4 0.595162 0.756953 0.857381
Si Si5 0.564854 0.162995 0.970592
O O1 0.218502 0.243935 0.145772
O O2 0.999603 0.164309 0.082519
O O3 0.930683 0.282547 0.166074
O O4 0.034854 0.955239 0.154480
O O5 0.250000 0.500000 0.041816
O O6 0.454122 0.307486 0.089800
O O7 0.252689 0.166578 0.030523
O O8 0.494902 0.339577 0.997356
O O9 0.250000 0.500000 0.292343
O O10 0.500000 0.602117 0.250000
O O11 0.522420 0.377127 0.319778
O O12 0.500000 0.000000 0.000000
#
# Coordination Sequence:
#
# PCOD8223385 Si02
#       5
#     8   8   8   8   8
#     4  10  22  42  70  96 136 181 226 274 342 400
#     4  11  22  37  61  92 133 180 230 273 331 394
#     4  12  27  47  71 101 133 170 223 285 345 407
#     4  10  21  43  69  97 131 178 224 280 336 403
#     4  11  21  38  59  93 134 179 222 270 328 394
#
# _framework density 21.930574
#
# number of rings (size 3 to 8) (size 9 to 14) (size 15 to 20)
#    0.000    1.200    2.000    5.400    0.000    4.000 
#    3.600    0.000    0.000    0.000    0.000    0.000 
#    0.000    0.000    0.000    0.000    0.000    0.000 
#
# Total GULP energy -496017.398727 kJ/mol
# GULP energy per Si atom -12400.434968 kJ/mol
# Density = 2.188066 g / cm^3
# Si number density = 21.930574 Si / 1000 Ang^3
#
#
#
# Elastic Constant Matrix: (Units=GPa)
#
#
# Indices 1 2 3 4 5 6 
#
# 1 63.9431 11.1642 37.9780 0.0000 0.0000 0.0000
# 2 11.1642 87.7625 34.4461 0.0000 0.0000 0.0000
# 3 37.9780 34.4461 134.7263 0.0000 0.0000 0.0000
# 4 0.0000 0.0000 0.0000 36.6277 0.0000 0.0000
# 5 0.0000 0.0000 0.0000 0.0000 37.7317 0.0000
# 6 0.0000 0.0000 0.0000 0.0000 0.0000 17.6589
#
#
#
# Elastic Compliance Matrix: (Units=1/GPa)
#
#
# Indices 1 2 3 4 5 6 
#
# 1 0.018793 -0.000346 -0.005209 0.000000 0.000000 0.000000
# 2 -0.000346 0.012672 -0.003142 0.000000 0.000000 0.000000
# 3 -0.005209 -0.003142 0.009694 0.000000 0.000000 0.000000
# 4 0.000000 0.000000 0.000000 0.027302 0.000000 0.000000
# 5 0.000000 0.000000 0.000000 0.000000 0.026503 0.000000
# 6 0.000000 0.000000 0.000000 0.000000 0.000000 0.056629
#
#
# Mechanical properties :
#
#
# Convention : Reuss Voigt Hill
#
# Bulk Modulus (GPa) = 42.08017 50.40094 46.24055
# Shear Modulus (GPa) = 28.26312 31.92656 30.09484
#
# Velocity S-wave (km/s) = 3.59382 3.81964 3.70845
# Velocity P-wave (km/s) = 6.03740 6.51803 6.28232
#
# Compressibility (1/GPa) = 0.02376416
#
# Stress axis : x y z
#
# Youngs Moduli (GPa) = 53.21068 78.91577 103.15387
#
# Poissons Ratio (x) = 0.02732 0.53734
# Poissons Ratio (y) = 0.01842 0.32414
# Poissons Ratio (z) = 0.27718 0.24797
#
# Static dielectric constant tensor:
#      x y z
#    x 4.101570 0.000000 0.000000 
#    y 0.000000 4.420440 0.000000 
#    z 0.000000 0.000000 3.984310 
# 
# 
# High freq. dielectric constant tensor:
#      x y z
#    x 1.848590 0.000000 0.000000 
#    y 0.000000 1.890490 0.000000 
#    z 0.000000 0.000000 1.855170 
# 
# From -- ./inp_files/23287.got.cif
#   From: 2010.03.12/outbox.cif.g09.slc.cpg/sg54_12_cif.got.tgz:23287.got - 2010.04.16 15:00:50.
