data_PCOD8223236
_publ_section_title
;
Structure prediction by ZEFSAII (Michael W. Deem and Ramdas Pophale) SiO2 
 PCOD8223236
Probable space group: P C C A
;
_chemical_formula_sum "Si O2"
_cell_formula_units_Z 64
_cell_length_a 14.660103
_cell_length_b 21.289385
_cell_length_c 9.567520
_cell_angle_alpha 90.000000
_cell_angle_beta 90.000000
_cell_angle_gamma 90.000000
_cell_volume 2986.066782
_symmetry_space_group_name_H-M "P C C A"
_symmetry_group_IT_number 54
_symmetry_cell_setting 'orthorhombic'
loop_
_space_group_symop_operation_xyz
x,y,z
1/2-x,-y,z
1/2+x,-y,1/2-z
-x,y,1/2-z
-x,-y,-z
1/2+x,y,-z
1/2-x,y,1/2+z
x,-y,1/2+z
loop_
_atom_site_type_symbol
_atom_site_label
_atom_site_fract_x
_atom_site_fract_y
_atom_site_fract_z
Si Si1 0.835938 0.532656 0.887698
Si Si2 0.727978 0.240163 0.702755
Si Si3 0.908635 0.335580 0.332294
Si Si4 0.914070 0.543619 0.165084
Si Si5 0.724416 0.152193 0.450444
Si Si6 0.095592 0.051175 0.683982
Si Si7 0.163925 0.961089 0.481187
Si Si8 0.083020 0.688864 0.351726
O O1 0.750000 0.500000 0.966506
O O2 0.837125 0.606978 0.853823
O O3 0.835428 0.492962 0.745785
O O4 0.917544 0.524398 0.002053
O O5 0.645753 0.287599 0.733848
O O6 0.693043 0.193857 0.581352
O O7 0.741309 0.199396 0.837387
O O8 0.824205 0.272879 0.670036
O O9 0.940238 0.306729 0.482422
O O10 0.000000 0.357052 0.250000
O O11 0.898075 0.617182 0.189377
O O12 0.000000 0.518192 0.250000
O O13 0.639587 0.110107 0.397586
O O14 0.814750 0.111641 0.489456
O O15 0.153614 0.028066 0.816607
O O16 0.000000 0.073636 0.750000
O O17 0.083255 0.991398 0.577662
O O18 0.250000 0.000000 0.536124
O O19 0.000000 0.713752 0.250000
#
# Coordination Sequence:
#
# PCOD8223236 Si02
#       8
#     8   8   8   8   8   8   8   8
#     4  11  22  39  64  94 129 166 219 278 346 416
#     4  12  24  47  67  95 137 185 239 280 347 408
#     4  11  26  45  66 100 136 183 233 290 347 418
#     4  10  21  39  60  94 125 165 211 273 344 405
#     4  11  24  43  69  94 133 181 230 280 335 414
#     4  11  23  41  67 103 136 172 223 281 348 406
#     4  10  21  41  67  94 132 174 216 271 341 411
#     4  10  24  43  69  96 134 181 233 287 349 413
#
# _framework density 21.432877999999999
#
# number of rings (size 3 to 8) (size 9 to 14) (size 15 to 20)
#    0.000    1.250    2.500    3.375    3.500    3.500 
#    2.250    0.000    0.000    0.000    0.000    0.000 
#    0.000    0.000    0.000    0.000    0.000    0.000 
#
# Total GULP energy -792865.734323 kJ/mol
# GULP energy per Si atom -12388.527099 kJ/mol
# Density = 2.138410 g / cm^3
# Si number density = 21.432878 Si / 1000 Ang^3
#
#
#
# Elastic Constant Matrix: (Units=GPa)
#
#
# Indices 1 2 3 4 5 6 
#
# 1 92.4128 48.2656 39.6452 0.0000 0.0000 0.0000
# 2 48.2656 103.5873 64.8687 0.0000 0.0000 0.0000
# 3 39.6452 64.8687 163.5083 0.0000 0.0000 0.0000
# 4 0.0000 0.0000 0.0000 42.5117 0.0000 0.0000
# 5 0.0000 0.0000 0.0000 0.0000 19.2443 0.0000
# 6 0.0000 0.0000 0.0000 0.0000 0.0000 25.1714
#
#
#
# Elastic Compliance Matrix: (Units=1/GPa)
#
#
# Indices 1 2 3 4 5 6 
#
# 1 0.014450 -0.006039 -0.001108 0.000000 0.000000 0.000000
# 2 -0.006039 0.015369 -0.004633 0.000000 0.000000 0.000000
# 3 -0.001108 -0.004633 0.008223 0.000000 0.000000 0.000000
# 4 0.000000 0.000000 0.000000 0.023523 0.000000 0.000000
# 5 0.000000 0.000000 0.000000 0.000000 0.051963 0.000000
# 6 0.000000 0.000000 0.000000 0.000000 0.000000 0.039728
#
#
# Mechanical properties :
#
#
# Convention : Reuss Voigt Hill
#
# Bulk Modulus (GPa) = 69.05238 73.89637 71.47437
# Shear Modulus (GPa) = 27.52645 31.16742 29.34694
#
# Velocity S-wave (km/s) = 3.58761 3.81752 3.70435
# Velocity P-wave (km/s) = 7.03201 7.34739 7.19143
#
# Compressibility (1/GPa) = 0.01448176
#
# Stress axis : x y z
#
# Youngs Moduli (GPa) = 69.20181 65.06622 121.61704
#
# Poissons Ratio (x) = 0.39296 0.13472
# Poissons Ratio (y) = 0.41794 0.56345
# Poissons Ratio (z) = 0.07666 0.30145
#
# Static dielectric constant tensor:
#      x y z
#    x -4.306590 0.000000 0.000000 
#    y 0.000000 3.864510 0.000000 
#    z 0.000000 0.000000 4.182640 
# 
# 
# High freq. dielectric constant tensor:
#      x y z
#    x 1.828320 0.000000 0.000000 
#    y 0.000000 1.838230 0.000000 
#    z 0.000000 0.000000 1.866050 
# 
# From -- ./inp_files/3749.got.cif
#   From: 2010.03.12/outbox.cif.g09.slc.cpg/sg54_2_cif.got.tgz:3749.got - 2010.04.16 15:00:50.
