data_PCOD8223737
_publ_section_title
;
Structure prediction by ZEFSAII (Michael W. Deem and Ramdas Pophale) SiO2 
 PCOD8223737
Probable space group: P C C A
;
_chemical_formula_sum "Si O2"
_cell_formula_units_Z 64
_cell_length_a 18.905053
_cell_length_b 5.204009
_cell_length_c 28.418618
_cell_angle_alpha 90.000000
_cell_angle_beta 90.000000
_cell_angle_gamma 90.000000
_cell_volume 2795.882350
_symmetry_space_group_name_H-M "P C C A"
_symmetry_group_IT_number 54
_symmetry_cell_setting 'orthorhombic'
loop_
_space_group_symop_operation_xyz
x,y,z
1/2-x,-y,z
1/2+x,-y,1/2-z
-x,y,1/2-z
-x,-y,-z
1/2+x,y,-z
1/2-x,y,1/2+z
x,-y,1/2+z
loop_
_atom_site_type_symbol
_atom_site_label
_atom_site_fract_x
_atom_site_fract_y
_atom_site_fract_z
Si Si1 0.443696 0.139718 0.047082
Si Si2 0.084257 0.724667 0.478058
Si Si3 0.829178 0.570402 0.739016
Si Si4 0.668543 0.491723 0.435382
Si Si5 0.206153 0.763329 0.404382
Si Si6 0.628393 0.908120 0.687429
Si Si7 0.110646 0.432122 0.161774
Si Si8 0.975075 0.956110 0.353898
O O1 0.504530 0.363365 0.038205
O O2 0.365666 0.209950 0.068442
O O3 0.475882 0.972483 0.090245
O O4 0.429342 0.014869 0.996211
O O5 0.118147 0.585903 0.522567
O O6 0.135982 0.709486 0.434073
O O7 0.750000 0.500000 0.724311
O O8 0.880263 0.350662 0.718013
O O9 0.835225 0.549106 0.795255
O O10 0.848073 0.851551 0.719433
O O11 0.750000 0.500000 0.450912
O O12 0.657236 0.628911 0.385275
O O13 0.250000 0.500000 0.402315
O O14 0.186569 0.857123 0.352476
O O15 0.250000 0.000000 0.427937
O O16 0.554283 0.964033 0.663853
O O17 0.061443 0.681744 0.156121
O O18 0.063627 0.184254 0.173597
#
# Coordination Sequence:
#
# PCOD8223737 Si02
#       8
#     8   8   8   8   8   8   8   8
#     4  10  23  44  66  99 140 188 238 283 353 416
#     4  11  23  43  69  98 139 190 236 290 350 420
#     4  12  26  46  72 101 138 182 229 287 358 425
#     4  11  24  42  67 100 141 183 233 292 346 421
#     4  12  27  45  69 106 143 187 238 294 355 422
#     4  12  25  46  73 101 140 182 230 294 351 417
#     4  11  25  45  71 102 139 181 232 287 351 415
#     4  11  23  46  69 102 139 181 232 286 350 416
#
# _framework density 22.890803999999999
#
# number of rings (size 3 to 8) (size 9 to 14) (size 15 to 20)
#    0.000    0.750    2.500    4.875    3.500    3.000 
#    0.000    1.250    0.000    0.000    0.000    0.000 
#    0.000    0.000    0.000    0.000    0.000    0.000 
#
# Total GULP energy -792966.432565 kJ/mol
# GULP energy per Si atom -12390.100509 kJ/mol
# Density = 2.283870 g / cm^3
# Si number density = 22.890804 Si / 1000 Ang^3
#
#
#
# Elastic Constant Matrix: (Units=GPa)
#
#
# Indices 1 2 3 4 5 6 
#
# 1 153.8879 31.5839 33.4041 0.0000 0.0000 0.0000
# 2 31.5839 103.4716 20.7455 0.0000 0.0000 0.0000
# 3 33.4041 20.7455 120.3658 0.0000 0.0000 0.0000
# 4 0.0000 0.0000 0.0000 24.1406 0.0000 0.0000
# 5 0.0000 0.0000 0.0000 0.0000 31.0797 0.0000
# 6 0.0000 0.0000 0.0000 0.0000 0.0000 29.0069
#
#
#
# Elastic Compliance Matrix: (Units=1/GPa)
#
#
# Indices 1 2 3 4 5 6 
#
# 1 0.007250 -0.001874 -0.001689 0.000000 0.000000 0.000000
# 2 -0.001874 0.010495 -0.001289 0.000000 0.000000 0.000000
# 3 -0.001689 -0.001289 0.008999 0.000000 0.000000 0.000000
# 4 0.000000 0.000000 0.000000 0.041424 0.000000 0.000000
# 5 0.000000 0.000000 0.000000 0.000000 0.032175 0.000000
# 6 0.000000 0.000000 0.000000 0.000000 0.000000 0.034475
#
#
# Mechanical properties :
#
#
# Convention : Reuss Voigt Hill
#
# Bulk Modulus (GPa) = 58.68662 61.02139 59.85400
# Shear Modulus (GPa) = 33.28879 36.31155 34.80017
#
# Velocity S-wave (km/s) = 3.81759 3.98715 3.90329
# Velocity P-wave (km/s) = 6.71754 6.92185 6.82046
#
# Compressibility (1/GPa) = 0.01703966
#
# Stress axis : x y z
#
# Youngs Moduli (GPa) = 137.94046 95.28378 111.12571
#
# Poissons Ratio (x) = 0.17859 0.18768
# Poissons Ratio (y) = 0.25853 0.14321
# Poissons Ratio (z) = 0.23296 0.12279
#
# Static dielectric constant tensor:
#      x y z
#    x 4.154170 0.000000 0.000000 
#    y 0.000000 4.273540 0.000000 
#    z 0.000000 0.000000 4.291370 
# 
# 
# High freq. dielectric constant tensor:
#      x y z
#    x 1.913940 0.000000 0.000000 
#    y 0.000000 1.895800 0.000000 
#    z 0.000000 0.000000 1.918440 
# 
# From -- ./inp_files/28362.got.cif
#   From: 2010.03.12/outbox.cif.g09.slc.cpg/sg54_15_cif.got.tgz:28362.got - 2010.04.16 15:00:50.
