data_PCOD8223578
_publ_section_title
;
Structure prediction by ZEFSAII (Michael W. Deem and Ramdas Pophale) SiO2 
 PCOD8223578
Probable space group: P C C A
;
_chemical_formula_sum "Si O2"
_cell_formula_units_Z 40
_cell_length_a 15.293465
_cell_length_b 8.847473
_cell_length_c 13.172686
_cell_angle_alpha 90.000000
_cell_angle_beta 90.000000
_cell_angle_gamma 90.000000
_cell_volume 1782.376629
_symmetry_space_group_name_H-M "P C C A"
_symmetry_group_IT_number 54
_symmetry_cell_setting 'orthorhombic'
loop_
_space_group_symop_operation_xyz
x,y,z
1/2-x,-y,z
1/2+x,-y,1/2-z
-x,y,1/2-z
-x,-y,-z
1/2+x,y,-z
1/2-x,y,1/2+z
x,-y,1/2+z
loop_
_atom_site_type_symbol
_atom_site_label
_atom_site_fract_x
_atom_site_fract_y
_atom_site_fract_z
Si Si1 0.352160 0.963053 0.008564
Si Si2 0.929050 0.794952 0.175096
Si Si3 0.653233 0.548634 0.814809
Si Si4 0.045944 0.739017 0.655059
Si Si5 0.433618 0.285504 0.025650
O O1 0.370990 0.910367 0.892480
O O2 0.250000 0.000000 0.022763
O O3 0.385439 0.841470 0.091833
O O4 0.407877 0.110577 0.029993
O O5 0.865959 0.687836 0.239904
O O6 0.000000 0.877705 0.250000
O O7 0.984334 0.687916 0.100429
O O8 0.750000 0.500000 0.792990
O O9 0.593631 0.403870 0.795409
O O10 0.643348 0.605891 0.932701
O O11 0.000000 0.826336 0.750000
O O12 0.966676 0.674362 0.585963
#
# Coordination Sequence:
#
# PCOD8223578 Si02
#       5
#     8   8   8   8   8
#     4  11  24  43  67  99 132 170 217 278 332 376
#     4   9  20  41  65  91 127 171 213 256 318 394
#     4  11  23  41  65  98 131 166 214 273 327 383
#     4  11  23  41  65  94 128 177 224 262 322 399
#     4  10  22  42  65  90 128 174 214 261 321 390
#
# _framework density 22.441946999999999
#
# number of rings (size 3 to 8) (size 9 to 14) (size 15 to 20)
#    0.000    1.600    0.000    6.000    0.000    9.600 
#    0.000   10.000    0.000    0.000    0.000    0.000 
#    0.000    0.000    0.000    0.000    0.000    0.000 
#
# Total GULP energy -495688.180649 kJ/mol
# GULP energy per Si atom -12392.204516 kJ/mol
# Density = 2.239087 g / cm^3
# Si number density = 22.441947 Si / 1000 Ang^3
#
#
#
# Elastic Constant Matrix: (Units=GPa)
#
#
# Indices 1 2 3 4 5 6 
#
# 1 126.3703 56.0783 79.0251 0.0000 0.0000 0.0000
# 2 56.0783 93.5098 31.0346 0.0000 0.0000 0.0000
# 3 79.0251 31.0346 147.2303 0.0000 0.0000 0.0000
# 4 0.0000 0.0000 0.0000 30.9731 0.0000 0.0000
# 5 0.0000 0.0000 0.0000 0.0000 12.2115 0.0000
# 6 0.0000 0.0000 0.0000 0.0000 0.0000 38.6190
#
#
#
# Elastic Compliance Matrix: (Units=1/GPa)
#
#
# Indices 1 2 3 4 5 6 
#
# 1 0.015132 -0.006859 -0.006676 0.000000 0.000000 0.000000
# 2 -0.006859 0.014607 0.000602 0.000000 0.000000 0.000000
# 3 -0.006676 0.000602 0.010249 0.000000 0.000000 0.000000
# 4 0.000000 0.000000 0.000000 0.032286 0.000000 0.000000
# 5 0.000000 0.000000 0.000000 0.000000 0.081890 0.000000
# 6 0.000000 0.000000 0.000000 0.000000 0.000000 0.025894
#
#
# Mechanical properties :
#
#
# Convention : Reuss Voigt Hill
#
# Bulk Modulus (GPa) = 70.80930 77.70962 74.25946
# Shear Modulus (GPa) = 23.73817 29.75888 26.74853
#
# Velocity S-wave (km/s) = 3.25585 3.64543 3.45613
# Velocity P-wave (km/s) = 6.76423 7.24024 7.00628
#
# Compressibility (1/GPa) = 0.01412244
#
# Stress axis : x y z
#
# Youngs Moduli (GPa) = 66.08543 68.45802 97.57519
#
# Poissons Ratio (x) = 0.46955 0.65143
# Poissons Ratio (y) = 0.45328 -0.05878
# Poissons Ratio (z) = 0.44120 -0.04124
#
# Static dielectric constant tensor:
#      x y z
#    x 4.101730 0.000000 0.000000 
#    y 0.000000 3.947590 0.000000 
#    z 0.000000 0.000000 4.363090 
# 
# 
# High freq. dielectric constant tensor:
#      x y z
#    x 1.874060 0.000000 0.000000 
#    y 0.000000 1.882180 0.000000 
#    z 0.000000 0.000000 1.896350 
# 
# From -- ./inp_files/13234.got.cif
#   From: 2010.03.12/outbox.cif.g09.slc.cpg/sg54_7_cif.got.tgz:13234.got - 2010.04.16 15:00:50.
