data_PCOD8223069
_publ_section_title
;
Structure prediction by ZEFSAII (Michael W. Deem and Ramdas Pophale) SiO2 
 PCOD8223069
Probable space group: P C C A
;
_chemical_formula_sum "Si O2"
_cell_formula_units_Z 48
_cell_length_a 16.832441
_cell_length_b 14.585925
_cell_length_c 9.659255
_cell_angle_alpha 90.000000
_cell_angle_beta 90.000000
_cell_angle_gamma 90.000000
_cell_volume 2371.508624
_symmetry_space_group_name_H-M "P C C A"
_symmetry_group_IT_number 54
_symmetry_cell_setting 'orthorhombic'
loop_
_space_group_symop_operation_xyz
x,y,z
1/2-x,-y,z
1/2+x,-y,1/2-z
-x,y,1/2-z
-x,-y,-z
1/2+x,y,-z
1/2-x,y,1/2+z
x,-y,1/2+z
loop_
_atom_site_type_symbol
_atom_site_label
_atom_site_fract_x
_atom_site_fract_y
_atom_site_fract_z
Si Si1 0.565099 0.070705 0.864242
Si Si2 0.037788 0.869932 0.110446
Si Si3 0.168542 0.260616 0.488455
Si Si4 0.914224 0.402006 0.396141
Si Si5 0.820146 0.226929 0.329024
Si Si6 0.901177 0.441163 0.095083
O O1 0.500000 0.099908 0.750000
O O2 0.646870 0.124584 0.842803
O O3 0.586554 0.962814 0.852395
O O4 0.534648 0.097482 0.015497
O O5 0.000000 0.826211 0.250000
O O6 0.091280 0.796584 0.031795
O O7 0.195285 0.241129 0.332575
O O8 0.237187 0.236043 0.594430
O O9 0.149473 0.368652 0.493814
O O10 0.883554 0.297566 0.397822
O O11 0.878703 0.448747 0.256808
O O12 0.883803 0.459987 0.527834
O O13 0.008829 0.404140 0.406419
#
# Coordination Sequence:
#
# PCOD8223069 Si02
#       6
#     8   8   8   8   8   8
#     4  10  20  41  66  86 114 157 196 246 298 354
#     4  10  22  39  64  92 115 148 205 249 293 355
#     4  11  24  41  57  89 124 160 197 243 302 361
#     4   9  19  37  62  86 112 155 196 245 292 347
#     4  11  24  39  61  85 124 163 196 242 306 358
#     4   9  19  38  61  86 115 150 201 243 292 346
#
# _framework density 20.240281
#
# number of rings (size 3 to 8) (size 9 to 14) (size 15 to 20)
#    0.000    2.000    1.667    1.000    4.667    2.667 
#    6.000    5.000    0.000    0.000    0.000    0.000 
#    0.000    0.000    0.000    0.000    0.000    0.000 
#
# Total GULP energy -595110.291470 kJ/mol
# GULP energy per Si atom -12398.131072 kJ/mol
# Density = 2.019421 g / cm^3
# Si number density = 20.240281 Si / 1000 Ang^3
#
#
#
# Elastic Constant Matrix: (Units=GPa)
#
#
# Indices 1 2 3 4 5 6 
#
# 1 44.0504 11.5042 24.2710 0.0000 0.0000 0.0000
# 2 11.5042 68.1369 27.6212 0.0000 0.0000 0.0000
# 3 24.2710 27.6212 98.2799 0.0000 0.0000 0.0000
# 4 0.0000 0.0000 0.0000 29.0237 0.0000 0.0000
# 5 0.0000 0.0000 0.0000 0.0000 39.2639 0.0000
# 6 0.0000 0.0000 0.0000 0.0000 0.0000 8.1931
#
#
#
# Elastic Compliance Matrix: (Units=1/GPa)
#
#
# Indices 1 2 3 4 5 6 
#
# 1 0.026530 -0.002058 -0.005973 0.000000 0.000000 0.000000
# 2 -0.002058 0.016723 -0.004192 0.000000 0.000000 0.000000
# 3 -0.005973 -0.004192 0.012828 0.000000 0.000000 0.000000
# 4 0.000000 0.000000 0.000000 0.034455 0.000000 0.000000
# 5 0.000000 0.000000 0.000000 0.000000 0.025469 0.000000
# 6 0.000000 0.000000 0.000000 0.000000 0.000000 0.122054
#
#
# Mechanical properties :
#
#
# Convention : Reuss Voigt Hill
#
# Bulk Modulus (GPa) = 31.61033 37.47335 34.54184
# Shear Modulus (GPa) = 18.31168 25.10085 21.70626
#
# Velocity S-wave (km/s) = 3.01111 3.52539 3.27835
# Velocity P-wave (km/s) = 5.26692 5.92668 5.60652
#
# Compressibility (1/GPa) = 0.03163522
#
# Stress axis : x y z
#
# Youngs Moduli (GPa) = 37.69328 59.79782 77.95267
#
# Poissons Ratio (x) = 0.12305 0.46565
# Poissons Ratio (y) = 0.07757 0.32676
# Poissons Ratio (z) = 0.22516 0.25066
#
# Static dielectric constant tensor:
#      x y z
#    x 3.327170 0.000000 0.000000 
#    y 0.000000 3.739370 0.000000 
#    z 0.000000 0.000000 3.875990 
# 
# 
# High freq. dielectric constant tensor:
#      x y z
#    x 1.762470 0.000000 0.000000 
#    y 0.000000 1.791700 0.000000 
#    z 0.000000 0.000000 1.805290 
# 
# From -- ./inp_files/4183.got.cif
#   From: 2010.03.12/outbox.cif.g09.slc.cpg/sg54_3_cif.got.tgz:4183.got - 2010.04.16 15:00:50.
