data_PCOD8223396
_publ_section_title
;
Structure prediction by ZEFSAII (Michael W. Deem and Ramdas Pophale) SiO2 
 PCOD8223396
Probable space group: P C C A
;
_chemical_formula_sum "Si O2"
_cell_formula_units_Z 28
_cell_length_a 5.095778
_cell_length_b 13.503600
_cell_length_c 18.266340
_cell_angle_alpha 90.000000
_cell_angle_beta 90.000000
_cell_angle_gamma 90.000000
_cell_volume 1256.931475
_symmetry_space_group_name_H-M "P C C A"
_symmetry_group_IT_number 54
_symmetry_cell_setting 'orthorhombic'
loop_
_space_group_symop_operation_xyz
x,y,z
1/2-x,-y,z
1/2+x,-y,1/2-z
-x,y,1/2-z
-x,-y,-z
1/2+x,y,-z
1/2-x,y,1/2+z
x,-y,1/2+z
loop_
_atom_site_type_symbol
_atom_site_label
_atom_site_fract_x
_atom_site_fract_y
_atom_site_fract_z
Si Si1 0.439759 0.802998 0.663849
Si Si2 0.229445 0.114400 0.453296
Si Si3 0.750066 0.606810 0.800899
Si Si4 0.750000 0.000000 0.300481
O O1 0.500000 0.801958 0.750000
O O2 0.705439 0.814697 0.616244
O O3 0.286542 0.700620 0.644000
O O4 0.264604 0.902004 0.647752
O O5 0.443052 0.139485 0.516274
O O6 0.250000 0.000000 0.427826
O O7 0.750000 0.500000 0.843172
O O8 0.500000 0.600946 0.750000
O O9 0.000000 0.625566 0.750000
O O10 0.500000 0.988660 0.250000
#
# Coordination Sequence:
#
# PCOD8223396 Si02
#       4
#     8   8   8   4
#     4  10  22  36  61  87 115 149 197 243 287 340
#     4  10  24  41  56  78 118 160 192 230 290 357
#     4   9  18  34  55  84 118 149 188 241 297 345
#     4  10  22  32  48  84 120 138 176 238 290 326
#
# _framework density 22.276475000000001
#
# number of rings (size 3 to 8) (size 9 to 14) (size 15 to 20)
#    0.000    2.286    0.000    0.857   14.000    4.571 
#    0.000    0.000    0.000    1.714    0.000    0.000 
#    0.000    0.000    0.000    0.000    0.000    0.000 
#
# Total GULP energy -346927.578090 kJ/mol
# GULP energy per Si atom -12390.270646 kJ/mol
# Density = 2.222577 g / cm^3
# Si number density = 22.276475 Si / 1000 Ang^3
#
#
#
# Elastic Constant Matrix: (Units=GPa)
#
#
# Indices 1 2 3 4 5 6 
#
# 1 102.4609 28.6953 9.8490 0.0000 0.0000 0.0000
# 2 28.6953 218.9807 26.8228 0.0000 0.0000 0.0000
# 3 9.8490 26.8228 75.0081 0.0000 0.0000 0.0000
# 4 0.0000 0.0000 0.0000 4.0316 0.0000 0.0000
# 5 0.0000 0.0000 0.0000 0.0000 13.8028 0.0000
# 6 0.0000 0.0000 0.0000 0.0000 0.0000 30.1114
#
#
#
# Elastic Compliance Matrix: (Units=1/GPa)
#
#
# Indices 1 2 3 4 5 6 
#
# 1 0.010189 -0.001225 -0.000900 0.000000 0.000000 0.000000
# 2 -0.001225 0.004923 -0.001600 0.000000 0.000000 0.000000
# 3 -0.000900 -0.001600 0.014022 0.000000 0.000000 0.000000
# 4 0.000000 0.000000 0.000000 0.248041 0.000000 0.000000
# 5 0.000000 0.000000 0.000000 0.000000 0.072449 0.000000
# 6 0.000000 0.000000 0.000000 0.000000 0.000000 0.033210
#
#
# Mechanical properties :
#
#
# Convention : Reuss Voigt Hill
#
# Bulk Modulus (GPa) = 46.11367 58.57599 52.34483
# Shear Modulus (GPa) = 12.57823 31.66135 22.11979
#
# Velocity S-wave (km/s) = 2.37880 3.77409 3.15456
# Velocity P-wave (km/s) = 5.31888 6.73378 6.06771
#
# Compressibility (1/GPa) = 0.02168554
#
# Stress axis : x y z
#
# Youngs Moduli (GPa) = 98.14130 203.12509 71.31615
#
# Poissons Ratio (x) = 0.24883 0.06417
# Poissons Ratio (y) = 0.12022 0.11408
# Poissons Ratio (z) = 0.08831 0.32493
#
# Static dielectric constant tensor:
#      x y z
#    x 4.073100 0.000000 0.000000 
#    y 0.000000 6.600400 0.000000 
#    z 0.000000 0.000000 3.608770 
# 
# 
# High freq. dielectric constant tensor:
#      x y z
#    x 1.894370 0.000000 0.000000 
#    y 0.000000 1.878370 0.000000 
#    z 0.000000 0.000000 1.828990 
# 
# From -- ./inp_files/19553.got.cif
#   From: 2010.03.12/outbox.cif.g09.slc.cpg/sg54_10_cif.got.tgz:19553.got - 2010.04.16 15:00:50.
