data_PCOD8223990
_publ_section_title
;
Structure prediction by ZEFSAII (Michael W. Deem and Ramdas Pophale) SiO2 
 PCOD8223990
Probable space group: P C C A
;
_chemical_formula_sum "Si O2"
_cell_formula_units_Z 40
_cell_length_a 8.360135
_cell_length_b 8.906534
_cell_length_c 23.638499
_cell_angle_alpha 90.000000
_cell_angle_beta 90.000000
_cell_angle_gamma 90.000000
_cell_volume 1760.118537
_symmetry_space_group_name_H-M "P C C A"
_symmetry_group_IT_number 54
_symmetry_cell_setting 'orthorhombic'
loop_
_space_group_symop_operation_xyz
x,y,z
1/2-x,-y,z
1/2+x,-y,1/2-z
-x,y,1/2-z
-x,-y,-z
1/2+x,y,-z
1/2-x,y,1/2+z
x,-y,1/2+z
loop_
_atom_site_type_symbol
_atom_site_label
_atom_site_fract_x
_atom_site_fract_y
_atom_site_fract_z
Si Si1 0.972291 0.669588 0.018424
Si Si2 0.815703 0.335326 0.826456
Si Si3 0.819358 0.836002 0.728192
Si Si4 0.223906 0.825070 0.569026
Si Si5 0.322524 0.339667 0.365555
O O1 0.833456 0.683486 0.066500
O O2 0.135380 0.726427 0.043866
O O3 0.933801 0.773065 0.964317
O O4 0.000000 0.500000 0.000000
O O5 0.750000 0.500000 0.839145
O O6 0.784429 0.286441 0.762366
O O7 0.714451 0.217303 0.864938
O O8 0.002746 0.325841 0.838410
O O9 0.794611 0.786506 0.662459
O O10 0.000000 0.829553 0.750000
O O11 0.750000 0.000000 0.738228
O O12 0.250000 0.000000 0.560727
O O13 0.250000 0.500000 0.350875
#
# Coordination Sequence:
#
# PCOD8223990 Si02
#       5
#     8   8   8   8   8
#     4  11  23  42  66  96 133 177 226 280 343 419
#     4  11  23  42  66  92 127 174 223 274 335 407
#     4  12  26  44  66  95 132 175 222 282 349 418
#     4  11  23  39  63  94 130 170 218 278 341 403
#     4  11  23  41  65  95 129 172 224 278 335 405
#
# _framework density 22.725740999999999
#
# number of rings (size 3 to 8) (size 9 to 14) (size 15 to 20)
#    0.000    0.800    0.000    9.000    0.000    4.000 
#    0.000    0.000    0.000    0.000    0.000    0.000 
#    0.000    0.000    0.000    0.000    0.000    0.000 
#
# Total GULP energy -496118.362797 kJ/mol
# GULP energy per Si atom -12402.959070 kJ/mol
# Density = 2.267402 g / cm^3
# Si number density = 22.725741 Si / 1000 Ang^3
#
#
#
# Elastic Constant Matrix: (Units=GPa)
#
#
# Indices 1 2 3 4 5 6 
#
# 1 56.3649 10.7293 19.0465 0.0000 0.0000 0.0000
# 2 10.7293 134.4364 23.7050 0.0000 0.0000 0.0000
# 3 19.0465 23.7050 103.1974 0.0000 0.0000 0.0000
# 4 0.0000 0.0000 0.0000 28.0609 0.0000 0.0000
# 5 0.0000 0.0000 0.0000 0.0000 29.4141 0.0000
# 6 0.0000 0.0000 0.0000 0.0000 0.0000 39.9586
#
#
#
# Elastic Compliance Matrix: (Units=1/GPa)
#
#
# Indices 1 2 3 4 5 6 
#
# 1 0.019034 -0.000938 -0.003298 0.000000 0.000000 0.000000
# 2 -0.000938 0.007799 -0.001618 0.000000 0.000000 0.000000
# 3 -0.003298 -0.001618 0.010671 0.000000 0.000000 0.000000
# 4 0.000000 0.000000 0.000000 0.035637 0.000000 0.000000
# 5 0.000000 0.000000 0.000000 0.000000 0.033997 0.000000
# 6 0.000000 0.000000 0.000000 0.000000 0.000000 0.025026
#
#
# Mechanical properties :
#
#
# Convention : Reuss Voigt Hill
#
# Bulk Modulus (GPa) = 38.76535 44.55114 41.65824
# Shear Modulus (GPa) = 32.79343 35.52125 34.15734
#
# Velocity S-wave (km/s) = 3.80282 3.95782 3.88109
# Velocity P-wave (km/s) = 6.03132 6.36649 6.20117
#
# Compressibility (1/GPa) = 0.02579623
#
# Stress axis : x y z
#
# Youngs Moduli (GPa) = 52.53663 128.22731 93.71605
#
# Poissons Ratio (x) = 0.12023 0.30904
# Poissons Ratio (y) = 0.04926 0.15166
# Poissons Ratio (z) = 0.17325 0.20751
#
# Static dielectric constant tensor:
#      x y z
#    x 4.099940 0.000000 0.000000 
#    y 0.000000 3.921130 0.000000 
#    z 0.000000 0.000000 4.741920 
# 
# 
# High freq. dielectric constant tensor:
#      x y z
#    x 1.900650 0.000000 0.000000 
#    y 0.000000 1.897950 0.000000 
#    z 0.000000 0.000000 1.914520 
# 
# From -- ./inp_files/23213.got.cif
#   From: 2010.03.12/outbox.cif.g09.slc.cpg/sg54_12_cif.got.tgz:23213.got - 2010.04.16 15:00:50.
