data_PCOD8223041
_publ_section_title
;
Structure prediction by ZEFSAII (Michael W. Deem and Ramdas Pophale) SiO2 
 PCOD8223041
Probable space group: P C C A
;
_chemical_formula_sum "Si O2"
_cell_formula_units_Z 36
_cell_length_a 19.242182
_cell_length_b 9.451134
_cell_length_c 8.796751
_cell_angle_alpha 90.000000
_cell_angle_beta 90.000000
_cell_angle_gamma 90.000000
_cell_volume 1599.781012
_symmetry_space_group_name_H-M "P C C A"
_symmetry_group_IT_number 54
_symmetry_cell_setting 'orthorhombic'
loop_
_space_group_symop_operation_xyz
x,y,z
1/2-x,-y,z
1/2+x,-y,1/2-z
-x,y,1/2-z
-x,-y,-z
1/2+x,y,-z
1/2-x,y,1/2+z
x,-y,1/2+z
loop_
_atom_site_type_symbol
_atom_site_label
_atom_site_fract_x
_atom_site_fract_y
_atom_site_fract_z
Si Si1 0.820552 0.061531 0.841059
Si Si2 0.327598 0.333630 0.990109
Si Si3 0.529373 0.220950 0.592140
Si Si4 0.910658 0.086543 0.567601
Si Si5 0.250000 0.500000 0.236954
O O1 0.802217 0.175074 0.971752
O O2 0.863566 0.139645 0.707737
O O3 0.750000 0.000000 0.770776
O O4 0.864918 0.934164 0.915397
O O5 0.310419 0.435635 0.131225
O O6 0.410972 0.328490 0.964957
O O7 0.286605 0.380227 0.839046
O O8 0.500000 0.281673 0.750000
O O9 0.468296 0.207285 0.465300
O O10 0.556778 0.062277 0.619218
#
# Coordination Sequence:
#
# PCOD8223041 Si02
#       5
#     8   8   8   8   4
#     4  11  23  37  65 110 132 172 212 275 353 413
#     4  10  25  43  74  91 133 179 229 281 340 392
#     4  10  20  40  65  98 134 180 212 268 345 413
#     4  10  21  36  61  97 148 168 204 263 343 424
#     4  10  24  52  66  94 130 182 238 292 316 386
#
# _framework density 22.503077999999999
#
# number of rings (size 3 to 8) (size 9 to 14) (size 15 to 20)
#    0.000    1.778    2.222    0.667    9.333    0.000 
#    4.000    1.111    0.000    0.000    0.000    0.000 
#    0.000    0.000    0.000    0.000    0.000    0.000 
#
# Total GULP energy -446379.594313 kJ/mol
# GULP energy per Si atom -12399.433175 kJ/mol
# Density = 2.245186 g / cm^3
# Si number density = 22.503078 Si / 1000 Ang^3
#
#
#
# Elastic Constant Matrix: (Units=GPa)
#
#
# Indices 1 2 3 4 5 6 
#
# 1 183.9195 54.3686 95.6338 0.0000 0.0000 0.0000
# 2 54.3686 54.8362 36.7278 0.0000 0.0000 0.0000
# 3 95.6338 36.7278 148.1036 0.0000 0.0000 0.0000
# 4 0.0000 0.0000 0.0000 23.1875 0.0000 0.0000
# 5 0.0000 0.0000 0.0000 0.0000 41.0019 0.0000
# 6 0.0000 0.0000 0.0000 0.0000 0.0000 42.6516
#
#
#
# Elastic Compliance Matrix: (Units=1/GPa)
#
#
# Indices 1 2 3 4 5 6 
#
# 1 0.009841 -0.006596 -0.004718 0.000000 0.000000 0.000000
# 2 -0.006596 0.026290 -0.002260 0.000000 0.000000 0.000000
# 3 -0.004718 -0.002260 0.010359 0.000000 0.000000 0.000000
# 4 0.000000 0.000000 0.000000 0.043127 0.000000 0.000000
# 5 0.000000 0.000000 0.000000 0.000000 0.024389 0.000000
# 6 0.000000 0.000000 0.000000 0.000000 0.000000 0.023446
#
#
# Mechanical properties :
#
#
# Convention : Reuss Voigt Hill
#
# Bulk Modulus (GPa) = 51.70644 84.47998 68.09321
# Shear Modulus (GPa) = 29.23149 34.71014 31.97081
#
# Velocity S-wave (km/s) = 3.60807 3.93168 3.77335
# Velocity P-wave (km/s) = 6.35492 7.63111 7.02207
#
# Compressibility (1/GPa) = 0.01933995
#
# Stress axis : x y z
#
# Youngs Moduli (GPa) = 101.61948 38.03719 96.53101
#
# Poissons Ratio (x) = 0.25091 0.45548
# Poissons Ratio (y) = 0.67032 0.21818
# Poissons Ratio (z) = 0.47949 0.08597
#
# Static dielectric constant tensor:
#      x y z
#    x 4.348070 0.000000 0.000000 
#    y 0.000000 3.544260 0.000000 
#    z 0.000000 0.000000 4.072540 
# 
# 
# High freq. dielectric constant tensor:
#      x y z
#    x 1.899210 0.000000 0.000000 
#    y 0.000000 1.830740 0.000000 
#    z 0.000000 0.000000 1.900950 
# 
# From -- ./inp_files/4555.got.cif
#   From: 2010.03.12/outbox.cif.g09.slc.cpg/sg54_3_cif.got.tgz:4555.got - 2010.04.16 15:00:50.
