data_PCOD8223507
_publ_section_title
;
Structure prediction by ZEFSAII (Michael W. Deem and Ramdas Pophale) SiO2 
 PCOD8223507
Probable space group: P C C A
;
_chemical_formula_sum "Si O2"
_cell_formula_units_Z 36
_cell_length_a 5.038045
_cell_length_b 13.243784
_cell_length_c 23.196040
_cell_angle_alpha 90.000000
_cell_angle_beta 90.000000
_cell_angle_gamma 90.000000
_cell_volume 1547.704268
_symmetry_space_group_name_H-M "P C C A"
_symmetry_group_IT_number 54
_symmetry_cell_setting 'orthorhombic'
loop_
_space_group_symop_operation_xyz
x,y,z
1/2-x,-y,z
1/2+x,-y,1/2-z
-x,y,1/2-z
-x,-y,-z
1/2+x,y,-z
1/2-x,y,1/2+z
x,-y,1/2+z
loop_
_atom_site_type_symbol
_atom_site_label
_atom_site_fract_x
_atom_site_fract_y
_atom_site_fract_z
Si Si1 0.729385 0.385583 0.027102
Si Si2 0.000000 0.059569 0.250000
Si Si3 0.391149 0.830500 0.135627
Si Si4 0.102397 0.698116 0.357646
Si Si5 0.500000 0.433338 0.250000
Si Si6 0.750000 0.000000 0.957544
O O1 0.750000 0.500000 0.004847
O O2 0.663589 0.384808 0.094104
O O3 0.502291 0.329026 0.989314
O O4 0.139120 0.120125 0.198446
O O5 0.250000 0.000000 0.277664
O O6 0.694579 0.791297 0.132580
O O7 0.299827 0.904325 0.084214
O O8 0.196599 0.735440 0.134744
O O9 0.128996 0.639240 0.297919
O O10 0.250000 0.500000 0.226992
O O11 0.500000 0.000000 0.000000
#
# Coordination Sequence:
#
# PCOD8223507 Si02
#       6
#     8   4   8   8   4   4
#     4  10  22  40  64  94 128 174 226 274 332 402
#     4  12  24  44  74  94 132 172 238 286 340 410
#     4  12  26  45  70 104 136 184 238 298 348 422
#     4  12  25  43  70 102 142 178 237 289 352 420
#     4  12  26  46  72 104 148 190 226 288 370 440
#     4  12  28  48  70 102 146 192 238 294 376 438
#
# _framework density 23.260259000000001
#
# number of rings (size 3 to 8) (size 9 to 14) (size 15 to 20)
#    0.000    0.444    1.111    7.333    1.556    8.000 
#    0.000    0.000    0.000    0.000    0.000    0.000 
#    0.000    0.000    0.000    0.000    0.000    0.000 
#
# Total GULP energy -446202.090323 kJ/mol
# GULP energy per Si atom -12394.502509 kJ/mol
# Density = 2.320732 g / cm^3
# Si number density = 23.260259 Si / 1000 Ang^3
#
#
#
# Elastic Constant Matrix: (Units=GPa)
#
#
# Indices 1 2 3 4 5 6 
#
# 1 163.6180 39.2081 54.9269 0.0000 0.0000 0.0000
# 2 39.2081 68.7189 38.3893 0.0000 0.0000 0.0000
# 3 54.9269 38.3893 167.5287 0.0000 0.0000 0.0000
# 4 0.0000 0.0000 0.0000 26.1309 0.0000 0.0000
# 5 0.0000 0.0000 0.0000 0.0000 40.3830 0.0000
# 6 0.0000 0.0000 0.0000 0.0000 0.0000 34.0382
#
#
#
# Elastic Compliance Matrix: (Units=1/GPa)
#
#
# Indices 1 2 3 4 5 6 
#
# 1 0.007475 -0.003321 -0.001690 0.000000 0.000000 0.000000
# 2 -0.003321 0.018164 -0.003073 0.000000 0.000000 0.000000
# 3 -0.001690 -0.003073 0.007227 0.000000 0.000000 0.000000
# 4 0.000000 0.000000 0.000000 0.038269 0.000000 0.000000
# 5 0.000000 0.000000 0.000000 0.000000 0.024763 0.000000
# 6 0.000000 0.000000 0.000000 0.000000 0.000000 0.029379
#
#
# Mechanical properties :
#
#
# Convention : Reuss Voigt Hill
#
# Bulk Modulus (GPa) = 59.88787 73.87937 66.88362
# Shear Modulus (GPa) = 34.01118 37.93318 35.97218
#
# Velocity S-wave (km/s) = 3.82802 4.04272 3.93683
# Velocity P-wave (km/s) = 6.73358 7.32273 7.03433
#
# Compressibility (1/GPa) = 0.01669787
#
# Stress axis : x y z
#
# Youngs Moduli (GPa) = 133.78221 55.05484 138.36193
#
# Poissons Ratio (x) = 0.18283 0.23380
# Poissons Ratio (y) = 0.44427 0.42525
# Poissons Ratio (z) = 0.22606 0.16921
#
# Static dielectric constant tensor:
#      x y z
#    x 4.516910 0.000000 0.000000 
#    y 0.000000 4.028960 0.000000 
#    z 0.000000 0.000000 4.205530 
# 
# 
# High freq. dielectric constant tensor:
#      x y z
#    x 1.949390 0.000000 0.000000 
#    y 0.000000 1.904690 0.000000 
#    z 0.000000 0.000000 1.929440 
# 
# From -- ./inp_files/22714.got.cif
#   From: 2010.03.12/outbox.cif.g09.slc.cpg/sg54_12_cif.got.tgz:22714.got - 2010.04.16 15:00:50.
