data_PCOD8223922
_publ_section_title
;
Structure prediction by ZEFSAII (Michael W. Deem and Ramdas Pophale) SiO2 
 PCOD8223922
Probable space group: P C C A
;
_chemical_formula_sum "Si O2"
_cell_formula_units_Z 48
_cell_length_a 29.850969
_cell_length_b 16.280565
_cell_length_c 4.896966
_cell_angle_alpha 90.000000
_cell_angle_beta 90.000000
_cell_angle_gamma 90.000000
_cell_volume 2379.879646
_symmetry_space_group_name_H-M "P C C A"
_symmetry_group_IT_number 54
_symmetry_cell_setting 'orthorhombic'
loop_
_space_group_symop_operation_xyz
x,y,z
1/2-x,-y,z
1/2+x,-y,1/2-z
-x,y,1/2-z
-x,-y,-z
1/2+x,y,-z
1/2-x,y,1/2+z
x,-y,1/2+z
loop_
_atom_site_type_symbol
_atom_site_label
_atom_site_fract_x
_atom_site_fract_y
_atom_site_fract_z
Si Si1 0.500000 0.758494 0.750000
Si Si2 0.595689 0.192530 0.286502
Si Si3 0.338686 0.055621 0.092311
Si Si4 0.907720 0.554426 0.776815
Si Si5 0.000000 0.642215 0.750000
Si Si6 0.866044 0.278104 0.265550
Si Si7 0.220650 0.204824 0.480484
O O1 0.456278 0.815900 0.804027
O O2 0.488925 0.700400 0.500235
O O3 0.615190 0.108176 0.414535
O O4 0.597313 0.258543 0.532092
O O5 0.626763 0.220720 0.031761
O O6 0.297460 0.111541 0.990331
O O7 0.337133 0.024199 0.402452
O O8 0.899100 0.522843 0.472263
O O9 0.872704 0.627077 0.846841
O O10 0.958180 0.585021 0.822042
O O11 0.817722 0.265719 0.125701
O O12 0.263836 0.220450 0.290540
#
# Coordination Sequence:
#
# PCOD8223922 Si02
#       7
#     4   8   8   8   4   8   8
#     4  12  20  37  62  85 118 166 220 256 284 353
#     4  11  21  39  61  85 119 170 212 246 296 362
#     4  11  23  39  60  90 126 154 187 247 311 365
#     4  12  23  37  58  89 128 163 199 255 318 366
#     4  12  22  37  56  91 126 158 206 268 302 357
#     4  11  22  41  61  85 123 162 207 250 304 375
#     4  11  23  40  65  92 114 151 197 246 302 369
#
# _framework density 20.169087000000001
#
# number of rings (size 3 to 8) (size 9 to 14) (size 15 to 20)
#    0.000    0.667    3.333    7.500    0.000    2.000 
#    0.000    0.833    0.000    3.000    0.000    0.000 
#    0.000    0.000    0.000    0.000    0.000    0.000 
#
# Total GULP energy -595099.892139 kJ/mol
# GULP energy per Si atom -12397.914420 kJ/mol
# Density = 2.012318 g / cm^3
# Si number density = 20.169087 Si / 1000 Ang^3
#
#
#
# Elastic Constant Matrix: (Units=GPa)
#
#
# Indices 1 2 3 4 5 6 
#
# 1 96.0770 39.4726 12.3996 0.0000 0.0000 0.0000
# 2 39.4726 74.7812 16.0261 0.0000 0.0000 0.0000
# 3 12.3996 16.0261 91.0894 0.0000 0.0000 0.0000
# 4 0.0000 0.0000 0.0000 35.1209 0.0000 0.0000
# 5 0.0000 0.0000 0.0000 0.0000 29.6099 0.0000
# 6 0.0000 0.0000 0.0000 0.0000 0.0000 23.3591
#
#
#
# Elastic Compliance Matrix: (Units=1/GPa)
#
#
# Indices 1 2 3 4 5 6 
#
# 1 0.013322 -0.006904 -0.000599 0.000000 0.000000 0.000000
# 2 -0.006904 0.017474 -0.002135 0.000000 0.000000 0.000000
# 3 -0.000599 -0.002135 0.011435 0.000000 0.000000 0.000000
# 4 0.000000 0.000000 0.000000 0.028473 0.000000 0.000000
# 5 0.000000 0.000000 0.000000 0.000000 0.033772 0.000000
# 6 0.000000 0.000000 0.000000 0.000000 0.000000 0.042810
#
#
# Mechanical properties :
#
#
# Convention : Reuss Voigt Hill
#
# Bulk Modulus (GPa) = 43.55955 44.19382 43.87668
# Shear Modulus (GPa) = 28.70057 30.55459 29.62758
#
# Velocity S-wave (km/s) = 3.77636 3.89642 3.83686
# Velocity P-wave (km/s) = 6.37641 6.49631 6.43664
#
# Compressibility (1/GPa) = 0.02295708
#
# Stress axis : x y z
#
# Youngs Moduli (GPa) = 75.06451 57.22868 87.44853
#
# Poissons Ratio (x) = 0.39508 0.05237
# Poissons Ratio (y) = 0.51821 0.18666
# Poissons Ratio (z) = 0.04495 0.12216
#
# Static dielectric constant tensor:
#      x y z
#    x 3.598720 0.000000 0.000000 
#    y 0.000000 3.431060 0.000000 
#    z 0.000000 0.000000 3.783420 
# 
# 
# High freq. dielectric constant tensor:
#      x y z
#    x 1.779950 0.000000 0.000000 
#    y 0.000000 1.766110 0.000000 
#    z 0.000000 0.000000 1.810550 
# 
# From -- ./inp_files/1926.got.cif
#   From: 2010.03.12/outbox.cif.g09.slc.cpg/sg54_1_cif.got.tgz:1926.got - 2010.04.16 15:00:50.
