data_PCOD8223895
_publ_section_title
;
Structure prediction by ZEFSAII (Michael W. Deem and Ramdas Pophale) SiO2 
 PCOD8223895
Probable space group: P C C A
;
_chemical_formula_sum "Si O2"
_cell_formula_units_Z 32
_cell_length_a 24.692051
_cell_length_b 6.279508
_cell_length_c 9.242917
_cell_angle_alpha 90.000000
_cell_angle_beta 90.000000
_cell_angle_gamma 90.000000
_cell_volume 1433.150622
_symmetry_space_group_name_H-M "P C C A"
_symmetry_group_IT_number 54
_symmetry_cell_setting 'orthorhombic'
loop_
_space_group_symop_operation_xyz
x,y,z
1/2-x,-y,z
1/2+x,-y,1/2-z
-x,y,1/2-z
-x,-y,-z
1/2+x,y,-z
1/2-x,y,1/2+z
x,-y,1/2+z
loop_
_atom_site_type_symbol
_atom_site_label
_atom_site_fract_x
_atom_site_fract_y
_atom_site_fract_z
Si Si1 0.750000 0.500000 0.992241
Si Si2 0.289958 0.205198 0.757535
Si Si3 0.410302 0.146747 0.689057
Si Si4 0.040529 0.143261 0.910133
Si Si5 0.500000 0.483795 0.750000
O O1 0.716014 0.655762 0.096609
O O2 0.784846 0.650401 0.886397
O O3 0.351657 0.130698 0.760370
O O4 0.250000 0.000000 0.755404
O O5 0.406261 0.145520 0.514307
O O6 0.444934 0.353902 0.729288
O O7 0.443557 0.944897 0.752387
O O8 0.013015 0.372250 0.890413
O O9 0.000000 0.000000 0.000000
#
# Coordination Sequence:
#
# PCOD8223895 Si02
#       5
#     4   8   8   8   4
#     4  10  26  50  70 106 136 186 252 286 364 428
#     4  11  27  48  74 103 144 187 240 305 353 422
#     4  12  28  42  74 101 141 189 231 285 358 419
#     4  12  24  46  65 108 145 182 230 281 352 427
#     4  12  24  44  70 102 146 178 234 284 346 430
#
# _framework density 22.328426
#
# number of rings (size 3 to 8) (size 9 to 14) (size 15 to 20)
#    0.000    0.500    5.000    1.500   10.500    2.000 
#    0.000    0.000    0.000    0.000    0.000    0.000 
#    0.000    0.000    0.000    0.000    0.000    0.000 
#
# Total GULP energy -396493.902518 kJ/mol
# GULP energy per Si atom -12390.434454 kJ/mol
# Density = 2.227761 g / cm^3
# Si number density = 22.328426 Si / 1000 Ang^3
#
#
#
# Elastic Constant Matrix: (Units=GPa)
#
#
# Indices 1 2 3 4 5 6 
#
# 1 128.7843 51.8562 21.7753 0.0000 0.0000 0.0000
# 2 51.8562 130.1236 44.9781 0.0000 0.0000 0.0000
# 3 21.7753 44.9781 137.4551 0.0000 0.0000 0.0000
# 4 0.0000 0.0000 0.0000 40.0880 0.0000 0.0000
# 5 0.0000 0.0000 0.0000 0.0000 26.5622 0.0000
# 6 0.0000 0.0000 0.0000 0.0000 0.0000 24.9893
#
#
#
# Elastic Compliance Matrix: (Units=1/GPa)
#
#
# Indices 1 2 3 4 5 6 
#
# 1 0.009259 -0.003589 -0.000292 0.000000 0.000000 0.000000
# 2 -0.003589 0.010056 -0.002722 0.000000 0.000000 0.000000
# 3 -0.000292 -0.002722 0.008212 0.000000 0.000000 0.000000
# 4 0.000000 0.000000 0.000000 0.024945 0.000000 0.000000
# 5 0.000000 0.000000 0.000000 0.000000 0.037647 0.000000
# 6 0.000000 0.000000 0.000000 0.000000 0.000000 0.040017
#
#
# Mechanical properties :
#
#
# Convention : Reuss Voigt Hill
#
# Bulk Modulus (GPa) = 69.82821 70.39801 70.11311
# Shear Modulus (GPa) = 33.75688 36.84481 35.30085
#
# Velocity S-wave (km/s) = 3.89245 4.06659 3.98047
# Velocity P-wave (km/s) = 7.17932 7.32437 7.25221
#
# Compressibility (1/GPa) = 0.01432086
#
# Stress axis : x y z
#
# Youngs Moduli (GPa) = 107.99724 99.44185 121.77099
#
# Poissons Ratio (x) = 0.35689 0.03562
# Poissons Ratio (y) = 0.38760 0.33146
# Poissons Ratio (z) = 0.03159 0.27068
#
# Static dielectric constant tensor:
#      x y z
#    x 3.912180 0.000000 0.000000 
#    y 0.000000 4.268060 0.000000 
#    z 0.000000 0.000000 4.995160 
# 
# 
# High freq. dielectric constant tensor:
#      x y z
#    x 1.864280 0.000000 0.000000 
#    y 0.000000 1.891380 0.000000 
#    z 0.000000 0.000000 1.908190 
# 
# From -- ./inp_files/5675.got.cif
#   From: 2010.03.12/outbox.cif.g09.slc.cpg/sg54_3_cif.got.tgz:5675.got - 2010.04.16 15:00:50.
