data_PCOD8223389
_publ_section_title
;
Structure prediction by ZEFSAII (Michael W. Deem and Ramdas Pophale) SiO2 
 PCOD8223389
Probable space group: P C C A
;
_chemical_formula_sum "Si O2"
_cell_formula_units_Z 36
_cell_length_a 20.817223
_cell_length_b 6.279707
_cell_length_c 12.460942
_cell_angle_alpha 90.000000
_cell_angle_beta 90.000000
_cell_angle_gamma 90.000000
_cell_volume 1628.969864
_symmetry_space_group_name_H-M "P C C A"
_symmetry_group_IT_number 54
_symmetry_cell_setting 'orthorhombic'
loop_
_space_group_symop_operation_xyz
x,y,z
1/2-x,-y,z
1/2+x,-y,1/2-z
-x,y,1/2-z
-x,-y,-z
1/2+x,y,-z
1/2-x,y,1/2+z
x,-y,1/2+z
loop_
_atom_site_type_symbol
_atom_site_label
_atom_site_fract_x
_atom_site_fract_y
_atom_site_fract_z
Si Si1 0.366952 0.373146 0.386572
Si Si2 0.750000 0.500000 0.965542
Si Si3 0.585215 0.941868 0.438780
Si Si4 0.031437 0.685073 0.935026
Si Si5 0.805349 0.144013 0.810931
O O1 0.308878 0.450419 0.458377
O O2 0.401699 0.186576 0.451783
O O3 0.414991 0.572349 0.358827
O O4 0.342853 0.286651 0.273574
O O5 0.770525 0.296462 0.896041
O O6 0.525164 0.824093 0.376752
O O7 0.566292 0.176539 0.474545
O O8 0.646363 0.970124 0.362617
O O9 0.000000 0.500000 0.000000
O O10 0.750000 0.000000 0.755188
#
# Coordination Sequence:
#
# PCOD8223389 Si02
#       5
#     8   4   8   8   8
#     4  11  24  42  70  99 135 180 231 281 352 413
#     4  12  24  44  66 100 144 178 230 300 336 418
#     4  10  21  44  69  96 138 175 228 290 337 414
#     4   9  20  43  71  93 132 179 222 288 345 401
#     4  12  26  41  69 105 138 188 233 286 362 423
#
# _framework density 22.099857
#
# number of rings (size 3 to 8) (size 9 to 14) (size 15 to 20)
#    0.000    1.333    4.444    0.667    3.111    1.778 
#    0.000   12.222    0.000    0.000    0.000    0.000 
#    0.000    0.000    0.000    0.000    0.000    0.000 
#
# Total GULP energy -446125.756158 kJ/mol
# GULP energy per Si atom -12392.382116 kJ/mol
# Density = 2.204956 g / cm^3
# Si number density = 22.099857 Si / 1000 Ang^3
#
#
#
# Elastic Constant Matrix: (Units=GPa)
#
#
# Indices 1 2 3 4 5 6 
#
# 1 161.9341 73.8573 43.1415 0.0000 0.0000 0.0000
# 2 73.8573 121.8571 30.0347 0.0000 0.0000 0.0000
# 3 43.1415 30.0347 53.5737 0.0000 0.0000 0.0000
# 4 0.0000 0.0000 0.0000 34.7416 0.0000 0.0000
# 5 0.0000 0.0000 0.0000 0.0000 19.3850 0.0000
# 6 0.0000 0.0000 0.0000 0.0000 0.0000 69.0619
#
#
#
# Elastic Compliance Matrix: (Units=1/GPa)
#
#
# Indices 1 2 3 4 5 6 
#
# 1 0.009643 -0.004561 -0.005208 0.000000 0.000000 0.000000
# 2 -0.004561 0.011679 -0.002875 0.000000 0.000000 0.000000
# 3 -0.005208 -0.002875 0.024472 0.000000 0.000000 0.000000
# 4 0.000000 0.000000 0.000000 0.028784 0.000000 0.000000
# 5 0.000000 0.000000 0.000000 0.000000 0.051586 0.000000
# 6 0.000000 0.000000 0.000000 0.000000 0.000000 0.014480
#
#
# Mechanical properties :
#
#
# Convention : Reuss Voigt Hill
#
# Bulk Modulus (GPa) = 48.76673 70.15911 59.46292
# Shear Modulus (GPa) = 28.94053 37.32646 33.13349
#
# Velocity S-wave (km/s) = 3.62267 4.11419 3.87623
# Velocity P-wave (km/s) = 6.29387 7.37456 6.85554
#
# Compressibility (1/GPa) = 0.02050578
#
# Stress axis : x y z
#
# Youngs Moduli (GPa) = 103.70015 85.62151 40.86333
#
# Poissons Ratio (x) = 0.39052 0.21283
# Poissons Ratio (y) = 0.47297 0.11748
# Poissons Ratio (z) = 0.54011 0.24615
#
# Static dielectric constant tensor:
#      x y z
#    x 4.848070 0.000000 0.000000 
#    y 0.000000 4.724900 0.000000 
#    z 0.000000 0.000000 3.457300 
# 
# 
# High freq. dielectric constant tensor:
#      x y z
#    x 1.904690 0.000000 0.000000 
#    y 0.000000 1.893980 0.000000 
#    z 0.000000 0.000000 1.822890 
# 
# From -- ./inp_files/9724.got.cif
#   From: 2010.03.12/outbox.cif.g09.slc.cpg/sg54_5_cif.got.tgz:9724.got - 2010.04.16 15:00:50.
