data_PCOD8223292
_publ_section_title
;
Structure prediction by ZEFSAII (Michael W. Deem and Ramdas Pophale) SiO2 
 PCOD8223292
Probable space group: P C C A
;
_chemical_formula_sum "Si O2"
_cell_formula_units_Z 40
_cell_length_a 23.686774
_cell_length_b 5.695937
_cell_length_c 13.152798
_cell_angle_alpha 90.000000
_cell_angle_beta 90.000000
_cell_angle_gamma 90.000000
_cell_volume 1774.554099
_symmetry_space_group_name_H-M "P C C A"
_symmetry_group_IT_number 54
_symmetry_cell_setting 'orthorhombic'
loop_
_space_group_symop_operation_xyz
x,y,z
1/2-x,-y,z
1/2+x,-y,1/2-z
-x,y,1/2-z
-x,-y,-z
1/2+x,y,-z
1/2-x,y,1/2+z
x,-y,1/2+z
loop_
_atom_site_type_symbol
_atom_site_label
_atom_site_fract_x
_atom_site_fract_y
_atom_site_fract_z
Si Si1 0.782042 0.754163 0.514803
Si Si2 0.940512 0.103697 0.283850
Si Si3 0.625351 0.568555 0.149897
Si Si4 0.140949 0.279685 0.667844
Si Si5 0.061069 0.419089 0.032419
O O1 0.750000 0.500000 0.524777
O O2 0.833349 0.751594 0.594416
O O3 0.804499 0.778337 0.399477
O O4 0.750000 0.000000 0.538248
O O5 0.929016 0.309230 0.202121
O O6 0.943561 0.183164 0.401803
O O7 0.000000 0.985676 0.250000
O O8 0.885887 0.941735 0.275513
O O9 0.661018 0.446574 0.240036
O O10 0.600135 0.382145 0.067777
O O11 0.090368 0.382943 0.600615
O O12 0.000000 0.500000 0.000000
#
# Coordination Sequence:
#
# PCOD8223292 Si02
#       5
#     8   8   8   8   8
#     4  11  28  52  76 104 140 188 245 307 366 414
#     4  11  23  39  68 106 141 186 229 287 363 431
#     4  10  24  45  68 102 137 187 237 295 353 438
#     4  10  26  42  68 100 141 178 241 299 347 436
#     4  10  21  40  62  96 145 183 229 282 351 428
#
# _framework density 22.540873999999999
#
# number of rings (size 3 to 8) (size 9 to 14) (size 15 to 20)
#    0.000    1.600    2.000    0.000   14.000    3.200 
#    0.000    0.000    0.000    0.000    0.000    0.000 
#    0.000    0.000    0.000    0.000    0.000    0.000 
#
# Total GULP energy -495678.771202 kJ/mol
# GULP energy per Si atom -12391.969280 kJ/mol
# Density = 2.248957 g / cm^3
# Si number density = 22.540874 Si / 1000 Ang^3
#
#
#
# Elastic Constant Matrix: (Units=GPa)
#
#
# Indices 1 2 3 4 5 6 
#
# 1 85.0888 23.7430 42.9533 0.0000 0.0000 0.0000
# 2 23.7430 80.2885 27.1655 0.0000 0.0000 0.0000
# 3 42.9533 27.1655 143.8838 0.0000 0.0000 0.0000
# 4 0.0000 0.0000 0.0000 22.7547 0.0000 0.0000
# 5 0.0000 0.0000 0.0000 0.0000 36.9217 0.0000
# 6 0.0000 0.0000 0.0000 0.0000 0.0000 35.6505
#
#
#
# Elastic Compliance Matrix: (Units=1/GPa)
#
#
# Indices 1 2 3 4 5 6 
#
# 1 0.014490 -0.003014 -0.003757 0.000000 0.000000 0.000000
# 2 -0.003014 0.013932 -0.001731 0.000000 0.000000 0.000000
# 3 -0.003757 -0.001731 0.008398 0.000000 0.000000 0.000000
# 4 0.000000 0.000000 0.000000 0.043947 0.000000 0.000000
# 5 0.000000 0.000000 0.000000 0.000000 0.027084 0.000000
# 6 0.000000 0.000000 0.000000 0.000000 0.000000 0.028050
#
#
# Mechanical properties :
#
#
# Convention : Reuss Voigt Hill
#
# Bulk Modulus (GPa) = 50.45990 55.22051 52.84021
# Shear Modulus (GPa) = 31.34609 33.42532 32.38571
#
# Velocity S-wave (km/s) = 3.73317 3.85499 3.79457
# Velocity P-wave (km/s) = 6.40442 6.66076 6.53385
#
# Compressibility (1/GPa) = 0.01981772
#
# Stress axis : x y z
#
# Youngs Moduli (GPa) = 69.01424 71.77764 119.07255
#
# Poissons Ratio (x) = 0.21633 0.44730
# Poissons Ratio (y) = 0.20800 0.20607
# Poissons Ratio (z) = 0.25926 0.12422
#
# Static dielectric constant tensor:
#      x y z
#    x 3.968190 0.000000 0.000000 
#    y 0.000000 3.963500 0.000000 
#    z 0.000000 0.000000 4.424590 
# 
# 
# High freq. dielectric constant tensor:
#      x y z
#    x 1.881430 0.000000 0.000000 
#    y 0.000000 1.865840 0.000000 
#    z 0.000000 0.000000 1.913820 
# 
# From -- ./inp_files/10124.got.cif
#   From: 2010.03.12/outbox.cif.g09.slc.cpg/sg54_6_cif.got.tgz:10124.got - 2010.04.16 15:00:50.
