data_PCOD8223789
_publ_section_title
;
Structure prediction by ZEFSAII (Michael W. Deem and Ramdas Pophale) SiO2 
 PCOD8223789
Probable space group: P C C A
;
_chemical_formula_sum "Si O2"
_cell_formula_units_Z 32
_cell_length_a 15.890817
_cell_length_b 8.572034
_cell_length_c 9.836410
_cell_angle_alpha 90.000000
_cell_angle_beta 90.000000
_cell_angle_gamma 90.000000
_cell_volume 1339.882559
_symmetry_space_group_name_H-M "P C C A"
_symmetry_group_IT_number 54
_symmetry_cell_setting 'orthorhombic'
loop_
_space_group_symop_operation_xyz
x,y,z
1/2-x,-y,z
1/2+x,-y,1/2-z
-x,y,1/2-z
-x,-y,-z
1/2+x,y,-z
1/2-x,y,1/2+z
x,-y,1/2+z
loop_
_atom_site_type_symbol
_atom_site_label
_atom_site_fract_x
_atom_site_fract_y
_atom_site_fract_z
Si Si1 0.908185 0.893166 0.815777
Si Si2 0.945126 0.513432 0.128182
Si Si3 0.631981 0.836032 0.616384
Si Si4 0.709044 0.343603 0.689728
O O1 0.842603 0.750485 0.803141
O O2 0.000000 0.857743 0.750000
O O3 0.870396 0.042702 0.739993
O O4 0.905495 0.917860 0.979613
O O5 0.926179 0.693124 0.160893
O O6 0.862323 0.412869 0.089832
O O7 0.000000 0.440565 0.250000
O O8 0.000000 0.500000 0.000000
O O9 0.727910 0.769661 0.606279
O O10 0.750000 0.500000 0.758042
#
# Coordination Sequence:
#
# PCOD8223789 Si02
#       4
#     8   8   8   8
#     4  12  25  46  71 101 138 184 235 290 352 425
#     4  11  23  44  71 101 136 180 233 290 351 423
#     4  11  26  44  69 102 141 185 233 294 358 426
#     4  10  24  42  66 100 137 177 227 288 355 418
#
# _framework density 23.882691000000001
#
# number of rings (size 3 to 8) (size 9 to 14) (size 15 to 20)
#    0.000    1.000    0.000    6.000    0.000   13.000 
#    0.000    0.000    0.000    0.000    0.000    0.000 
#    0.000    0.000    0.000    0.000    0.000    0.000 
#
# Total GULP energy -396452.452063 kJ/mol
# GULP energy per Si atom -12389.139127 kJ/mol
# Density = 2.382833 g / cm^3
# Si number density = 23.882691 Si / 1000 Ang^3
#
#
#
# Elastic Constant Matrix: (Units=GPa)
#
#
# Indices 1 2 3 4 5 6 
#
# 1 171.3809 61.9314 45.3096 0.0000 0.0000 0.0000
# 2 61.9314 125.2505 19.0261 0.0000 0.0000 0.0000
# 3 45.3096 19.0261 90.0401 0.0000 0.0000 0.0000
# 4 0.0000 0.0000 0.0000 27.6659 0.0000 0.0000
# 5 0.0000 0.0000 0.0000 0.0000 31.4020 0.0000
# 6 0.0000 0.0000 0.0000 0.0000 0.0000 44.2588
#
#
#
# Elastic Compliance Matrix: (Units=1/GPa)
#
#
# Indices 1 2 3 4 5 6 
#
# 1 0.007939 -0.003429 -0.003270 0.000000 0.000000 0.000000
# 2 -0.003429 0.009729 -0.000331 0.000000 0.000000 0.000000
# 3 -0.003270 -0.000331 0.012822 0.000000 0.000000 0.000000
# 4 0.000000 0.000000 0.000000 0.036146 0.000000 0.000000
# 5 0.000000 0.000000 0.000000 0.000000 0.031845 0.000000
# 6 0.000000 0.000000 0.000000 0.000000 0.000000 0.022594
#
#
# Mechanical properties :
#
#
# Convention : Reuss Voigt Hill
#
# Bulk Modulus (GPa) = 60.86131 71.02286 65.94208
# Shear Modulus (GPa) = 35.55919 38.02563 36.79241
#
# Velocity S-wave (km/s) = 3.86283 3.99455 3.92924
# Velocity P-wave (km/s) = 6.74047 7.14689 6.94665
#
# Compressibility (1/GPa) = 0.01643080
#
# Stress axis : x y z
#
# Youngs Moduli (GPa) = 125.96817 102.78039 77.99271
#
# Poissons Ratio (x) = 0.35238 0.25506
# Poissons Ratio (y) = 0.43188 0.02579
# Poissons Ratio (z) = 0.41196 0.03398
#
# Static dielectric constant tensor:
#      x y z
#    x 4.690150 0.000000 0.000000 
#    y 0.000000 4.299070 0.000000 
#    z 0.000000 0.000000 3.719930 
# 
# 
# High freq. dielectric constant tensor:
#      x y z
#    x 1.972610 0.000000 0.000000 
#    y 0.000000 1.967430 0.000000 
#    z 0.000000 0.000000 1.911870 
# 
# From -- ./inp_files/7947.got.cif
#   From: 2010.03.12/outbox.cif.g09.slc.cpg/sg54_4_cif.got.tgz:7947.got - 2010.04.16 15:00:50.
