data_PCOD8223368
_publ_section_title
;
Structure prediction by ZEFSAII (Michael W. Deem and Ramdas Pophale) SiO2 
 PCOD8223368
Probable space group: P C C A
;
_chemical_formula_sum "Si O2"
_cell_formula_units_Z 52
_cell_length_a 25.853299
_cell_length_b 5.212979
_cell_length_c 18.594874
_cell_angle_alpha 90.000000
_cell_angle_beta 90.000000
_cell_angle_gamma 90.000000
_cell_volume 2506.081464
_symmetry_space_group_name_H-M "P C C A"
_symmetry_group_IT_number 54
_symmetry_cell_setting 'orthorhombic'
loop_
_space_group_symop_operation_xyz
x,y,z
1/2-x,-y,z
1/2+x,-y,1/2-z
-x,y,1/2-z
-x,-y,-z
1/2+x,y,-z
1/2-x,y,1/2+z
x,-y,1/2+z
loop_
_atom_site_type_symbol
_atom_site_label
_atom_site_fract_x
_atom_site_fract_y
_atom_site_fract_z
Si Si1 0.191397 0.995360 0.071503
Si Si2 0.500000 0.847029 0.750000
Si Si3 0.464960 0.202755 0.636657
Si Si4 0.691587 0.496688 0.836278
Si Si5 0.404153 0.523047 0.253090
Si Si6 0.090937 0.944304 0.492475
Si Si7 0.937004 0.559965 0.594108
O O1 0.181454 0.218373 0.129530
O O2 0.152594 0.037978 0.004906
O O3 0.250000 0.000000 0.041568
O O4 0.180830 0.716162 0.105021
O O5 0.553644 0.698266 0.752508
O O6 0.504269 0.008847 0.676267
O O7 0.421207 0.264032 0.695361
O O8 0.437910 0.081298 0.568141
O O9 0.501551 0.445491 0.614938
O O10 0.750000 0.500000 0.806405
O O11 0.653762 0.556558 0.769376
O O12 0.402076 0.616593 0.335425
O O13 0.078527 0.708331 0.440783
O O14 0.070845 0.209461 0.460918
#
# Coordination Sequence:
#
# PCOD8223368 Si02
#       7
#     8   4   8   8   8   8   8
#     4  10  21  42  68  96 124 166 226 272 321 390
#     4  12  22  40  68  96 132 172 230 264 330 386
#     4  12  24  42  65  93 129 182 224 264 320 403
#     4  10  22  41  70 100 123 162 228 285 318 375
#     4  12  24  41  68  94 134 174 223 269 336 390
#     4  12  26  42  65  94 134 176 213 267 332 383
#     4  12  26  42  59 100 137 170 211 268 328 403
#
# _framework density 20.749525999999999
#
# number of rings (size 3 to 8) (size 9 to 14) (size 15 to 20)
#    0.000    0.615    4.615    3.692    2.154    0.000 
#    0.000    1.538    0.000    0.000    0.000    0.000 
#    0.000    0.000    0.000    0.000    0.000    0.000 
#
# Total GULP energy -644744.305124 kJ/mol
# GULP energy per Si atom -12398.928945 kJ/mol
# Density = 2.070230 g / cm^3
# Si number density = 20.749526 Si / 1000 Ang^3
#
#
#
# Elastic Constant Matrix: (Units=GPa)
#
#
# Indices 1 2 3 4 5 6 
#
# 1 124.9632 30.6658 47.8571 0.0000 0.0000 0.0000
# 2 30.6658 72.4462 12.7619 0.0000 0.0000 0.0000
# 3 47.8571 12.7619 110.4038 0.0000 0.0000 0.0000
# 4 0.0000 0.0000 0.0000 18.1925 0.0000 0.0000
# 5 0.0000 0.0000 0.0000 0.0000 22.8636 0.0000
# 6 0.0000 0.0000 0.0000 0.0000 0.0000 16.9412
#
#
#
# Elastic Compliance Matrix: (Units=1/GPa)
#
#
# Indices 1 2 3 4 5 6 
#
# 1 0.010491 -0.003715 -0.004118 0.000000 0.000000 0.000000
# 2 -0.003715 0.015406 -0.000170 0.000000 0.000000 0.000000
# 3 -0.004118 -0.000170 0.010862 0.000000 0.000000 0.000000
# 4 0.000000 0.000000 0.000000 0.054968 0.000000 0.000000
# 5 0.000000 0.000000 0.000000 0.000000 0.043738 0.000000
# 6 0.000000 0.000000 0.000000 0.000000 0.000000 0.059028
#
#
# Mechanical properties :
#
#
# Convention : Reuss Voigt Hill
#
# Bulk Modulus (GPa) = 48.18823 54.48698 51.33761
# Shear Modulus (GPa) = 22.99719 26.03469 24.51594
#
# Velocity S-wave (km/s) = 3.33276 3.54603 3.44105
# Velocity P-wave (km/s) = 6.17122 6.56370 6.37048
#
# Compressibility (1/GPa) = 0.02075196
#
# Stress axis : x y z
#
# Youngs Moduli (GPa) = 95.31741 64.90962 92.06000
#
# Poissons Ratio (x) = 0.24117 0.37912
# Poissons Ratio (y) = 0.35414 0.01568
# Poissons Ratio (z) = 0.39254 0.01105
#
# Static dielectric constant tensor:
#      x y z
#    x 4.039480 0.000000 0.000000 
#    y 0.000000 3.859550 0.000000 
#    z 0.000000 0.000000 3.986850 
# 
# 
# High freq. dielectric constant tensor:
#      x y z
#    x 1.813980 0.000000 0.000000 
#    y 0.000000 1.823590 0.000000 
#    z 0.000000 0.000000 1.804720 
# 
# From -- ./inp_files/19207.got.cif
#   From: 2010.03.12/outbox.cif.g09.slc.cpg/sg54_10_cif.got.tgz:19207.got - 2010.04.16 15:00:50.
