data_PCOD8223997
_publ_section_title
;
Structure prediction by ZEFSAII (Michael W. Deem and Ramdas Pophale) SiO2 
 PCOD8223997
Probable space group: P C C A
;
_chemical_formula_sum "Si O2"
_cell_formula_units_Z 40
_cell_length_a 14.607122
_cell_length_b 9.024211
_cell_length_c 13.213666
_cell_angle_alpha 90.000000
_cell_angle_beta 90.000000
_cell_angle_gamma 90.000000
_cell_volume 1741.795735
_symmetry_space_group_name_H-M "P C C A"
_symmetry_group_IT_number 54
_symmetry_cell_setting 'orthorhombic'
loop_
_space_group_symop_operation_xyz
x,y,z
1/2-x,-y,z
1/2+x,-y,1/2-z
-x,y,1/2-z
-x,-y,-z
1/2+x,y,-z
1/2-x,y,1/2+z
x,-y,1/2+z
loop_
_atom_site_type_symbol
_atom_site_label
_atom_site_fract_x
_atom_site_fract_y
_atom_site_fract_z
Si Si1 0.981076 0.371676 0.359386
Si Si2 0.322077 0.371726 0.932033
Si Si3 0.547495 0.849252 0.533444
Si Si4 0.790639 0.151684 0.682254
Si Si5 0.109057 0.318528 0.639121
O O1 0.075474 0.430643 0.409935
O O2 0.000000 0.296593 0.250000
O O3 0.935111 0.252032 0.434062
O O4 0.913823 0.509558 0.339406
O O5 0.250000 0.500000 0.915929
O O6 0.298025 0.240882 0.855281
O O7 0.319700 0.310028 0.046291
O O8 0.644281 0.881536 0.586116
O O9 0.483874 0.768583 0.615378
O O10 0.500000 0.000000 0.500000
O O11 0.843495 0.245852 0.765188
O O12 0.750000 0.000000 0.728309
#
# Coordination Sequence:
#
# PCOD8223997 Si02
#       5
#     8   8   8   8   8
#     4  11  23  43  69  97 129 178 228 271 332 411
#     4  11  23  41  66  99 132 168 221 284 334 390
#     4  11  24  44  68  94 133 179 222 270 333 412
#     4  12  26  44  66  99 135 173 223 282 343 400
#     4  11  24  44  67  93 131 178 221 273 338 411
#
# _framework density 22.964804000000001
#
# number of rings (size 3 to 8) (size 9 to 14) (size 15 to 20)
#    0.000    0.800    0.000   10.200    0.000    9.600 
#    0.000    0.000    0.000    0.000    0.000    0.000 
#    0.000    0.000    0.000    0.000    0.000    0.000 
#
# Total GULP energy -496206.622834 kJ/mol
# GULP energy per Si atom -12405.165571 kJ/mol
# Density = 2.291254 g / cm^3
# Si number density = 22.964804 Si / 1000 Ang^3
#
#
#
# Elastic Constant Matrix: (Units=GPa)
#
#
# Indices 1 2 3 4 5 6 
#
# 1 76.4607 46.9796 34.9438 0.0000 0.0000 0.0000
# 2 46.9796 146.3547 50.8917 0.0000 0.0000 0.0000
# 3 34.9438 50.8917 143.4994 0.0000 0.0000 0.0000
# 4 0.0000 0.0000 0.0000 33.6043 0.0000 0.0000
# 5 0.0000 0.0000 0.0000 0.0000 34.9420 0.0000
# 6 0.0000 0.0000 0.0000 0.0000 0.0000 27.1555
#
#
#
# Elastic Compliance Matrix: (Units=1/GPa)
#
#
# Indices 1 2 3 4 5 6 
#
# 1 0.017057 -0.004598 -0.002523 0.000000 0.000000 0.000000
# 2 -0.004598 0.009033 -0.002084 0.000000 0.000000 0.000000
# 3 -0.002523 -0.002084 0.008322 0.000000 0.000000 0.000000
# 4 0.000000 0.000000 0.000000 0.029758 0.000000 0.000000
# 5 0.000000 0.000000 0.000000 0.000000 0.028619 0.000000
# 6 0.000000 0.000000 0.000000 0.000000 0.000000 0.036825
#
#
# Mechanical properties :
#
#
# Convention : Reuss Voigt Hill
#
# Bulk Modulus (GPa) = 62.48998 70.21611 66.35305
# Shear Modulus (GPa) = 32.60351 34.70699 33.65525
#
# Velocity S-wave (km/s) = 3.77200 3.89178 3.83236
# Velocity P-wave (km/s) = 6.80007 7.12997 6.96697
#
# Compressibility (1/GPa) = 0.01600257
#
# Stress axis : x y z
#
# Youngs Moduli (GPa) = 58.62806 110.70162 120.16188
#
# Poissons Ratio (x) = 0.50899 0.30315
# Poissons Ratio (y) = 0.26956 0.25042
# Poissons Ratio (z) = 0.14791 0.23070
#
# Static dielectric constant tensor:
#      x y z
#    x 4.268770 0.000000 0.000000 
#    y 0.000000 4.854100 0.000000 
#    z 0.000000 0.000000 4.335210 
# 
# 
# High freq. dielectric constant tensor:
#      x y z
#    x 1.908040 0.000000 0.000000 
#    y 0.000000 1.905540 0.000000 
#    z 0.000000 0.000000 1.920230 
# 
# From -- ./inp_files/13219.got.cif
#   From: 2010.03.12/outbox.cif.g09.slc.cpg/sg54_7_cif.got.tgz:13219.got - 2010.04.16 15:00:50.
