data_PCOD8223792
_publ_section_title
;
Structure prediction by ZEFSAII (Michael W. Deem and Ramdas Pophale) SiO2 
 PCOD8223792
Probable space group: P C C A
;
_chemical_formula_sum "Si O2"
_cell_formula_units_Z 60
_cell_length_a 26.117801
_cell_length_b 11.047577
_cell_length_c 8.904973
_cell_angle_alpha 90.000000
_cell_angle_beta 90.000000
_cell_angle_gamma 90.000000
_cell_volume 2569.426818
_symmetry_space_group_name_H-M "P C C A"
_symmetry_group_IT_number 54
_symmetry_cell_setting 'orthorhombic'
loop_
_space_group_symop_operation_xyz
x,y,z
1/2-x,-y,z
1/2+x,-y,1/2-z
-x,y,1/2-z
-x,-y,-z
1/2+x,y,-z
1/2-x,y,1/2+z
x,-y,1/2+z
loop_
_atom_site_type_symbol
_atom_site_label
_atom_site_fract_x
_atom_site_fract_y
_atom_site_fract_z
Si Si1 0.250000 0.500000 0.565814
Si Si2 0.055199 0.577554 0.205955
Si Si3 0.348608 0.793069 0.195904
Si Si4 0.145436 0.276290 0.858778
Si Si5 0.392756 0.956491 0.696506
Si Si6 0.041196 0.084717 0.426096
Si Si7 0.737533 0.335156 0.688609
Si Si8 0.936982 0.664217 0.629127
O O1 0.215001 0.578621 0.677842
O O2 0.280681 0.596717 0.463118
O O3 0.101130 0.633493 0.303339
O O4 0.049319 0.434197 0.243683
O O5 0.000000 0.638040 0.250000
O O6 0.067392 0.594342 0.030006
O O7 0.292827 0.787504 0.277740
O O8 0.386104 0.734864 0.319138
O O9 0.353917 0.934863 0.164676
O O10 0.354293 0.723609 0.038373
O O11 0.134903 0.142802 0.797388
O O12 0.201314 0.319659 0.802824
O O13 0.410897 0.898374 0.540221
O O14 0.442326 0.015004 0.776229
O O15 0.022188 0.222928 0.388946
O O16 0.000000 0.000000 0.500000
#
# Coordination Sequence:
#
# PCOD8223792 Si02
#       8
#     4   8   8   8   8   8   8   8
#     4  10  24  42  68 104 146 174 258 286 368 444
#     4  12  28  46  70 106 154 199 245 310 377 443
#     4  11  26  48  73 110 149 190 248 314 371 452
#     4  12  26  47  74 103 148 198 247 304 375 454
#     4  11  24  45  69 107 146 187 252 307 372 444
#     4  11  24  44  75 105 142 202 257 313 364 442
#     4  11  25  43  72 107 141 196 240 304 369 447
#     4  11  27  45  73 108 150 198 248 307 378 451
#
# _framework density 23.351509
#
# number of rings (size 3 to 8) (size 9 to 14) (size 15 to 20)
#    0.000    0.800    4.000    1.600    7.467    2.667 
#    0.000    1.333    0.000    0.000    0.000    0.000 
#    0.000    0.000    0.000    0.000    0.000    0.000 
#
# Total GULP energy -743347.185577 kJ/mol
# GULP energy per Si atom -12389.119760 kJ/mol
# Density = 2.329836 g / cm^3
# Si number density = 23.351509 Si / 1000 Ang^3
#
#
#
# Elastic Constant Matrix: (Units=GPa)
#
#
# Indices 1 2 3 4 5 6 
#
# 1 101.5093 38.0387 16.5623 0.0000 0.0000 0.0000
# 2 38.0387 145.0166 42.1881 0.0000 0.0000 0.0000
# 3 16.5623 42.1881 135.6829 0.0000 0.0000 0.0000
# 4 0.0000 0.0000 0.0000 26.2310 0.0000 0.0000
# 5 0.0000 0.0000 0.0000 0.0000 24.4167 0.0000
# 6 0.0000 0.0000 0.0000 0.0000 0.0000 24.5709
#
#
#
# Elastic Compliance Matrix: (Units=1/GPa)
#
#
# Indices 1 2 3 4 5 6 
#
# 1 0.010954 -0.002732 -0.000488 0.000000 0.000000 0.000000
# 2 -0.002732 0.008263 -0.002236 0.000000 0.000000 0.000000
# 3 -0.000488 -0.002236 0.008125 0.000000 0.000000 0.000000
# 4 0.000000 0.000000 0.000000 0.038123 0.000000 0.000000
# 5 0.000000 0.000000 0.000000 0.000000 0.040956 0.000000
# 6 0.000000 0.000000 0.000000 0.000000 0.000000 0.040699
#
#
# Mechanical properties :
#
#
# Convention : Reuss Voigt Hill
#
# Bulk Modulus (GPa) = 60.85740 63.97634 62.41687
# Shear Modulus (GPa) = 30.57982 34.07168 32.32575
#
# Velocity S-wave (km/s) = 3.62269 3.82393 3.72467
# Velocity P-wave (km/s) = 6.60428 6.85224 6.72940
#
# Compressibility (1/GPa) = 0.01643185
#
# Stress axis : x y z
#
# Youngs Moduli (GPa) = 91.28669 121.02640 123.07960
#
# Poissons Ratio (x) = 0.33058 0.06005
# Poissons Ratio (y) = 0.24935 0.27517
# Poissons Ratio (z) = 0.04454 0.27058
#
# Static dielectric constant tensor:
#      x y z
#    x 4.012460 0.000000 0.000000 
#    y 0.000000 4.835990 0.000000 
#    z 0.000000 0.000000 4.552220 
# 
# 
# High freq. dielectric constant tensor:
#      x y z
#    x 1.898710 0.000000 0.000000 
#    y 0.000000 1.935160 0.000000 
#    z 0.000000 0.000000 1.950210 
# 
# From -- ./inp_files/5595.got.cif
#   From: 2010.03.12/outbox.cif.g09.slc.cpg/sg54_3_cif.got.tgz:5595.got - 2010.04.16 15:00:50.
