data_PCOD8223117
_publ_section_title
;
Structure prediction by ZEFSAII (Michael W. Deem and Ramdas Pophale) SiO2 
 PCOD8223117
Probable space group: P C C A
;
_chemical_formula_sum "Si O2"
_cell_formula_units_Z 52
_cell_length_a 22.776399
_cell_length_b 4.923113
_cell_length_c 20.666835
_cell_angle_alpha 90.000000
_cell_angle_beta 90.000000
_cell_angle_gamma 90.000000
_cell_volume 2317.388453
_symmetry_space_group_name_H-M "P C C A"
_symmetry_group_IT_number 54
_symmetry_cell_setting 'orthorhombic'
loop_
_space_group_symop_operation_xyz
x,y,z
1/2-x,-y,z
1/2+x,-y,1/2-z
-x,y,1/2-z
-x,-y,-z
1/2+x,y,-z
1/2-x,y,1/2+z
x,-y,1/2+z
loop_
_atom_site_type_symbol
_atom_site_label
_atom_site_fract_x
_atom_site_fract_y
_atom_site_fract_z
Si Si1 0.787424 0.743392 0.163893
Si Si2 0.548984 0.838804 0.459796
Si Si3 0.038638 0.415313 0.376772
Si Si4 0.893993 0.099217 0.585342
Si Si5 0.893479 0.978609 0.330143
Si Si6 0.000000 0.875984 0.750000
Si Si7 0.818193 0.499224 0.797067
O O1 0.750000 0.500000 0.132033
O O2 0.827736 0.861515 0.107475
O O3 0.822670 0.604118 0.222888
O O4 0.750000 0.000000 0.190895
O O5 0.516414 0.578556 0.427406
O O6 0.600238 0.780927 0.512027
O O7 0.577806 0.995692 0.400264
O O8 0.500000 0.000000 0.500000
O O9 0.062510 0.720345 0.369957
O O10 0.019872 0.325351 0.306326
O O11 0.088577 0.214319 0.405813
O O12 0.945278 0.945765 0.276406
O O13 0.847961 0.208935 0.306584
O O14 0.856547 0.705260 0.339313
O O15 0.750000 0.500000 0.819248
#
# Coordination Sequence:
#
# PCOD8223117 Si02
#       7
#     8   8   8   8   8   4   8
#     4  11  22  38  61  86 114 151 196 251 304 348
#     4   9  22  40  61  87 123 161 197 241 302 372
#     4  10  21  35  58  85 117 155 190 237 298 357
#     4  11  21  38  58  82 115 156 196 235 287 356
#     4  11  23  39  64  94 125 166 207 257 320 376
#     4  10  22  36  58  96 128 150 202 262 314 380
#     4  11  23  42  64  89 122 162 209 258 311 372
#
# _framework density 22.439050000000002
#
# number of rings (size 3 to 8) (size 9 to 14) (size 15 to 20)
#    0.000    1.538    0.000    5.538    0.000   11.077 
#    0.000    2.308    0.000    0.000    0.000    0.000 
#    0.000    0.000    0.000    0.000    0.000    0.000 
#
# Total GULP energy -644496.330096 kJ/mol
# GULP energy per Si atom -12394.160194 kJ/mol
# Density = 2.238798 g / cm^3
# Si number density = 22.439050 Si / 1000 Ang^3
#
#
#
# Elastic Constant Matrix: (Units=GPa)
#
#
# Indices 1 2 3 4 5 6 
#
# 1 118.4185 18.3106 40.3476 0.0000 0.0000 0.0000
# 2 18.3106 59.2894 -3.9243 0.0000 0.0000 0.0000
# 3 40.3476 -3.9243 113.8014 0.0000 0.0000 0.0000
# 4 0.0000 0.0000 0.0000 15.2111 0.0000 0.0000
# 5 0.0000 0.0000 0.0000 0.0000 31.3245 0.0000
# 6 0.0000 0.0000 0.0000 0.0000 0.0000 33.8183
#
#
#
# Elastic Compliance Matrix: (Units=1/GPa)
#
#
# Indices 1 2 3 4 5 6 
#
# 1 0.010251 -0.003414 -0.003752 0.000000 0.000000 0.000000
# 2 -0.003414 0.018042 0.001833 0.000000 0.000000 0.000000
# 3 -0.003752 0.001833 0.010181 0.000000 0.000000 0.000000
# 4 0.000000 0.000000 0.000000 0.065742 0.000000 0.000000
# 5 0.000000 0.000000 0.000000 0.000000 0.031924 0.000000
# 6 0.000000 0.000000 0.000000 0.000000 0.000000 0.029570
#
#
# Mechanical properties :
#
#
# Convention : Reuss Voigt Hill
#
# Bulk Modulus (GPa) = 35.96289 44.55302 40.25795
# Shear Modulus (GPa) = 26.93305 31.85579 29.39442
#
# Velocity S-wave (km/s) = 3.46826 3.77192 3.62327
# Velocity P-wave (km/s) = 5.66570 6.23443 5.95685
#
# Compressibility (1/GPa) = 0.02780644
#
# Stress axis : x y z
#
# Youngs Moduli (GPa) = 97.55154 55.42576 98.22467
#
# Poissons Ratio (x) = 0.18924 0.36856
# Poissons Ratio (y) = 0.33306 -0.18001
# Poissons Ratio (z) = 0.36603 -0.10158
#
# Static dielectric constant tensor:
#      x y z
#    x 4.283620 0.000000 0.000000 
#    y 0.000000 3.964930 0.000000 
#    z 0.000000 0.000000 4.310050 
# 
# 
# High freq. dielectric constant tensor:
#      x y z
#    x 1.883000 0.000000 0.000000 
#    y 0.000000 1.885580 0.000000 
#    z 0.000000 0.000000 1.878600 
# 
# From -- ./inp_files/22142.got.cif
#   From: 2010.03.12/outbox.cif.g09.slc.cpg/sg54_12_cif.got.tgz:22142.got - 2010.04.16 15:00:50.
