data_PCOD8223173
_publ_section_title
;
Structure prediction by ZEFSAII (Michael W. Deem and Ramdas Pophale) SiO2 
 PCOD8223173
Probable space group: P C C A
;
_chemical_formula_sum "Si O2"
_cell_formula_units_Z 48
_cell_length_a 16.108002
_cell_length_b 12.210471
_cell_length_c 12.525785
_cell_angle_alpha 90.000000
_cell_angle_beta 90.000000
_cell_angle_gamma 90.000000
_cell_volume 2463.650197
_symmetry_space_group_name_H-M "P C C A"
_symmetry_group_IT_number 54
_symmetry_cell_setting 'orthorhombic'
loop_
_space_group_symop_operation_xyz
x,y,z
1/2-x,-y,z
1/2+x,-y,1/2-z
-x,y,1/2-z
-x,-y,-z
1/2+x,y,-z
1/2-x,y,1/2+z
x,-y,1/2+z
loop_
_atom_site_type_symbol
_atom_site_label
_atom_site_fract_x
_atom_site_fract_y
_atom_site_fract_z
Si Si1 0.750000 0.000000 0.265981
Si Si2 0.628840 0.141379 0.408595
Si Si3 0.500000 0.087635 0.250000
Si Si4 0.000000 0.715093 0.750000
Si Si5 0.356930 0.561828 0.181571
Si Si6 0.894766 0.904462 0.643293
Si Si7 0.792420 0.368111 0.939582
Si Si8 0.750000 0.500000 0.131860
O O1 0.694016 0.071276 0.343611
O O2 0.802210 0.086280 0.193439
O O3 0.549495 0.163626 0.333156
O O4 0.604976 0.078836 0.516475
O O5 0.662258 0.255212 0.450312
O O6 0.439921 0.011746 0.316927
O O7 0.059089 0.633562 0.681609
O O8 0.058065 0.791650 0.824161
O O9 0.279914 0.640714 0.149467
O O10 0.358793 0.463426 0.094067
O O11 0.334044 0.507953 0.296642
O O12 0.750893 0.393612 0.054679
#
# Coordination Sequence:
#
# PCOD8223173 Si02
#       8
#     4   8   4   4   8   8   8   4
#     4  10  22  38  60  84 108 150 200 240 286 346
#     4  11  20  37  58  81 112 146 187 236 288 343
#     4   9  22  37  52  80 116 143 178 231 290 344
#     4  11  20  35  58  84 114 149 188 231 290 346
#     4   9  19  35  52  77 110 140 176 228 271 325
#     4  10  21  37  57  82 111 148 189 235 286 345
#     4   9  19  34  54  79 104 140 187 224 270 332
#     4   8  16  36  56  72 104 148 184 222 270 330
#
# _framework density 19.483286
#
# number of rings (size 3 to 8) (size 9 to 14) (size 15 to 20)
#    0.000    2.667    0.000    3.000    0.000    2.000 
#    0.000   17.500    0.000    0.000    0.000    0.000 
#    0.000    0.000    0.000    0.000    0.000    0.000 
#
# Total GULP energy -594776.631252 kJ/mol
# GULP energy per Si atom -12391.179818 kJ/mol
# Density = 1.943894 g / cm^3
# Si number density = 19.483286 Si / 1000 Ang^3
#
#
#
# Elastic Constant Matrix: (Units=GPa)
#
#
# Indices 1 2 3 4 5 6 
#
# 1 85.6202 25.1276 41.5468 0.0000 0.0000 0.0000
# 2 25.1276 63.9770 24.2117 0.0000 0.0000 0.0000
# 3 41.5468 24.2117 132.0372 0.0000 0.0000 0.0000
# 4 0.0000 0.0000 0.0000 14.1226 0.0000 0.0000
# 5 0.0000 0.0000 0.0000 0.0000 8.3810 0.0000
# 6 0.0000 0.0000 0.0000 0.0000 0.0000 27.8360
#
#
#
# Elastic Compliance Matrix: (Units=1/GPa)
#
#
# Indices 1 2 3 4 5 6 
#
# 1 0.014837 -0.004363 -0.003869 0.000000 0.000000 0.000000
# 2 -0.004363 0.018079 -0.001942 0.000000 0.000000 0.000000
# 3 -0.003869 -0.001942 0.009147 0.000000 0.000000 0.000000
# 4 0.000000 0.000000 0.000000 0.070808 0.000000 0.000000
# 5 0.000000 0.000000 0.000000 0.000000 0.119317 0.000000
# 6 0.000000 0.000000 0.000000 0.000000 0.000000 0.035925
#
#
# Mechanical properties :
#
#
# Convention : Reuss Voigt Hill
#
# Bulk Modulus (GPa) = 46.05056 51.48963 48.77010
# Shear Modulus (GPa) = 16.90899 22.78448 19.84674
#
# Velocity S-wave (km/s) = 2.94916 3.42341 3.19510
# Velocity P-wave (km/s) = 5.94003 6.48932 6.22074
#
# Compressibility (1/GPa) = 0.02171526
#
# Stress axis : x y z
#
# Youngs Moduli (GPa) = 67.39786 55.31143 109.32487
#
# Poissons Ratio (x) = 0.24135 0.42293
# Poissons Ratio (y) = 0.29409 0.21233
# Poissons Ratio (z) = 0.26073 0.10743
#
# Static dielectric constant tensor:
#      x y z
#    x 3.685030 0.000000 0.000000 
#    y 0.000000 3.381140 0.000000 
#    z 0.000000 0.000000 3.730950 
# 
# 
# High freq. dielectric constant tensor:
#      x y z
#    x 1.749150 0.000000 0.000000 
#    y 0.000000 1.745940 0.000000 
#    z 0.000000 0.000000 1.770130 
# 
# From -- ./inp_files/9006.got.cif
#   From: 2010.03.12/outbox.cif.g09.slc.cpg/sg54_5_cif.got.tgz:9006.got - 2010.04.16 15:00:50.
