data_PCOD8223932
_publ_section_title
;
Structure prediction by ZEFSAII (Michael W. Deem and Ramdas Pophale) SiO2 
 PCOD8223932
Probable space group: P C C A
;
_chemical_formula_sum "Si O2"
_cell_formula_units_Z 64
_cell_length_a 10.699884
_cell_length_b 15.889574
_cell_length_c 17.594708
_cell_angle_alpha 90.000000
_cell_angle_beta 90.000000
_cell_angle_gamma 90.000000
_cell_volume 2991.392408
_symmetry_space_group_name_H-M "P C C A"
_symmetry_group_IT_number 54
_symmetry_cell_setting 'orthorhombic'
loop_
_space_group_symop_operation_xyz
x,y,z
1/2-x,-y,z
1/2+x,-y,1/2-z
-x,y,1/2-z
-x,-y,-z
1/2+x,y,-z
1/2-x,y,1/2+z
x,-y,1/2+z
loop_
_atom_site_type_symbol
_atom_site_label
_atom_site_fract_x
_atom_site_fract_y
_atom_site_fract_z
Si Si1 0.549848 0.097240 0.573970
Si Si2 0.448585 0.592541 0.507072
Si Si3 0.319269 0.216803 0.166560
Si Si4 0.126353 0.205160 0.295911
Si Si5 0.128283 0.253427 0.038279
Si Si6 0.740888 0.675922 0.093207
Si Si7 0.996792 0.637063 0.168140
Si Si8 0.369058 0.051961 0.081783
O O1 0.619871 0.122795 0.651000
O O2 0.449217 0.168092 0.548957
O O3 0.646038 0.084891 0.504792
O O4 0.488504 0.007255 0.591500
O O5 0.500000 0.500000 0.500000
O O6 0.542659 0.663644 0.474107
O O7 0.319884 0.602988 0.459823
O O8 0.423747 0.599775 0.597869
O O9 0.246570 0.195014 0.243615
O O10 0.222234 0.262497 0.109252
O O11 0.438220 0.273782 0.185931
O O12 0.380613 0.132260 0.135152
O O13 0.137398 0.286818 0.349992
O O14 0.000000 0.217696 0.250000
O O15 0.211139 0.248037 0.961344
O O16 0.853035 0.638523 0.142629
O O17 0.000000 0.587268 0.250000
O O18 0.250000 0.000000 0.107466
#
# Coordination Sequence:
#
# PCOD8223932 Si02
#       8
#     8   8   8   8   8   8   8   8
#     4  11  23  39  65  95 125 175 238 283 341 427
#     4  11  24  43  72 104 139 177 232 290 347 420
#     4  12  22  43  67  95 137 178 229 291 348 425
#     4  12  22  39  67  97 131 174 232 277 351 419
#     4  11  21  40  71  91 123 180 230 275 336 413
#     4  11  22  40  71  98 130 178 233 279 337 427
#     4  11  24  44  69 103 136 183 228 287 358 414
#     4  11  22  40  63  90 133 173 226 289 346 404
#
# _framework density 21.394718999999998
#
# number of rings (size 3 to 8) (size 9 to 14) (size 15 to 20)
#    0.000    0.750    6.250    2.250    0.000    2.000 
#    0.000    5.625    2.750    0.000    0.000    0.000 
#    0.000    0.000    0.000    0.000    0.000    0.000 
#
# Total GULP energy -793262.787154 kJ/mol
# GULP energy per Si atom -12394.731049 kJ/mol
# Density = 2.134602 g / cm^3
# Si number density = 21.394719 Si / 1000 Ang^3
#
#
#
# Elastic Constant Matrix: (Units=GPa)
#
#
# Indices 1 2 3 4 5 6 
#
# 1 75.9723 37.0240 47.3772 0.0000 0.0000 0.0000
# 2 37.0240 90.1083 48.3462 0.0000 0.0000 0.0000
# 3 47.3772 48.3462 169.0353 0.0000 0.0000 0.0000
# 4 0.0000 0.0000 0.0000 19.3289 0.0000 0.0000
# 5 0.0000 0.0000 0.0000 0.0000 48.2296 0.0000
# 6 0.0000 0.0000 0.0000 0.0000 0.0000 14.8422
#
#
#
# Elastic Compliance Matrix: (Units=1/GPa)
#
#
# Indices 1 2 3 4 5 6 
#
# 1 0.018028 -0.005548 -0.003466 0.000000 0.000000 0.000000
# 2 -0.005548 0.014817 -0.002683 0.000000 0.000000 0.000000
# 3 -0.003466 -0.002683 0.007655 0.000000 0.000000 0.000000
# 4 0.000000 0.000000 0.000000 0.051736 0.000000 0.000000
# 5 0.000000 0.000000 0.000000 0.000000 0.020734 0.000000
# 6 0.000000 0.000000 0.000000 0.000000 0.000000 0.067376
#
#
# Mechanical properties :
#
#
# Convention : Reuss Voigt Hill
#
# Bulk Modulus (GPa) = 58.45927 66.73453 62.59690
# Shear Modulus (GPa) = 23.87316 29.97136 26.92226
#
# Velocity S-wave (km/s) = 3.34405 3.74689 3.55119
# Velocity P-wave (km/s) = 6.50336 7.06956 6.79236
#
# Compressibility (1/GPa) = 0.01710593
#
# Stress axis : x y z
#
# Youngs Moduli (GPa) = 55.46996 67.49174 130.63800
#
# Poissons Ratio (x) = 0.37442 0.45281
# Poissons Ratio (y) = 0.30773 0.35048
# Poissons Ratio (z) = 0.19227 0.18107
#
# Static dielectric constant tensor:
#      x y z
#    x 3.972320 0.000000 0.000000 
#    y 0.000000 3.727520 0.000000 
#    z 0.000000 0.000000 4.333590 
# 
# 
# High freq. dielectric constant tensor:
#      x y z
#    x 1.845180 0.000000 0.000000 
#    y 0.000000 1.812960 0.000000 
#    z 0.000000 0.000000 1.856880 
# 
# From -- ./inp_files/17469.got.cif
#   From: 2010.03.12/outbox.cif.g09.slc.cpg/sg54_9_cif.got.tgz:17469.got - 2010.04.16 15:00:50.
