data_PCOD8223267
_publ_section_title
;
Structure prediction by ZEFSAII (Michael W. Deem and Ramdas Pophale) SiO2 
 PCOD8223267
Probable space group: P C C A
;
_chemical_formula_sum "Si O2"
_cell_formula_units_Z 48
_cell_length_a 15.374923
_cell_length_b 16.046456
_cell_length_c 9.493672
_cell_angle_alpha 90.000000
_cell_angle_beta 90.000000
_cell_angle_gamma 90.000000
_cell_volume 2342.212541
_symmetry_space_group_name_H-M "P C C A"
_symmetry_group_IT_number 54
_symmetry_cell_setting 'orthorhombic'
loop_
_space_group_symop_operation_xyz
x,y,z
1/2-x,-y,z
1/2+x,-y,1/2-z
-x,y,1/2-z
-x,-y,-z
1/2+x,y,-z
1/2-x,y,1/2+z
x,-y,1/2+z
loop_
_atom_site_type_symbol
_atom_site_label
_atom_site_fract_x
_atom_site_fract_y
_atom_site_fract_z
Si Si1 0.256971 0.798374 0.194295
Si Si2 0.299401 0.692033 0.435138
Si Si3 0.408996 0.544219 0.534009
Si Si4 0.320544 0.559636 0.816008
Si Si5 0.096192 0.091986 0.772067
Si Si6 0.161676 0.043119 0.060107
O O1 0.317272 0.766695 0.325136
O O2 0.166037 0.835270 0.250090
O O3 0.317090 0.868031 0.126646
O O4 0.234294 0.725041 0.084673
O O5 0.384673 0.632669 0.456188
O O6 0.218475 0.648914 0.353370
O O7 0.500000 0.500000 0.500000
O O8 0.399139 0.560689 0.701846
O O9 0.343013 0.478012 0.468571
O O10 0.250000 0.500000 0.741400
O O11 0.000000 0.129726 0.750000
O O12 0.111788 0.014528 0.669595
O O13 0.099233 0.056528 0.928965
O O14 0.250000 0.000000 0.005711
#
# Coordination Sequence:
#
# PCOD8223267 Si02
#       6
#     8   8   8   8   8   8
#     4  11  22  41  68  94 126 174 224 264 320 392
#     4  11  22  41  66  91 125 167 218 266 318 386
#     4  11  23  40  63  94 126 161 210 268 324 381
#     4  10  21  39  65  86 116 166 212 250 312 395
#     4  11  23  40  64  96 138 172 217 275 327 377
#     4  10  21  39  66  94 125 180 228 257 313 400
#
# _framework density 20.493445000000001
#
# number of rings (size 3 to 8) (size 9 to 14) (size 15 to 20)
#    0.000    1.333    3.333    4.000    4.667    0.000 
#    3.000    0.000    3.667    0.000    0.000    0.000 
#    0.000    0.000    0.000    0.000    0.000    0.000 
#
# Total GULP energy -594803.502219 kJ/mol
# GULP energy per Si atom -12391.739630 kJ/mol
# Density = 2.044680 g / cm^3
# Si number density = 20.493445 Si / 1000 Ang^3
#
#
#
# Elastic Constant Matrix: (Units=GPa)
#
#
# Indices 1 2 3 4 5 6 
#
# 1 86.6520 34.3672 31.6324 0.0000 0.0000 0.0000
# 2 34.3672 95.3034 43.2491 0.0000 0.0000 0.0000
# 3 31.6324 43.2491 122.8537 0.0000 0.0000 0.0000
# 4 0.0000 0.0000 0.0000 13.6212 0.0000 0.0000
# 5 0.0000 0.0000 0.0000 0.0000 21.1616 0.0000
# 6 0.0000 0.0000 0.0000 0.0000 0.0000 28.5859
#
#
#
# Elastic Compliance Matrix: (Units=1/GPa)
#
#
# Indices 1 2 3 4 5 6 
#
# 1 0.013934 -0.004042 -0.002165 0.000000 0.000000 0.000000
# 2 -0.004042 0.013661 -0.003768 0.000000 0.000000 0.000000
# 3 -0.002165 -0.003768 0.010024 0.000000 0.000000 0.000000
# 4 0.000000 0.000000 0.000000 0.073415 0.000000 0.000000
# 5 0.000000 0.000000 0.000000 0.000000 0.047255 0.000000
# 6 0.000000 0.000000 0.000000 0.000000 0.000000 0.034982
#
#
# Mechanical properties :
#
#
# Convention : Reuss Voigt Hill
#
# Bulk Modulus (GPa) = 56.60046 58.14516 57.37281
# Shear Modulus (GPa) = 22.81955 25.71110 24.26532
#
# Velocity S-wave (km/s) = 3.34054 3.54588 3.44474
# Velocity P-wave (km/s) = 6.52363 6.72298 6.62406
#
# Compressibility (1/GPa) = 0.01766770
#
# Stress axis : x y z
#
# Youngs Moduli (GPa) = 71.76771 73.20357 99.76396
#
# Poissons Ratio (x) = 0.29591 0.21595
# Poissons Ratio (y) = 0.29011 0.37593
# Poissons Ratio (z) = 0.15535 0.27585
#
# Static dielectric constant tensor:
#      x y z
#    x 7.205640 0.000000 0.000000 
#    y 0.000000 3.613310 0.000000 
#    z 0.000000 0.000000 3.881250 
# 
# 
# High freq. dielectric constant tensor:
#      x y z
#    x 1.771060 0.000000 0.000000 
#    y 0.000000 1.807050 0.000000 
#    z 0.000000 0.000000 1.823200 
# 
# From -- ./inp_files/3569.got.cif
#   From: 2010.03.12/outbox.cif.g09.slc.cpg/sg54_2_cif.got.tgz:3569.got - 2010.04.16 15:00:50.
