data_PCOD8223619
_publ_section_title
;
Structure prediction by ZEFSAII (Michael W. Deem and Ramdas Pophale) SiO2 
 PCOD8223619
Probable space group: P C C A
;
_chemical_formula_sum "Si O2"
_cell_formula_units_Z 48
_cell_length_a 8.481359
_cell_length_b 10.026237
_cell_length_c 27.799306
_cell_angle_alpha 90.000000
_cell_angle_beta 90.000000
_cell_angle_gamma 90.000000
_cell_volume 2363.944994
_symmetry_space_group_name_H-M "P C C A"
_symmetry_group_IT_number 54
_symmetry_cell_setting 'orthorhombic'
loop_
_space_group_symop_operation_xyz
x,y,z
1/2-x,-y,z
1/2+x,-y,1/2-z
-x,y,1/2-z
-x,-y,-z
1/2+x,y,-z
1/2-x,y,1/2+z
x,-y,1/2+z
loop_
_atom_site_type_symbol
_atom_site_label
_atom_site_fract_x
_atom_site_fract_y
_atom_site_fract_z
Si Si1 0.436058 0.020322 0.101632
Si Si2 0.546222 0.257819 0.937672
Si Si3 0.601045 0.596106 0.796860
Si Si4 0.895215 0.902332 0.295985
Si Si5 0.435887 0.485623 0.392255
Si Si6 0.084963 0.268468 0.541464
O O1 0.491924 0.063994 0.155082
O O2 0.488924 0.133152 0.063551
O O3 0.250000 0.000000 0.102541
O O4 0.511958 0.881241 0.085462
O O5 0.510996 0.368725 0.897876
O O6 0.729524 0.266325 0.949659
O O7 0.442277 0.278799 0.984922
O O8 0.750000 0.500000 0.799993
O O9 0.500000 0.562105 0.750000
O O10 0.662022 0.748608 0.797131
O O11 0.485471 0.575540 0.841587
O O12 0.000000 0.930399 0.250000
O O13 0.750000 0.000000 0.291259
O O14 0.250000 0.500000 0.395552
O O15 0.501317 0.394940 0.435089
#
# Coordination Sequence:
#
# PCOD8223619 Si02
#       6
#     8   8   8   8   8   8
#     4   9  20  39  63  91 124 165 206 257 317 374
#     4  11  23  39  65  92 125 169 210 261 319 377
#     4  11  24  44  69  97 131 166 209 261 313 375
#     4  10  22  43  66  96 128 164 208 255 311 377
#     4  12  25  42  62  93 127 168 215 261 314 374
#     4  11  21  41  63  91 128 165 212 262 315 374
#
# _framework density 20.305042
#
# number of rings (size 3 to 8) (size 9 to 14) (size 15 to 20)
#    0.000    1.333    1.667    4.000    4.667    0.667 
#    6.000    2.500    0.000    0.000    0.000    0.000 
#    0.000    0.000    0.000    0.000    0.000    0.000 
#
# Total GULP energy -595347.627452 kJ/mol
# GULP energy per Si atom -12403.075572 kJ/mol
# Density = 2.025883 g / cm^3
# Si number density = 20.305042 Si / 1000 Ang^3
#
#
#
# Elastic Constant Matrix: (Units=GPa)
#
#
# Indices 1 2 3 4 5 6 
#
# 1 75.9214 33.3061 15.7357 0.0000 0.0000 0.0000
# 2 33.3061 123.9915 25.5813 0.0000 0.0000 0.0000
# 3 15.7357 25.5813 108.3059 0.0000 0.0000 0.0000
# 4 0.0000 0.0000 0.0000 37.1985 0.0000 0.0000
# 5 0.0000 0.0000 0.0000 0.0000 33.7999 0.0000
# 6 0.0000 0.0000 0.0000 0.0000 0.0000 20.3989
#
#
#
# Elastic Compliance Matrix: (Units=1/GPa)
#
#
# Indices 1 2 3 4 5 6 
#
# 1 0.015103 -0.003789 -0.001299 0.000000 0.000000 0.000000
# 2 -0.003789 0.009429 -0.001677 0.000000 0.000000 0.000000
# 3 -0.001299 -0.001677 0.009818 0.000000 0.000000 0.000000
# 4 0.000000 0.000000 0.000000 0.026883 0.000000 0.000000
# 5 0.000000 0.000000 0.000000 0.000000 0.029586 0.000000
# 6 0.000000 0.000000 0.000000 0.000000 0.000000 0.049022
#
#
# Mechanical properties :
#
#
# Convention : Reuss Voigt Hill
#
# Bulk Modulus (GPa) = 48.03065 50.82946 49.43006
# Shear Modulus (GPa) = 31.18955 33.85249 32.52102
#
# Velocity S-wave (km/s) = 3.92350 4.08756 4.00637
# Velocity P-wave (km/s) = 6.65064 6.88221 6.76742
#
# Compressibility (1/GPa) = 0.02082004
#
# Stress axis : x y z
#
# Youngs Moduli (GPa) = 66.21222 106.05914 101.85495
#
# Poissons Ratio (x) = 0.40184 0.13235
# Poissons Ratio (y) = 0.25087 0.17076
# Poissons Ratio (z) = 0.08604 0.17781
#
# Static dielectric constant tensor:
#      x y z
#    x 3.311470 0.000000 0.000000 
#    y 0.000000 4.094370 0.000000 
#    z 0.000000 0.000000 4.061640 
# 
# 
# High freq. dielectric constant tensor:
#      x y z
#    x 1.772860 0.000000 0.000000 
#    y 0.000000 1.815730 0.000000 
#    z 0.000000 0.000000 1.810200 
# 
# From -- ./inp_files/27765.got.cif
#   From: 2010.03.12/outbox.cif.g09.slc.cpg/sg54_14_cif.got.tgz:27765.got - 2010.04.16 15:00:50.
