data_PCOD8223072
_publ_section_title
;
Structure prediction by ZEFSAII (Michael W. Deem and Ramdas Pophale) SiO2 
 PCOD8223072
Probable space group: P C C A
;
_chemical_formula_sum "Si O2"
_cell_formula_units_Z 48
_cell_length_a 14.146877
_cell_length_b 11.082461
_cell_length_c 13.949735
_cell_angle_alpha 90.000000
_cell_angle_beta 90.000000
_cell_angle_gamma 90.000000
_cell_volume 2187.070319
_symmetry_space_group_name_H-M "P C C A"
_symmetry_group_IT_number 54
_symmetry_cell_setting 'orthorhombic'
loop_
_space_group_symop_operation_xyz
x,y,z
1/2-x,-y,z
1/2+x,-y,1/2-z
-x,y,1/2-z
-x,-y,-z
1/2+x,y,-z
1/2-x,y,1/2+z
x,-y,1/2+z
loop_
_atom_site_type_symbol
_atom_site_label
_atom_site_fract_x
_atom_site_fract_y
_atom_site_fract_z
Si Si1 0.152140 0.618372 0.645055
Si Si2 0.772394 0.305023 0.552797
Si Si3 0.500000 0.813301 0.750000
Si Si4 0.500000 0.759021 0.250000
Si Si5 0.919240 0.107822 0.560734
Si Si6 0.915978 0.163729 0.067239
Si Si7 0.172282 0.638352 0.243850
O O1 0.180840 0.618300 0.533090
O O2 0.052375 0.677387 0.670322
O O3 0.234070 0.696650 0.696775
O O4 0.149060 0.484141 0.687576
O O5 0.820865 0.176041 0.569290
O O6 0.661363 0.267417 0.539264
O O7 0.799520 0.386137 0.645174
O O8 0.523131 0.897904 0.660382
O O9 0.587621 0.728376 0.774356
O O10 0.570741 0.836511 0.183369
O O11 0.982722 0.183988 0.484788
O O12 0.890349 0.971830 0.531549
#
# Coordination Sequence:
#
# PCOD8223072 Si02
#       7
#     8   8   4   4   8   8   8
#     4  11  23  41  63  95 128 170 219 263 323 384
#     4  11  22  42  65  93 132 171 213 273 322 383
#     4  10  20  42  60  90 128 164 210 268 324 386
#     4  12  22  42  66  96 130 170 214 272 320 384
#     4  10  22  39  64  95 126 169 213 263 331 388
#     4  11  22  40  67  94 130 168 215 268 325 392
#     4  10  23  40  62  89 127 168 216 264 323 391
#
# _framework density 21.947167
#
# number of rings (size 3 to 8) (size 9 to 14) (size 15 to 20)
#    0.000    1.333    3.333    2.500    0.000    2.667 
#    3.000    2.500    0.000    0.000    0.000    0.000 
#    0.000    0.000    0.000    0.000    0.000    0.000 
#
# Total GULP energy -594725.875249 kJ/mol
# GULP energy per Si atom -12390.122401 kJ/mol
# Density = 2.189721 g / cm^3
# Si number density = 21.947167 Si / 1000 Ang^3
#
#
#
# Elastic Constant Matrix: (Units=GPa)
#
#
# Indices 1 2 3 4 5 6 
#
# 1 68.6316 15.1662 6.6193 0.0000 0.0000 0.0000
# 2 15.1662 72.4405 20.1023 0.0000 0.0000 0.0000
# 3 6.6193 20.1023 130.1673 0.0000 0.0000 0.0000
# 4 0.0000 0.0000 0.0000 30.6025 0.0000 0.0000
# 5 0.0000 0.0000 0.0000 0.0000 39.9190 0.0000
# 6 0.0000 0.0000 0.0000 0.0000 0.0000 14.8556
#
#
#
# Elastic Compliance Matrix: (Units=1/GPa)
#
#
# Indices 1 2 3 4 5 6 
#
# 1 0.015288 -0.003119 -0.000296 0.000000 0.000000 0.000000
# 2 -0.003119 0.015059 -0.002167 0.000000 0.000000 0.000000
# 3 -0.000296 -0.002167 0.008032 0.000000 0.000000 0.000000
# 4 0.000000 0.000000 0.000000 0.032677 0.000000 0.000000
# 5 0.000000 0.000000 0.000000 0.000000 0.025051 0.000000
# 6 0.000000 0.000000 0.000000 0.000000 0.000000 0.067315
#
#
# Mechanical properties :
#
#
# Convention : Reuss Voigt Hill
#
# Bulk Modulus (GPa) = 36.74291 39.44610 38.09451
# Shear Modulus (GPa) = 27.22475 32.36554 29.79514
#
# Velocity S-wave (km/s) = 3.52585 3.84435 3.68854
# Velocity P-wave (km/s) = 5.77524 6.14147 5.96116
#
# Compressibility (1/GPa) = 0.02721613
#
# Stress axis : x y z
#
# Youngs Moduli (GPa) = 65.40974 66.40683 124.50017
#
# Poissons Ratio (x) = 0.20710 0.03683
# Poissons Ratio (y) = 0.20399 0.26979
# Poissons Ratio (z) = 0.01935 0.14390
#
# Static dielectric constant tensor:
#      x y z
#    x 4.173030 0.000000 0.000000 
#    y 0.000000 3.551730 0.000000 
#    z 0.000000 0.000000 4.132340 
# 
# 
# High freq. dielectric constant tensor:
#      x y z
#    x 1.868570 0.000000 0.000000 
#    y 0.000000 1.843080 0.000000 
#    z 0.000000 0.000000 1.874700 
# 
# From -- ./inp_files/13456.got.cif
#   From: 2010.03.12/outbox.cif.g09.slc.cpg/sg54_7_cif.got.tgz:13456.got - 2010.04.16 15:00:50.
