data_PCOD8223946
_publ_section_title
;
Structure prediction by ZEFSAII (Michael W. Deem and Ramdas Pophale) SiO2 
 PCOD8223946
Probable space group: P C C A
;
_chemical_formula_sum "Si O2"
_cell_formula_units_Z 32
_cell_length_a 5.079440
_cell_length_b 10.564373
_cell_length_c 30.983708
_cell_angle_alpha 90.000000
_cell_angle_beta 90.000000
_cell_angle_gamma 90.000000
_cell_volume 1662.619816
_symmetry_space_group_name_H-M "P C C A"
_symmetry_group_IT_number 54
_symmetry_cell_setting 'orthorhombic'
loop_
_space_group_symop_operation_xyz
x,y,z
1/2-x,-y,z
1/2+x,-y,1/2-z
-x,y,1/2-z
-x,-y,-z
1/2+x,y,-z
1/2-x,y,1/2+z
x,-y,1/2+z
loop_
_atom_site_type_symbol
_atom_site_label
_atom_site_fract_x
_atom_site_fract_y
_atom_site_fract_z
Si Si1 0.308684 0.759477 0.671555
Si Si2 0.771805 0.850073 0.524158
Si Si3 0.000000 0.075951 0.750000
Si Si4 0.795153 0.850610 0.622479
Si Si5 0.750000 0.500000 0.780784
O O1 0.373407 0.841769 0.712929
O O2 0.545311 0.769916 0.637821
O O3 0.271095 0.616914 0.686857
O O4 0.046234 0.812891 0.650245
O O5 0.497135 0.793453 0.507057
O O6 0.837720 0.810735 0.572964
O O7 0.750000 0.000000 0.520336
O O8 0.250000 0.000000 0.769634
O O9 0.750000 0.000000 0.627253
O O10 0.500000 0.485355 0.750000
#
# Coordination Sequence:
#
# PCOD8223946 Si02
#       5
#     8   8   4   8   4
#     4  12  24  40  59  83 114 156 197 243 289 330
#     4   9  17  31  53  82 119 155 182 217 280 354
#     4  12  24  38  58  84 118 150 186 230 300 362
#     4  11  22  37  58  92 124 148 187 241 293 351
#     4  12  26  46  62  78 108 156 212 252 272 334
#
# _framework density 19.246734
#
# number of rings (size 3 to 8) (size 9 to 14) (size 15 to 20)
#    0.000    1.000    1.250    7.500    1.750    4.000 
#    0.000    0.000    0.000    0.000    0.000   17.500 
#    0.000    0.000    0.000    0.000    0.000    0.000 
#
# Total GULP energy -396828.194606 kJ/mol
# GULP energy per Si atom -12400.881081 kJ/mol
# Density = 1.920293 g / cm^3
# Si number density = 19.246734 Si / 1000 Ang^3
#
#
#
# Elastic Constant Matrix: (Units=GPa)
#
#
# Indices 1 2 3 4 5 6 
#
# 1 232.5420 8.9868 152.6825 0.0000 0.0000 0.0000
# 2 8.9868 131.8596 3.0767 0.0000 0.0000 0.0000
# 3 152.6825 3.0767 247.2756 0.0000 0.0000 0.0000
# 4 0.0000 0.0000 0.0000 38.6596 0.0000 0.0000
# 5 0.0000 0.0000 0.0000 0.0000 43.4477 0.0000
# 6 0.0000 0.0000 0.0000 0.0000 0.0000 28.9336
#
#
#
# Elastic Compliance Matrix: (Units=1/GPa)
#
#
# Indices 1 2 3 4 5 6 
#
# 1 0.007252 -0.000390 -0.004473 0.000000 0.000000 0.000000
# 2 -0.000390 0.007607 0.000146 0.000000 0.000000 0.000000
# 3 -0.004473 0.000146 0.006804 0.000000 0.000000 0.000000
# 4 0.000000 0.000000 0.000000 0.025867 0.000000 0.000000
# 5 0.000000 0.000000 0.000000 0.000000 0.023016 0.000000
# 6 0.000000 0.000000 0.000000 0.000000 0.000000 0.034562
#
#
# Mechanical properties :
#
#
# Convention : Reuss Voigt Hill
#
# Bulk Modulus (GPa) = 81.76859 104.57436 93.17148
# Shear Modulus (GPa) = 42.15178 52.00362 47.07770
#
# Velocity S-wave (km/s) = 4.68490 5.20366 4.95108
# Velocity P-wave (km/s) = 8.47591 9.51607 9.01101
#
# Compressibility (1/GPa) = 0.01222963
#
# Stress axis : x y z
#
# Youngs Moduli (GPa) = 137.88579 131.45809 146.96665
#
# Poissons Ratio (x) = 0.05126 0.65741
# Poissons Ratio (y) = 0.05376 -0.02147
# Poissons Ratio (z) = 0.61679 -0.01921
#
# Static dielectric constant tensor:
#      x y z
#    x 3.991700 0.000000 0.000000 
#    y 0.000000 3.324110 0.000000 
#    z 0.000000 0.000000 3.706770 
# 
# 
# High freq. dielectric constant tensor:
#      x y z
#    x 1.777740 0.000000 0.000000 
#    y 0.000000 1.704980 0.000000 
#    z 0.000000 0.000000 1.764680 
# 
# From -- ./inp_files/26907.got.cif
#   From: 2010.03.12/outbox.cif.g09.slc.cpg/sg54_14_cif.got.tgz:26907.got - 2010.04.16 15:00:50.
