data_PCOD8223793
_publ_section_title
;
Structure prediction by ZEFSAII (Michael W. Deem and Ramdas Pophale) SiO2 
 PCOD8223793
Probable space group: P C C A
;
_chemical_formula_sum "Si O2"
_cell_formula_units_Z 28
_cell_length_a 26.241038
_cell_length_b 4.942981
_cell_length_c 8.772910
_cell_angle_alpha 90.000000
_cell_angle_beta 90.000000
_cell_angle_gamma 90.000000
_cell_volume 1137.924964
_symmetry_space_group_name_H-M "P C C A"
_symmetry_group_IT_number 54
_symmetry_cell_setting 'orthorhombic'
loop_
_space_group_symop_operation_xyz
x,y,z
1/2-x,-y,z
1/2+x,-y,1/2-z
-x,y,1/2-z
-x,-y,-z
1/2+x,y,-z
1/2-x,y,1/2+z
x,-y,1/2+z
loop_
_atom_site_type_symbol
_atom_site_label
_atom_site_fract_x
_atom_site_fract_y
_atom_site_fract_z
Si Si1 0.590625 0.645245 0.824184
Si Si2 0.204331 0.320419 0.682131
Si Si3 0.250000 0.000000 0.446458
Si Si4 0.944888 0.864325 0.998813
O O1 0.557398 0.390695 0.882511
O O2 0.568394 0.756618 0.666133
O O3 0.592000 0.893193 0.944566
O O4 0.648890 0.542308 0.802269
O O5 0.250000 0.500000 0.614532
O O6 0.202553 0.087811 0.553999
O O7 0.222834 0.227246 0.846863
O O8 0.000000 0.000000 0.000000
#
# Coordination Sequence:
#
# PCOD8223793 Si02
#       4
#     8   8   4   8
#     4  12  28  48  82 111 155 204 254 314 399 457
#     4  11  25  42  72 106 154 193 249 298 374 458
#     4  10  24  42  68 104 156 192 246 302 362 438
#     4  12  28  52  79 115 151 199 264 328 387 456
#
# _framework density 24.606193000000001
#
# number of rings (size 3 to 8) (size 9 to 14) (size 15 to 20)
#    0.000    0.571    0.000    6.000   16.000    2.286 
#    0.000    0.000    0.000    0.000    0.000    0.000 
#    0.000    0.000    0.000    0.000    0.000    0.000 
#
# Total GULP energy -347019.947110 kJ/mol
# GULP energy per Si atom -12393.569540 kJ/mol
# Density = 2.455019 g / cm^3
# Si number density = 24.606193 Si / 1000 Ang^3
#
#
#
# Elastic Constant Matrix: (Units=GPa)
#
#
# Indices 1 2 3 4 5 6 
#
# 1 185.2728 63.8964 74.6116 0.0000 0.0000 0.0000
# 2 63.8964 138.1124 52.5732 0.0000 0.0000 0.0000
# 3 74.6116 52.5732 142.2604 0.0000 0.0000 0.0000
# 4 0.0000 0.0000 0.0000 176.7076 0.0000 0.0000
# 5 0.0000 0.0000 0.0000 0.0000 13.9775 0.0000
# 6 0.0000 0.0000 0.0000 0.0000 0.0000 42.3710
#
#
#
# Elastic Compliance Matrix: (Units=1/GPa)
#
#
# Indices 1 2 3 4 5 6 
#
# 1 0.007406 -0.002267 -0.003047 0.000000 0.000000 0.000000
# 2 -0.002267 0.009119 -0.002181 0.000000 0.000000 0.000000
# 3 -0.003047 -0.002181 0.009433 0.000000 0.000000 0.000000
# 4 0.000000 0.000000 0.000000 0.005659 0.000000 0.000000
# 5 0.000000 0.000000 0.000000 0.000000 0.071544 0.000000
# 6 0.000000 0.000000 0.000000 0.000000 0.000000 0.023601
#
#
# Mechanical properties :
#
#
# Convention : Reuss Voigt Hill
#
# Bulk Modulus (GPa) = 91.16062 94.20088 92.68075
# Shear Modulus (GPa) = 34.38587 64.91552 49.65070
#
# Velocity S-wave (km/s) = 3.74230 5.14189 4.49688
# Velocity P-wave (km/s) = 7.47003 8.58013 8.04425
#
# Compressibility (1/GPa) = 0.01096965
#
# Stress axis : x y z
#
# Youngs Moduli (GPa) = 135.02432 109.65558 106.00663
#
# Poissons Ratio (x) = 0.24855 0.32296
# Poissons Ratio (y) = 0.30605 0.23124
# Poissons Ratio (z) = 0.41137 0.23920
#
# Static dielectric constant tensor:
#      x y z
#    x 4.866230 0.000000 0.000000 
#    y 0.000000 4.354600 0.000000 
#    z 0.000000 0.000000 4.656850 
# 
# 
# High freq. dielectric constant tensor:
#      x y z
#    x 1.977120 0.000000 0.000000 
#    y 0.000000 1.983770 0.000000 
#    z 0.000000 0.000000 2.002870 
# 
# From -- ./inp_files/5353.got.cif
#   From: 2010.03.12/outbox.cif.g09.slc.cpg/sg54_3_cif.got.tgz:5353.got - 2010.04.16 15:00:50.
