data_PCOD8223067
_publ_section_title
;
Structure prediction by ZEFSAII (Michael W. Deem and Ramdas Pophale) SiO2 
 PCOD8223067
Probable space group: P C C A
;
_chemical_formula_sum "Si O2"
_cell_formula_units_Z 56
_cell_length_a 11.359423
_cell_length_b 14.358829
_cell_length_c 15.804972
_cell_angle_alpha 90.000000
_cell_angle_beta 90.000000
_cell_angle_gamma 90.000000
_cell_volume 2577.917569
_symmetry_space_group_name_H-M "P C C A"
_symmetry_group_IT_number 54
_symmetry_cell_setting 'orthorhombic'
loop_
_space_group_symop_operation_xyz
x,y,z
1/2-x,-y,z
1/2+x,-y,1/2-z
-x,y,1/2-z
-x,-y,-z
1/2+x,y,-z
1/2-x,y,1/2+z
x,-y,1/2+z
loop_
_atom_site_type_symbol
_atom_site_label
_atom_site_fract_x
_atom_site_fract_y
_atom_site_fract_z
Si Si1 0.500000 0.616368 0.250000
Si Si2 0.529222 0.934832 0.841693
Si Si3 0.082765 0.239258 0.120768
Si Si4 0.371004 0.897267 0.377482
Si Si5 0.750000 0.000000 0.257742
Si Si6 0.612370 0.497957 0.610214
Si Si7 0.677062 0.807894 0.948136
Si Si8 0.480175 0.646455 0.521957
O O1 0.415573 0.678742 0.190221
O O2 0.412299 0.548181 0.299489
O O3 0.500000 0.890386 0.750000
O O4 0.562200 0.854351 0.906309
O O5 0.427211 0.998409 0.884029
O O6 0.642244 0.997620 0.822152
O O7 0.207385 0.184838 0.111768
O O8 0.975368 0.172604 0.148207
O O9 0.063377 0.280387 0.026959
O O10 0.273516 0.908096 0.302634
O O11 0.305033 0.860774 0.461849
O O12 0.750000 0.500000 0.595299
O O13 0.552945 0.601192 0.600601
O O14 0.555460 0.435207 0.539351
O O15 0.640748 0.699343 0.953146
#
# Coordination Sequence:
#
# PCOD8223067 Si02
#       8
#     4   8   8   8   4   8   8   8
#     4  10  24  38  58  96 120 156 202 258 314 398
#     4  10  22  38  55  87 125 163 203 257 313 367
#     4  10  22  38  62  89 123 157 209 257 313 373
#     4  10  23  40  62  86 125 168 220 257 304 387
#     4  10  22  38  62  88 120 178 202 258 322 360
#     4  10  20  41  65  87 121 161 202 252 326 383
#     4  11  22  39  62  92 120 168 207 264 316 370
#     4   9  21  40  62  89 120 155 205 259 304 388
#
# _framework density 21.722961000000002
#
# number of rings (size 3 to 8) (size 9 to 14) (size 15 to 20)
#    0.000    2.000    0.000    2.143    5.000    7.429 
#    3.857    1.429    0.000    0.000    0.000    0.000 
#    0.000    0.000    0.000    0.000    0.000    0.000 
#
# Total GULP energy -693912.964907 kJ/mol
# GULP energy per Si atom -12391.302945 kJ/mol
# Density = 2.167352 g / cm^3
# Si number density = 21.722961 Si / 1000 Ang^3
#
#
#
# Elastic Constant Matrix: (Units=GPa)
#
#
# Indices 1 2 3 4 5 6 
#
# 1 67.7397 7.9018 1.5656 0.0000 0.0000 0.0000
# 2 7.9018 73.2663 17.7636 0.0000 0.0000 0.0000
# 3 1.5656 17.7636 56.6868 0.0000 0.0000 0.0000
# 4 0.0000 0.0000 0.0000 30.3710 0.0000 0.0000
# 5 0.0000 0.0000 0.0000 0.0000 11.2338 0.0000
# 6 0.0000 0.0000 0.0000 0.0000 0.0000 19.4204
#
#
#
# Elastic Compliance Matrix: (Units=1/GPa)
#
#
# Indices 1 2 3 4 5 6 
#
# 1 0.014951 -0.001637 0.000100 0.000000 0.000000 0.000000
# 2 -0.001637 0.014950 -0.004640 0.000000 0.000000 0.000000
# 3 0.000100 -0.004640 0.019092 0.000000 0.000000 0.000000
# 4 0.000000 0.000000 0.000000 0.032926 0.000000 0.000000
# 5 0.000000 0.000000 0.000000 0.000000 0.089017 0.000000
# 6 0.000000 0.000000 0.000000 0.000000 0.000000 0.051492
#
#
# Mechanical properties :
#
#
# Convention : Reuss Voigt Hill
#
# Bulk Modulus (GPa) = 27.29228 28.01718 27.65473
# Shear Modulus (GPa) = 20.24331 23.56916 21.90623
#
# Velocity S-wave (km/s) = 3.05599 3.29749 3.17903
# Velocity P-wave (km/s) = 5.00432 5.23674 5.12184
#
# Compressibility (1/GPa) = 0.03664040
#
# Stress axis : x y z
#
# Youngs Moduli (GPa) = 66.88515 66.88844 52.37815
#
# Poissons Ratio (x) = 0.10948 -0.00524
# Poissons Ratio (y) = 0.10947 0.24302
# Poissons Ratio (z) = -0.00669 0.31034
#
# Static dielectric constant tensor:
#      x y z
#    x 3.931740 0.000000 0.000000 
#    y 0.000000 4.109570 0.000000 
#    z 0.000000 0.000000 4.014640 
# 
# 
# High freq. dielectric constant tensor:
#      x y z
#    x 1.852760 0.000000 0.000000 
#    y 0.000000 1.847000 0.000000 
#    z 0.000000 0.000000 1.847100 
# 
# From -- ./inp_files/12781.got.cif
#   From: 2010.03.12/outbox.cif.g09.slc.cpg/sg54_7_cif.got.tgz:12781.got - 2010.04.16 15:00:50.
