data_PCOD8223479
_publ_section_title
;
Structure prediction by ZEFSAII (Michael W. Deem and Ramdas Pophale) SiO2 
 PCOD8223479
Probable space group: P C C A
;
_chemical_formula_sum "Si O2"
_cell_formula_units_Z 48
_cell_length_a 8.680167
_cell_length_b 8.520203
_cell_length_c 30.868091
_cell_angle_alpha 90.000000
_cell_angle_beta 90.000000
_cell_angle_gamma 90.000000
_cell_volume 2282.904767
_symmetry_space_group_name_H-M "P C C A"
_symmetry_group_IT_number 54
_symmetry_cell_setting 'orthorhombic'
loop_
_space_group_symop_operation_xyz
x,y,z
1/2-x,-y,z
1/2+x,-y,1/2-z
-x,y,1/2-z
-x,-y,-z
1/2+x,y,-z
1/2-x,y,1/2+z
x,-y,1/2+z
loop_
_atom_site_type_symbol
_atom_site_label
_atom_site_fract_x
_atom_site_fract_y
_atom_site_fract_z
Si Si1 0.250000 0.500000 0.776197
Si Si2 0.239210 0.827636 0.050756
Si Si3 0.821191 0.838634 0.762025
Si Si4 0.750000 0.500000 0.580777
Si Si5 0.244530 0.747206 0.147381
Si Si6 0.560230 0.664474 0.515852
Si Si7 0.997698 0.508755 0.151406
O O1 0.246230 0.333063 0.750189
O O2 0.404016 0.495453 0.804376
O O3 0.271574 0.832764 0.101933
O O4 0.073139 0.758583 0.039724
O O5 0.250000 0.000000 0.031517
O O6 0.378832 0.739010 0.028050
O O7 0.784344 0.862461 0.812968
O O8 0.000000 0.835947 0.750000
O O9 0.750000 0.000000 0.740138
O O10 0.701256 0.645935 0.550109
O O11 0.605465 0.456411 0.610653
O O12 0.067348 0.684426 0.147655
O O13 0.360094 0.604709 0.152895
O O14 0.500000 0.500000 0.500000
#
# Coordination Sequence:
#
# PCOD8223479 Si02
#       7
#     4   8   8   4   8   8   8
#     4  11  24  48  71 104 138 186 237 286 354 417
#     4  12  26  43  64 101 137 178 226 287 354 407
#     4  12  28  47  72 107 145 186 234 292 352 426
#     4  11  20  38  65 102 130 172 237 286 342 397
#     4  11  23  42  69  98 138 181 228 281 348 414
#     4  12  23  42  69  94 131 179 233 283 335 418
#     4  10  22  39  72 102 133 177 236 287 337 415
#
# _framework density 21.025845
#
# number of rings (size 3 to 8) (size 9 to 14) (size 15 to 20)
#    0.000    0.667    5.000    3.000    4.667    0.000 
#    0.000    0.000    0.000    0.000    0.000    0.000 
#    0.000    0.000    0.000    0.000    0.000    0.000 
#
# Total GULP energy -594844.962629 kJ/mol
# GULP energy per Si atom -12392.603388 kJ/mol
# Density = 2.097799 g / cm^3
# Si number density = 21.025845 Si / 1000 Ang^3
#
#
#
# Elastic Constant Matrix: (Units=GPa)
#
#
# Indices 1 2 3 4 5 6 
#
# 1 103.8190 49.1086 45.9100 0.0000 0.0000 0.0000
# 2 49.1086 142.5845 42.9770 0.0000 0.0000 0.0000
# 3 45.9100 42.9770 135.0424 0.0000 0.0000 0.0000
# 4 0.0000 0.0000 0.0000 34.9828 0.0000 0.0000
# 5 0.0000 0.0000 0.0000 0.0000 39.5892 0.0000
# 6 0.0000 0.0000 0.0000 0.0000 0.0000 -7.3912
#
#
#
# Elastic Compliance Matrix: (Units=1/GPa)
#
#
# Indices 1 2 3 4 5 6 
#
# 1 0.012662 -0.003388 -0.003226 0.000000 0.000000 0.000000
# 2 -0.003388 0.008664 -0.001605 0.000000 0.000000 0.000000
# 3 -0.003226 -0.001605 0.009013 0.000000 0.000000 0.000000
# 4 0.000000 0.000000 0.000000 0.028585 0.000000 0.000000
# 5 0.000000 0.000000 0.000000 0.000000 0.025259 0.000000
# 6 0.000000 0.000000 0.000000 0.000000 0.000000 -0.135296
#
#
# Mechanical properties :
#
#
# Convention : Reuss Voigt Hill
#
# Bulk Modulus (GPa) = 71.94964 73.04856 72.49910
# Shear Modulus (GPa) = -166.44695 29.66620 -68.39038
#
# Velocity S-wave (km/s) = -8.90701 3.76032 -5.70942
# Velocity P-wave (km/s) = 8.45494 7.32605 2.98453
#
# Compressibility (1/GPa) = 0.01389861
#
# Stress axis : x y z
#
# Youngs Moduli (GPa) = 78.97889 115.41569 110.95332
#
# Poissons Ratio (x) = 0.39108 0.35795
# Poissons Ratio (y) = 0.26762 0.17813
# Poissons Ratio (z) = 0.25480 0.18529
#
# Static dielectric constant tensor:
#      x y z
#    x 4.057360 0.000000 0.000000 
#    y 0.000000 3.953930 0.000000 
#    z 0.000000 0.000000 4.085430 
# 
# 
# High freq. dielectric constant tensor:
#      x y z
#    x 1.834960 0.000000 0.000000 
#    y 0.000000 1.814770 0.000000 
#    z 0.000000 0.000000 1.836210 
# 
# From -- ./inp_files/27808.got.cif
#   From: 2010.03.12/outbox.cif.g09.slc.cpg/sg54_14_cif.got.tgz:27808.got - 2010.04.16 15:00:50.
