data_PCOD8223564
_publ_section_title
;
Structure prediction by ZEFSAII (Michael W. Deem and Ramdas Pophale) SiO2 
 PCOD8223564
Probable space group: P C C A
;
_chemical_formula_sum "Si O2"
_cell_formula_units_Z 56
_cell_length_a 11.171554
_cell_length_b 12.379237
_cell_length_c 21.535479
_cell_angle_alpha 90.000000
_cell_angle_beta 90.000000
_cell_angle_gamma 90.000000
_cell_volume 2978.255844
_symmetry_space_group_name_H-M "P C C A"
_symmetry_group_IT_number 54
_symmetry_cell_setting 'orthorhombic'
loop_
_space_group_symop_operation_xyz
x,y,z
1/2-x,-y,z
1/2+x,-y,1/2-z
-x,y,1/2-z
-x,-y,-z
1/2+x,y,-z
1/2-x,y,1/2+z
x,-y,1/2+z
loop_
_atom_site_type_symbol
_atom_site_label
_atom_site_fract_x
_atom_site_fract_y
_atom_site_fract_z
Si Si1 0.017254 0.512414 0.321594
Si Si2 0.397959 0.130381 0.202551
Si Si3 0.657944 0.672539 0.884449
Si Si4 0.250000 0.000000 0.790402
Si Si5 0.990496 0.915474 0.678574
Si Si6 0.564346 0.303860 0.879560
Si Si7 0.074436 0.608025 0.984656
Si Si8 0.750000 0.500000 0.606498
O O1 0.146618 0.552145 0.348718
O O2 0.000000 0.540824 0.250000
O O3 0.908385 0.569185 0.356685
O O4 0.007908 0.383838 0.333443
O O5 0.500000 0.170356 0.250000
O O6 0.379584 0.219159 0.150403
O O7 0.285191 0.102021 0.246299
O O8 0.429856 0.020833 0.165741
O O9 0.798614 0.660727 0.875947
O O10 0.622646 0.674522 0.956686
O O11 0.353764 0.047394 0.834752
O O12 0.039058 0.819724 0.636725
O O13 0.000000 0.880314 0.750000
O O14 0.519015 0.314880 0.949876
O O15 0.187412 0.586387 0.939159
O O16 0.000000 0.500000 0.000000
#
# Coordination Sequence:
#
# PCOD8223564 Si02
#       8
#     8   8   8   4   8   8   8   4
#     4  11  25  39  58  93 123 158 197 258 323 363
#     4   9  19  36  58  90 119 157 196 245 307 363
#     4  12  22  38  62  86 122 159 207 248 298 370
#     4   8  16  36  62  84 128 158 198 252 308 382
#     4   9  18  37  59  90 120 155 199 243 316 363
#     4  11  23  38  62  88 116 159 206 250 297 374
#     4  11  22  42  60  84 118 171 211 243 301 355
#     4  10  22  42  58  80 124 162 202 254 294 378
#
# _framework density 18.802949999999999
#
# number of rings (size 3 to 8) (size 9 to 14) (size 15 to 20)
#    0.000    2.000    2.857    3.857    2.000    0.000 
#   12.857    0.714    0.000    0.857    0.000    0.000 
#    0.000    0.000    0.000    0.000    0.000    0.000 
#
# Total GULP energy -693992.496099 kJ/mol
# GULP energy per Si atom -12392.723145 kJ/mol
# Density = 1.876015 g / cm^3
# Si number density = 18.802950 Si / 1000 Ang^3
#
#
#
# Elastic Constant Matrix: (Units=GPa)
#
#
# Indices 1 2 3 4 5 6 
#
# 1 123.5843 31.8848 40.3571 0.0000 0.0000 0.0000
# 2 31.8848 84.0796 35.7831 0.0000 0.0000 0.0000
# 3 40.3571 35.7831 112.2373 0.0000 0.0000 0.0000
# 4 0.0000 0.0000 0.0000 5.9144 0.0000 0.0000
# 5 0.0000 0.0000 0.0000 0.0000 25.1820 0.0000
# 6 0.0000 0.0000 0.0000 0.0000 0.0000 22.0320
#
#
#
# Elastic Compliance Matrix: (Units=1/GPa)
#
#
# Indices 1 2 3 4 5 6 
#
# 1 0.009607 -0.002514 -0.002653 0.000000 0.000000 0.000000
# 2 -0.002514 0.014419 -0.003693 0.000000 0.000000 0.000000
# 3 -0.002653 -0.003693 0.011041 0.000000 0.000000 0.000000
# 4 0.000000 0.000000 0.000000 0.169080 0.000000 0.000000
# 5 0.000000 0.000000 0.000000 0.000000 0.039711 0.000000
# 6 0.000000 0.000000 0.000000 0.000000 0.000000 0.045389
#
#
# Mechanical properties :
#
#
# Convention : Reuss Voigt Hill
#
# Bulk Modulus (GPa) = 57.64801 59.55014 58.59908
# Shear Modulus (GPa) = 15.98739 24.75074 20.36907
#
# Velocity S-wave (km/s) = 2.91908 3.63205 3.29491
# Velocity P-wave (km/s) = 6.48745 7.02342 6.76075
#
# Compressibility (1/GPa) = 0.01734665
#
# Stress axis : x y z
#
# Youngs Moduli (GPa) = 104.09599 69.35530 90.57257
#
# Poissons Ratio (x) = 0.17436 0.24026
# Poissons Ratio (y) = 0.26170 0.33447
# Poissons Ratio (z) = 0.27613 0.25612
#
# Static dielectric constant tensor:
#      x y z
#    x 4.210270 0.000000 0.000000 
#    y 0.000000 3.281190 0.000000 
#    z 0.000000 0.000000 3.435880 
# 
# 
# High freq. dielectric constant tensor:
#      x y z
#    x 1.752420 0.000000 0.000000 
#    y 0.000000 1.713300 0.000000 
#    z 0.000000 0.000000 1.714470 
# 
# From -- ./inp_files/21214.got.cif
#   From: 2010.03.12/outbox.cif.g09.slc.cpg/sg54_11_cif.got.tgz:21214.got - 2010.04.16 15:00:50.
