data_PCOD8223553
_publ_section_title
;
Structure prediction by ZEFSAII (Michael W. Deem and Ramdas Pophale) SiO2 
 PCOD8223553
Probable space group: P C C A
;
_chemical_formula_sum "Si O2"
_cell_formula_units_Z 60
_cell_length_a 22.209131
_cell_length_b 5.209051
_cell_length_c 22.610655
_cell_angle_alpha 90.000000
_cell_angle_beta 90.000000
_cell_angle_gamma 90.000000
_cell_volume 2615.792672
_symmetry_space_group_name_H-M "P C C A"
_symmetry_group_IT_number 54
_symmetry_cell_setting 'orthorhombic'
loop_
_space_group_symop_operation_xyz
x,y,z
1/2-x,-y,z
1/2+x,-y,1/2-z
-x,y,1/2-z
-x,-y,-z
1/2+x,y,-z
1/2-x,y,1/2+z
x,-y,1/2+z
loop_
_atom_site_type_symbol
_atom_site_label
_atom_site_fract_x
_atom_site_fract_y
_atom_site_fract_z
Si Si1 0.815083 0.457019 0.273672
Si Si2 0.438669 0.089703 0.470743
Si Si3 0.411586 0.621780 0.320721
Si Si4 0.114100 0.760127 0.140226
Si Si5 0.976884 0.871883 0.161691
Si Si6 0.250000 0.500000 0.013103
Si Si7 0.168585 0.738437 0.604699
Si Si8 0.627140 0.405230 0.543188
O O1 0.750000 0.500000 0.243900
O O2 0.856882 0.330061 0.223992
O O3 0.845511 0.717534 0.300520
O O4 0.804271 0.262327 0.328725
O O5 0.450312 0.133871 0.402901
O O6 0.406939 0.357121 0.491051
O O7 0.500000 0.000000 0.500000
O O8 0.393691 0.860289 0.485123
O O9 0.445698 0.360092 0.302590
O O10 0.385324 0.600634 0.386835
O O11 0.459379 0.852873 0.310847
O O12 0.120929 0.502071 0.099598
O O13 0.047530 0.822510 0.162071
O O14 0.134587 0.992252 0.097502
O O15 0.277627 0.718007 0.056820
O O16 0.198214 0.594177 0.968980
#
# Coordination Sequence:
#
# PCOD8223553 Si02
#       8
#     8   8   8   8   8   4   8   8
#     4  10  24  44  67  93 134 173 221 269 331 401
#     4  10  22  41  65  95 129 174 221 269 326 396
#     4  10  23  44  66  98 127 176 220 276 325 399
#     4  10  23  43  65  99 128 173 213 270 342 381
#     4  10  22  42  66  94 136 161 222 277 326 394
#     4  12  26  44  70  96 146 172 224 286 318 418
#     4  10  24  41  62 100 126 170 219 257 337 389
#     4  10  25  41  65  99 130 174 226 264 339 383
#
# _framework density 22.937598999999999
#
# number of rings (size 3 to 8) (size 9 to 14) (size 15 to 20)
#    0.800    1.067    0.667    1.200    6.533    4.267 
#    0.000    0.000    0.000    0.000    0.000    0.000 
#    0.000    0.000    0.000    0.000    0.000    0.000 
#
# Total GULP energy -743457.278392 kJ/mol
# GULP energy per Si atom -12390.954640 kJ/mol
# Density = 2.288539 g / cm^3
# Si number density = 22.937599 Si / 1000 Ang^3
#
#
#
# Elastic Constant Matrix: (Units=GPa)
#
#
# Indices 1 2 3 4 5 6 
#
# 1 180.1869 61.2274 30.6911 0.0000 0.0000 0.0000
# 2 61.2274 136.2082 54.0395 0.0000 0.0000 0.0000
# 3 30.6911 54.0395 25.9278 0.0000 0.0000 0.0000
# 4 0.0000 0.0000 0.0000 9.7361 0.0000 0.0000
# 5 0.0000 0.0000 0.0000 0.0000 10.5839 0.0000
# 6 0.0000 0.0000 0.0000 0.0000 0.0000 22.3230
#
#
#
# Elastic Compliance Matrix: (Units=1/GPa)
#
#
# Indices 1 2 3 4 5 6 
#
# 1 0.006967 0.000810 -0.009934 0.000000 0.000000 0.000000
# 2 0.000810 0.042508 -0.089555 0.000000 0.000000 0.000000
# 3 -0.009934 -0.089555 0.236981 0.000000 0.000000 0.000000
# 4 0.000000 0.000000 0.000000 0.102711 0.000000 0.000000
# 5 0.000000 0.000000 0.000000 0.000000 0.094483 0.000000
# 6 0.000000 0.000000 0.000000 0.000000 0.000000 0.044797
#
#
# Mechanical properties :
#
#
# Convention : Reuss Voigt Hill
#
# Bulk Modulus (GPa) = 11.22372 70.47097 40.84735
# Shear Modulus (GPa) = 6.61810 21.61959 14.11884
#
# Velocity S-wave (km/s) = 1.70045 3.07341 2.48368
# Velocity P-wave (km/s) = 2.95958 6.58666 5.10604
#
# Compressibility (1/GPa) = 0.08909706
#
# Stress axis : x y z
#
# Youngs Moduli (GPa) = 143.53896 23.52503 4.21975
#
# Poissons Ratio (x) = -0.01905 0.04192
# Poissons Ratio (y) = -0.11621 0.37790
# Poissons Ratio (z) = 1.42593 2.10678
#
# Static dielectric constant tensor:
#      x y z
#    x 4.013850 0.000000 0.000000 
#    y 0.000000 4.487420 0.000000 
#    z 0.000000 0.000000 4.038160 
# 
# 
# High freq. dielectric constant tensor:
#      x y z
#    x 1.904760 0.000000 0.000000 
#    y 0.000000 1.906770 0.000000 
#    z 0.000000 0.000000 1.903250 
# 
# From -- ./inp_files/24791.got.cif
#   From: 2010.03.12/outbox.cif.g09.slc.cpg/sg54_13_cif.got.tgz:24791.got - 2010.04.16 15:00:50.
