data_PCOD8223830
_publ_section_title
;
Structure prediction by ZEFSAII (Michael W. Deem and Ramdas Pophale) SiO2 
 PCOD8223830
Probable space group: P C C A
;
_chemical_formula_sum "Si O2"
_cell_formula_units_Z 40
_cell_length_a 19.733243
_cell_length_b 6.374618
_cell_length_c 14.712980
_cell_angle_alpha 90.000000
_cell_angle_beta 90.000000
_cell_angle_gamma 90.000000
_cell_volume 1850.773503
_symmetry_space_group_name_H-M "P C C A"
_symmetry_group_IT_number 54
_symmetry_cell_setting 'orthorhombic'
loop_
_space_group_symop_operation_xyz
x,y,z
1/2-x,-y,z
1/2+x,-y,1/2-z
-x,y,1/2-z
-x,-y,-z
1/2+x,y,-z
1/2-x,y,1/2+z
x,-y,1/2+z
loop_
_atom_site_type_symbol
_atom_site_label
_atom_site_fract_x
_atom_site_fract_y
_atom_site_fract_z
Si Si1 0.317182 0.389432 0.847485
Si Si2 0.000000 0.977576 0.250000
Si Si3 0.989352 0.803812 0.937319
Si Si4 0.394399 0.539139 0.519737
Si Si5 0.750000 0.000000 0.721640
Si Si6 0.131209 0.711920 0.216414
O O1 0.250000 0.500000 0.816233
O O2 0.330760 0.454123 0.952040
O O3 0.369232 0.494217 0.774595
O O4 0.303703 0.139123 0.837673
O O5 0.932932 0.836932 0.244496
O O6 0.003086 0.132729 0.165883
O O7 0.046724 0.636195 0.958170
O O8 0.915588 0.698994 0.954791
O O9 0.000000 0.000000 0.000000
O O10 0.379479 0.669206 0.610092
O O11 0.799070 0.152382 0.779635
#
# Coordination Sequence:
#
# PCOD8223830 Si02
#       6
#     8   4   8   8   4   8
#     4  10  24  45  66  95 135 178 225 281 339 410
#     4  12  24  44  72 100 144 188 220 302 346 416
#     4  11  24  43  63 102 137 177 229 270 353 407
#     4  11  25  41  67 101 134 178 227 288 334 413
#     4  10  24  48  68  98 136 190 226 276 350 420
#     4  11  25  43  69 102 136 178 233 281 348 408
#
# _framework density 21.612583999999998
#
# number of rings (size 3 to 8) (size 9 to 14) (size 15 to 20)
#    0.000    1.200    2.000    2.400    8.400    4.800 
#    0.000    0.000    0.000    0.000    0.000    0.000 
#    0.000    0.000    0.000    0.000    0.000    0.000 
#
# Total GULP energy -495751.823511 kJ/mol
# GULP energy per Si atom -12393.795588 kJ/mol
# Density = 2.156339 g / cm^3
# Si number density = 21.612584 Si / 1000 Ang^3
#
#
#
# Elastic Constant Matrix: (Units=GPa)
#
#
# Indices 1 2 3 4 5 6 
#
# 1 92.3530 50.3876 41.3487 0.0000 0.0000 0.0000
# 2 50.3876 140.0081 75.4179 0.0000 0.0000 0.0000
# 3 41.3487 75.4179 154.7577 0.0000 0.0000 0.0000
# 4 0.0000 0.0000 0.0000 42.7277 0.0000 0.0000
# 5 0.0000 0.0000 0.0000 0.0000 30.2658 0.0000
# 6 0.0000 0.0000 0.0000 0.0000 0.0000 39.1106
#
#
#
# Elastic Compliance Matrix: (Units=1/GPa)
#
#
# Indices 1 2 3 4 5 6 
#
# 1 0.013802 -0.004042 -0.001718 0.000000 0.000000 0.000000
# 2 -0.004042 0.010868 -0.004217 0.000000 0.000000 0.000000
# 3 -0.001718 -0.004217 0.008976 0.000000 0.000000 0.000000
# 4 0.000000 0.000000 0.000000 0.023404 0.000000 0.000000
# 5 0.000000 0.000000 0.000000 0.000000 0.033041 0.000000
# 6 0.000000 0.000000 0.000000 0.000000 0.000000 0.025569
#
#
# Mechanical properties :
#
#
# Convention : Reuss Voigt Hill
#
# Bulk Modulus (GPa) = 73.02765 80.15856 76.59311
# Shear Modulus (GPa) = 35.66913 37.08512 36.37712
#
# Velocity S-wave (km/s) = 4.06690 4.14684 4.10707
# Velocity P-wave (km/s) = 7.47768 7.75227 7.61621
#
# Compressibility (1/GPa) = 0.01369344
#
# Stress axis : x y z
#
# Youngs Moduli (GPa) = 72.45069 92.00967 111.41320
#
# Poissons Ratio (x) = 0.37190 0.19141
# Poissons Ratio (y) = 0.29284 0.46978
# Poissons Ratio (z) = 0.12447 0.38796
#
# Static dielectric constant tensor:
#      x y z
#    x 4.206600 0.000000 0.000000 
#    y 0.000000 4.537160 0.000000 
#    z 0.000000 0.000000 3.838970 
# 
# 
# High freq. dielectric constant tensor:
#      x y z
#    x 1.851650 0.000000 0.000000 
#    y 0.000000 1.860970 0.000000 
#    z 0.000000 0.000000 1.850350 
# 
# From -- ./inp_files/14869.got.cif
#   From: 2010.03.12/outbox.cif.g09.slc.cpg/sg54_8_cif.got.tgz:14869.got - 2010.04.16 15:00:50.
