data_PCOD8223063
_publ_section_title
;
Structure prediction by ZEFSAII (Michael W. Deem and Ramdas Pophale) SiO2 
 PCOD8223063
Probable space group: P C C A
;
_chemical_formula_sum "Si O2"
_cell_formula_units_Z 48
_cell_length_a 28.728004
_cell_length_b 9.200164
_cell_length_c 9.340326
_cell_angle_alpha 90.000000
_cell_angle_beta 90.000000
_cell_angle_gamma 90.000000
_cell_volume 2468.670095
_symmetry_space_group_name_H-M "P C C A"
_symmetry_group_IT_number 54
_symmetry_cell_setting 'orthorhombic'
loop_
_space_group_symop_operation_xyz
x,y,z
1/2-x,-y,z
1/2+x,-y,1/2-z
-x,y,1/2-z
-x,-y,-z
1/2+x,y,-z
1/2-x,y,1/2+z
x,-y,1/2+z
loop_
_atom_site_type_symbol
_atom_site_label
_atom_site_fract_x
_atom_site_fract_y
_atom_site_fract_z
Si Si1 0.700272 0.860370 0.535374
Si Si2 0.527037 0.180286 0.121046
Si Si3 0.615277 0.646078 0.521123
Si Si4 0.537417 0.142778 0.638785
Si Si5 0.793179 0.846913 0.695205
Si Si6 0.878264 0.351733 0.192440
O O1 0.657622 0.751930 0.560402
O O2 0.744359 0.798794 0.624036
O O3 0.711596 0.880412 0.365858
O O4 0.687340 0.013880 0.608459
O O5 0.500000 0.260515 0.250000
O O6 0.566657 0.280443 0.058258
O O7 0.549149 0.026273 0.173186
O O8 0.484732 0.151712 0.015429
O O9 0.614053 0.606509 0.355829
O O10 0.619286 0.497189 0.603695
O O11 0.500000 0.206956 0.750000
O O12 0.584372 0.234174 0.641729
O O13 0.827391 0.713874 0.668935
#
# Coordination Sequence:
#
# PCOD8223063 Si02
#       6
#     8   8   8   8   8   8
#     4  10  21  40  65  91 119 150 196 245 292 350
#     4  10  22  39  63  90 114 154 200 246 297 346
#     4  11  25  41  57  87 123 159 198 237 295 352
#     4  10  20  41  63  85 119 151 198 248 291 344
#     4  10  21  40  64  92 118 151 196 244 294 346
#     4  11  25  40  59  86 122 160 196 241 291 353
#
# _framework density 19.443667999999999
#
# number of rings (size 3 to 8) (size 9 to 14) (size 15 to 20)
#    0.000    1.667    1.667    3.000    2.333    4.667 
#    0.000    3.333    0.000    0.000    0.000    0.000 
#    0.000    0.000    0.000    0.000    0.000    0.000 
#
# Total GULP energy -595081.654335 kJ/mol
# GULP energy per Si atom -12397.534465 kJ/mol
# Density = 1.939941 g / cm^3
# Si number density = 19.443668 Si / 1000 Ang^3
#
#
#
# Elastic Constant Matrix: (Units=GPa)
#
#
# Indices 1 2 3 4 5 6 
#
# 1 82.7425 45.8374 47.2063 0.0000 0.0000 0.0000
# 2 45.8374 87.7551 46.3322 0.0000 0.0000 0.0000
# 3 47.2063 46.3322 123.9260 0.0000 0.0000 0.0000
# 4 0.0000 0.0000 0.0000 15.1810 0.0000 0.0000
# 5 0.0000 0.0000 0.0000 0.0000 28.9385 0.0000
# 6 0.0000 0.0000 0.0000 0.0000 0.0000 16.4577
#
#
#
# Elastic Compliance Matrix: (Units=1/GPa)
#
#
# Indices 1 2 3 4 5 6 
#
# 1 0.018699 -0.007484 -0.004325 0.000000 0.000000 0.000000
# 2 -0.007484 0.017193 -0.003577 0.000000 0.000000 0.000000
# 3 -0.004325 -0.003577 0.011054 0.000000 0.000000 0.000000
# 4 0.000000 0.000000 0.000000 0.065872 0.000000 0.000000
# 5 0.000000 0.000000 0.000000 0.000000 0.034556 0.000000
# 6 0.000000 0.000000 0.000000 0.000000 0.000000 0.060762
#
#
# Mechanical properties :
#
#
# Convention : Reuss Voigt Hill
#
# Bulk Modulus (GPa) = 61.82576 63.68614 62.75595
# Shear Modulus (GPa) = 20.46673 22.45195 21.45934
#
# Velocity S-wave (km/s) = 3.24793 3.40180 3.32575
# Velocity P-wave (km/s) = 6.77730 6.94658 6.86246
#
# Compressibility (1/GPa) = 0.01617449
#
# Stress axis : x y z
#
# Youngs Moduli (GPa) = 53.47907 58.16328 90.46303
#
# Poissons Ratio (x) = 0.43527 0.39125
# Poissons Ratio (y) = 0.40022 0.32361
# Poissons Ratio (z) = 0.23129 0.20806
#
# Static dielectric constant tensor:
#      x y z
#    x 3.615910 0.000000 0.000000 
#    y 0.000000 3.495330 0.000000 
#    z 0.000000 0.000000 3.948120 
# 
# 
# High freq. dielectric constant tensor:
#      x y z
#    x 1.765820 0.000000 0.000000 
#    y 0.000000 1.747310 0.000000 
#    z 0.000000 0.000000 1.776500 
# 
# From -- ./inp_files/5847.got.cif
#   From: 2010.03.12/outbox.cif.g09.slc.cpg/sg54_3_cif.got.tgz:5847.got - 2010.04.16 15:00:50.
