data_PCOD8223598
_publ_section_title
;
Structure prediction by ZEFSAII (Michael W. Deem and Ramdas Pophale) SiO2 
 PCOD8223598
Probable space group: P C C A
;
_chemical_formula_sum "Si O2"
_cell_formula_units_Z 56
_cell_length_a 10.951394
_cell_length_b 15.229185
_cell_length_c 14.675589
_cell_angle_alpha 90.000000
_cell_angle_beta 90.000000
_cell_angle_gamma 90.000000
_cell_volume 2447.606551
_symmetry_space_group_name_H-M "P C C A"
_symmetry_group_IT_number 54
_symmetry_cell_setting 'orthorhombic'
loop_
_space_group_symop_operation_xyz
x,y,z
1/2-x,-y,z
1/2+x,-y,1/2-z
-x,y,1/2-z
-x,-y,-z
1/2+x,y,-z
1/2-x,y,1/2+z
x,-y,1/2+z
loop_
_atom_site_type_symbol
_atom_site_label
_atom_site_fract_x
_atom_site_fract_y
_atom_site_fract_z
Si Si1 0.634818 0.805076 0.230210
Si Si2 0.133210 0.452288 0.659807
Si Si3 0.811936 0.258782 0.876925
Si Si4 0.622083 0.958296 0.103997
Si Si5 0.998324 0.870049 0.062877
Si Si6 0.209242 0.732777 0.429046
Si Si7 0.129879 0.547886 0.369760
O O1 0.500000 0.770246 0.250000
O O2 0.703580 0.790644 0.324859
O O3 0.635633 0.908121 0.200498
O O4 0.693070 0.748441 0.149994
O O5 0.250000 0.500000 0.612534
O O6 0.148013 0.347898 0.670609
O O7 0.128649 0.480348 0.764652
O O8 0.010364 0.480335 0.602694
O O9 0.921432 0.189453 0.871105
O O10 0.779686 0.288156 0.978762
O O11 0.750000 0.000000 0.070808
O O12 0.525170 0.037219 0.112835
O O13 0.571165 0.886872 0.031474
O O14 0.871312 0.818828 0.049233
O O15 0.130810 0.650067 0.396291
O O16 0.250000 0.500000 0.414989
#
# Coordination Sequence:
#
# PCOD8223598 Si02
#       7
#     8   8   8   8   8   8   8
#     4  12  27  44  67 106 146 189 244 298 362 438
#     4  10  22  42  69 107 140 179 245 299 360 440
#     4  12  25  43  75 104 141 194 237 299 367 437
#     4  11  23  45  71 107 147 189 243 295 364 431
#     4  11  23  44  76 101 144 189 238 306 351 430
#     4  12  24  47  72 103 143 190 241 296 368 435
#     4  10  22  44  72 100 142 189 233 302 370 435
#
# _framework density 22.879494999999999
#
# number of rings (size 3 to 8) (size 9 to 14) (size 15 to 20)
#    0.000    0.857    5.714    0.857    0.000    4.571 
#    0.000    1.429    0.000    0.000    0.000    0.000 
#    0.000    0.000    0.000    0.000    0.000    0.000 
#
# Total GULP energy -694064.325850 kJ/mol
# GULP energy per Si atom -12394.005819 kJ/mol
# Density = 2.282742 g / cm^3
# Si number density = 22.879495 Si / 1000 Ang^3
#
#
#
# Elastic Constant Matrix: (Units=GPa)
#
#
# Indices 1 2 3 4 5 6 
#
# 1 174.8454 55.3598 30.9038 0.0000 0.0000 0.0000
# 2 55.3598 114.2453 13.2743 0.0000 0.0000 0.0000
# 3 30.9038 13.2743 67.1769 0.0000 0.0000 0.0000
# 4 0.0000 0.0000 0.0000 17.9029 0.0000 0.0000
# 5 0.0000 0.0000 0.0000 0.0000 11.9258 0.0000
# 6 0.0000 0.0000 0.0000 0.0000 0.0000 43.0960
#
#
#
# Elastic Compliance Matrix: (Units=1/GPa)
#
#
# Indices 1 2 3 4 5 6 
#
# 1 0.007200 -0.003177 -0.002684 0.000000 0.000000 0.000000
# 2 -0.003177 0.010361 -0.000586 0.000000 0.000000 0.000000
# 3 -0.002684 -0.000586 0.016237 0.000000 0.000000 0.000000
# 4 0.000000 0.000000 0.000000 0.055857 0.000000 0.000000
# 5 0.000000 0.000000 0.000000 0.000000 0.083852 0.000000
# 6 0.000000 0.000000 0.000000 0.000000 0.000000 0.023204
#
#
# Mechanical properties :
#
#
# Convention : Reuss Voigt Hill
#
# Bulk Modulus (GPa) = 47.84017 61.70484 54.77250
# Shear Modulus (GPa) = 23.08706 31.70024 27.39365
#
# Velocity S-wave (km/s) = 3.18004 3.72631 3.46396
# Velocity P-wave (km/s) = 5.86843 6.74847 6.32378
#
# Compressibility (1/GPa) = 0.02090294
#
# Stress axis : x y z
#
# Youngs Moduli (GPa) = 138.89568 96.51988 61.58878
#
# Poissons Ratio (x) = 0.30663 0.16533
# Poissons Ratio (y) = 0.44125 0.03608
# Poissons Ratio (z) = 0.37284 0.05654
#
# Static dielectric constant tensor:
#      x y z
#    x 4.592750 0.000000 0.000000 
#    y 0.000000 4.071710 0.000000 
#    z 0.000000 0.000000 3.803050 
# 
# 
# High freq. dielectric constant tensor:
#      x y z
#    x 1.923730 0.000000 0.000000 
#    y 0.000000 1.903780 0.000000 
#    z 0.000000 0.000000 1.882400 
# 
# From -- ./inp_files/12739.got.cif
#   From: 2010.03.12/outbox.cif.g09.slc.cpg/sg54_7_cif.got.tgz:12739.got - 2010.04.16 15:00:50.
