data_PCOD8223113
_publ_section_title
;
Structure prediction by ZEFSAII (Michael W. Deem and Ramdas Pophale) SiO2 
 PCOD8223113
Probable space group: P C C A
;
_chemical_formula_sum "Si O2"
_cell_formula_units_Z 64
_cell_length_a 7.460204
_cell_length_b 21.583869
_cell_length_c 18.819219
_cell_angle_alpha 90.000000
_cell_angle_beta 90.000000
_cell_angle_gamma 90.000000
_cell_volume 3030.271883
_symmetry_space_group_name_H-M "P C C A"
_symmetry_group_IT_number 54
_symmetry_cell_setting 'orthorhombic'
loop_
_space_group_symop_operation_xyz
x,y,z
1/2-x,-y,z
1/2+x,-y,1/2-z
-x,y,1/2-z
-x,-y,-z
1/2+x,y,-z
1/2-x,y,1/2+z
x,-y,1/2+z
loop_
_atom_site_type_symbol
_atom_site_label
_atom_site_fract_x
_atom_site_fract_y
_atom_site_fract_z
Si Si1 0.967466 0.898573 0.401810
Si Si2 0.167611 0.377140 0.423852
Si Si3 0.877606 0.111479 0.060475
Si Si4 0.487325 0.636221 0.669110
Si Si5 0.562868 0.236457 0.393143
Si Si6 0.292377 0.571067 0.071351
Si Si7 0.543306 0.983195 0.170693
Si Si8 0.674162 0.755008 0.041659
O O1 0.879860 0.911281 0.478823
O O2 0.178655 0.895350 0.411662
O O3 0.900739 0.833812 0.364856
O O4 0.923473 0.956032 0.349209
O O5 0.321756 0.381215 0.364916
O O6 0.259774 0.392013 0.498869
O O7 0.087166 0.307251 0.426018
O O8 0.001680 0.422290 0.406384
O O9 0.003761 0.071044 0.113280
O O10 0.940750 0.183668 0.063019
O O11 0.500000 0.616049 0.750000
O O12 0.433534 0.709505 0.665793
O O13 0.331396 0.596178 0.633931
O O14 0.372301 0.237437 0.430581
O O15 0.700393 0.251575 0.456585
O O16 0.250000 0.500000 0.057135
O O17 0.500000 0.960207 0.250000
O O18 0.750000 0.000000 0.164601
#
# Coordination Sequence:
#
# PCOD8223113 Si02
#       8
#     8   8   8   8   8   8   8   8
#     4   9  18  32  54  81 107 144 190 241 294 350
#     4  11  21  40  71  93 129 163 215 267 308 375
#     4   9  18  32  53  80 109 137 190 243 293 342
#     4  11  25  42  61  95 134 172 209 263 325 372
#     4   9  17  32  57  82 114 147 194 251 299 363
#     4  12  24  41  69 101 124 167 221 262 310 382
#     4  10  21  35  50  71 110 151 187 234 292 357
#     4   9  16  31  57  85 106 146 191 246 299 348
#
# _framework density 21.120215999999999
#
# number of rings (size 3 to 8) (size 9 to 14) (size 15 to 20)
#    0.000    2.000    2.500    1.500    0.000    2.000 
#    2.250    0.000   11.000    0.000    0.000    0.000 
#    0.000    0.000    0.000    0.000    0.000    0.000 
#
# Total GULP energy -793232.396779 kJ/mol
# GULP energy per Si atom -12394.256200 kJ/mol
# Density = 2.107215 g / cm^3
# Si number density = 21.120216 Si / 1000 Ang^3
#
#
#
# Elastic Constant Matrix: (Units=GPa)
#
#
# Indices 1 2 3 4 5 6 
#
# 1 38.9267 24.3884 21.4425 0.0000 0.0000 0.0000
# 2 24.3884 104.2773 44.6452 0.0000 0.0000 0.0000
# 3 21.4425 44.6452 117.2477 0.0000 0.0000 0.0000
# 4 0.0000 0.0000 0.0000 14.9411 0.0000 0.0000
# 5 0.0000 0.0000 0.0000 0.0000 22.2522 0.0000
# 6 0.0000 0.0000 0.0000 0.0000 0.0000 22.2428
#
#
#
# Elastic Compliance Matrix: (Units=1/GPa)
#
#
# Indices 1 2 3 4 5 6 
#
# 1 0.031260 -0.005811 -0.003504 0.000000 0.000000 0.000000
# 2 -0.005811 0.012538 -0.003711 0.000000 0.000000 0.000000
# 3 -0.003504 -0.003711 0.010583 0.000000 0.000000 0.000000
# 4 0.000000 0.000000 0.000000 0.066930 0.000000 0.000000
# 5 0.000000 0.000000 0.000000 0.000000 0.044939 0.000000
# 6 0.000000 0.000000 0.000000 0.000000 0.000000 0.044958
#
#
# Mechanical properties :
#
#
# Convention : Reuss Voigt Hill
#
# Bulk Modulus (GPa) = 35.30071 49.04488 42.17280
# Shear Modulus (GPa) = 20.26718 23.21892 21.74305
#
# Velocity S-wave (km/s) = 3.10112 3.31927 3.21205
# Velocity P-wave (km/s) = 5.43811 6.16135 5.81099
#
# Compressibility (1/GPa) = 0.02832804
#
# Stress axis : x y z
#
# Youngs Moduli (GPa) = 31.98948 79.75840 94.49066
#
# Poissons Ratio (x) = 0.46346 0.33113
# Poissons Ratio (y) = 0.18589 0.35070
# Poissons Ratio (z) = 0.11210 0.29602
#
# Static dielectric constant tensor:
#      x y z
#    x 3.728620 0.000000 0.000000 
#    y 0.000000 4.575130 0.000000 
#    z 0.000000 0.000000 3.606470 
# 
# 
# High freq. dielectric constant tensor:
#      x y z
#    x 1.823930 0.000000 0.000000 
#    y 0.000000 1.842900 0.000000 
#    z 0.000000 0.000000 1.789880 
# 
# From -- ./inp_files/16860.got.cif
#   From: 2010.03.12/outbox.cif.g09.slc.cpg/sg54_9_cif.got.tgz:16860.got - 2010.04.16 15:00:50.
