data_PCOD8223661
_publ_section_title
;
Structure prediction by ZEFSAII (Michael W. Deem and Ramdas Pophale) SiO2 
 PCOD8223661
Probable space group: P C C A
;
_chemical_formula_sum "Si O2"
_cell_formula_units_Z 44
_cell_length_a 22.174637
_cell_length_b 8.876145
_cell_length_c 10.194311
_cell_angle_alpha 90.000000
_cell_angle_beta 90.000000
_cell_angle_gamma 90.000000
_cell_volume 2006.498253
_symmetry_space_group_name_H-M "P C C A"
_symmetry_group_IT_number 54
_symmetry_cell_setting 'orthorhombic'
loop_
_space_group_symop_operation_xyz
x,y,z
1/2-x,-y,z
1/2+x,-y,1/2-z
-x,y,1/2-z
-x,-y,-z
1/2+x,y,-z
1/2-x,y,1/2+z
x,-y,1/2+z
loop_
_atom_site_type_symbol
_atom_site_label
_atom_site_fract_x
_atom_site_fract_y
_atom_site_fract_z
Si Si1 0.082478 0.733947 0.075923
Si Si2 0.304687 0.334231 0.761962
Si Si3 0.656072 0.476216 0.998883
Si Si4 0.826000 0.221542 0.691736
Si Si5 0.500000 0.890242 0.750000
Si Si6 0.884770 0.075089 0.165410
O O1 0.091049 0.563666 0.017999
O O2 0.130987 0.739451 0.189818
O O3 0.015711 0.775018 0.130107
O O4 0.097953 0.865532 0.976019
O O5 0.311538 0.453973 0.643039
O O6 0.241346 0.249925 0.759019
O O7 0.359314 0.214132 0.748252
O O8 0.304608 0.419921 0.902282
O O9 0.649637 0.314488 0.066191
O O10 0.831719 0.047273 0.650165
O O11 0.443313 0.998759 0.770804
#
# Coordination Sequence:
#
# PCOD8223661 Si02
#       6
#     8   8   8   8   4   8
#     4  10  23  44  67  97 134 175 233 275 339 401
#     4  11  25  42  67 103 138 178 223 268 346 410
#     4  11  24  41  66  99 139 178 218 273 332 410
#     4  11  24  39  69  98 141 177 217 276 340 413
#     4  10  22  46  72  92 126 180 228 294 342 384
#     4  10  24  45  68  99 130 176 231 285 337 405
#
# _framework density 21.928751999999999
#
# number of rings (size 3 to 8) (size 9 to 14) (size 15 to 20)
#    0.000    1.455    1.818    1.636   12.727    0.000 
#    0.000    4.545    0.000    0.000    0.000    0.000 
#    0.000    0.000    0.000    0.000    0.000    0.000 
#
# Total GULP energy -545217.554160 kJ/mol
# GULP energy per Si atom -12391.308049 kJ/mol
# Density = 2.187884 g / cm^3
# Si number density = 21.928752 Si / 1000 Ang^3
#
#
#
# Elastic Constant Matrix: (Units=GPa)
#
#
# Indices 1 2 3 4 5 6 
#
# 1 101.3291 45.1496 28.2347 0.0000 0.0000 0.0000
# 2 45.1496 117.2442 36.7562 0.0000 0.0000 0.0000
# 3 28.2347 36.7562 93.6306 0.0000 0.0000 0.0000
# 4 0.0000 0.0000 0.0000 38.4781 0.0000 0.0000
# 5 0.0000 0.0000 0.0000 0.0000 18.8458 0.0000
# 6 0.0000 0.0000 0.0000 0.0000 0.0000 36.4948
#
#
#
# Elastic Compliance Matrix: (Units=1/GPa)
#
#
# Indices 1 2 3 4 5 6 
#
# 1 0.012266 -0.004064 -0.002103 0.000000 0.000000 0.000000
# 2 -0.004064 0.011073 -0.003121 0.000000 0.000000 0.000000
# 3 -0.002103 -0.003121 0.012540 0.000000 0.000000 0.000000
# 4 0.000000 0.000000 0.000000 0.025989 0.000000 0.000000
# 5 0.000000 0.000000 0.000000 0.000000 0.053062 0.000000
# 6 0.000000 0.000000 0.000000 0.000000 0.000000 0.027401
#
#
# Mechanical properties :
#
#
# Convention : Reuss Voigt Hill
#
# Bulk Modulus (GPa) = 57.80008 59.16499 58.48254
# Shear Modulus (GPa) = 29.99851 32.23463 31.11657
#
# Velocity S-wave (km/s) = 3.70266 3.83818 3.77103
# Velocity P-wave (km/s) = 6.68543 6.83237 6.75930
#
# Compressibility (1/GPa) = 0.01730101
#
# Stress axis : x y z
#
# Youngs Moduli (GPa) = 81.52783 90.31191 79.74566
#
# Poissons Ratio (x) = 0.36703 0.16774
# Poissons Ratio (y) = 0.33133 0.24891
# Poissons Ratio (z) = 0.17149 0.28189
#
# Static dielectric constant tensor:
#      x y z
#    x 6.511150 0.000000 0.000000 
#    y 0.000000 4.739360 0.000000 
#    z 0.000000 0.000000 4.386600 
# 
# 
# High freq. dielectric constant tensor:
#      x y z
#    x 1.843430 0.000000 0.000000 
#    y 0.000000 1.879110 0.000000 
#    z 0.000000 0.000000 1.867730 
# 
# From -- ./inp_files/9842.got.cif
#   From: 2010.03.12/outbox.cif.g09.slc.cpg/sg54_5_cif.got.tgz:9842.got - 2010.04.16 15:00:50.
