data_PCOD8223078
_publ_section_title
;
Structure prediction by ZEFSAII (Michael W. Deem and Ramdas Pophale) SiO2 
 PCOD8223078
Probable space group: P C C A
;
_chemical_formula_sum "Si O2"
_cell_formula_units_Z 48
_cell_length_a 22.433447
_cell_length_b 7.829454
_cell_length_c 12.777468
_cell_angle_alpha 90.000000
_cell_angle_beta 90.000000
_cell_angle_gamma 90.000000
_cell_volume 2244.255452
_symmetry_space_group_name_H-M "P C C A"
_symmetry_group_IT_number 54
_symmetry_cell_setting 'orthorhombic'
loop_
_space_group_symop_operation_xyz
x,y,z
1/2-x,-y,z
1/2+x,-y,1/2-z
-x,y,1/2-z
-x,-y,-z
1/2+x,y,-z
1/2-x,y,1/2+z
x,-y,1/2+z
loop_
_atom_site_type_symbol
_atom_site_label
_atom_site_fract_x
_atom_site_fract_y
_atom_site_fract_z
Si Si1 0.115262 0.904906 0.843242
Si Si2 0.854018 0.283631 0.947356
Si Si3 0.500000 0.220765 0.750000
Si Si4 0.250000 0.500000 0.475331
Si Si5 0.843851 0.239037 0.549558
Si Si6 0.314480 0.048001 0.652381
Si Si7 0.055474 0.436087 0.065649
O O1 0.044981 0.899755 0.815727
O O2 0.138593 0.096834 0.865925
O O3 0.151696 0.843567 0.741131
O O4 0.128511 0.773399 0.935369
O O5 0.852080 0.122505 0.871332
O O6 0.905176 0.402607 0.899032
O O7 0.791046 0.382097 0.950389
O O8 0.536453 0.338074 0.830094
O O9 0.203870 0.618992 0.406645
O O10 0.905768 0.318065 0.511209
O O11 0.808357 0.157503 0.452430
O O12 0.250000 0.000000 0.695687
O O13 0.000000 0.500000 0.000000
#
# Coordination Sequence:
#
# PCOD8223078 Si02
#       7
#     8   8   4   4   8   8   8
#     4  11  25  41  66  97 126 177 224 264 322 397
#     4  10  23  42  65  93 132 172 212 269 335 389
#     4  12  24  44  66  94 134 172 234 276 318 398
#     4  10  20  42  64  92 132 168 208 270 332 396
#     4  10  23  42  67  94 130 172 215 264 338 385
#     4  11  22  40  64  97 130 168 213 270 325 396
#     4  11  23  43  66  93 131 171 216 275 328 380
#
# _framework density 21.387941000000001
#
# number of rings (size 3 to 8) (size 9 to 14) (size 15 to 20)
#    0.000    1.333    5.000    0.000    2.333    3.333 
#    0.000    1.667    0.000    0.000    0.000    0.000 
#    0.000    0.000    0.000    0.000    0.000    0.000 
#
# Total GULP energy -595137.769698 kJ/mol
# GULP energy per Si atom -12398.703535 kJ/mol
# Density = 2.133926 g / cm^3
# Si number density = 21.387941 Si / 1000 Ang^3
#
#
#
# Elastic Constant Matrix: (Units=GPa)
#
#
# Indices 1 2 3 4 5 6 
#
# 1 152.7247 48.7317 41.0523 0.0000 0.0000 0.0000
# 2 48.7317 96.1463 27.1967 0.0000 0.0000 0.0000
# 3 41.0523 27.1967 83.6567 0.0000 0.0000 0.0000
# 4 0.0000 0.0000 0.0000 5.7687 0.0000 0.0000
# 5 0.0000 0.0000 0.0000 0.0000 26.3588 0.0000
# 6 0.0000 0.0000 0.0000 0.0000 0.0000 48.6621
#
#
#
# Elastic Compliance Matrix: (Units=1/GPa)
#
#
# Indices 1 2 3 4 5 6 
#
# 1 0.008458 -0.003428 -0.003036 0.000000 0.000000 0.000000
# 2 -0.003428 0.012844 -0.002493 0.000000 0.000000 0.000000
# 3 -0.003036 -0.002493 0.014254 0.000000 0.000000 0.000000
# 4 0.000000 0.000000 0.000000 0.173351 0.000000 0.000000
# 5 0.000000 0.000000 0.000000 0.000000 0.037938 0.000000
# 6 0.000000 0.000000 0.000000 0.000000 0.000000 0.020550
#
#
# Mechanical properties :
#
#
# Convention : Reuss Voigt Hill
#
# Bulk Modulus (GPa) = 56.68657 62.94323 59.81490
# Shear Modulus (GPa) = 17.17103 30.52771 23.84937
#
# Velocity S-wave (km/s) = 2.83651 3.78210 3.34291
# Velocity P-wave (km/s) = 6.10649 6.96890 6.55190
#
# Compressibility (1/GPa) = 0.01764086
#
# Stress axis : x y z
#
# Youngs Moduli (GPa) = 118.23716 77.86023 70.15596
#
# Poissons Ratio (x) = 0.26690 0.21299
# Poissons Ratio (y) = 0.40531 0.17492
# Poissons Ratio (z) = 0.35896 0.19412
#
# Static dielectric constant tensor:
#      x y z
#    x 3.958900 0.000000 0.000000 
#    y 0.000000 4.139120 0.000000 
#    z 0.000000 0.000000 3.538810 
# 
# 
# High freq. dielectric constant tensor:
#      x y z
#    x 1.858630 0.000000 0.000000 
#    y 0.000000 1.846250 0.000000 
#    z 0.000000 0.000000 1.814630 
# 
# From -- ./inp_files/9937.got.cif
#   From: 2010.03.12/outbox.cif.g09.slc.cpg/sg54_5_cif.got.tgz:9937.got - 2010.04.16 15:00:50.
