data_PCOD8223076
_publ_section_title
;
Structure prediction by ZEFSAII (Michael W. Deem and Ramdas Pophale) SiO2 
 PCOD8223076
Probable space group: P C C A
;
_chemical_formula_sum "Si O2"
_cell_formula_units_Z 48
_cell_length_a 9.861518
_cell_length_b 14.916189
_cell_length_c 16.941504
_cell_angle_alpha 90.000000
_cell_angle_beta 90.000000
_cell_angle_gamma 90.000000
_cell_volume 2492.031984
_symmetry_space_group_name_H-M "P C C A"
_symmetry_group_IT_number 54
_symmetry_cell_setting 'orthorhombic'
loop_
_space_group_symop_operation_xyz
x,y,z
1/2-x,-y,z
1/2+x,-y,1/2-z
-x,y,1/2-z
-x,-y,-z
1/2+x,y,-z
1/2-x,y,1/2+z
x,-y,1/2+z
loop_
_atom_site_type_symbol
_atom_site_label
_atom_site_fract_x
_atom_site_fract_y
_atom_site_fract_z
Si Si1 0.906000 0.500429 0.679791
Si Si2 0.220558 0.261610 0.670193
Si Si3 0.005810 0.315975 0.394072
Si Si4 0.654967 0.082375 0.262255
Si Si5 0.482660 0.342066 0.423573
Si Si6 0.233485 0.230623 0.842965
O O1 0.750000 0.500000 0.707143
O O2 0.000000 0.462787 0.750000
O O3 0.958402 0.599063 0.659043
O O4 0.920358 0.436355 0.603896
O O5 0.368833 0.269013 0.633526
O O6 0.167741 0.157828 0.668389
O O7 0.125069 0.325853 0.619656
O O8 0.221855 0.291717 0.762654
O O9 0.002273 0.347803 0.483677
O O10 0.120474 0.240348 0.383091
O O11 0.500000 0.050976 0.250000
O O12 0.709509 0.126585 0.180268
O O13 0.750000 0.000000 0.285836
O O14 0.380512 0.261458 0.404101
#
# Coordination Sequence:
#
# PCOD8223076 Si02
#       6
#     8   8   8   8   8   8
#     4  12  27  43  63  91 128 169 227 267 302 366
#     4  10  22  40  67  92 125 161 217 255 314 375
#     4  12  25  39  64  96 127 171 215 258 322 372
#     4  10  22  39  70  99 124 160 214 266 312 375
#     4  12  23  43  63  90 133 174 205 268 321 371
#     4  10  20  42  63  93 125 161 216 255 312 371
#
# _framework density 19.261389000000001
#
# number of rings (size 3 to 8) (size 9 to 14) (size 15 to 20)
#    1.000    0.000    3.333    4.500    4.667    0.000 
#    0.000    0.000    0.000    6.000    0.000    0.000 
#    0.000    0.000    0.000    0.000    0.000    0.000 
#
# Total GULP energy -595150.773460 kJ/mol
# GULP energy per Si atom -12398.974447 kJ/mol
# Density = 1.921755 g / cm^3
# Si number density = 19.261389 Si / 1000 Ang^3
#
#
#
# Elastic Constant Matrix: (Units=GPa)
#
#
# Indices 1 2 3 4 5 6 
#
# 1 151.5577 20.7092 28.3761 0.0000 0.0000 0.0000
# 2 20.7092 65.4699 0.2185 0.0000 0.0000 0.0000
# 3 28.3761 0.2185 78.8727 0.0000 0.0000 0.0000
# 4 0.0000 0.0000 0.0000 14.0521 0.0000 0.0000
# 5 0.0000 0.0000 0.0000 0.0000 26.6376 0.0000
# 6 0.0000 0.0000 0.0000 0.0000 0.0000 27.2526
#
#
#
# Elastic Compliance Matrix: (Units=1/GPa)
#
#
# Indices 1 2 3 4 5 6 
#
# 1 0.007416 -0.002337 -0.002662 0.000000 0.000000 0.000000
# 2 -0.002337 0.016011 0.000796 0.000000 0.000000 0.000000
# 3 -0.002662 0.000796 0.013634 0.000000 0.000000 0.000000
# 4 0.000000 0.000000 0.000000 0.071164 0.000000 0.000000
# 5 0.000000 0.000000 0.000000 0.000000 0.037541 0.000000
# 6 0.000000 0.000000 0.000000 0.000000 0.000000 0.036694
#
#
# Mechanical properties :
#
#
# Convention : Reuss Voigt Hill
#
# Bulk Modulus (GPa) = 34.89608 43.83421 39.36515
# Shear Modulus (GPa) = 24.94824 30.02822 27.48823
#
# Velocity S-wave (km/s) = 3.60286 3.95268 3.78182
# Velocity P-wave (km/s) = 5.95516 6.60595 6.28898
#
# Compressibility (1/GPa) = 0.02865652
#
# Stress axis : x y z
#
# Youngs Moduli (GPa) = 134.84770 62.45813 73.34619
#
# Poissons Ratio (x) = 0.14596 0.19521
# Poissons Ratio (y) = 0.31512 -0.05841
# Poissons Ratio (z) = 0.35890 -0.04974
#
# Static dielectric constant tensor:
#      x y z
#    x 3.636820 0.000000 0.000000 
#    y 0.000000 3.265450 0.000000 
#    z 0.000000 0.000000 3.364520 
# 
# 
# High freq. dielectric constant tensor:
#      x y z
#    x 1.770700 0.000000 0.000000 
#    y 0.000000 1.728620 0.000000 
#    z 0.000000 0.000000 1.732570 
# 
# From -- ./inp_files/16608.got.cif
#   From: 2010.03.12/outbox.cif.g09.slc.cpg/sg54_9_cif.got.tgz:16608.got - 2010.04.16 15:00:50.
