data_PCOD8223294
_publ_section_title
;
Structure prediction by ZEFSAII (Michael W. Deem and Ramdas Pophale) SiO2 
 PCOD8223294
Probable space group: P C C A
;
_chemical_formula_sum "Si O2"
_cell_formula_units_Z 48
_cell_length_a 21.154119
_cell_length_b 5.195046
_cell_length_c 19.829905
_cell_angle_alpha 90.000000
_cell_angle_beta 90.000000
_cell_angle_gamma 90.000000
_cell_volume 2179.239560
_symmetry_space_group_name_H-M "P C C A"
_symmetry_group_IT_number 54
_symmetry_cell_setting 'orthorhombic'
loop_
_space_group_symop_operation_xyz
x,y,z
1/2-x,-y,z
1/2+x,-y,1/2-z
-x,y,1/2-z
-x,-y,-z
1/2+x,y,-z
1/2-x,y,1/2+z
x,-y,1/2+z
loop_
_atom_site_type_symbol
_atom_site_label
_atom_site_fract_x
_atom_site_fract_y
_atom_site_fract_z
Si Si1 0.709000 0.752683 0.785232
Si Si2 0.891182 0.353211 0.669732
Si Si3 0.977672 0.216754 0.450818
Si Si4 0.791611 0.755757 0.437935
Si Si5 0.890889 0.478260 0.028304
Si Si6 0.970484 0.861792 0.681245
O O1 0.750000 0.500000 0.785056
O O2 0.655312 0.707903 0.730677
O O3 0.682285 0.791209 0.861491
O O4 0.750000 0.000000 0.763560
O O5 0.857305 0.427921 0.597934
O O6 0.936059 0.587979 0.692793
O O7 0.924694 0.083651 0.653830
O O8 0.906808 0.306042 0.471707
O O9 0.037062 0.413583 0.450081
O O10 0.971741 0.142998 0.372271
O O11 0.000000 0.000000 0.500000
O O12 0.750000 0.500000 0.446034
O O13 0.849712 0.740296 0.491163
O O14 0.750000 0.000000 0.459574
O O15 0.000000 0.960293 0.750000
#
# Coordination Sequence:
#
# PCOD8223294 Si02
#       6
#     8   8   8   8   8   8
#     4  10  22  43  64  91 125 166 214 267 325 382
#     4  11  23  41  62  93 126 165 213 264 319 389
#     4  10  21  40  63  91 131 172 211 265 331 390
#     4  10  24  42  65  96 126 167 221 269 324 392
#     4  10  23  40  64  93 131 172 214 270 328 394
#     4  11  24  39  60  96 128 163 216 259 317 395
#
# _framework density 22.026033000000002
#
# number of rings (size 3 to 8) (size 9 to 14) (size 15 to 20)
#    0.000    1.667    1.667    1.500    4.667    2.000 
#    0.000    1.667    0.000    0.000    0.000    0.000 
#    0.000    0.000    0.000    0.000    0.000    0.000 
#
# Total GULP energy -594705.396462 kJ/mol
# GULP energy per Si atom -12389.695760 kJ/mol
# Density = 2.197590 g / cm^3
# Si number density = 22.026033 Si / 1000 Ang^3
#
#
#
# Elastic Constant Matrix: (Units=GPa)
#
#
# Indices 1 2 3 4 5 6 
#
# 1 62.3711 24.0259 55.0742 0.0000 0.0000 0.0000
# 2 24.0259 112.4672 30.1463 0.0000 0.0000 0.0000
# 3 55.0742 30.1463 181.7564 0.0000 0.0000 0.0000
# 4 0.0000 0.0000 0.0000 29.4851 0.0000 0.0000
# 5 0.0000 0.0000 0.0000 0.0000 33.1573 0.0000
# 6 0.0000 0.0000 0.0000 0.0000 0.0000 34.1071
#
#
#
# Elastic Compliance Matrix: (Units=1/GPa)
#
#
# Indices 1 2 3 4 5 6 
#
# 1 0.022925 -0.003177 -0.006420 0.000000 0.000000 0.000000
# 2 -0.003177 0.009745 -0.000654 0.000000 0.000000 0.000000
# 3 -0.006420 -0.000654 0.007556 0.000000 0.000000 0.000000
# 4 0.000000 0.000000 0.000000 0.033915 0.000000 0.000000
# 5 0.000000 0.000000 0.000000 0.000000 0.030159 0.000000
# 6 0.000000 0.000000 0.000000 0.000000 0.000000 0.029319
#
#
# Mechanical properties :
#
#
# Convention : Reuss Voigt Hill
#
# Bulk Modulus (GPa) = 50.69487 63.89861 57.29674
# Shear Modulus (GPa) = 31.11456 35.83977 33.47716
#
# Velocity S-wave (km/s) = 3.76257 4.03818 3.90281
# Velocity P-wave (km/s) = 6.47625 7.12853 6.81020
#
# Compressibility (1/GPa) = 0.01972586
#
# Stress axis : x y z
#
# Youngs Moduli (GPa) = 43.61955 102.61305 132.35253
#
# Poissons Ratio (x) = 0.32597 0.84968
# Poissons Ratio (y) = 0.13857 0.08653
# Poissons Ratio (z) = 0.28003 0.06709
#
# Static dielectric constant tensor:
#      x y z
#    x 3.947190 0.000000 0.000000 
#    y 0.000000 4.103190 0.000000 
#    z 0.000000 0.000000 4.647780 
# 
# 
# High freq. dielectric constant tensor:
#      x y z
#    x 1.832170 0.000000 0.000000 
#    y 0.000000 1.880200 0.000000 
#    z 0.000000 0.000000 1.890920 
# 
# From -- ./inp_files/22074.got.cif
#   From: 2010.03.12/outbox.cif.g09.slc.cpg/sg54_12_cif.got.tgz:22074.got - 2010.04.16 15:00:50.
