data_PCOD8223031
_publ_section_title
;
Structure prediction by ZEFSAII (Michael W. Deem and Ramdas Pophale) SiO2 
 PCOD8223031
Probable space group: P C C A
;
_chemical_formula_sum "Si O2"
_cell_formula_units_Z 40
_cell_length_a 12.121761
_cell_length_b 11.836038
_cell_length_c 13.680064
_cell_angle_alpha 90.000000
_cell_angle_beta 90.000000
_cell_angle_gamma 90.000000
_cell_volume 1962.728356
_symmetry_space_group_name_H-M "P C C A"
_symmetry_group_IT_number 54
_symmetry_cell_setting 'orthorhombic'
loop_
_space_group_symop_operation_xyz
x,y,z
1/2-x,-y,z
1/2+x,-y,1/2-z
-x,y,1/2-z
-x,-y,-z
1/2+x,y,-z
1/2-x,y,1/2+z
x,-y,1/2+z
loop_
_atom_site_type_symbol
_atom_site_label
_atom_site_fract_x
_atom_site_fract_y
_atom_site_fract_z
Si Si1 0.147971 0.794744 0.956831
Si Si2 0.178580 0.308026 0.257978
Si Si3 0.500000 0.514033 0.250000
Si Si4 0.055889 0.881797 0.651986
Si Si5 0.339097 0.596882 0.613283
Si Si6 0.750000 0.000000 0.440961
O O1 0.205013 0.760733 0.855311
O O2 0.029525 0.853161 0.935481
O O3 0.137948 0.686242 0.027397
O O4 0.231939 0.887309 0.997286
O O5 0.114372 0.236147 0.176397
O O6 0.293030 0.343307 0.210466
O O7 0.102876 0.413327 0.288909
O O8 0.542652 0.448054 0.347319
O O9 0.141119 0.979464 0.623054
O O10 0.000000 0.930362 0.750000
O O11 0.250000 0.500000 0.579544
#
# Coordination Sequence:
#
# PCOD8223031 Si02
#       6
#     8   8   4   8   8   4
#     4  11  23  41  66  96 130 169 219 268 323 391
#     4  10  20  43  61  88 135 169 201 270 332 377
#     4  10  20  40  62  88 132 166 214 262 324 390
#     4  10  22  43  66  89 132 176 208 269 333 376
#     4  10  23  40  64  99 127 171 215 265 325 393
#     4  12  24  42  68  98 128 170 228 268 316 406
#
# _framework density 20.379795000000001
#
# number of rings (size 3 to 8) (size 9 to 14) (size 15 to 20)
#    0.000    1.600    5.000    0.600    0.000    8.000 
#    1.800    0.000    0.000    0.000    0.000    0.000 
#    0.000    0.000    0.000    0.000    0.000    0.000 
#
# Total GULP energy -495855.213855 kJ/mol
# GULP energy per Si atom -12396.380346 kJ/mol
# Density = 2.033341 g / cm^3
# Si number density = 20.379795 Si / 1000 Ang^3
#
#
#
# Elastic Constant Matrix: (Units=GPa)
#
#
# Indices 1 2 3 4 5 6 
#
# 1 86.4010 27.2062 47.5345 0.0000 0.0000 0.0000
# 2 27.2062 78.6833 51.3869 0.0000 0.0000 0.0000
# 3 47.5345 51.3869 93.3535 0.0000 0.0000 0.0000
# 4 0.0000 0.0000 0.0000 18.9315 0.0000 0.0000
# 5 0.0000 0.0000 0.0000 0.0000 27.9189 0.0000
# 6 0.0000 0.0000 0.0000 0.0000 0.0000 26.8742
#
#
#
# Elastic Compliance Matrix: (Units=1/GPa)
#
#
# Indices 1 2 3 4 5 6 
#
# 1 0.016084 -0.000332 -0.008007 0.000000 0.000000 0.000000
# 2 -0.000332 0.019849 -0.010757 0.000000 0.000000 0.000000
# 3 -0.008007 -0.010757 0.020710 0.000000 0.000000 0.000000
# 4 0.000000 0.000000 0.000000 0.052822 0.000000 0.000000
# 5 0.000000 0.000000 0.000000 0.000000 0.035818 0.000000
# 6 0.000000 0.000000 0.000000 0.000000 0.000000 0.037210
#
#
# Mechanical properties :
#
#
# Convention : Reuss Voigt Hill
#
# Bulk Modulus (GPa) = 54.19694 56.74368 55.47031
# Shear Modulus (GPa) = 22.04239 23.56559 22.80399
#
# Velocity S-wave (km/s) = 3.29231 3.40416 3.34870
# Velocity P-wave (km/s) = 6.41121 6.58442 6.49839
#
# Compressibility (1/GPa) = 0.01845123
#
# Stress axis : x y z
#
# Youngs Moduli (GPa) = 62.17550 50.37969 48.28539
#
# Poissons Ratio (x) = 0.01673 0.38661
# Poissons Ratio (y) = 0.02065 0.51941
# Poissons Ratio (z) = 0.49782 0.54194
#
# Static dielectric constant tensor:
#      x y z
#    x 3.688960 0.000000 0.000000 
#    y 0.000000 3.757060 0.000000 
#    z 0.000000 0.000000 3.674780 
# 
# 
# High freq. dielectric constant tensor:
#      x y z
#    x 1.793130 0.000000 0.000000 
#    y 0.000000 1.798560 0.000000 
#    z 0.000000 0.000000 1.791360 
# 
# From -- ./inp_files/12498.got.cif
#   From: 2010.03.12/outbox.cif.g09.slc.cpg/sg54_7_cif.got.tgz:12498.got - 2010.04.16 15:00:50.
