data_PCOD8223366
_publ_section_title
;
Structure prediction by ZEFSAII (Michael W. Deem and Ramdas Pophale) SiO2 
 PCOD8223366
Probable space group: P C C A
;
_chemical_formula_sum "Si O2"
_cell_formula_units_Z 56
_cell_length_a 20.959806
_cell_length_b 8.793710
_cell_length_c 14.499104
_cell_angle_alpha 90.000000
_cell_angle_beta 90.000000
_cell_angle_gamma 90.000000
_cell_volume 2672.394461
_symmetry_space_group_name_H-M "P C C A"
_symmetry_group_IT_number 54
_symmetry_cell_setting 'orthorhombic'
loop_
_space_group_symop_operation_xyz
x,y,z
1/2-x,-y,z
1/2+x,-y,1/2-z
-x,y,1/2-z
-x,-y,-z
1/2+x,y,-z
1/2-x,y,1/2+z
x,-y,1/2+z
loop_
_atom_site_type_symbol
_atom_site_label
_atom_site_fract_x
_atom_site_fract_y
_atom_site_fract_z
Si Si1 0.983522 0.749708 0.148305
Si Si2 0.880523 0.506390 0.099889
Si Si3 0.111290 0.771026 0.035601
Si Si4 0.256710 0.170868 0.123515
Si Si5 0.675305 0.731329 0.213438
Si Si6 0.616604 0.002449 0.630582
Si Si7 0.785246 0.763627 0.075124
O O1 0.941391 0.616375 0.103025
O O2 0.947664 0.911229 0.150590
O O3 0.000000 0.694299 0.250000
O O4 0.047277 0.778906 0.093054
O O5 0.867060 0.421260 0.198589
O O6 0.817380 0.599787 0.076055
O O7 0.890816 0.386669 0.018841
O O8 0.170460 0.776708 0.107835
O O9 0.112338 0.915681 0.968262
O O10 0.221559 0.280353 0.198267
O O11 0.250000 0.000000 0.162212
O O12 0.217927 0.179268 0.029090
O O13 0.715019 0.750937 0.117868
O O14 0.627912 0.877212 0.214267
O O15 0.675491 0.885691 0.633902
#
# Coordination Sequence:
#
# PCOD8223366 Si02
#       7
#     8   8   8   8   8   8   8
#     4  11  26  42  66  93 126 176 232 271 320 384
#     4  10  24  44  64  88 136 177 214 269 326 397
#     4  11  23  43  64  95 127 179 218 262 336 396
#     4  12  23  37  70 104 133 165 220 278 336 411
#     4  11  23  39  65  99 132 166 214 270 337 385
#     4  10  21  42  68  89 134 171 213 277 324 393
#     4  11  20  41  62  97 133 169 207 265 341 395
#
# _framework density 20.954991
#
# number of rings (size 3 to 8) (size 9 to 14) (size 15 to 20)
#    0.000    1.143    4.286    2.571    6.000    1.143 
#    2.571    2.857    0.000    0.000    0.000    0.000 
#    0.000    0.000    0.000    0.000    0.000    0.000 
#
# Total GULP energy -694522.736550 kJ/mol
# GULP energy per Si atom -12402.191724 kJ/mol
# Density = 2.090730 g / cm^3
# Si number density = 20.954991 Si / 1000 Ang^3
#
#
#
# Elastic Constant Matrix: (Units=GPa)
#
#
# Indices 1 2 3 4 5 6 
#
# 1 120.2706 46.8075 26.5767 0.0000 0.0000 0.0000
# 2 46.8075 92.0719 4.4907 0.0000 0.0000 0.0000
# 3 26.5767 4.4907 65.8846 0.0000 0.0000 0.0000
# 4 0.0000 0.0000 0.0000 21.5018 0.0000 0.0000
# 5 0.0000 0.0000 0.0000 0.0000 38.3260 0.0000
# 6 0.0000 0.0000 0.0000 0.0000 0.0000 25.7350
#
#
#
# Elastic Compliance Matrix: (Units=1/GPa)
#
#
# Indices 1 2 3 4 5 6 
#
# 1 0.011430 -0.005605 -0.004229 0.000000 0.000000 0.000000
# 2 -0.005605 0.013645 0.001331 0.000000 0.000000 0.000000
# 3 -0.004229 0.001331 0.016793 0.000000 0.000000 0.000000
# 4 0.000000 0.000000 0.000000 0.046508 0.000000 0.000000
# 5 0.000000 0.000000 0.000000 0.000000 0.026092 0.000000
# 6 0.000000 0.000000 0.000000 0.000000 0.000000 0.038858
#
#
# Mechanical properties :
#
#
# Convention : Reuss Voigt Hill
#
# Bulk Modulus (GPa) = 40.21950 48.21964 44.21957
# Shear Modulus (GPa) = 27.99247 30.46937 29.23092
#
# Velocity S-wave (km/s) = 3.65888 3.81732 3.73894
# Velocity P-wave (km/s) = 6.08973 6.51846 6.30774
#
# Compressibility (1/GPa) = 0.02486356
#
# Stress axis : x y z
#
# Youngs Moduli (GPa) = 87.48686 73.28440 59.54805
#
# Poissons Ratio (x) = 0.41074 0.25181
# Poissons Ratio (y) = 0.49034 -0.07924
# Poissons Ratio (z) = 0.36996 -0.09752
#
# Static dielectric constant tensor:
#      x y z
#    x 3.846330 0.000000 0.000000 
#    y 0.000000 3.959820 0.000000 
#    z 0.000000 0.000000 3.577620 
# 
# 
# High freq. dielectric constant tensor:
#      x y z
#    x 1.823990 0.000000 0.000000 
#    y 0.000000 1.833730 0.000000 
#    z 0.000000 0.000000 1.807090 
# 
# From -- ./inp_files/14661.got.cif
#   From: 2010.03.12/outbox.cif.g09.slc.cpg/sg54_8_cif.got.tgz:14661.got - 2010.04.16 15:00:50.
