data_PCOD8223882
_publ_section_title
;
Structure prediction by ZEFSAII (Michael W. Deem and Ramdas Pophale) SiO2 
 PCOD8223882
Probable space group: P C C A
;
_chemical_formula_sum "Si O2"
_cell_formula_units_Z 36
_cell_length_a 20.458244
_cell_length_b 7.662319
_cell_length_c 9.144125
_cell_angle_alpha 90.000000
_cell_angle_beta 90.000000
_cell_angle_gamma 90.000000
_cell_volume 1433.411013
_symmetry_space_group_name_H-M "P C C A"
_symmetry_group_IT_number 54
_symmetry_cell_setting 'orthorhombic'
loop_
_space_group_symop_operation_xyz
x,y,z
1/2-x,-y,z
1/2+x,-y,1/2-z
-x,y,1/2-z
-x,-y,-z
1/2+x,y,-z
1/2-x,y,1/2+z
x,-y,1/2+z
loop_
_atom_site_type_symbol
_atom_site_label
_atom_site_fract_x
_atom_site_fract_y
_atom_site_fract_z
Si Si1 0.221259 0.806656 0.270503
Si Si2 0.000000 0.814493 0.250000
Si Si3 0.569945 0.147634 0.720350
Si Si4 0.668490 0.696710 0.418360
Si Si5 0.610191 0.316910 0.431197
O O1 0.275794 0.675087 0.205849
O O2 0.204407 0.757655 0.435555
O O3 0.156940 0.797290 0.171108
O O4 0.250000 0.000000 0.263328
O O5 0.964165 0.693013 0.368801
O O6 0.945000 0.944286 0.178606
O O7 0.500000 0.242565 0.750000
O O8 0.614142 0.162841 0.866341
O O9 0.611162 0.237910 0.592793
O O10 0.632209 0.515104 0.442328
#
# Coordination Sequence:
#
# PCOD8223882 Si02
#       5
#     8   4   8   8   8
#     4  12  28  50  80 111 155 202 260 319 390 461
#     4  10  26  44  76 110 158 200 254 308 382 462
#     4  10  26  48  75 111 160 198 259 308 387 460
#     4  12  27  50  79 115 151 200 261 324 389 453
#     4  12  26  48  78 111 155 201 255 319 384 452
#
# _framework density 25.114919
#
# number of rings (size 3 to 8) (size 9 to 14) (size 15 to 20)
#    0.667    0.000    0.000    6.000    4.667    6.222 
#    0.000    1.111    0.000    0.000    0.000    0.000 
#    0.000    0.000    0.000    0.000    0.000    0.000 
#
# Total GULP energy -446330.135968 kJ/mol
# GULP energy per Si atom -12398.059332 kJ/mol
# Density = 2.505776 g / cm^3
# Si number density = 25.114919 Si / 1000 Ang^3
#
#
#
# Elastic Constant Matrix: (Units=GPa)
#
#
# Indices 1 2 3 4 5 6 
#
# 1 109.6656 2.0691 41.2817 0.0000 0.0000 0.0000
# 2 2.0691 51.9055 -19.2659 0.0000 0.0000 0.0000
# 3 41.2817 -19.2659 108.7116 0.0000 0.0000 0.0000
# 4 0.0000 0.0000 0.0000 19.7958 0.0000 0.0000
# 5 0.0000 0.0000 0.0000 0.0000 57.6299 0.0000
# 6 0.0000 0.0000 0.0000 0.0000 0.0000 58.8278
#
#
#
# Elastic Compliance Matrix: (Units=1/GPa)
#
#
# Indices 1 2 3 4 5 6 
#
# 1 0.010849 -0.002100 -0.004492 0.000000 0.000000 0.000000
# 2 -0.002100 0.021029 0.004524 0.000000 0.000000 0.000000
# 3 -0.004492 0.004524 0.011706 0.000000 0.000000 0.000000
# 4 0.000000 0.000000 0.000000 0.050516 0.000000 0.000000
# 5 0.000000 0.000000 0.000000 0.000000 0.017352 0.000000
# 6 0.000000 0.000000 0.000000 0.000000 0.000000 0.016999
#
#
# Mechanical properties :
#
#
# Convention : Reuss Voigt Hill
#
# Bulk Modulus (GPa) = 25.34936 35.38360 30.36648
# Shear Modulus (GPa) = 34.30877 43.66389 38.98633
#
# Velocity S-wave (km/s) = 3.70005 4.17413 3.94422
# Velocity P-wave (km/s) = 5.32626 6.11150 5.73234
#
# Compressibility (1/GPa) = 0.03944872
#
# Stress axis : x y z
#
# Youngs Moduli (GPa) = 92.17311 47.55413 85.42524
#
# Poissons Ratio (x) = 0.09985 0.38372
# Poissons Ratio (y) = 0.19354 -0.38647
# Poissons Ratio (z) = 0.41403 -0.21514
#
# Static dielectric constant tensor:
#      x y z
#    x 5.028570 0.000000 0.000000 
#    y 0.000000 4.275140 0.000000 
#    z 0.000000 0.000000 4.427700 
# 
# 
# High freq. dielectric constant tensor:
#      x y z
#    x 2.030620 0.000000 0.000000 
#    y 0.000000 1.992230 0.000000 
#    z 0.000000 0.000000 1.998240 
# 
# From -- ./inp_files/4528.got.cif
#   From: 2010.03.12/outbox.cif.g09.slc.cpg/sg54_3_cif.got.tgz:4528.got - 2010.04.16 15:00:50.
