data_PCOD8223547
_publ_section_title
;
Structure prediction by ZEFSAII (Michael W. Deem and Ramdas Pophale) SiO2 
 PCOD8223547
Probable space group: P C C A
;
_chemical_formula_sum "Si O2"
_cell_formula_units_Z 64
_cell_length_a 17.160142
_cell_length_b 14.712104
_cell_length_c 11.706837
_cell_angle_alpha 90.000000
_cell_angle_beta 90.000000
_cell_angle_gamma 90.000000
_cell_volume 2955.529068
_symmetry_space_group_name_H-M "P C C A"
_symmetry_group_IT_number 54
_symmetry_cell_setting 'orthorhombic'
loop_
_space_group_symop_operation_xyz
x,y,z
1/2-x,-y,z
1/2+x,-y,1/2-z
-x,y,1/2-z
-x,-y,-z
1/2+x,y,-z
1/2-x,y,1/2+z
x,-y,1/2+z
loop_
_atom_site_type_symbol
_atom_site_label
_atom_site_fract_x
_atom_site_fract_y
_atom_site_fract_z
Si Si1 0.417789 0.604370 0.506672
Si Si2 0.677605 0.938660 0.647932
Si Si3 0.879141 0.893481 0.763546
Si Si4 0.804111 0.589089 0.291778
Si Si5 0.556645 0.443535 0.147924
Si Si6 0.538487 0.904623 0.483733
Si Si7 0.730906 0.795561 0.819444
Si Si8 0.892417 0.804652 0.516068
O O1 0.356072 0.566435 0.598069
O O2 0.415052 0.538600 0.400644
O O3 0.506107 0.613787 0.556505
O O4 0.390329 0.699052 0.456358
O O5 0.621299 0.908528 0.545884
O O6 0.701334 0.842121 0.702394
O O7 0.750000 0.000000 0.600176
O O8 0.638613 0.999211 0.748600
O O9 0.953970 0.885657 0.846500
O O10 0.815619 0.838271 0.838700
O O11 0.883251 0.856578 0.634867
O O12 0.750000 0.500000 0.270181
O O13 0.864646 0.607362 0.187255
O O14 0.760212 0.685718 0.306102
O O15 0.500000 0.468392 0.250000
O O16 0.477437 0.831363 0.535868
O O17 0.500000 0.000000 0.500000
O O18 0.675670 0.825014 0.925058
#
# Coordination Sequence:
#
# PCOD8223547 Si02
#       8
#     8   8   8   8   8   8   8   8
#     4   9  21  41  61  94 128 172 214 277 333 401
#     4  10  24  43  69  93 131 181 220 270 339 406
#     4  11  25  43  67  97 136 175 223 276 342 400
#     4  10  22  41  64  96 129 172 221 278 326 403
#     4   9  19  39  65  89 126 168 216 265 344 395
#     4  12  25  41  69  98 135 172 223 279 335 396
#     4  10  25  45  67  94 135 177 229 272 344 406
#     4  11  24  42  66  98 134 170 227 282 327 408
#
# _framework density 21.654330000000002
#
# number of rings (size 3 to 8) (size 9 to 14) (size 15 to 20)
#    0.000    1.750    1.250    1.125    7.000    3.500 
#    6.750    0.000    0.000    0.000    0.000    0.000 
#    0.000    0.000    0.000    0.000    0.000    0.000 
#
# Total GULP energy -792969.708163 kJ/mol
# GULP energy per Si atom -12390.151690 kJ/mol
# Density = 2.160504 g / cm^3
# Si number density = 21.654330 Si / 1000 Ang^3
#
#
#
# Elastic Constant Matrix: (Units=GPa)
#
#
# Indices 1 2 3 4 5 6 
#
# 1 75.8782 20.5212 31.5672 0.0000 0.0000 0.0000
# 2 20.5212 91.2634 27.7711 0.0000 0.0000 0.0000
# 3 31.5672 27.7711 80.0230 0.0000 0.0000 0.0000
# 4 0.0000 0.0000 0.0000 28.5298 0.0000 0.0000
# 5 0.0000 0.0000 0.0000 0.0000 29.4824 0.0000
# 6 0.0000 0.0000 0.0000 0.0000 0.0000 31.5899
#
#
#
# Elastic Compliance Matrix: (Units=1/GPa)
#
#
# Indices 1 2 3 4 5 6 
#
# 1 0.016050 -0.001881 -0.005679 0.000000 0.000000 0.000000
# 2 -0.001881 0.012471 -0.003586 0.000000 0.000000 0.000000
# 3 -0.005679 -0.003586 0.015981 0.000000 0.000000 0.000000
# 4 0.000000 0.000000 0.000000 0.035051 0.000000 0.000000
# 5 0.000000 0.000000 0.000000 0.000000 0.033919 0.000000
# 6 0.000000 0.000000 0.000000 0.000000 0.000000 0.031656
#
#
# Mechanical properties :
#
#
# Convention : Reuss Voigt Hill
#
# Bulk Modulus (GPa) = 45.02228 45.20929 45.11579
# Shear Modulus (GPa) = 28.60033 29.07409 28.83721
#
# Velocity S-wave (km/s) = 3.63818 3.66819 3.65321
# Velocity P-wave (km/s) = 6.20362 6.23409 6.21887
#
# Compressibility (1/GPa) = 0.02221123
#
# Stress axis : x y z
#
# Youngs Moduli (GPa) = 62.30453 80.18293 62.57433
#
# Poissons Ratio (x) = 0.15083 0.35534
# Poissons Ratio (y) = 0.11720 0.22440
# Poissons Ratio (z) = 0.35380 0.28754
#
# Static dielectric constant tensor:
#      x y z
#    x 4.240500 0.000000 0.000000 
#    y 0.000000 4.156050 0.000000 
#    z 0.000000 0.000000 3.704310 
# 
# 
# High freq. dielectric constant tensor:
#      x y z
#    x 1.861940 0.000000 0.000000 
#    y 0.000000 1.844580 0.000000 
#    z 0.000000 0.000000 1.846470 
# 
# From -- ./inp_files/9081.got.cif
#   From: 2010.03.12/outbox.cif.g09.slc.cpg/sg54_5_cif.got.tgz:9081.got - 2010.04.16 15:00:50.
