data_PCOD8223091
_publ_section_title
;
Structure prediction by ZEFSAII (Michael W. Deem and Ramdas Pophale) SiO2 
 PCOD8223091
Probable space group: P C C A
;
_chemical_formula_sum "Si O2"
_cell_formula_units_Z 44
_cell_length_a 9.235957
_cell_length_b 13.023141
_cell_length_c 16.738273
_cell_angle_alpha 90.000000
_cell_angle_beta 90.000000
_cell_angle_gamma 90.000000
_cell_volume 2013.299065
_symmetry_space_group_name_H-M "P C C A"
_symmetry_group_IT_number 54
_symmetry_cell_setting 'orthorhombic'
loop_
_space_group_symop_operation_xyz
x,y,z
1/2-x,-y,z
1/2+x,-y,1/2-z
-x,y,1/2-z
-x,-y,-z
1/2+x,y,-z
1/2-x,y,1/2+z
x,-y,1/2+z
loop_
_atom_site_type_symbol
_atom_site_label
_atom_site_fract_x
_atom_site_fract_y
_atom_site_fract_z
Si Si1 0.974292 0.223277 0.921139
Si Si2 0.332064 0.708070 0.267329
Si Si3 0.750000 0.500000 0.458531
Si Si4 0.848991 0.099054 0.792843
Si Si5 0.100629 0.589665 0.180425
Si Si6 0.732123 0.701184 0.053489
O O1 0.893446 0.124478 0.884761
O O2 0.975560 0.305901 0.848546
O O3 0.142665 0.211473 0.944163
O O4 0.897466 0.254859 0.002120
O O5 0.500000 0.725727 0.250000
O O6 0.241887 0.811487 0.250405
O O7 0.262655 0.615365 0.214323
O O8 0.324055 0.675029 0.359084
O O9 0.613503 0.480242 0.398946
O O10 0.707949 0.596882 0.512851
O O11 0.000000 0.075735 0.750000
O O12 0.750000 0.000000 0.793713
O O13 0.000000 0.539852 0.250000
#
# Coordination Sequence:
#
# PCOD8223091 Si02
#       6
#     8   8   4   8   8   8
#     4  10  22  42  65  91 135 180 211 278 353 399
#     4  11  23  41  68  95 130 180 225 277 354 406
#     4  10  26  38  62  98 126 184 240 280 336 408
#     4  11  22  45  73 101 130 170 224 280 340 425
#     4  10  20  43  60  86 132 176 229 292 337 392
#     4  11  23  43  65  93 138 181 229 280 345 412
#
# _framework density 21.854676999999999
#
# number of rings (size 3 to 8) (size 9 to 14) (size 15 to 20)
#    0.000    1.455    3.636    1.636    7.636    4.364 
#    0.000    1.818    0.000    0.000    0.000    0.000 
#    0.000    0.000    0.000    0.000    0.000    0.000 
#
# Total GULP energy -545434.119958 kJ/mol
# GULP energy per Si atom -12396.229999 kJ/mol
# Density = 2.180493 g / cm^3
# Si number density = 21.854677 Si / 1000 Ang^3
#
#
#
# Elastic Constant Matrix: (Units=GPa)
#
#
# Indices 1 2 3 4 5 6 
#
# 1 139.4332 28.9800 41.4665 0.0000 0.0000 0.0000
# 2 28.9800 66.1697 42.9940 0.0000 0.0000 0.0000
# 3 41.4665 42.9940 141.9262 0.0000 0.0000 0.0000
# 4 0.0000 0.0000 0.0000 17.1060 0.0000 0.0000
# 5 0.0000 0.0000 0.0000 0.0000 37.8650 0.0000
# 6 0.0000 0.0000 0.0000 0.0000 0.0000 31.9246
#
#
#
# Elastic Compliance Matrix: (Units=1/GPa)
#
#
# Indices 1 2 3 4 5 6 
#
# 1 0.008180 -0.002527 -0.001624 0.000000 0.000000 0.000000
# 2 -0.002527 0.019597 -0.005198 0.000000 0.000000 0.000000
# 3 -0.001624 -0.005198 0.009095 0.000000 0.000000 0.000000
# 4 0.000000 0.000000 0.000000 0.058459 0.000000 0.000000
# 5 0.000000 0.000000 0.000000 0.000000 0.026410 0.000000
# 6 0.000000 0.000000 0.000000 0.000000 0.000000 0.031324
#
#
# Mechanical properties :
#
#
# Convention : Reuss Voigt Hill
#
# Bulk Modulus (GPa) = 55.02714 63.82334 59.42524
# Shear Modulus (GPa) = 28.11796 32.98501 30.55149
#
# Velocity S-wave (km/s) = 3.59080 3.88917 3.74296
# Velocity P-wave (km/s) = 6.51345 7.03096 6.77715
#
# Compressibility (1/GPa) = 0.01817285
#
# Stress axis : x y z
#
# Youngs Moduli (GPa) = 122.24573 51.02820 109.94768
#
# Poissons Ratio (x) = 0.12896 0.17861
# Poissons Ratio (y) = 0.30893 0.57153
# Poissons Ratio (z) = 0.19858 0.26525
#
# Static dielectric constant tensor:
#      x y z
#    x 3.993510 0.000000 0.000000 
#    y 0.000000 3.731190 0.000000 
#    z 0.000000 0.000000 4.150070 
# 
# 
# High freq. dielectric constant tensor:
#      x y z
#    x 1.871910 0.000000 0.000000 
#    y 0.000000 1.822000 0.000000 
#    z 0.000000 0.000000 1.876800 
# 
# From -- ./inp_files/16529.got.cif
#   From: 2010.03.12/outbox.cif.g09.slc.cpg/sg54_9_cif.got.tgz:16529.got - 2010.04.16 15:00:50.
