data_PCOD8223343
_publ_section_title
;
Structure prediction by ZEFSAII (Michael W. Deem and Ramdas Pophale) SiO2 
 PCOD8223343
Probable space group: P C C A
;
_chemical_formula_sum "Si O2"
_cell_formula_units_Z 32
_cell_length_a 7.447828
_cell_length_b 5.218973
_cell_length_c 33.739279
_cell_angle_alpha 90.000000
_cell_angle_beta 90.000000
_cell_angle_gamma 90.000000
_cell_volume 1311.446221
_symmetry_space_group_name_H-M "P C C A"
_symmetry_group_IT_number 54
_symmetry_cell_setting 'orthorhombic'
loop_
_space_group_symop_operation_xyz
x,y,z
1/2-x,-y,z
1/2+x,-y,1/2-z
-x,y,1/2-z
-x,-y,-z
1/2+x,y,-z
1/2-x,y,1/2+z
x,-y,1/2+z
loop_
_atom_site_type_symbol
_atom_site_label
_atom_site_fract_x
_atom_site_fract_y
_atom_site_fract_z
Si Si1 0.956068 0.450187 0.954612
Si Si2 0.560429 0.793627 0.327705
Si Si3 0.461147 0.709884 0.705013
Si Si4 0.554874 0.933493 0.089775
O O1 0.750000 0.500000 0.945351
O O2 0.074656 0.664460 0.932886
O O3 0.992646 0.160232 0.939839
O O4 0.000000 0.500000 0.000000
O O5 0.458399 0.521601 0.322133
O O6 0.752420 0.751771 0.306607
O O7 0.579673 0.882935 0.373409
O O8 0.447531 0.017284 0.305142
O O9 0.500000 0.632830 0.750000
O O10 0.750000 0.000000 0.107135
#
# Coordination Sequence:
#
# PCOD8223343 Si02
#       4
#     8   8   8   8
#     4  12  27  47  78 110 150 197 249 305 376 449
#     4  10  23  41  67  99 138 186 242 296 375 431
#     4  10  21  41  67  94 138 179 240 302 367 443
#     4  12  26  47  73 108 154 197 249 312 371 448
#
# _framework density 24.400542999999999
#
# number of rings (size 3 to 8) (size 9 to 14) (size 15 to 20)
#    0.000    1.000    0.000    6.000   10.500    0.000 
#   13.500    0.000    0.000    0.000    0.000    0.000 
#    0.000    0.000    0.000    0.000    0.000    0.000 
#
# Total GULP energy -396427.316257 kJ/mol
# GULP energy per Si atom -12388.353633 kJ/mol
# Density = 2.434501 g / cm^3
# Si number density = 24.400543 Si / 1000 Ang^3
#
#
#
# Elastic Constant Matrix: (Units=GPa)
#
#
# Indices 1 2 3 4 5 6 
#
# 1 68.1887 7.3393 25.0001 0.0000 0.0000 0.0000
# 2 7.3393 252.5396 77.6875 0.0000 0.0000 0.0000
# 3 25.0001 77.6875 188.8707 0.0000 0.0000 0.0000
# 4 0.0000 0.0000 0.0000 54.3526 0.0000 0.0000
# 5 0.0000 0.0000 0.0000 0.0000 73.0355 0.0000
# 6 0.0000 0.0000 0.0000 0.0000 0.0000 20.0868
#
#
#
# Elastic Compliance Matrix: (Units=1/GPa)
#
#
# Indices 1 2 3 4 5 6 
#
# 1 0.015423 0.000206 -0.002126 0.000000 0.000000 0.000000
# 2 0.000206 0.004536 -0.001893 0.000000 0.000000 0.000000
# 3 -0.002126 -0.001893 0.006355 0.000000 0.000000 0.000000
# 4 0.000000 0.000000 0.000000 0.018398 0.000000 0.000000
# 5 0.000000 0.000000 0.000000 0.000000 0.013692 0.000000
# 6 0.000000 0.000000 0.000000 0.000000 0.000000 0.049784
#
#
# Mechanical properties :
#
#
# Convention : Reuss Voigt Hill
#
# Bulk Modulus (GPa) = 53.51395 81.07253 67.29324
# Shear Modulus (GPa) = 40.96910 56.13313 48.55112
#
# Velocity S-wave (km/s) = 4.10203 4.80154 4.46551
# Velocity P-wave (km/s) = 6.66443 8.00235 7.36384
#
# Compressibility (1/GPa) = 0.01868672
#
# Stress axis : x y z
#
# Youngs Moduli (GPa) = 64.84025 220.45109 157.36326
#
# Poissons Ratio (x) = -0.04537 0.33457
# Poissons Ratio (y) = -0.01335 0.29790
# Poissons Ratio (z) = 0.13786 0.41733
#
# Static dielectric constant tensor:
#      x y z
#    x 4.132330 0.000000 0.000000 
#    y 0.000000 3.220510 0.000000 
#    z 0.000000 0.000000 4.312650 
# 
# 
# High freq. dielectric constant tensor:
#      x y z
#    x 1.945690 0.000000 0.000000 
#    y 0.000000 2.015190 0.000000 
#    z 0.000000 0.000000 1.967630 
# 
# From -- ./inp_files/27499.got.cif
#   From: 2010.03.12/outbox.cif.g09.slc.cpg/sg54_14_cif.got.tgz:27499.got - 2010.04.16 15:00:50.
