data_PCOD8223813
_publ_section_title
;
Structure prediction by ZEFSAII (Michael W. Deem and Ramdas Pophale) SiO2 
 PCOD8223813
Probable space group: P C C A
;
_chemical_formula_sum "Si O2"
_cell_formula_units_Z 48
_cell_length_a 8.432955
_cell_length_b 18.028845
_cell_length_c 14.503286
_cell_angle_alpha 90.000000
_cell_angle_beta 90.000000
_cell_angle_gamma 90.000000
_cell_volume 2205.027951
_symmetry_space_group_name_H-M "P C C A"
_symmetry_group_IT_number 54
_symmetry_cell_setting 'orthorhombic'
loop_
_space_group_symop_operation_xyz
x,y,z
1/2-x,-y,z
1/2+x,-y,1/2-z
-x,y,1/2-z
-x,-y,-z
1/2+x,y,-z
1/2-x,y,1/2+z
x,-y,1/2+z
loop_
_atom_site_type_symbol
_atom_site_label
_atom_site_fract_x
_atom_site_fract_y
_atom_site_fract_z
Si Si1 0.325405 0.076933 0.707487
Si Si2 0.202232 0.415914 0.432908
Si Si3 0.370667 0.345258 0.595819
Si Si4 0.320853 0.677953 0.778505
Si Si5 0.227561 0.168246 0.870020
Si Si6 0.441336 0.823170 0.051117
O O1 0.500000 0.067381 0.750000
O O2 0.209634 0.110256 0.786490
O O3 0.325231 0.131574 0.619460
O O4 0.250000 0.000000 0.674541
O O5 0.250000 0.500000 0.450824
O O6 0.234348 0.370866 0.526206
O O7 0.317550 0.388578 0.351540
O O8 0.018378 0.402603 0.406311
O O9 0.294696 0.344867 0.696345
O O10 0.424992 0.263738 0.568331
O O11 0.500000 0.693529 0.750000
O O12 0.251803 0.750669 0.826846
O O13 0.381716 0.150529 0.930389
O O14 0.084591 0.160180 0.942509
#
# Coordination Sequence:
#
# PCOD8223813 Si02
#       6
#     8   8   8   8   8   8
#     4  10  24  44  67 101 143 179 226 284 354 409
#     4  12  27  45  69 102 140 181 229 293 361 411
#     4  12  23  45  71  96 140 183 233 291 340 421
#     4  12  26  41  69 102 134 184 241 281 348 418
#     4  11  24  42  68 101 134 178 235 285 340 409
#     4  11  22  41  71  98 131 184 233 280 341 413
#
# _framework density 21.768432000000001
#
# number of rings (size 3 to 8) (size 9 to 14) (size 15 to 20)
#    0.000    0.667    5.000    2.000    2.333    4.667 
#    0.000    3.333    0.000    0.000    0.000    0.000 
#    0.000    0.000    0.000    0.000    0.000    0.000 
#
# Total GULP energy -595381.713222 kJ/mol
# GULP energy per Si atom -12403.785692 kJ/mol
# Density = 2.171889 g / cm^3
# Si number density = 21.768432 Si / 1000 Ang^3
#
#
#
# Elastic Constant Matrix: (Units=GPa)
#
#
# Indices 1 2 3 4 5 6 
#
# 1 85.3929 21.4404 38.1362 0.0000 0.0000 0.0000
# 2 21.4404 83.7557 25.5405 0.0000 0.0000 0.0000
# 3 38.1362 25.5405 127.5729 0.0000 0.0000 0.0000
# 4 0.0000 0.0000 0.0000 3.1394 0.0000 0.0000
# 5 0.0000 0.0000 0.0000 0.0000 40.8023 0.0000
# 6 0.0000 0.0000 0.0000 0.0000 0.0000 33.6424
#
#
#
# Elastic Compliance Matrix: (Units=1/GPa)
#
#
# Indices 1 2 3 4 5 6 
#
# 1 0.013973 -0.002453 -0.003686 0.000000 0.000000 0.000000
# 2 -0.002453 0.013146 -0.001899 0.000000 0.000000 0.000000
# 3 -0.003686 -0.001899 0.009321 0.000000 0.000000 0.000000
# 4 0.000000 0.000000 0.000000 0.318535 0.000000 0.000000
# 5 0.000000 0.000000 0.000000 0.000000 0.024508 0.000000
# 6 0.000000 0.000000 0.000000 0.000000 0.000000 0.029724
#
#
# Mechanical properties :
#
#
# Convention : Reuss Voigt Hill
#
# Bulk Modulus (GPa) = 49.10445 51.88399 50.49422
# Shear Modulus (GPa) = 11.57218 29.62376 20.59797
#
# Velocity S-wave (km/s) = 2.30816 3.69298 3.07942
# Velocity P-wave (km/s) = 5.45069 6.48617 5.99085
#
# Compressibility (1/GPa) = 0.02036475
#
# Stress axis : x y z
#
# Youngs Moduli (GPa) = 71.56906 76.06664 107.28904
#
# Poissons Ratio (x) = 0.18658 0.39545
# Poissons Ratio (y) = 0.17555 0.20371
# Poissons Ratio (z) = 0.26379 0.14443
#
# Static dielectric constant tensor:
#      x y z
#    x 3.986130 0.000000 0.000000 
#    y 0.000000 3.810210 0.000000 
#    z 0.000000 0.000000 4.246240 
# 
# 
# High freq. dielectric constant tensor:
#      x y z
#    x 1.855860 0.000000 0.000000 
#    y 0.000000 1.846910 0.000000 
#    z 0.000000 0.000000 1.873150 
# 
# From -- ./inp_files/11693.got.cif
#   From: 2010.03.12/outbox.cif.g09.slc.cpg/sg54_6_cif.got.tgz:11693.got - 2010.04.16 15:00:50.
