data_PCOD8223519
_publ_section_title
;
Structure prediction by ZEFSAII (Michael W. Deem and Ramdas Pophale) SiO2 
 PCOD8223519
Probable space group: P C C A
;
_chemical_formula_sum "Si O2"
_cell_formula_units_Z 40
_cell_length_a 5.082604
_cell_length_b 13.157072
_cell_length_c 27.893041
_cell_angle_alpha 90.000000
_cell_angle_beta 90.000000
_cell_angle_gamma 90.000000
_cell_volume 1865.268647
_symmetry_space_group_name_H-M "P C C A"
_symmetry_group_IT_number 54
_symmetry_cell_setting 'orthorhombic'
loop_
_space_group_symop_operation_xyz
x,y,z
1/2-x,-y,z
1/2+x,-y,1/2-z
-x,y,1/2-z
-x,-y,-z
1/2+x,y,-z
1/2-x,y,1/2+z
x,-y,1/2+z
loop_
_atom_site_type_symbol
_atom_site_label
_atom_site_fract_x
_atom_site_fract_y
_atom_site_fract_z
Si Si1 0.327639 0.281480 0.677798
Si Si2 0.342184 0.200356 0.372745
Si Si3 0.750000 0.500000 0.586593
Si Si4 0.750000 0.500000 0.346916
Si Si5 0.750000 0.000000 0.673068
Si Si6 0.297151 0.707897 0.468916
Si Si7 0.000000 0.140070 0.250000
O O1 0.621853 0.254021 0.660316
O O2 0.303880 0.402352 0.687072
O O3 0.278384 0.216851 0.727242
O O4 0.119758 0.254465 0.636578
O O5 0.260235 0.209142 0.427941
O O6 0.393593 0.081515 0.360883
O O7 0.498509 0.518830 0.619349
O O8 0.716932 0.404136 0.552529
O O9 0.562421 0.065424 0.706659
O O10 0.589603 0.724491 0.488608
#
# Coordination Sequence:
#
# PCOD8223519 Si02
#       7
#     8   8   4   4   4   8   4
#     4  11  22  40  64  92 133 164 209 254 319 373
#     4  11  23  42  64  92 126 171 204 266 322 369
#     4  12  22  39  63  92 126 176 216 246 315 371
#     4  12  20  39  63  92 132 178 204 244 315 401
#     4  10  22  42  70  92 122 160 220 262 324 376
#     4  12  23  39  61  96 129 161 217 265 303 373
#     4  10  22  40  68 102 118 160 216 276 302 376
#
# _framework density 21.444631999999999
#
# number of rings (size 3 to 8) (size 9 to 14) (size 15 to 20)
#    0.000    0.800    4.000    4.200    0.000    4.800 
#    0.000    6.000    0.000    0.000    0.000    0.000 
#    0.000    0.000    0.000    0.000    0.000    0.000 
#
# Total GULP energy -495794.881805 kJ/mol
# GULP energy per Si atom -12394.872045 kJ/mol
# Density = 2.139582 g / cm^3
# Si number density = 21.444632 Si / 1000 Ang^3
#
#
#
# Elastic Constant Matrix: (Units=GPa)
#
#
# Indices 1 2 3 4 5 6 
#
# 1 80.1898 12.7606 7.4800 0.0000 0.0000 0.0000
# 2 12.7606 171.2705 64.0397 0.0000 0.0000 0.0000
# 3 7.4800 64.0397 87.0930 0.0000 0.0000 0.0000
# 4 0.0000 0.0000 0.0000 51.0208 0.0000 0.0000
# 5 0.0000 0.0000 0.0000 0.0000 30.4745 0.0000
# 6 0.0000 0.0000 0.0000 0.0000 0.0000 19.4991
#
#
#
# Elastic Compliance Matrix: (Units=1/GPa)
#
#
# Indices 1 2 3 4 5 6 
#
# 1 0.012639 -0.000739 -0.000542 0.000000 0.000000 0.000000
# 2 -0.000739 0.008096 -0.005889 0.000000 0.000000 0.000000
# 3 -0.000542 -0.005889 0.015859 0.000000 0.000000 0.000000
# 4 0.000000 0.000000 0.000000 0.019600 0.000000 0.000000
# 5 0.000000 0.000000 0.000000 0.000000 0.032814 0.000000
# 6 0.000000 0.000000 0.000000 0.000000 0.000000 0.051284
#
#
# Mechanical properties :
#
#
# Convention : Reuss Voigt Hill
#
# Bulk Modulus (GPa) = 44.93882 56.34601 50.64242
# Shear Modulus (GPa) = 30.85455 37.15042 34.00249
#
# Velocity S-wave (km/s) = 3.79727 4.16671 3.98627
# Velocity P-wave (km/s) = 6.34247 7.03426 6.69730
#
# Compressibility (1/GPa) = 0.02225248
#
# Stress axis : x y z
#
# Youngs Moduli (GPa) = 79.12289 123.51926 63.05536
#
# Poissons Ratio (x) = 0.09127 0.03418
# Poissons Ratio (y) = 0.05847 0.37136
# Poissons Ratio (z) = 0.04289 0.72746
#
# Static dielectric constant tensor:
#      x y z
#    x 3.854180 0.000000 0.000000 
#    y 0.000000 4.384890 0.000000 
#    z 0.000000 0.000000 4.153250 
# 
# 
# High freq. dielectric constant tensor:
#      x y z
#    x 1.840100 0.000000 0.000000 
#    y 0.000000 1.853360 0.000000 
#    z 0.000000 0.000000 1.832230 
# 
# From -- ./inp_files/25221.got.cif
#   From: 2010.03.12/outbox.cif.g09.slc.cpg/sg54_13_cif.got.tgz:25221.got - 2010.04.16 15:00:50.
