data_PCOD8223352
_publ_section_title
;
Structure prediction by ZEFSAII (Michael W. Deem and Ramdas Pophale) SiO2 
 PCOD8223352
Probable space group: P C C A
;
_chemical_formula_sum "Si O2"
_cell_formula_units_Z 32
_cell_length_a 4.954747
_cell_length_b 21.002372
_cell_length_c 12.620736
_cell_angle_alpha 90.000000
_cell_angle_beta 90.000000
_cell_angle_gamma 90.000000
_cell_volume 1313.331958
_symmetry_space_group_name_H-M "P C C A"
_symmetry_group_IT_number 54
_symmetry_cell_setting 'orthorhombic'
loop_
_space_group_symop_operation_xyz
x,y,z
1/2-x,-y,z
1/2+x,-y,1/2-z
-x,y,1/2-z
-x,-y,-z
1/2+x,y,-z
1/2-x,y,1/2+z
x,-y,1/2+z
loop_
_atom_site_type_symbol
_atom_site_label
_atom_site_fract_x
_atom_site_fract_y
_atom_site_fract_z
Si Si1 0.715936 0.876240 0.062772
Si Si2 0.761644 0.425623 0.930595
Si Si3 0.250000 0.000000 0.815571
Si Si4 0.000000 0.652992 0.750000
Si Si5 0.228404 0.265199 0.926485
O O1 0.771958 0.807782 0.115951
O O2 0.836749 0.937196 0.121880
O O3 0.394873 0.879538 0.044864
O O4 0.750000 0.500000 0.904669
O O5 0.696244 0.389909 0.821945
O O6 0.557224 0.406698 0.026112
O O7 0.500000 0.024664 0.750000
O O8 0.201224 0.694117 0.822960
O O9 0.433001 0.279487 0.024592
#
# Coordination Sequence:
#
# PCOD8223352 Si02
#       5
#     8   8   4   4   8
#     4  10  21  42  63  85 126 174 213 262 335 391
#     4  10  24  44  66  97 136 171 216 269 319 388
#     4  12  24  36  62  98 126 158 222 278 320 388
#     4  12  24  42  74 100 134 178 224 264 342 384
#     4  10  24  43  64  97 134 173 222 275 325 396
#
# _framework density 24.365507000000001
#
# number of rings (size 3 to 8) (size 9 to 14) (size 15 to 20)
#    0.000    1.500    0.000    3.750    1.750    7.000 
#    0.000    0.000    0.000    0.000    0.000    0.000 
#    0.000    0.000    0.000    0.000    0.000    0.000 
#
# Total GULP energy -396700.718410 kJ/mol
# GULP energy per Si atom -12396.897450 kJ/mol
# Density = 2.431005 g / cm^3
# Si number density = 24.365507 Si / 1000 Ang^3
#
#
#
# Elastic Constant Matrix: (Units=GPa)
#
#
# Indices 1 2 3 4 5 6 
#
# 1 103.6026 -3.7532 13.7353 0.0000 0.0000 0.0000
# 2 -3.7532 119.8597 54.7849 0.0000 0.0000 0.0000
# 3 13.7353 54.7849 101.1258 0.0000 0.0000 0.0000
# 4 0.0000 0.0000 0.0000 14.3403 0.0000 0.0000
# 5 0.0000 0.0000 0.0000 0.0000 17.3666 0.0000
# 6 0.0000 0.0000 0.0000 0.0000 0.0000 31.1586
#
#
#
# Elastic Compliance Matrix: (Units=1/GPa)
#
#
# Indices 1 2 3 4 5 6 
#
# 1 0.009965 0.001237 -0.002024 0.000000 0.000000 0.000000
# 2 0.001237 0.011242 -0.006259 0.000000 0.000000 0.000000
# 3 -0.002024 -0.006259 0.013554 0.000000 0.000000 0.000000
# 4 0.000000 0.000000 0.000000 0.069733 0.000000 0.000000
# 5 0.000000 0.000000 0.000000 0.000000 0.057582 0.000000
# 6 0.000000 0.000000 0.000000 0.000000 0.000000 0.032094
#
#
# Mechanical properties :
#
#
# Convention : Reuss Voigt Hill
#
# Bulk Modulus (GPa) = 48.37596 50.45799 49.41698
# Shear Modulus (GPa) = 23.23936 29.89452 26.56694
#
# Velocity S-wave (km/s) = 3.09168 3.50654 3.30563
# Velocity P-wave (km/s) = 5.71332 6.09493 5.90721
#
# Compressibility (1/GPa) = 0.02067142
#
# Stress axis : x y z
#
# Youngs Moduli (GPa) = 100.34742 88.94825 73.77816
#
# Poissons Ratio (x) = -0.11003 0.14930
# Poissons Ratio (y) = -0.12413 0.46175
# Poissons Ratio (z) = 0.20307 0.55669
#
# Static dielectric constant tensor:
#      x y z
#    x 4.274230 0.000000 0.000000 
#    y 0.000000 4.865030 0.000000 
#    z 0.000000 0.000000 4.016710 
# 
# 
# High freq. dielectric constant tensor:
#      x y z
#    x 1.981260 0.000000 0.000000 
#    y 0.000000 2.005040 0.000000 
#    z 0.000000 0.000000 1.936880 
# 
# From -- ./inp_files/6270.got.cif
#   From: 2010.03.12/outbox.cif.g09.slc.cpg/sg54_4_cif.got.tgz:6270.got - 2010.04.16 15:00:50.
