data_PCOD8223263
_publ_section_title
;
Structure prediction by ZEFSAII (Michael W. Deem and Ramdas Pophale) SiO2 
 PCOD8223263
Probable space group: P C C A
;
_chemical_formula_sum "Si O2"
_cell_formula_units_Z 48
_cell_length_a 9.191629
_cell_length_b 8.367266
_cell_length_c 27.890319
_cell_angle_alpha 90.000000
_cell_angle_beta 90.000000
_cell_angle_gamma 90.000000
_cell_volume 2145.011100
_symmetry_space_group_name_H-M "P C C A"
_symmetry_group_IT_number 54
_symmetry_cell_setting 'orthorhombic'
loop_
_space_group_symop_operation_xyz
x,y,z
1/2-x,-y,z
1/2+x,-y,1/2-z
-x,y,1/2-z
-x,-y,-z
1/2+x,y,-z
1/2-x,y,1/2+z
x,-y,1/2+z
loop_
_atom_site_type_symbol
_atom_site_label
_atom_site_fract_x
_atom_site_fract_y
_atom_site_fract_z
Si Si1 0.485021 0.319273 0.385393
Si Si2 0.990231 0.691710 0.636132
Si Si3 0.726620 0.187172 0.320976
Si Si4 0.346088 0.349705 0.770366
Si Si5 0.373677 0.389502 0.021058
Si Si6 0.286000 0.820327 0.433436
O O1 0.467588 0.506705 0.376335
O O2 0.566380 0.235664 0.340234
O O3 0.567897 0.281918 0.435370
O O4 0.325786 0.246028 0.393405
O O5 0.889721 0.744874 0.681433
O O6 0.943509 0.804256 0.591857
O O7 0.159690 0.720040 0.645569
O O8 0.753509 0.239202 0.265901
O O9 0.750000 0.000000 0.325020
O O10 0.250000 0.500000 0.784796
O O11 0.500000 0.412833 0.750000
O O12 0.250000 0.500000 0.044044
O O13 0.500000 0.500000 0.000000
O O14 0.292096 0.281732 0.981768
O O15 0.250000 0.000000 0.448157
#
# Coordination Sequence:
#
# PCOD8223263 Si02
#       6
#     8   8   8   8   8   8
#     4  12  24  43  72  93 133 180 228 278 328 409
#     4  11  22  43  67  93 127 175 225 275 327 405
#     4  11  24  41  63  97 133 170 220 276 343 397
#     4  10  21  39  64  93 126 166 223 275 325 403
#     4  12  23  44  68  97 130 176 230 274 327 400
#     4  12  26  42  63  99 136 170 220 279 346 394
#
# _framework density 22.377506
#
# number of rings (size 3 to 8) (size 9 to 14) (size 15 to 20)
#    0.000    0.667    3.333    6.000    0.000    2.000 
#    0.000    9.167    0.000    0.000    0.000    0.000 
#    0.000    0.000    0.000    0.000    0.000    0.000 
#
# Total GULP energy -595185.701153 kJ/mol
# GULP energy per Si atom -12399.702107 kJ/mol
# Density = 2.232657 g / cm^3
# Si number density = 22.377506 Si / 1000 Ang^3
#
#
#
# Elastic Constant Matrix: (Units=GPa)
#
#
# Indices 1 2 3 4 5 6 
#
# 1 66.7165 16.4262 18.9628 0.0000 0.0000 0.0000
# 2 16.4262 105.0142 9.0106 0.0000 0.0000 0.0000
# 3 18.9628 9.0106 87.7456 0.0000 0.0000 0.0000
# 4 0.0000 0.0000 0.0000 10.8962 0.0000 0.0000
# 5 0.0000 0.0000 0.0000 0.0000 47.4380 0.0000
# 6 0.0000 0.0000 0.0000 0.0000 0.0000 32.9167
#
#
#
# Elastic Compliance Matrix: (Units=1/GPa)
#
#
# Indices 1 2 3 4 5 6 
#
# 1 0.016500 -0.002295 -0.003330 0.000000 0.000000 0.000000
# 2 -0.002295 0.009926 -0.000523 0.000000 0.000000 0.000000
# 3 -0.003330 -0.000523 0.012170 0.000000 0.000000 0.000000
# 4 0.000000 0.000000 0.000000 0.091775 0.000000 0.000000
# 5 0.000000 0.000000 0.000000 0.000000 0.021080 0.000000
# 6 0.000000 0.000000 0.000000 0.000000 0.000000 0.030380
#
#
# Mechanical properties :
#
#
# Convention : Reuss Voigt Hill
#
# Bulk Modulus (GPa) = 38.02375 38.69726 38.36051
# Shear Modulus (GPa) = 24.64322 32.58863 28.61593
#
# Velocity S-wave (km/s) = 3.32211 3.82031 3.57988
# Velocity P-wave (km/s) = 5.63419 6.06549 5.85381
#
# Compressibility (1/GPa) = 0.02629935
#
# Stress axis : x y z
#
# Youngs Moduli (GPa) = 60.60434 100.74097 82.16914
#
# Poissons Ratio (x) = 0.23123 0.27364
# Poissons Ratio (y) = 0.13910 0.04300
# Poissons Ratio (z) = 0.20183 0.05272
#
# Static dielectric constant tensor:
#      x y z
#    x 4.445030 0.000000 0.000000 
#    y 0.000000 3.732600 0.000000 
#    z 0.000000 0.000000 4.338020 
# 
# 
# High freq. dielectric constant tensor:
#      x y z
#    x 1.896510 0.000000 0.000000 
#    y 0.000000 1.855960 0.000000 
#    z 0.000000 0.000000 1.893740 
# 
# From -- ./inp_files/27690.got.cif
#   From: 2010.03.12/outbox.cif.g09.slc.cpg/sg54_14_cif.got.tgz:27690.got - 2010.04.16 15:00:50.
