data_PCOD8223416
_publ_section_title
;
Structure prediction by ZEFSAII (Michael W. Deem and Ramdas Pophale) SiO2 
 PCOD8223416
Probable space group: P C C A
;
_chemical_formula_sum "Si O2"
_cell_formula_units_Z 48
_cell_length_a 28.833030
_cell_length_b 8.521776
_cell_length_c 10.107671
_cell_angle_alpha 90.000000
_cell_angle_beta 90.000000
_cell_angle_gamma 90.000000
_cell_volume 2483.541924
_symmetry_space_group_name_H-M "P C C A"
_symmetry_group_IT_number 54
_symmetry_cell_setting 'orthorhombic'
loop_
_space_group_symop_operation_xyz
x,y,z
1/2-x,-y,z
1/2+x,-y,1/2-z
-x,y,1/2-z
-x,-y,-z
1/2+x,y,-z
1/2-x,y,1/2+z
x,-y,1/2+z
loop_
_atom_site_type_symbol
_atom_site_label
_atom_site_fract_x
_atom_site_fract_y
_atom_site_fract_z
Si Si1 0.632060 0.099663 0.126930
Si Si2 0.272888 0.333891 0.101123
Si Si3 0.053628 0.346811 0.904145
Si Si4 0.633446 0.832181 0.918405
Si Si5 0.732775 0.827100 0.638439
Si Si6 0.448047 0.618834 0.605912
O O1 0.586272 0.193655 0.078212
O O2 0.629878 0.062371 0.284414
O O3 0.678487 0.201708 0.107551
O O4 0.641357 0.941565 0.045126
O O5 0.250000 0.500000 0.140843
O O6 0.328904 0.309664 0.098007
O O7 0.253896 0.210728 0.209926
O O8 0.257499 0.296832 0.954077
O O9 0.062354 0.423183 0.759541
O O10 0.999138 0.308593 0.915686
O O11 0.064648 0.466261 0.021373
O O12 0.584117 0.756370 0.945634
O O13 0.750000 0.000000 0.603370
#
# Coordination Sequence:
#
# PCOD8223416 Si02
#       6
#     8   8   8   8   8   8
#     4  10  22  37  57  84 112 152 190 235 288 346
#     4  11  24  39  58  86 116 152 195 243 294 346
#     4   9  19  37  59  83 115 150 189 234 293 346
#     4  10  22  39  56  85 115 148 194 237 289 346
#     4  11  22  40  60  82 116 156 194 239 291 351
#     4   9  19  37  58  84 116 149 186 240 288 345
#
# _framework density 19.327235000000002
#
# number of rings (size 3 to 8) (size 9 to 14) (size 15 to 20)
#    0.000    2.000    1.667    1.000    4.667    2.000 
#    3.000    0.000    0.000    0.000    0.000    0.000 
#    0.000    0.000    0.000    0.000    0.000    0.000 
#
# Total GULP energy -594745.994625 kJ/mol
# GULP energy per Si atom -12390.541555 kJ/mol
# Density = 1.928325 g / cm^3
# Si number density = 19.327235 Si / 1000 Ang^3
#
#
#
# Elastic Constant Matrix: (Units=GPa)
#
#
# Indices 1 2 3 4 5 6 
#
# 1 95.7536 47.5147 47.0937 0.0000 0.0000 0.0000
# 2 47.5147 82.6433 35.7588 0.0000 0.0000 0.0000
# 3 47.0937 35.7588 82.6357 0.0000 0.0000 0.0000
# 4 0.0000 0.0000 0.0000 34.5902 0.0000 0.0000
# 5 0.0000 0.0000 0.0000 0.0000 26.6046 0.0000
# 6 0.0000 0.0000 0.0000 0.0000 0.0000 34.0850
#
#
#
# Elastic Compliance Matrix: (Units=1/GPa)
#
#
# Indices 1 2 3 4 5 6 
#
# 1 0.017256 -0.006971 -0.006817 0.000000 0.000000 0.000000
# 2 -0.006971 0.017704 -0.003688 0.000000 0.000000 0.000000
# 3 -0.006817 -0.003688 0.017582 0.000000 0.000000 0.000000
# 4 0.000000 0.000000 0.000000 0.028910 0.000000 0.000000
# 5 0.000000 0.000000 0.000000 0.000000 0.037588 0.000000
# 6 0.000000 0.000000 0.000000 0.000000 0.000000 0.029338
#
#
# Mechanical properties :
#
#
# Convention : Reuss Voigt Hill
#
# Bulk Modulus (GPa) = 56.85437 57.97412 57.41424
# Shear Modulus (GPa) = 26.42792 27.76697 27.09744
#
# Velocity S-wave (km/s) = 3.70184 3.79446 3.74844
# Velocity P-wave (km/s) = 6.91029 7.01844 6.96457
#
# Compressibility (1/GPa) = 0.01758880
#
# Stress axis : x y z
#
# Youngs Moduli (GPa) = 57.95250 56.48447 56.87499
#
# Poissons Ratio (x) = 0.39376 0.38773
# Poissons Ratio (y) = 0.40399 0.20977
# Poissons Ratio (z) = 0.39508 0.20833
#
# Static dielectric constant tensor:
#      x y z
#    x 3.868830 0.000000 0.000000 
#    y 0.000000 3.240720 0.000000 
#    z 0.000000 0.000000 3.685670 
# 
# 
# High freq. dielectric constant tensor:
#      x y z
#    x 1.767410 0.000000 0.000000 
#    y 0.000000 1.717300 0.000000 
#    z 0.000000 0.000000 1.767840 
# 
# From -- ./inp_files/5820.got.cif
#   From: 2010.03.12/outbox.cif.g09.slc.cpg/sg54_3_cif.got.tgz:5820.got - 2010.04.16 15:00:50.
