data_PCOD8223601
_publ_section_title
;
Structure prediction by ZEFSAII (Michael W. Deem and Ramdas Pophale) SiO2 
 PCOD8223601
Probable space group: P C C A
;
_chemical_formula_sum "Si O2"
_cell_formula_units_Z 32
_cell_length_a 8.737896
_cell_length_b 5.425881
_cell_length_c 28.737735
_cell_angle_alpha 90.000000
_cell_angle_beta 90.000000
_cell_angle_gamma 90.000000
_cell_volume 1362.478543
_symmetry_space_group_name_H-M "P C C A"
_symmetry_group_IT_number 54
_symmetry_cell_setting 'orthorhombic'
loop_
_space_group_symop_operation_xyz
x,y,z
1/2-x,-y,z
1/2+x,-y,1/2-z
-x,y,1/2-z
-x,-y,-z
1/2+x,y,-z
1/2-x,y,1/2+z
x,-y,1/2+z
loop_
_atom_site_type_symbol
_atom_site_label
_atom_site_fract_x
_atom_site_fract_y
_atom_site_fract_z
Si Si1 0.750000 0.000000 0.220686
Si Si2 0.848765 0.248734 0.022184
Si Si3 0.077636 0.557944 0.071749
Si Si4 0.409891 0.630435 0.836297
Si Si5 0.500000 0.663392 0.250000
O O1 0.880019 0.892558 0.187038
O O2 0.660931 0.808057 0.252992
O O3 0.750000 0.500000 0.023823
O O4 0.988256 0.301696 0.058132
O O5 0.750000 0.000000 0.033504
O O6 0.924142 0.239148 0.970395
O O7 0.250000 0.500000 0.085746
O O8 0.999745 0.679910 0.116365
O O9 0.250000 0.500000 0.848341
O O10 0.507760 0.485445 0.797968
#
# Coordination Sequence:
#
# PCOD8223601 Si02
#       5
#     4   8   8   8   4
#     4  10  22  42  70 100 132 194 224 292 354 424
#     4  10  23  48  73  98 147 195 238 298 369 431
#     4  10  23  42  70 107 135 185 240 305 355 433
#     4  10  22  44  65  99 138 185 234 284 356 429
#     4  10  22  42  70  96 140 180 232 280 356 424
#
# _framework density 23.486609000000001
#
# number of rings (size 3 to 8) (size 9 to 14) (size 15 to 20)
#    0.000    2.000    0.000    1.500    0.000   15.000 
#   38.250    0.000    2.750    0.000    0.000    0.000 
#    0.000    0.000    0.000    0.000    0.000    0.000 
#
# Total GULP energy -396553.383468 kJ/mol
# GULP energy per Si atom -12392.293233 kJ/mol
# Density = 2.343315 g / cm^3
# Si number density = 23.486609 Si / 1000 Ang^3
#
#
#
# Elastic Constant Matrix: (Units=GPa)
#
#
# Indices 1 2 3 4 5 6 
#
# 1 139.1476 54.6028 77.7469 0.0000 0.0000 0.0000
# 2 54.6028 121.2751 39.3412 0.0000 0.0000 0.0000
# 3 77.7469 39.3412 139.8611 0.0000 0.0000 0.0000
# 4 0.0000 0.0000 0.0000 1.3224 0.0000 0.0000
# 5 0.0000 0.0000 0.0000 0.0000 41.2724 0.0000
# 6 0.0000 0.0000 0.0000 0.0000 0.0000 39.5948
#
#
#
# Elastic Compliance Matrix: (Units=1/GPa)
#
#
# Indices 1 2 3 4 5 6 
#
# 1 0.011600 -0.003445 -0.005479 0.000000 0.000000 0.000000
# 2 -0.003445 0.010097 -0.000925 0.000000 0.000000 0.000000
# 3 -0.005479 -0.000925 0.010456 0.000000 0.000000 0.000000
# 4 0.000000 0.000000 0.000000 0.756214 0.000000 0.000000
# 5 0.000000 0.000000 0.000000 0.000000 0.024229 0.000000
# 6 0.000000 0.000000 0.000000 0.000000 0.000000 0.025256
#
#
# Mechanical properties :
#
#
# Convention : Reuss Voigt Hill
#
# Bulk Modulus (GPa) = 80.29530 82.62952 81.46241
# Shear Modulus (GPa) = 5.80247 31.67745 18.73996
#
# Velocity S-wave (km/s) = 1.57350 3.67651 2.82778
# Velocity P-wave (km/s) = 6.12888 7.29933 6.73956
#
# Compressibility (1/GPa) = 0.01245403
#
# Stress axis : x y z
#
# Youngs Moduli (GPa) = 86.20681 99.03935 95.63968
#
# Poissons Ratio (x) = 0.34123 0.52402
# Poissons Ratio (y) = 0.29701 0.08846
# Poissons Ratio (z) = 0.47234 0.09160
#
# Static dielectric constant tensor:
#      x y z
#    x 3.015910 0.000000 0.000000 
#    y 0.000000 4.135920 0.000000 
#    z 0.000000 0.000000 4.209820 
# 
# 
# High freq. dielectric constant tensor:
#      x y z
#    x 1.947540 0.000000 0.000000 
#    y 0.000000 1.912900 0.000000 
#    z 0.000000 0.000000 1.922260 
# 
# From -- ./inp_files/27514.got.cif
#   From: 2010.03.12/outbox.cif.g09.slc.cpg/sg54_14_cif.got.tgz:27514.got - 2010.04.16 15:00:50.
