data_PCOD8223781
_publ_section_title
;
Structure prediction by ZEFSAII (Michael W. Deem and Ramdas Pophale) SiO2 
 PCOD8223781
Probable space group: P C C A
;
_chemical_formula_sum "Si O2"
_cell_formula_units_Z 36
_cell_length_a 8.821526
_cell_length_b 8.948928
_cell_length_c 21.228606
_cell_angle_alpha 90.000000
_cell_angle_beta 90.000000
_cell_angle_gamma 90.000000
_cell_volume 1675.854111
_symmetry_space_group_name_H-M "P C C A"
_symmetry_group_IT_number 54
_symmetry_cell_setting 'orthorhombic'
loop_
_space_group_symop_operation_xyz
x,y,z
1/2-x,-y,z
1/2+x,-y,1/2-z
-x,y,1/2-z
-x,-y,-z
1/2+x,y,-z
1/2-x,y,1/2+z
x,-y,1/2+z
loop_
_atom_site_type_symbol
_atom_site_label
_atom_site_fract_x
_atom_site_fract_y
_atom_site_fract_z
Si Si1 0.915543 0.936939 0.188504
Si Si2 0.250000 0.000000 0.489928
Si Si3 0.910217 0.414727 0.687316
Si Si4 0.572985 0.467201 0.931552
Si Si5 0.007628 0.867476 0.579252
O O1 0.889653 0.761433 0.189274
O O2 0.000000 0.993685 0.250000
O O3 0.750000 0.000000 0.183731
O O4 0.021018 0.008438 0.133985
O O5 0.132974 0.902898 0.528128
O O6 0.337809 0.877735 0.448270
O O7 0.750000 0.500000 0.684537
O O8 0.000000 0.470342 0.750000
O O9 0.003438 0.430408 0.622722
O O10 0.750000 0.500000 0.937292
O O11 0.538287 0.303129 0.902891
O O12 0.500000 0.500000 0.000000
#
# Coordination Sequence:
#
# PCOD8223781 Si02
#       5
#     8   4   8   8   8
#     4  11  26  44  69  99 132 178 232 284 338 411
#     4  10  24  40  68  96 132 178 218 274 340 400
#     4  11  26  47  70  99 139 185 232 286 356 424
#     4  12  27  43  70 105 141 184 229 289 351 422
#     4  11  24  43  68  97 137 175 227 279 337 411
#
# _framework density 21.481584000000002
#
# number of rings (size 3 to 8) (size 9 to 14) (size 15 to 20)
#    0.000    0.889    1.111    4.000   10.889    5.333 
#    0.000    0.000    0.000    0.000    0.000    0.000 
#    0.000    0.000    0.000    0.000    0.000    0.000 
#
# Total GULP energy -446251.615131 kJ/mol
# GULP energy per Si atom -12395.878198 kJ/mol
# Density = 2.143269 g / cm^3
# Si number density = 21.481584 Si / 1000 Ang^3
#
#
#
# Elastic Constant Matrix: (Units=GPa)
#
#
# Indices 1 2 3 4 5 6 
#
# 1 145.1157 26.5741 58.3353 0.0000 0.0000 0.0000
# 2 26.5741 86.4864 17.5157 0.0000 0.0000 0.0000
# 3 58.3353 17.5157 153.9676 0.0000 0.0000 0.0000
# 4 0.0000 0.0000 0.0000 48.1598 0.0000 0.0000
# 5 0.0000 0.0000 0.0000 0.0000 -759.4410 0.0000
# 6 0.0000 0.0000 0.0000 0.0000 0.0000 24.2549
#
#
#
# Elastic Compliance Matrix: (Units=1/GPa)
#
#
# Indices 1 2 3 4 5 6 
#
# 1 0.008452 -0.001994 -0.002976 0.000000 0.000000 0.000000
# 2 -0.001994 0.012306 -0.000644 0.000000 0.000000 0.000000
# 3 -0.002976 -0.000644 0.007696 0.000000 0.000000 0.000000
# 4 0.000000 0.000000 0.000000 0.020764 0.000000 0.000000
# 5 0.000000 0.000000 0.000000 0.000000 -0.001317 0.000000
# 6 0.000000 0.000000 0.000000 0.000000 0.000000 0.041229
#
#
# Mechanical properties :
#
#
# Convention : Reuss Voigt Hill
#
# Bulk Modulus (GPa) = 58.05460 65.60222 61.82841
# Shear Modulus (GPa) = 47.12515 -118.52895 -35.70190
#
# Velocity S-wave (km/s) = 4.68883 -7.43618 -4.08116
# Velocity P-wave (km/s) = 7.50982 6.56688 2.57619
#
# Compressibility (1/GPa) = 0.01722516
#
# Stress axis : x y z
#
# Youngs Moduli (GPa) = 118.30892 81.26236 129.94525
#
# Poissons Ratio (x) = 0.16208 0.38666
# Poissons Ratio (y) = 0.23597 0.08372
# Poissons Ratio (z) = 0.35204 0.05235
#
# Static dielectric constant tensor:
#      x y z
#    x 3.341520 0.000000 0.000000 
#    y 0.000000 4.096150 0.000000 
#    z 0.000000 0.000000 4.532050 
# 
# 
# High freq. dielectric constant tensor:
#      x y z
#    x 1.860780 0.000000 0.000000 
#    y 0.000000 1.851560 0.000000 
#    z 0.000000 0.000000 1.859020 
# 
# From -- ./inp_files/20114.got.cif
#   From: 2010.03.12/outbox.cif.g09.slc.cpg/sg54_11_cif.got.tgz:20114.got - 2010.04.16 15:00:50.
