data_PCOD8223676
_publ_section_title
;
Structure prediction by ZEFSAII (Michael W. Deem and Ramdas Pophale) SiO2 
 PCOD8223676
Probable space group: P C C A
;
_chemical_formula_sum "Si O2"
_cell_formula_units_Z 32
_cell_length_a 10.699568
_cell_length_b 8.595237
_cell_length_c 16.137833
_cell_angle_alpha 90.000000
_cell_angle_beta 90.000000
_cell_angle_gamma 90.000000
_cell_volume 1484.121020
_symmetry_space_group_name_H-M "P C C A"
_symmetry_group_IT_number 54
_symmetry_cell_setting 'orthorhombic'
loop_
_space_group_symop_operation_xyz
x,y,z
1/2-x,-y,z
1/2+x,-y,1/2-z
-x,y,1/2-z
-x,-y,-z
1/2+x,y,-z
1/2-x,y,1/2+z
x,-y,1/2+z
loop_
_atom_site_type_symbol
_atom_site_label
_atom_site_fract_x
_atom_site_fract_y
_atom_site_fract_z
Si Si1 0.373030 0.565649 0.966025
Si Si2 0.876284 0.906710 0.974946
Si Si3 0.373360 0.903681 0.219483
Si Si4 0.128095 0.563954 0.783309
O O1 0.250000 0.500000 0.014936
O O2 0.361692 0.497150 0.875303
O O3 0.500000 0.500000 0.000000
O O4 0.374085 0.751729 0.969985
O O5 0.880146 0.863538 0.877777
O O6 0.750000 0.000000 0.996095
O O7 0.000000 0.000000 0.000000
O O8 0.500000 0.993959 0.250000
O O9 0.370845 0.749553 0.275720
O O10 0.250000 0.000000 0.241372
O O11 0.250000 0.500000 0.733632
O O12 0.000000 0.490825 0.750000
#
# Coordination Sequence:
#
# PCOD8223676 Si02
#       4
#     8   8   8   8
#     4  11  23  41  66  94 128 170 216 266 318 380
#     4  11  25  43  66  97 132 171 214 265 325 385
#     4  10  23  42  65  94 127 164 210 263 319 384
#     4  10  23  40  61  93 126 163 212 262 316 377
#
# _framework density 21.561584
#
# number of rings (size 3 to 8) (size 9 to 14) (size 15 to 20)
#    0.000    1.500    0.000    4.500    0.000   18.000 
#    0.000    0.000    0.000    0.000    0.000    0.000 
#    0.000    0.000    0.000    0.000    0.000    0.000 
#
# Total GULP energy -396555.137804 kJ/mol
# GULP energy per Si atom -12392.348056 kJ/mol
# Density = 2.151251 g / cm^3
# Si number density = 21.561584 Si / 1000 Ang^3
#
#
#
# Elastic Constant Matrix: (Units=GPa)
#
#
# Indices 1 2 3 4 5 6 
#
# 1 281.1294 87.4837 50.4287 0.0000 0.0000 0.0000
# 2 87.4837 153.4233 59.3524 0.0000 0.0000 0.0000
# 3 50.4287 59.3524 95.6509 0.0000 0.0000 0.0000
# 4 0.0000 0.0000 0.0000 35.3921 0.0000 0.0000
# 5 0.0000 0.0000 0.0000 0.0000 32.5437 0.0000
# 6 0.0000 0.0000 0.0000 0.0000 0.0000 45.4973
#
#
#
# Elastic Compliance Matrix: (Units=1/GPa)
#
#
# Indices 1 2 3 4 5 6 
#
# 1 0.004396 -0.002119 -0.001003 0.000000 0.000000 0.000000
# 2 -0.002119 0.009598 -0.004839 0.000000 0.000000 0.000000
# 3 -0.001003 -0.004839 0.013986 0.000000 0.000000 0.000000
# 4 0.000000 0.000000 0.000000 0.028255 0.000000 0.000000
# 5 0.000000 0.000000 0.000000 0.000000 0.030728 0.000000
# 6 0.000000 0.000000 0.000000 0.000000 0.000000 0.021979
#
#
# Mechanical properties :
#
#
# Convention : Reuss Voigt Hill
#
# Bulk Modulus (GPa) = 82.92361 102.74812 92.83586
# Shear Modulus (GPa) = 38.79492 44.88254 41.83873
#
# Velocity S-wave (km/s) = 4.24637 4.56740 4.40981
# Velocity P-wave (km/s) = 7.91105 8.69320 8.31133
#
# Compressibility (1/GPa) = 0.01205929
#
# Stress axis : x y z
#
# Youngs Moduli (GPa) = 227.46112 104.18964 71.50068
#
# Poissons Ratio (x) = 0.22076 0.07172
# Poissons Ratio (y) = 0.48195 0.34596
# Poissons Ratio (z) = 0.22816 0.50412
#
# Static dielectric constant tensor:
#      x y z
#    x 5.643900 0.000000 0.000000 
#    y 0.000000 4.112310 0.000000 
#    z 0.000000 0.000000 3.738610 
# 
# 
# High freq. dielectric constant tensor:
#      x y z
#    x 1.896340 0.000000 0.000000 
#    y 0.000000 1.836670 0.000000 
#    z 0.000000 0.000000 1.835250 
# 
# From -- ./inp_files/12190.got.cif
#   From: 2010.03.12/outbox.cif.g09.slc.cpg/sg54_7_cif.got.tgz:12190.got - 2010.04.16 15:00:50.
