data_PCOD8223070
_publ_section_title
;
Structure prediction by ZEFSAII (Michael W. Deem and Ramdas Pophale) SiO2 
 PCOD8223070
Probable space group: P C C A
;
_chemical_formula_sum "Si O2"
_cell_formula_units_Z 48
_cell_length_a 8.983083
_cell_length_b 9.065664
_cell_length_c 28.387162
_cell_angle_alpha 90.000000
_cell_angle_beta 90.000000
_cell_angle_gamma 90.000000
_cell_volume 2311.782689
_symmetry_space_group_name_H-M "P C C A"
_symmetry_group_IT_number 54
_symmetry_cell_setting 'orthorhombic'
loop_
_space_group_symop_operation_xyz
x,y,z
1/2-x,-y,z
1/2+x,-y,1/2-z
-x,y,1/2-z
-x,-y,-z
1/2+x,y,-z
1/2-x,y,1/2+z
x,-y,1/2+z
loop_
_atom_site_type_symbol
_atom_site_label
_atom_site_fract_x
_atom_site_fract_y
_atom_site_fract_z
Si Si1 0.485244 0.595231 0.627530
Si Si2 0.985730 0.341786 0.975262
Si Si3 0.151412 0.362387 0.778986
Si Si4 0.846913 0.134213 0.271439
Si Si5 0.695541 0.164171 0.962697
Si Si6 0.838501 0.712761 0.865870
O O1 0.551996 0.648322 0.577567
O O2 0.613113 0.628268 0.665671
O O3 0.443429 0.424359 0.621977
O O4 0.335438 0.679776 0.641870
O O5 0.814042 0.295151 0.970772
O O6 0.062068 0.207115 0.002671
O O7 0.000000 0.500000 0.000000
O O8 0.250000 0.500000 0.762467
O O9 0.249630 0.218876 0.767919
O O10 0.000000 0.364090 0.750000
O O11 0.896448 0.229540 0.316130
O O12 0.000000 0.074219 0.250000
O O13 0.750000 0.000000 0.290764
O O14 0.641859 0.169668 0.908272
O O15 0.750000 0.000000 0.975113
#
# Coordination Sequence:
#
# PCOD8223070 Si02
#       6
#     8   8   8   8   8   8
#     4  10  21  38  67  97 124 170 225 276 327 396
#     4  11  22  42  67  95 133 172 226 281 335 404
#     4  12  23  40  65  95 130 167 220 277 333 392
#     4  12  26  44  65  94 132 176 218 274 340 409
#     4  11  23  41  66  98 132 178 220 279 346 407
#     4  10  20  41  67  92 125 173 225 266 336 409
#
# _framework density 20.763197999999999
#
# number of rings (size 3 to 8) (size 9 to 14) (size 15 to 20)
#    0.000    1.000    3.333    4.500    0.000    1.333 
#    3.000    0.833    0.000    0.000    0.000    0.000 
#    0.000    0.000    0.000    0.000    0.000    0.000 
#
# Total GULP energy -595313.213771 kJ/mol
# GULP energy per Si atom -12402.358620 kJ/mol
# Density = 2.071594 g / cm^3
# Si number density = 20.763198 Si / 1000 Ang^3
#
#
#
# Elastic Constant Matrix: (Units=GPa)
#
#
# Indices 1 2 3 4 5 6 
#
# 1 74.2372 11.7454 37.4483 0.0000 0.0000 0.0000
# 2 11.7454 78.7738 23.8394 0.0000 0.0000 0.0000
# 3 37.4483 23.8394 121.4636 0.0000 0.0000 0.0000
# 4 0.0000 0.0000 0.0000 25.3749 0.0000 0.0000
# 5 0.0000 0.0000 0.0000 0.0000 25.7106 0.0000
# 6 0.0000 0.0000 0.0000 0.0000 0.0000 35.5605
#
#
#
# Elastic Compliance Matrix: (Units=1/GPa)
#
#
# Indices 1 2 3 4 5 6 
#
# 1 0.016018 -0.000950 -0.004752 0.000000 0.000000 0.000000
# 2 -0.000950 0.013553 -0.002367 0.000000 0.000000 0.000000
# 3 -0.004752 -0.002367 0.010163 0.000000 0.000000 0.000000
# 4 0.000000 0.000000 0.000000 0.039409 0.000000 0.000000
# 5 0.000000 0.000000 0.000000 0.000000 0.038894 0.000000
# 6 0.000000 0.000000 0.000000 0.000000 0.000000 0.028121
#
#
# Mechanical properties :
#
#
# Convention : Reuss Voigt Hill
#
# Bulk Modulus (GPa) = 42.38251 46.72677 44.55464
# Shear Modulus (GPa) = 29.38402 30.75864 30.07133
#
# Velocity S-wave (km/s) = 3.76599 3.85307 3.80978
# Velocity P-wave (km/s) = 6.27430 6.50756 6.39200
#
# Compressibility (1/GPa) = 0.02359464
#
# Stress axis : x y z
#
# Youngs Moduli (GPa) = 62.43073 73.78672 98.40052
#
# Poissons Ratio (x) = 0.07011 0.46759
# Poissons Ratio (y) = 0.05932 0.23291
# Poissons Ratio (z) = 0.29667 0.17465
#
# Static dielectric constant tensor:
#      x y z
#    x 3.694140 0.000000 0.000000 
#    y 0.000000 3.751580 0.000000 
#    z 0.000000 0.000000 3.946750 
# 
# 
# High freq. dielectric constant tensor:
#      x y z
#    x 1.804590 0.000000 0.000000 
#    y 0.000000 1.807140 0.000000 
#    z 0.000000 0.000000 1.825720 
# 
# From -- ./inp_files/27756.got.cif
#   From: 2010.03.12/outbox.cif.g09.slc.cpg/sg54_14_cif.got.tgz:27756.got - 2010.04.16 15:00:50.
