data_PCOD8223924
_publ_section_title
;
Structure prediction by ZEFSAII (Michael W. Deem and Ramdas Pophale) SiO2 
 PCOD8223924
Probable space group: P C C A
;
_chemical_formula_sum "Si O2"
_cell_formula_units_Z 36
_cell_length_a 16.857789
_cell_length_b 6.685907
_cell_length_c 13.925816
_cell_angle_alpha 90.000000
_cell_angle_beta 90.000000
_cell_angle_gamma 90.000000
_cell_volume 1569.573283
_symmetry_space_group_name_H-M "P C C A"
_symmetry_group_IT_number 54
_symmetry_cell_setting 'orthorhombic'
loop_
_space_group_symop_operation_xyz
x,y,z
1/2-x,-y,z
1/2+x,-y,1/2-z
-x,y,1/2-z
-x,-y,-z
1/2+x,y,-z
1/2-x,y,1/2+z
x,-y,1/2+z
loop_
_atom_site_type_symbol
_atom_site_label
_atom_site_fract_x
_atom_site_fract_y
_atom_site_fract_z
Si Si1 0.471868 0.433855 0.644267
Si Si2 0.636803 0.543548 0.584617
Si Si3 0.086370 0.907271 0.521894
Si Si4 0.250000 0.500000 0.243793
Si Si5 0.836138 0.293686 0.909756
O O1 0.500000 0.390710 0.750000
O O2 0.548231 0.456142 0.576066
O O3 0.420818 0.245831 0.609819
O O4 0.417604 0.631140 0.640078
O O5 0.627060 0.783969 0.567183
O O6 0.673556 0.481677 0.687423
O O7 0.686417 0.432005 0.501506
O O8 0.151497 0.068750 0.554223
O O9 0.000000 0.000000 0.500000
O O10 0.233924 0.687961 0.171127
#
# Coordination Sequence:
#
# PCOD8223924 Si02
#       5
#     8   8   8   4   8
#     4  11  21  39  71 101 133 178 245 299 351 420
#     4  11  23  44  69 101 138 188 239 293 367 431
#     4  11  21  40  75 103 130 175 245 315 347 404
#     4  12  26  44  70  94 152 204 220 280 384 456
#     4  11  23  45  68 102 138 182 241 297 355 426
#
# _framework density 22.936169
#
# number of rings (size 3 to 8) (size 9 to 14) (size 15 to 20)
#    0.000    0.889    6.667    2.000    0.000    2.667 
#    0.000   14.444    0.000    0.000    0.000    0.000 
#    0.000    0.000    0.000    0.000    0.000    0.000 
#
# Total GULP energy -446106.213052 kJ/mol
# GULP energy per Si atom -12391.839251 kJ/mol
# Density = 2.288397 g / cm^3
# Si number density = 22.936169 Si / 1000 Ang^3
#
#
#
# Elastic Constant Matrix: (Units=GPa)
#
#
# Indices 1 2 3 4 5 6 
#
# 1 88.2821 50.7869 41.7641 0.0000 0.0000 0.0000
# 2 50.7869 140.8298 49.5576 0.0000 0.0000 0.0000
# 3 41.7641 49.5576 134.1750 0.0000 0.0000 0.0000
# 4 0.0000 0.0000 0.0000 23.1625 0.0000 0.0000
# 5 0.0000 0.0000 0.0000 0.0000 55.8959 0.0000
# 6 0.0000 0.0000 0.0000 0.0000 0.0000 24.7704
#
#
#
# Elastic Compliance Matrix: (Units=1/GPa)
#
#
# Indices 1 2 3 4 5 6 
#
# 1 0.015366 -0.004435 -0.003145 0.000000 0.000000 0.000000
# 2 -0.004435 0.009441 -0.002107 0.000000 0.000000 0.000000
# 3 -0.003145 -0.002107 0.009210 0.000000 0.000000 0.000000
# 4 0.000000 0.000000 0.000000 0.043173 0.000000 0.000000
# 5 0.000000 0.000000 0.000000 0.000000 0.017890 0.000000
# 6 0.000000 0.000000 0.000000 0.000000 0.000000 0.040371
#
#
# Mechanical properties :
#
#
# Convention : Reuss Voigt Hill
#
# Bulk Modulus (GPa) = 68.28446 71.94489 70.11468
# Shear Modulus (GPa) = 31.30731 35.51098 33.40915
#
# Velocity S-wave (km/s) = 3.69857 3.93905 3.82070
# Velocity P-wave (km/s) = 6.93364 7.21968 7.07810
#
# Compressibility (1/GPa) = 0.01464462
#
# Stress axis : x y z
#
# Youngs Moduli (GPa) = 65.07699 105.91593 108.57705
#
# Poissons Ratio (x) = 0.46972 0.34148
# Poissons Ratio (y) = 0.28860 0.22875
# Poissons Ratio (z) = 0.20467 0.22314
#
# Static dielectric constant tensor:
#      x y z
#    x 4.329300 0.000000 0.000000 
#    y 0.000000 4.063870 0.000000 
#    z 0.000000 0.000000 4.190150 
# 
# 
# High freq. dielectric constant tensor:
#      x y z
#    x 1.921100 0.000000 0.000000 
#    y 0.000000 1.878400 0.000000 
#    z 0.000000 0.000000 1.913700 
# 
# From -- ./inp_files/14466.got.cif
#   From: 2010.03.12/outbox.cif.g09.slc.cpg/sg54_8_cif.got.tgz:14466.got - 2010.04.16 15:00:50.
