data_PCOD8223420
_publ_section_title
;
Structure prediction by ZEFSAII (Michael W. Deem and Ramdas Pophale) SiO2 
 PCOD8223420
Probable space group: P C C A
;
_chemical_formula_sum "Si O2"
_cell_formula_units_Z 60
_cell_length_a 13.606741
_cell_length_b 11.748036
_cell_length_c 18.935357
_cell_angle_alpha 90.000000
_cell_angle_beta 90.000000
_cell_angle_gamma 90.000000
_cell_volume 3026.863835
_symmetry_space_group_name_H-M "P C C A"
_symmetry_group_IT_number 54
_symmetry_cell_setting 'orthorhombic'
loop_
_space_group_symop_operation_xyz
x,y,z
1/2-x,-y,z
1/2+x,-y,1/2-z
-x,y,1/2-z
-x,-y,-z
1/2+x,y,-z
1/2-x,y,1/2+z
x,-y,1/2+z
loop_
_atom_site_type_symbol
_atom_site_label
_atom_site_fract_x
_atom_site_fract_y
_atom_site_fract_z
Si Si1 0.956100 0.272537 0.671349
Si Si2 0.751583 0.360610 0.130326
Si Si3 0.960588 0.716891 0.671269
Si Si4 0.937309 0.873946 0.933206
Si Si5 0.250000 0.500000 0.624415
Si Si6 0.569433 0.873407 0.932718
Si Si7 0.753440 0.279973 0.469197
Si Si8 0.043931 0.493253 0.672328
O O1 0.839727 0.298664 0.669714
O O2 0.000000 0.257205 0.750000
O O3 0.989377 0.164347 0.625920
O O4 0.004506 0.382022 0.631907
O O5 0.750000 0.500000 0.135605
O O6 0.843781 0.303474 0.170477
O O7 0.758313 0.318958 0.049755
O O8 0.000000 0.724386 0.750000
O O9 0.001579 0.828034 0.633448
O O10 0.008283 0.606482 0.631935
O O11 0.849102 0.796396 0.959825
O O12 0.895772 0.998784 0.912819
O O13 0.018828 0.879923 0.992485
O O14 0.232734 0.607816 0.575884
O O15 0.160478 0.485805 0.677886
O O16 0.661318 0.789282 0.938559
O O17 0.000000 0.492211 0.750000
#
# Coordination Sequence:
#
# PCOD8223420 Si02
#       8
#     8   8   8   8   4   8   8   8
#     4  11  24  42  64  97 132 172 213 268 325 392
#     4  12  24  39  65 101 135 168 210 264 335 392
#     4  11  24  42  64  97 132 172 213 268 325 392
#     4  11  24  43  67  92 129 173 221 272 318 380
#     4  12  22  36  68 102 122 172 220 270 322 394
#     4  11  24  43  67  92 129 173 221 272 318 380
#     4  12  23  39  66  99 131 166 221 267 327 387
#     4  10  22  37  60  93 131 169 205 265 323 385
#
# _framework density 19.822498
#
# number of rings (size 3 to 8) (size 9 to 14) (size 15 to 20)
#    0.000    0.800    7.333    0.400    0.000    5.867 
#    0.000    4.667    0.000    0.000    0.000    0.000 
#    0.000    0.000    0.000    0.000    0.000    0.000 
#
# Total GULP energy -743632.529475 kJ/mol
# GULP energy per Si atom -12393.875491 kJ/mol
# Density = 1.977738 g / cm^3
# Si number density = 19.822498 Si / 1000 Ang^3
#
#
#
# Elastic Constant Matrix: (Units=GPa)
#
#
# Indices 1 2 3 4 5 6 
#
# 1 133.4894 23.8868 34.9215 0.0000 0.0000 0.0000
# 2 23.8868 114.6898 35.2572 0.0000 0.0000 0.0000
# 3 34.9215 35.2572 89.7012 0.0000 0.0000 0.0000
# 4 0.0000 0.0000 0.0000 -35.9661 0.0000 0.0000
# 5 0.0000 0.0000 0.0000 0.0000 27.0011 0.0000
# 6 0.0000 0.0000 0.0000 0.0000 0.0000 -17.9803
#
#
#
# Elastic Compliance Matrix: (Units=1/GPa)
#
#
# Indices 1 2 3 4 5 6 
#
# 1 0.008413 -0.000848 -0.002942 0.000000 0.000000 0.000000
# 2 -0.000848 0.010003 -0.003602 0.000000 0.000000 0.000000
# 3 -0.002942 -0.003602 0.013709 0.000000 0.000000 0.000000
# 4 0.000000 0.000000 0.000000 -0.027804 0.000000 0.000000
# 5 0.000000 0.000000 0.000000 0.000000 0.037035 0.000000
# 6 0.000000 0.000000 0.000000 0.000000 0.000000 -0.055616
#
#
# Mechanical properties :
#
#
# Convention : Reuss Voigt Hill
#
# Bulk Modulus (GPa) = 57.66341 58.44572 58.05457
# Shear Modulus (GPa) = 793.28821 10.86526 402.07674
#
# Velocity S-wave (km/s) = 20.02660 2.34375 14.25759
# Velocity P-wave (km/s) = 23.74670 6.07230 17.33174
#
# Compressibility (1/GPa) = 0.01734202
#
# Stress axis : x y z
#
# Youngs Moduli (GPa) = 118.87021 99.97071 72.94453
#
# Poissons Ratio (x) = 0.08475 0.21459
# Poissons Ratio (y) = 0.10077 0.26272
# Poissons Ratio (z) = 0.34970 0.36006
#
# Static dielectric constant tensor:
#      x y z
#    x 3.715280 0.000000 0.000000 
#    y 0.000000 4.506100 0.000000 
#    z 0.000000 0.000000 3.380150 
# 
# 
# High freq. dielectric constant tensor:
#      x y z
#    x 1.788380 0.000000 0.000000 
#    y 0.000000 1.782350 0.000000 
#    z 0.000000 0.000000 1.761800 
# 
# From -- ./inp_files/21222.got.cif
#   From: 2010.03.12/outbox.cif.g09.slc.cpg/sg54_11_cif.got.tgz:21222.got - 2010.04.16 15:00:50.
