data_PCOD8223274
_publ_section_title
;
Structure prediction by ZEFSAII (Michael W. Deem and Ramdas Pophale) SiO2 
 PCOD8223274
Probable space group: P C C A
;
_chemical_formula_sum "Si O2"
_cell_formula_units_Z 48
_cell_length_a 25.572836
_cell_length_b 6.338097
_cell_length_c 13.730852
_cell_angle_alpha 90.000000
_cell_angle_beta 90.000000
_cell_angle_gamma 90.000000
_cell_volume 2225.539266
_symmetry_space_group_name_H-M "P C C A"
_symmetry_group_IT_number 54
_symmetry_cell_setting 'orthorhombic'
loop_
_space_group_symop_operation_xyz
x,y,z
1/2-x,-y,z
1/2+x,-y,1/2-z
-x,y,1/2-z
-x,-y,-z
1/2+x,y,-z
1/2-x,y,1/2+z
x,-y,1/2+z
loop_
_atom_site_type_symbol
_atom_site_label
_atom_site_fract_x
_atom_site_fract_y
_atom_site_fract_z
Si Si1 0.807731 0.966910 0.263343
Si Si2 0.529336 0.022957 0.652081
Si Si3 0.805688 0.615699 0.111218
Si Si4 0.633070 0.211914 0.615316
Si Si5 0.141606 0.877541 0.542373
Si Si6 0.464184 0.707339 0.005482
O O1 0.814200 0.733190 0.215765
O O2 0.750000 0.000000 0.304005
O O3 0.817020 0.128238 0.175056
O O4 0.845246 0.028796 0.351914
O O5 0.500000 0.969699 0.750000
O O6 0.580004 0.168141 0.676103
O O7 0.492315 0.135770 0.577024
O O8 0.543407 0.797314 0.603987
O O9 0.750000 0.500000 0.106076
O O10 0.854912 0.457024 0.098992
O O11 0.809936 0.773026 0.017808
O O12 0.623744 0.089001 0.514182
O O13 0.095263 0.700379 0.548613
O O14 0.500000 0.500000 0.000000
#
# Coordination Sequence:
#
# PCOD8223274 Si02
#       6
#     8   8   8   8   8   8
#     4  11  23  40  62  90 134 169 219 281 330 389
#     4  10  21  39  66  92 129 170 209 268 335 382
#     4  11  23  42  65  90 128 176 222 271 329 401
#     4  10  22  42  62  94 130 169 219 271 326 398
#     4  10  24  40  65  95 130 173 216 274 343 390
#     4  10  21  41  65  96 130 163 217 273 322 401
#
# _framework density 21.567806000000001
#
# number of rings (size 3 to 8) (size 9 to 14) (size 15 to 20)
#    0.000    1.667    1.667    2.000    2.333    2.000 
#    0.000   10.000    0.000    0.000    0.000    0.000 
#    0.000    0.000    0.000    0.000    0.000    0.000 
#
# Total GULP energy -594666.266093 kJ/mol
# GULP energy per Si atom -12388.880544 kJ/mol
# Density = 2.151872 g / cm^3
# Si number density = 21.567806 Si / 1000 Ang^3
#
#
#
# Elastic Constant Matrix: (Units=GPa)
#
#
# Indices 1 2 3 4 5 6 
#
# 1 109.7523 41.7260 35.2241 0.0000 0.0000 0.0000
# 2 41.7260 101.5059 48.3922 0.0000 0.0000 0.0000
# 3 35.2241 48.3922 93.1354 0.0000 0.0000 0.0000
# 4 0.0000 0.0000 0.0000 21.4770 0.0000 0.0000
# 5 0.0000 0.0000 0.0000 0.0000 35.3748 0.0000
# 6 0.0000 0.0000 0.0000 0.0000 0.0000 40.2502
#
#
#
# Elastic Compliance Matrix: (Units=1/GPa)
#
#
# Indices 1 2 3 4 5 6 
#
# 1 0.011205 -0.003437 -0.002452 0.000000 0.000000 0.000000
# 2 -0.003437 0.014150 -0.006052 0.000000 0.000000 0.000000
# 3 -0.002452 -0.006052 0.014809 0.000000 0.000000 0.000000
# 4 0.000000 0.000000 0.000000 0.046561 0.000000 0.000000
# 5 0.000000 0.000000 0.000000 0.000000 0.028269 0.000000
# 6 0.000000 0.000000 0.000000 0.000000 0.000000 0.024845
#
#
# Mechanical properties :
#
#
# Convention : Reuss Voigt Hill
#
# Bulk Modulus (GPa) = 61.41929 61.67536 61.54733
# Shear Modulus (GPa) = 29.55983 31.35715 30.45849
#
# Velocity S-wave (km/s) = 3.70612 3.81712 3.76203
# Velocity P-wave (km/s) = 6.84491 6.93436 6.88978
#
# Compressibility (1/GPa) = 0.01628153
#
# Stress axis : x y z
#
# Youngs Moduli (GPa) = 89.24518 70.67179 67.52630
#
# Poissons Ratio (x) = 0.24291 0.16557
# Poissons Ratio (y) = 0.30675 0.40868
# Poissons Ratio (z) = 0.21882 0.42772
#
# Static dielectric constant tensor:
#      x y z
#    x 4.003080 0.000000 0.000000 
#    y 0.000000 3.808330 0.000000 
#    z 0.000000 0.000000 3.777620 
# 
# 
# High freq. dielectric constant tensor:
#      x y z
#    x 1.861130 0.000000 0.000000 
#    y 0.000000 1.836810 0.000000 
#    z 0.000000 0.000000 1.838820 
# 
# From -- ./inp_files/15153.got.cif
#   From: 2010.03.12/outbox.cif.g09.slc.cpg/sg54_8_cif.got.tgz:15153.got - 2010.04.16 15:00:50.
