data_PCOD8223800
_publ_section_title
;
Structure prediction by ZEFSAII (Michael W. Deem and Ramdas Pophale) SiO2 
 PCOD8223800
Probable space group: P C C A
;
_chemical_formula_sum "Si O2"
_cell_formula_units_Z 36
_cell_length_a 18.427902
_cell_length_b 9.066650
_cell_length_c 9.398750
_cell_angle_alpha 90.000000
_cell_angle_beta 90.000000
_cell_angle_gamma 90.000000
_cell_volume 1570.336925
_symmetry_space_group_name_H-M "P C C A"
_symmetry_group_IT_number 54
_symmetry_cell_setting 'orthorhombic'
loop_
_space_group_symop_operation_xyz
x,y,z
1/2-x,-y,z
1/2+x,-y,1/2-z
-x,y,1/2-z
-x,-y,-z
1/2+x,y,-z
1/2-x,y,1/2+z
x,-y,1/2+z
loop_
_atom_site_type_symbol
_atom_site_label
_atom_site_fract_x
_atom_site_fract_y
_atom_site_fract_z
Si Si1 0.334846 0.953885 0.744970
Si Si2 0.542117 0.404057 0.611700
Si Si3 0.250000 0.500000 0.580136
Si Si4 0.664554 0.630651 0.670915
Si Si5 0.575281 0.911155 0.025456
O O1 0.356328 0.801615 0.825594
O O2 0.361302 0.955404 0.583402
O O3 0.250000 0.000000 0.755042
O O4 0.388903 0.067628 0.820580
O O5 0.500000 0.345300 0.750000
O O6 0.500000 0.500000 0.500000
O O7 0.603147 0.507861 0.678278
O O8 0.564997 0.264570 0.516945
O O9 0.208547 0.388328 0.683058
O O10 0.295116 0.392418 0.478426
O O11 0.500000 0.000000 0.000000
#
# Coordination Sequence:
#
# PCOD8223800 Si02
#       5
#     8   8   4   8   8
#     4  12  28  45  74 106 148 191 245 305 374 438
#     4  12  25  46  75 106 142 191 247 304 363 440
#     4  10  24  42  70  98 138 178 232 284 358 420
#     4  11  25  44  71 100 141 183 236 293 360 435
#     4  12  27  49  72 107 149 198 247 302 371 448
#
# _framework density 22.925015999999999
#
# number of rings (size 3 to 8) (size 9 to 14) (size 15 to 20)
#    0.000    0.444    0.000    8.000   12.444    0.000 
#    0.000    0.000    0.000    0.000    0.000    0.000 
#    0.000    0.000    0.000    0.000    0.000    0.000 
#
# Total GULP energy -446214.406038 kJ/mol
# GULP energy per Si atom -12394.844612 kJ/mol
# Density = 2.287284 g / cm^3
# Si number density = 22.925016 Si / 1000 Ang^3
#
#
#
# Elastic Constant Matrix: (Units=GPa)
#
#
# Indices 1 2 3 4 5 6 
#
# 1 126.5213 38.6905 32.6949 0.0000 0.0000 0.0000
# 2 38.6905 135.0131 15.8140 0.0000 0.0000 0.0000
# 3 32.6949 15.8140 132.2142 0.0000 0.0000 0.0000
# 4 0.0000 0.0000 0.0000 30.6746 0.0000 0.0000
# 5 0.0000 0.0000 0.0000 0.0000 61.4571 0.0000
# 6 0.0000 0.0000 0.0000 0.0000 0.0000 40.6390
#
#
#
# Elastic Compliance Matrix: (Units=1/GPa)
#
#
# Indices 1 2 3 4 5 6 
#
# 1 0.009145 -0.002389 -0.001976 0.000000 0.000000 0.000000
# 2 -0.002389 0.008136 -0.000382 0.000000 0.000000 0.000000
# 3 -0.001976 -0.000382 0.008098 0.000000 0.000000 0.000000
# 4 0.000000 0.000000 0.000000 0.032600 0.000000 0.000000
# 5 0.000000 0.000000 0.000000 0.000000 0.016271 0.000000
# 6 0.000000 0.000000 0.000000 0.000000 0.000000 0.024607
#
#
# Mechanical properties :
#
#
# Convention : Reuss Voigt Hill
#
# Bulk Modulus (GPa) = 62.95476 63.12749 63.04112
# Shear Modulus (GPa) = 43.99592 46.99076 45.49334
#
# Velocity S-wave (km/s) = 4.38553 4.53234 4.45954
# Velocity P-wave (km/s) = 7.29141 7.41524 7.35358
#
# Compressibility (1/GPa) = 0.01588442
#
# Stress axis : x y z
#
# Youngs Moduli (GPa) = 109.34958 122.90820 123.49077
#
# Poissons Ratio (x) = 0.29366 0.24398
# Poissons Ratio (y) = 0.26126 0.04721
# Poissons Ratio (z) = 0.21604 0.04699
#
# Static dielectric constant tensor:
#      x y z
#    x 4.070320 0.000000 0.000000 
#    y 0.000000 4.112660 0.000000 
#    z 0.000000 0.000000 4.236940 
# 
# 
# High freq. dielectric constant tensor:
#      x y z
#    x 1.905560 0.000000 0.000000 
#    y 0.000000 1.918980 0.000000 
#    z 0.000000 0.000000 1.931260 
# 
# From -- ./inp_files/4566.got.cif
#   From: 2010.03.12/outbox.cif.g09.slc.cpg/sg54_3_cif.got.tgz:4566.got - 2010.04.16 15:00:50.
