data_PCOD8223455
_publ_section_title
;
Structure prediction by ZEFSAII (Michael W. Deem and Ramdas Pophale) SiO2 
 PCOD8223455
Probable space group: P C C A
;
_chemical_formula_sum "Si O2"
_cell_formula_units_Z 64
_cell_length_a 26.854082
_cell_length_b 12.249216
_cell_length_c 9.191101
_cell_angle_alpha 90.000000
_cell_angle_beta 90.000000
_cell_angle_gamma 90.000000
_cell_volume 3023.334098
_symmetry_space_group_name_H-M "P C C A"
_symmetry_group_IT_number 54
_symmetry_cell_setting 'orthorhombic'
loop_
_space_group_symop_operation_xyz
x,y,z
1/2-x,-y,z
1/2+x,-y,1/2-z
-x,y,1/2-z
-x,-y,-z
1/2+x,y,-z
1/2-x,y,1/2+z
x,-y,1/2+z
loop_
_atom_site_type_symbol
_atom_site_label
_atom_site_fract_x
_atom_site_fract_y
_atom_site_fract_z
Si Si1 0.405444 0.458017 0.950046
Si Si2 0.946899 0.612265 0.827440
Si Si3 0.893047 0.166925 0.295640
Si Si4 0.804334 0.503525 0.920124
Si Si5 0.200339 0.254601 0.065745
Si Si6 0.393473 0.778217 0.531089
Si Si7 0.963022 0.033556 0.874727
Si Si8 0.300307 0.720536 0.720632
O O1 0.441929 0.550000 0.018620
O O2 0.346694 0.475234 0.965010
O O3 0.419873 0.339644 0.014224
O O4 0.411129 0.459278 0.776398
O O5 0.929384 0.735960 0.846965
O O6 0.000000 0.611011 0.750000
O O7 0.841713 0.168175 0.386917
O O8 0.922407 0.056645 0.329815
O O9 0.877029 0.176989 0.127171
O O10 0.750000 0.500000 0.999213
O O11 0.815353 0.627015 0.867128
O O12 0.802743 0.411682 0.793302
O O13 0.253536 0.225571 0.136045
O O14 0.202955 0.252878 0.890861
O O15 0.435566 0.855402 0.591159
O O16 0.348077 0.775352 0.644752
O O17 0.000000 0.064934 0.750000
O O18 0.000000 0.000000 0.000000
#
# Coordination Sequence:
#
# PCOD8223455 Si02
#       8
#     8   8   8   8   8   8   8   8
#     4  10  22  39  59  91 131 172 212 267 321 394
#     4  11  23  39  60  88 130 172 216 263 330 388
#     4  11  24  43  68  93 132 172 221 280 336 392
#     4   9  20  35  57  92 132 175 221 263 316 387
#     4  11  22  39  65  96 134 180 218 270 330 397
#     4  10  24  43  65  97 134 168 222 279 331 397
#     4  12  26  48  74  99 124 171 229 284 341 394
#     4  10  23  38  64  98 135 176 222 267 331 397
#
# _framework density 21.168683999999999
#
# number of rings (size 3 to 8) (size 9 to 14) (size 15 to 20)
#    0.000    1.500    2.500    1.500    7.000    7.000 
#    0.000    0.625    0.000    3.000    0.000    0.000 
#    0.000    0.000    0.000    0.000    0.000    0.000 
#
# Total GULP energy -793339.540739 kJ/mol
# GULP energy per Si atom -12395.930324 kJ/mol
# Density = 2.112050 g / cm^3
# Si number density = 21.168684 Si / 1000 Ang^3
#
#
#
# Elastic Constant Matrix: (Units=GPa)
#
#
# Indices 1 2 3 4 5 6 
#
# 1 107.1273 33.7714 34.8117 0.0000 0.0000 0.0000
# 2 33.7714 75.6396 13.1385 0.0000 0.0000 0.0000
# 3 34.8117 13.1385 108.4936 0.0000 0.0000 0.0000
# 4 0.0000 0.0000 0.0000 24.3522 0.0000 0.0000
# 5 0.0000 0.0000 0.0000 0.0000 38.0287 0.0000
# 6 0.0000 0.0000 0.0000 0.0000 0.0000 38.7113
#
#
#
# Elastic Compliance Matrix: (Units=1/GPa)
#
#
# Indices 1 2 3 4 5 6 
#
# 1 0.011882 -0.004743 -0.003238 0.000000 0.000000 0.000000
# 2 -0.004743 0.015398 -0.000343 0.000000 0.000000 0.000000
# 3 -0.003238 -0.000343 0.010298 0.000000 0.000000 0.000000
# 4 0.000000 0.000000 0.000000 0.041064 0.000000 0.000000
# 5 0.000000 0.000000 0.000000 0.000000 0.026296 0.000000
# 6 0.000000 0.000000 0.000000 0.000000 0.000000 0.025832
#
#
# Mechanical properties :
#
#
# Convention : Reuss Voigt Hill
#
# Bulk Modulus (GPa) = 47.77845 50.52261 49.15053
# Shear Modulus (GPa) = 32.38477 34.18770 33.28623
#
# Velocity S-wave (km/s) = 3.91556 4.02308 3.96969
# Velocity P-wave (km/s) = 6.56213 6.74528 6.65433
#
# Compressibility (1/GPa) = 0.02092994
#
# Stress axis : x y z
#
# Youngs Moduli (GPa) = 84.16062 64.94509 97.10923
#
# Poissons Ratio (x) = 0.30801 0.31446
# Poissons Ratio (y) = 0.39914 0.03330
# Poissons Ratio (z) = 0.27253 0.02227
#
# Static dielectric constant tensor:
#      x y z
#    x 4.055650 0.000000 0.000000 
#    y 0.000000 3.717220 0.000000 
#    z 0.000000 0.000000 3.771400 
# 
# 
# High freq. dielectric constant tensor:
#      x y z
#    x 1.846910 0.000000 0.000000 
#    y 0.000000 1.808280 0.000000 
#    z 0.000000 0.000000 1.831070 
# 
# From -- ./inp_files/5968.got.cif
#   From: 2010.03.12/outbox.cif.g09.slc.cpg/sg54_3_cif.got.tgz:5968.got - 2010.04.16 15:00:50.
