data_PCOD8223996
_publ_section_title
;
Structure prediction by ZEFSAII (Michael W. Deem and Ramdas Pophale) SiO2 
 PCOD8223996
Probable space group: P C C A
;
_chemical_formula_sum "Si O2"
_cell_formula_units_Z 24
_cell_length_a 4.970987
_cell_length_b 7.967472
_cell_length_c 26.174403
_cell_angle_alpha 90.000000
_cell_angle_beta 90.000000
_cell_angle_gamma 90.000000
_cell_volume 1036.668633
_symmetry_space_group_name_H-M "P C C A"
_symmetry_group_IT_number 54
_symmetry_cell_setting 'orthorhombic'
loop_
_space_group_symop_operation_xyz
x,y,z
1/2-x,-y,z
1/2+x,-y,1/2-z
-x,y,1/2-z
-x,-y,-z
1/2+x,y,-z
1/2-x,y,1/2+z
x,-y,1/2+z
loop_
_atom_site_type_symbol
_atom_site_label
_atom_site_fract_x
_atom_site_fract_y
_atom_site_fract_z
Si Si1 0.195873 0.304733 0.027179
Si Si2 0.132864 0.183756 0.802113
Si Si3 0.351211 0.687738 0.143369
O O1 0.250000 0.500000 0.016795
O O2 0.089671 0.272787 0.084326
O O3 0.481408 0.222642 0.012308
O O4 0.378955 0.295816 0.822915
O O5 0.000000 0.256349 0.750000
O O6 0.885913 0.182652 0.841775
O O7 0.250000 0.000000 0.792422
O O8 0.250000 0.500000 0.151964
#
# Coordination Sequence:
#
# PCOD8223996 Si02
#       3
#     8   8   8
#     4   9  17  32  57  90 125 158 194 241 301 365
#     4  12  25  44  64  86 123 170 210 248 312 383
#     4  11  23  40  67  98 124 157 208 264 305 349
#
# _framework density 23.151078999999999
#
# number of rings (size 3 to 8) (size 9 to 14) (size 15 to 20)
#    0.000    1.333    0.000    7.000    0.000    8.000 
#    0.000    1.667    0.000   20.000    0.000    0.000 
#    0.000    0.000    0.000    0.000    0.000    0.000 
#
# Total GULP energy -297432.084182 kJ/mol
# GULP energy per Si atom -12393.003508 kJ/mol
# Density = 2.309839 g / cm^3
# Si number density = 23.151079 Si / 1000 Ang^3
#
#
#
# Elastic Constant Matrix: (Units=GPa)
#
#
# Indices 1 2 3 4 5 6 
#
# 1 206.1755 25.2170 104.8709 0.0000 0.0000 0.0000
# 2 25.2170 29.5531 42.7376 0.0000 0.0000 0.0000
# 3 104.8709 42.7376 159.0969 0.0000 0.0000 0.0000
# 4 0.0000 0.0000 0.0000 3.3505 0.0000 0.0000
# 5 0.0000 0.0000 0.0000 0.0000 56.7631 0.0000
# 6 0.0000 0.0000 0.0000 0.0000 0.0000 26.8877
#
#
#
# Elastic Compliance Matrix: (Units=1/GPa)
#
#
# Indices 1 2 3 4 5 6 
#
# 1 0.007322 0.001197 -0.005148 0.000000 0.000000 0.000000
# 2 0.001197 0.055528 -0.015705 0.000000 0.000000 0.000000
# 3 -0.005148 -0.015705 0.013898 0.000000 0.000000 0.000000
# 4 0.000000 0.000000 0.000000 0.298462 0.000000 0.000000
# 5 0.000000 0.000000 0.000000 0.000000 0.017617 0.000000
# 6 0.000000 0.000000 0.000000 0.000000 0.000000 0.037192
#
#
# Mechanical properties :
#
#
# Convention : Reuss Voigt Hill
#
# Bulk Modulus (GPa) = 26.71293 82.27516 54.49404
# Shear Modulus (GPa) = 10.37754 32.20029 21.28891
#
# Velocity S-wave (km/s) = 2.11950 3.73349 3.03572
# Velocity P-wave (km/s) = 4.18966 7.36212 5.98974
#
# Compressibility (1/GPa) = 0.03743506
#
# Stress axis : x y z
#
# Youngs Moduli (GPa) = 136.56568 18.00903 71.95384
#
# Poissons Ratio (x) = -0.02155 0.37043
# Poissons Ratio (y) = -0.16345 1.13004
# Poissons Ratio (z) = 0.70307 0.28283
#
# Static dielectric constant tensor:
#      x y z
#    x 4.766230 0.000000 0.000000 
#    y 0.000000 3.708470 0.000000 
#    z 0.000000 0.000000 4.169990 
# 
# 
# High freq. dielectric constant tensor:
#      x y z
#    x 1.946090 0.000000 0.000000 
#    y 0.000000 1.870630 0.000000 
#    z 0.000000 0.000000 1.921130 
# 
# From -- ./inp_files/22526.got.cif
#   From: 2010.03.12/outbox.cif.g09.slc.cpg/sg54_12_cif.got.tgz:22526.got - 2010.04.16 15:00:50.
