data_PCOD8223037
_publ_section_title
;
Structure prediction by ZEFSAII (Michael W. Deem and Ramdas Pophale) SiO2 
 PCOD8223037
Probable space group: P C C A
;
_chemical_formula_sum "Si O2"
_cell_formula_units_Z 48
_cell_length_a 25.596913
_cell_length_b 6.065340
_cell_length_c 14.409328
_cell_angle_alpha 90.000000
_cell_angle_beta 90.000000
_cell_angle_gamma 90.000000
_cell_volume 2237.105525
_symmetry_space_group_name_H-M "P C C A"
_symmetry_group_IT_number 54
_symmetry_cell_setting 'orthorhombic'
loop_
_space_group_symop_operation_xyz
x,y,z
1/2-x,-y,z
1/2+x,-y,1/2-z
-x,y,1/2-z
-x,-y,-z
1/2+x,y,-z
1/2-x,y,1/2+z
x,-y,1/2+z
loop_
_atom_site_type_symbol
_atom_site_label
_atom_site_fract_x
_atom_site_fract_y
_atom_site_fract_z
Si Si1 0.346578 0.827414 0.704634
Si Si2 0.557493 0.144622 0.747729
Si Si3 0.199818 0.356296 0.880369
Si Si4 0.667286 0.930503 0.469618
Si Si5 0.391148 0.312751 0.931596
Si Si6 0.402510 0.553547 0.107409
O O1 0.309730 0.806353 0.793669
O O2 0.360837 0.585025 0.667612
O O3 0.399414 0.962175 0.727328
O O4 0.312500 0.950567 0.624228
O O5 0.500000 0.033832 0.750000
O O6 0.567721 0.246966 0.646596
O O7 0.554904 0.347623 0.821770
O O8 0.250000 0.500000 0.858938
O O9 0.211143 0.206105 0.972383
O O10 0.148304 0.503127 0.892844
O O11 0.623145 0.761621 0.440554
O O12 0.642553 0.101975 0.541074
O O13 0.423418 0.400079 0.022554
#
# Coordination Sequence:
#
# PCOD8223037 Si02
#       6
#     8   8   8   8   8   8
#     4  10  20  41  62  90 133 163 207 267 313 373
#     4  11  22  37  64  94 125 171 215 256 318 382
#     4  11  22  39  67  95 120 165 216 253 318 384
#     4   9  20  40  64  85 130 166 196 264 324 366
#     4  10  20  40  64  87 130 163 201 269 308 369
#     4   9  20  39  63  88 127 167 201 261 319 363
#
# _framework density 21.456295999999998
#
# number of rings (size 3 to 8) (size 9 to 14) (size 15 to 20)
#    0.000    2.000    3.333    0.000    0.000    2.000 
#    0.000   16.667    3.667    0.000    0.000    0.000 
#    0.000    0.000    0.000    0.000    0.000    0.000 
#
# Total GULP energy -594810.747014 kJ/mol
# GULP energy per Si atom -12391.890563 kJ/mol
# Density = 2.140746 g / cm^3
# Si number density = 21.456296 Si / 1000 Ang^3
#
#
#
# Elastic Constant Matrix: (Units=GPa)
#
#
# Indices 1 2 3 4 5 6 
#
# 1 72.8317 19.2783 47.9294 0.0000 0.0000 0.0000
# 2 19.2783 86.7946 47.9742 0.0000 0.0000 0.0000
# 3 47.9294 47.9742 158.9287 0.0000 0.0000 0.0000
# 4 0.0000 0.0000 0.0000 41.5822 0.0000 0.0000
# 5 0.0000 0.0000 0.0000 0.0000 9.4789 0.0000
# 6 0.0000 0.0000 0.0000 0.0000 0.0000 26.3014
#
#
#
# Elastic Compliance Matrix: (Units=1/GPa)
#
#
# Indices 1 2 3 4 5 6 
#
# 1 0.017224 -0.001146 -0.004849 0.000000 0.000000 0.000000
# 2 -0.001146 0.013905 -0.003852 0.000000 0.000000 0.000000
# 3 -0.004849 -0.003852 0.008917 0.000000 0.000000 0.000000
# 4 0.000000 0.000000 0.000000 0.024049 0.000000 0.000000
# 5 0.000000 0.000000 0.000000 0.000000 0.105498 0.000000
# 6 0.000000 0.000000 0.000000 0.000000 0.000000 0.038021
#
#
# Mechanical properties :
#
#
# Convention : Reuss Voigt Hill
#
# Bulk Modulus (GPa) = 49.13045 60.99098 55.06072
# Shear Modulus (GPa) = 21.35922 29.03071 25.19496
#
# Velocity S-wave (km/s) = 3.15854 3.68233 3.43044
# Velocity P-wave (km/s) = 6.02075 6.82398 6.43491
#
# Compressibility (1/GPa) = 0.02035398
#
# Stress axis : x y z
#
# Youngs Moduli (GPa) = 58.05728 71.91675 112.14438
#
# Poissons Ratio (x) = 0.08240 0.54375
# Poissons Ratio (y) = 0.06652 0.43196
# Poissons Ratio (z) = 0.28150 0.27701
#
# Static dielectric constant tensor:
#      x y z
#    x 3.185480 0.000000 0.000000 
#    y 0.000000 4.195380 0.000000 
#    z 0.000000 0.000000 4.509160 
# 
# 
# High freq. dielectric constant tensor:
#      x y z
#    x 1.780830 0.000000 0.000000 
#    y 0.000000 1.859880 0.000000 
#    z 0.000000 0.000000 1.873710 
# 
# From -- ./inp_files/15122.got.cif
#   From: 2010.03.12/outbox.cif.g09.slc.cpg/sg54_8_cif.got.tgz:15122.got - 2010.04.16 15:00:50.
