data_PCOD8223102
_publ_section_title
;
Structure prediction by ZEFSAII (Michael W. Deem and Ramdas Pophale) SiO2 
 PCOD8223102
Probable space group: P C C A
;
_chemical_formula_sum "Si O2"
_cell_formula_units_Z 56
_cell_length_a 18.747969
_cell_length_b 9.506484
_cell_length_c 14.589882
_cell_angle_alpha 90.000000
_cell_angle_beta 90.000000
_cell_angle_gamma 90.000000
_cell_volume 2600.314800
_symmetry_space_group_name_H-M "P C C A"
_symmetry_group_IT_number 54
_symmetry_cell_setting 'orthorhombic'
loop_
_space_group_symop_operation_xyz
x,y,z
1/2-x,-y,z
1/2+x,-y,1/2-z
-x,y,1/2-z
-x,-y,-z
1/2+x,y,-z
1/2-x,y,1/2+z
x,-y,1/2+z
loop_
_atom_site_type_symbol
_atom_site_label
_atom_site_fract_x
_atom_site_fract_y
_atom_site_fract_z
Si Si1 0.676655 0.774166 0.748925
Si Si2 0.957281 0.627518 0.458450
Si Si3 0.330351 0.503231 0.656244
Si Si4 0.037807 0.153250 0.843123
Si Si5 0.417624 0.114370 0.922320
Si Si6 0.668430 0.026483 0.406866
Si Si7 0.339513 0.798941 0.237608
O O1 0.671195 0.606194 0.755789
O O2 0.623605 0.827772 0.669597
O O3 0.652533 0.832256 0.848916
O O4 0.757486 0.823372 0.730592
O O5 0.883609 0.560959 0.421376
O O6 0.949559 0.742917 0.537978
O O7 0.000000 0.500000 0.500000
O O8 0.003254 0.703025 0.379607
O O9 0.250000 0.500000 0.613244
O O10 0.355114 0.356159 0.699241
O O11 0.000000 0.115547 0.750000
O O12 0.025670 0.013890 0.905924
O O13 0.384940 0.159406 0.825282
O O14 0.363286 0.044795 0.993231
O O15 0.750000 0.000000 0.425323
O O16 0.637556 0.897731 0.347038
#
# Coordination Sequence:
#
# PCOD8223102 Si02
#       7
#     8   8   8   8   8   8   8
#     4  10  20  45  69  99 140 184 224 282 357 409
#     4  12  29  47  66 102 143 184 236 292 350 424
#     4  10  22  47  72  96 139 188 231 290 355 407
#     4  12  25  44  73  94 141 188 227 283 354 419
#     4  12  26  44  71 107 136 181 244 281 344 428
#     4  10  21  40  69 105 142 175 222 295 348 401
#     4  10  24  41  73 107 137 179 234 290 344 414
#
# _framework density 21.535855000000002
#
# number of rings (size 3 to 8) (size 9 to 14) (size 15 to 20)
#    0.000    1.143    4.286    0.429    6.000    1.143 
#    2.571    0.000    0.000    0.000    0.000    0.000 
#    0.000    0.000    0.000    0.000    0.000    0.000 
#
# Total GULP energy -694127.139207 kJ/mol
# GULP energy per Si atom -12395.127486 kJ/mol
# Density = 2.148684 g / cm^3
# Si number density = 21.535855 Si / 1000 Ang^3
#
#
#
# Elastic Constant Matrix: (Units=GPa)
#
#
# Indices 1 2 3 4 5 6 
#
# 1 77.5880 49.9161 27.7960 0.0000 0.0000 0.0000
# 2 49.9161 160.5871 60.9845 0.0000 0.0000 0.0000
# 3 27.7960 60.9845 100.4536 0.0000 0.0000 0.0000
# 4 0.0000 0.0000 0.0000 37.4641 0.0000 0.0000
# 5 0.0000 0.0000 0.0000 0.0000 38.9081 0.0000
# 6 0.0000 0.0000 0.0000 0.0000 0.0000 34.8710
#
#
#
# Elastic Compliance Matrix: (Units=1/GPa)
#
#
# Indices 1 2 3 4 5 6 
#
# 1 0.016377 -0.004379 -0.001873 0.000000 0.000000 0.000000
# 2 -0.004379 0.009264 -0.004412 0.000000 0.000000 0.000000
# 3 -0.001873 -0.004412 0.013152 0.000000 0.000000 0.000000
# 4 0.000000 0.000000 0.000000 0.026692 0.000000 0.000000
# 5 0.000000 0.000000 0.000000 0.000000 0.025702 0.000000
# 6 0.000000 0.000000 0.000000 0.000000 0.000000 0.028677
#
#
# Mechanical properties :
#
#
# Convention : Reuss Voigt Hill
#
# Bulk Modulus (GPa) = 57.26185 68.44688 62.85437
# Shear Modulus (GPa) = 34.01035 35.57744 34.79390
#
# Velocity S-wave (km/s) = 3.97828 4.06890 4.02385
# Velocity P-wave (km/s) = 6.91007 7.34346 7.13006
#
# Compressibility (1/GPa) = 0.01746364
#
# Stress axis : x y z
#
# Youngs Moduli (GPa) = 61.06134 107.94458 76.03521
#
# Poissons Ratio (x) = 0.47272 0.14241
# Poissons Ratio (y) = 0.26740 0.33549
# Poissons Ratio (z) = 0.11437 0.47629
#
# Static dielectric constant tensor:
#      x y z
#    x 4.145970 0.000000 0.000000 
#    y 0.000000 4.324930 0.000000 
#    z 0.000000 0.000000 3.768530 
# 
# 
# High freq. dielectric constant tensor:
#      x y z
#    x 1.848410 0.000000 0.000000 
#    y 0.000000 1.870100 0.000000 
#    z 0.000000 0.000000 1.832800 
# 
# From -- ./inp_files/14691.got.cif
#   From: 2010.03.12/outbox.cif.g09.slc.cpg/sg54_8_cif.got.tgz:14691.got - 2010.04.16 15:00:50.
