data_PCOD8223243
_publ_section_title
;
Structure prediction by ZEFSAII (Michael W. Deem and Ramdas Pophale) SiO2 
 PCOD8223243
Probable space group: P C C A
;
_chemical_formula_sum "Si O2"
_cell_formula_units_Z 48
_cell_length_a 29.748383
_cell_length_b 8.523948
_cell_length_c 8.931532
_cell_angle_alpha 90.000000
_cell_angle_beta 90.000000
_cell_angle_gamma 90.000000
_cell_volume 2264.801346
_symmetry_space_group_name_H-M "P C C A"
_symmetry_group_IT_number 54
_symmetry_cell_setting 'orthorhombic'
loop_
_space_group_symop_operation_xyz
x,y,z
1/2-x,-y,z
1/2+x,-y,1/2-z
-x,y,1/2-z
-x,-y,-z
1/2+x,y,-z
1/2-x,y,1/2+z
x,-y,1/2+z
loop_
_atom_site_type_symbol
_atom_site_label
_atom_site_fract_x
_atom_site_fract_y
_atom_site_fract_z
Si Si1 0.274238 0.840126 0.385935
Si Si2 0.542853 0.602127 0.845028
Si Si3 0.871055 0.919480 0.612112
Si Si4 0.369304 0.217267 0.207330
Si Si5 0.955258 0.284868 0.186578
Si Si6 0.275517 0.346429 0.165309
O O1 0.325540 0.838218 0.327755
O O2 0.250499 0.689449 0.316521
O O3 0.269699 0.806798 0.561608
O O4 0.250000 0.000000 0.342833
O O5 0.500000 0.661362 0.750000
O O6 0.584967 0.690793 0.777494
O O7 0.552391 0.419310 0.811473
O O8 0.537091 0.634699 0.023060
O O9 0.871635 0.900371 0.433759
O O10 0.914312 0.837350 0.687018
O O11 0.866798 0.104561 0.647666
O O12 0.329454 0.349391 0.198028
O O13 0.000000 0.195576 0.250000
O O14 0.250000 0.500000 0.098850
#
# Coordination Sequence:
#
# PCOD8223243 Si02
#       6
#     8   8   8   8   8   8
#     4  11  22  41  63  88 123 165 205 254 310 371
#     4  10  21  39  61  89 123 160 203 251 310 367
#     4  10  23  39  60  89 120 158 206 249 307 367
#     4  10  23  41  59  90 123 159 205 255 305 370
#     4  10  21  39  62  90 121 161 205 252 308 369
#     4  11  24  40  61  92 124 160 209 257 310 367
#
# _framework density 21.193911
#
# number of rings (size 3 to 8) (size 9 to 14) (size 15 to 20)
#    0.000    1.667    1.667    3.000    4.667    3.333 
#    3.000    3.333    0.000    0.000    0.000    0.000 
#    0.000    0.000    0.000    0.000    0.000    0.000 
#
# Total GULP energy -594739.226480 kJ/mol
# GULP energy per Si atom -12390.400552 kJ/mol
# Density = 2.114567 g / cm^3
# Si number density = 21.193911 Si / 1000 Ang^3
#
#
#
# Elastic Constant Matrix: (Units=GPa)
#
#
# Indices 1 2 3 4 5 6 
#
# 1 175.9992 63.7803 37.7647 0.0000 0.0000 0.0000
# 2 63.7803 80.0343 17.2733 0.0000 0.0000 0.0000
# 3 37.7647 17.2733 45.4100 0.0000 0.0000 0.0000
# 4 0.0000 0.0000 0.0000 32.9574 0.0000 0.0000
# 5 0.0000 0.0000 0.0000 0.0000 28.4260 0.0000
# 6 0.0000 0.0000 0.0000 0.0000 0.0000 38.0590
#
#
#
# Elastic Compliance Matrix: (Units=1/GPa)
#
#
# Indices 1 2 3 4 5 6 
#
# 1 0.008980 -0.006041 -0.005171 0.000000 0.000000 0.000000
# 2 -0.006041 0.017675 -0.001700 0.000000 0.000000 0.000000
# 3 -0.005171 -0.001700 0.026968 0.000000 0.000000 0.000000
# 4 0.000000 0.000000 0.000000 0.030342 0.000000 0.000000
# 5 0.000000 0.000000 0.000000 0.000000 0.035179 0.000000
# 6 0.000000 0.000000 0.000000 0.000000 0.000000 0.026275
#
#
# Mechanical properties :
#
#
# Convention : Reuss Voigt Hill
#
# Bulk Modulus (GPa) = 35.96890 59.89778 47.93334
# Shear Modulus (GPa) = 27.69933 32.06350 29.88142
#
# Velocity S-wave (km/s) = 3.61910 3.89377 3.75894
# Velocity P-wave (km/s) = 5.87128 6.96695 6.44245
#
# Compressibility (1/GPa) = 0.02780180
#
# Stress axis : x y z
#
# Youngs Moduli (GPa) = 111.35362 56.57594 37.08060
#
# Poissons Ratio (x) = 0.34175 0.19173
# Poissons Ratio (y) = 0.67265 0.06303
# Poissons Ratio (z) = 0.57577 0.09617
#
# Static dielectric constant tensor:
#      x y z
#    x 4.193970 0.000000 0.000000 
#    y 0.000000 3.489800 0.000000 
#    z 0.000000 0.000000 3.729050 
# 
# 
# High freq. dielectric constant tensor:
#      x y z
#    x 1.852540 0.000000 0.000000 
#    y 0.000000 1.808940 0.000000 
#    z 0.000000 0.000000 1.831040 
# 
# From -- ./inp_files/5813.got.cif
#   From: 2010.03.12/outbox.cif.g09.slc.cpg/sg54_3_cif.got.tgz:5813.got - 2010.04.16 15:00:50.
