data_PCOD8223701
_publ_section_title
;
Structure prediction by ZEFSAII (Michael W. Deem and Ramdas Pophale) SiO2 
 PCOD8223701
Probable space group: P C C A
;
_chemical_formula_sum "Si O2"
_cell_formula_units_Z 48
_cell_length_a 8.886742
_cell_length_b 9.836002
_cell_length_c 27.327683
_cell_angle_alpha 90.000000
_cell_angle_beta 90.000000
_cell_angle_gamma 90.000000
_cell_volume 2388.713101
_symmetry_space_group_name_H-M "P C C A"
_symmetry_group_IT_number 54
_symmetry_cell_setting 'orthorhombic'
loop_
_space_group_symop_operation_xyz
x,y,z
1/2-x,-y,z
1/2+x,-y,1/2-z
-x,y,1/2-z
-x,-y,-z
1/2+x,y,-z
1/2-x,y,1/2+z
x,-y,1/2+z
loop_
_atom_site_type_symbol
_atom_site_label
_atom_site_fract_x
_atom_site_fract_y
_atom_site_fract_z
Si Si1 0.074897 0.469231 0.598235
Si Si2 0.113470 0.404255 0.705695
Si Si3 0.576449 0.732396 0.057315
Si Si4 0.612183 0.904968 0.794760
Si Si5 0.082122 0.991820 0.883417
Si Si6 0.078315 0.229835 0.956856
O O1 0.250000 0.500000 0.589818
O O2 0.036768 0.457006 0.655765
O O3 0.974352 0.585628 0.574935
O O4 0.032342 0.329665 0.572098
O O5 0.250000 0.500000 0.720505
O O6 0.168806 0.249394 0.697667
O O7 0.000000 0.414141 0.750000
O O8 0.547747 0.837020 0.101637
O O9 0.750718 0.717716 0.042964
O O10 0.477837 0.783660 0.012009
O O11 0.500000 0.913522 0.750000
O O12 0.750000 0.000000 0.781154
O O13 0.536702 0.958575 0.844043
O O14 0.250000 0.000000 0.860809
O O15 0.071447 0.082272 0.932227
#
# Coordination Sequence:
#
# PCOD8223701 Si02
#       6
#     8   8   8   8   8   8
#     4  11  23  41  62  92 125 164 211 257 310 368
#     4  10  24  44  65  95 127 163 207 256 308 371
#     4  11  24  38  65  90 125 167 210 257 315 368
#     4  11  24  43  68  96 129 163 207 258 310 372
#     4  10  23  42  63  93 126 165 208 257 315 370
#     4  11  22  42  61  92 126 164 211 261 310 371
#
# _framework density 20.094501999999999
#
# number of rings (size 3 to 8) (size 9 to 14) (size 15 to 20)
#    0.000    1.333    1.667    3.000    4.667    3.333 
#    3.000    0.000    0.000    0.000    0.000    0.000 
#    0.000    0.000    0.000    0.000    0.000    0.000 
#
# Total GULP energy -595436.943179 kJ/mol
# GULP energy per Si atom -12404.936316 kJ/mol
# Density = 2.004877 g / cm^3
# Si number density = 20.094502 Si / 1000 Ang^3
#
#
#
# Elastic Constant Matrix: (Units=GPa)
#
#
# Indices 1 2 3 4 5 6 
#
# 1 99.2053 38.6080 32.4536 0.0000 0.0000 0.0000
# 2 38.6080 67.0967 7.9589 0.0000 0.0000 0.0000
# 3 32.4536 7.9589 73.6226 0.0000 0.0000 0.0000
# 4 0.0000 0.0000 0.0000 21.9908 0.0000 0.0000
# 5 0.0000 0.0000 0.0000 0.0000 24.5193 0.0000
# 6 0.0000 0.0000 0.0000 0.0000 0.0000 33.2083
#
#
#
# Elastic Compliance Matrix: (Units=1/GPa)
#
#
# Indices 1 2 3 4 5 6 
#
# 1 0.015083 -0.007993 -0.005785 0.000000 0.000000 0.000000
# 2 -0.007993 0.019333 0.001433 0.000000 0.000000 0.000000
# 3 -0.005785 0.001433 0.015978 0.000000 0.000000 0.000000
# 4 0.000000 0.000000 0.000000 0.045474 0.000000 0.000000
# 5 0.000000 0.000000 0.000000 0.000000 0.040784 0.000000
# 6 0.000000 0.000000 0.000000 0.000000 0.000000 0.030113
#
#
# Mechanical properties :
#
#
# Convention : Reuss Voigt Hill
#
# Bulk Modulus (GPa) = 38.90218 44.21841 41.56029
# Shear Modulus (GPa) = 24.99734 26.67061 25.83397
#
# Velocity S-wave (km/s) = 3.53085 3.64711 3.58945
# Velocity P-wave (km/s) = 6.00201 6.30779 6.15680
#
# Compressibility (1/GPa) = 0.02570550
#
# Stress axis : x y z
#
# Youngs Moduli (GPa) = 66.29962 51.72521 62.58681
#
# Poissons Ratio (x) = 0.41343 0.36205
# Poissons Ratio (y) = 0.52991 -0.08971
# Poissons Ratio (z) = 0.38352 -0.07414
#
# Static dielectric constant tensor:
#      x y z
#    x 3.738470 0.000000 0.000000 
#    y 0.000000 3.844400 0.000000 
#    z 0.000000 0.000000 3.670200 
# 
# 
# High freq. dielectric constant tensor:
#      x y z
#    x 1.786780 0.000000 0.000000 
#    y 0.000000 1.800720 0.000000 
#    z 0.000000 0.000000 1.793320 
# 
# From -- ./inp_files/27717.got.cif
#   From: 2010.03.12/outbox.cif.g09.slc.cpg/sg54_14_cif.got.tgz:27717.got - 2010.04.16 15:00:50.
