data_PCOD8223477
_publ_section_title
;
Structure prediction by ZEFSAII (Michael W. Deem and Ramdas Pophale) SiO2 
 PCOD8223477
Probable space group: P C C A
;
_chemical_formula_sum "Si O2"
_cell_formula_units_Z 44
_cell_length_a 23.882013
_cell_length_b 5.541804
_cell_length_c 15.720566
_cell_angle_alpha 90.000000
_cell_angle_beta 90.000000
_cell_angle_gamma 90.000000
_cell_volume 2080.608031
_symmetry_space_group_name_H-M "P C C A"
_symmetry_group_IT_number 54
_symmetry_cell_setting 'orthorhombic'
loop_
_space_group_symop_operation_xyz
x,y,z
1/2-x,-y,z
1/2+x,-y,1/2-z
-x,y,1/2-z
-x,-y,-z
1/2+x,y,-z
1/2-x,y,1/2+z
x,-y,1/2+z
loop_
_atom_site_type_symbol
_atom_site_label
_atom_site_fract_x
_atom_site_fract_y
_atom_site_fract_z
Si Si1 0.880894 0.877643 0.751102
Si Si2 0.250000 0.500000 0.994888
Si Si3 0.657142 0.183311 0.572248
Si Si4 0.060784 0.636969 0.281646
Si Si5 0.063298 0.460558 0.970606
Si Si6 0.156520 0.202734 0.068154
O O1 0.844108 0.929286 0.666887
O O2 0.904660 0.603641 0.744392
O O3 0.844258 0.895426 0.836229
O O4 0.922427 0.107583 0.761146
O O5 0.209286 0.375601 0.062429
O O6 0.209585 0.637187 0.929084
O O7 0.596050 0.291797 0.548900
O O8 0.671920 0.994637 0.500728
O O9 0.062926 0.688706 0.382770
O O10 0.000000 0.569367 0.250000
O O11 0.096298 0.320184 0.044827
O O12 0.000000 0.500000 0.000000
#
# Coordination Sequence:
#
# PCOD8223477 Si02
#       6
#     8   4   8   8   8   8
#     4  11  25  42  68  97 139 179 224 281 339 406
#     4  10  24  44  70  94 130 174 230 288 342 402
#     4  10  23  45  64  98 132 175 226 280 340 404
#     4  11  23  42  62 101 141 183 229 273 332 406
#     4  10  22  39  66  97 137 181 223 278 337 405
#     4  11  23  43  68  96 134 174 232 278 343 406
#
# _framework density 21.147665
#
# number of rings (size 3 to 8) (size 9 to 14) (size 15 to 20)
#    0.000    1.455    1.818    2.182    7.636    2.909 
#    0.000    3.636    0.000    0.000    0.000    0.000 
#    0.000    0.000    0.000    0.000    0.000    0.000 
#
# Total GULP energy -545210.463532 kJ/mol
# GULP energy per Si atom -12391.146898 kJ/mol
# Density = 2.109953 g / cm^3
# Si number density = 21.147665 Si / 1000 Ang^3
#
#
#
# Elastic Constant Matrix: (Units=GPa)
#
#
# Indices 1 2 3 4 5 6 
#
# 1 134.7463 32.6375 39.9656 0.0000 0.0000 0.0000
# 2 32.6375 102.0080 35.2428 0.0000 0.0000 0.0000
# 3 39.9656 35.2428 160.3131 0.0000 0.0000 0.0000
# 4 0.0000 0.0000 0.0000 -1.2386 0.0000 0.0000
# 5 0.0000 0.0000 0.0000 0.0000 16.7522 0.0000
# 6 0.0000 0.0000 0.0000 0.0000 0.0000 -25.3556
#
#
#
# Elastic Compliance Matrix: (Units=1/GPa)
#
#
# Indices 1 2 3 4 5 6 
#
# 1 0.008421 -0.002131 -0.001631 0.000000 0.000000 0.000000
# 2 -0.002131 0.011148 -0.001920 0.000000 0.000000 0.000000
# 3 -0.001631 -0.001920 0.007066 0.000000 0.000000 0.000000
# 4 0.000000 0.000000 0.000000 -0.807371 0.000000 0.000000
# 5 0.000000 0.000000 0.000000 0.000000 0.059694 0.000000
# 6 0.000000 0.000000 0.000000 0.000000 0.000000 -0.039439
#
#
# Mechanical properties :
#
#
# Convention : Reuss Voigt Hill
#
# Bulk Modulus (GPa) = 65.47525 68.08437 66.77981
# Shear Modulus (GPa) = -6.72019 17.31302 5.29642
#
# Velocity S-wave (km/s) = -1.78456 2.86435 1.58428
# Velocity P-wave (km/s) = 5.17513 6.57297 5.91549
#
# Compressibility (1/GPa) = 0.01527295
#
# Stress axis : x y z
#
# Youngs Moduli (GPa) = 118.74756 89.70119 141.51535
#
# Poissons Ratio (x) = 0.19114 0.23080
# Poissons Ratio (y) = 0.25304 0.27165
# Poissons Ratio (z) = 0.19367 0.17219
#
# Static dielectric constant tensor:
#      x y z
#    x 3.738590 0.000000 0.000000 
#    y 0.000000 3.981840 0.000000 
#    z 0.000000 0.000000 3.728970 
# 
# 
# High freq. dielectric constant tensor:
#      x y z
#    x 1.824600 0.000000 0.000000 
#    y 0.000000 1.831890 0.000000 
#    z 0.000000 0.000000 1.837190 
# 
# From -- ./inp_files/15072.got.cif
#   From: 2010.03.12/outbox.cif.g09.slc.cpg/sg54_8_cif.got.tgz:15072.got - 2010.04.16 15:00:50.
