data_PCOD8223049
_publ_section_title
;
Structure prediction by ZEFSAII (Michael W. Deem and Ramdas Pophale) SiO2 
 PCOD8223049
Probable space group: P C C A
;
_chemical_formula_sum "Si O2"
_cell_formula_units_Z 44
_cell_length_a 15.966093
_cell_length_b 14.870481
_cell_length_c 9.012519
_cell_angle_alpha 90.000000
_cell_angle_beta 90.000000
_cell_angle_gamma 90.000000
_cell_volume 2139.783648
_symmetry_space_group_name_H-M "P C C A"
_symmetry_group_IT_number 54
_symmetry_cell_setting 'orthorhombic'
loop_
_space_group_symop_operation_xyz
x,y,z
1/2-x,-y,z
1/2+x,-y,1/2-z
-x,y,1/2-z
-x,-y,-z
1/2+x,y,-z
1/2-x,y,1/2+z
x,-y,1/2+z
loop_
_atom_site_type_symbol
_atom_site_label
_atom_site_fract_x
_atom_site_fract_y
_atom_site_fract_z
Si Si1 0.092012 0.235095 0.718452
Si Si2 0.204225 0.374173 0.595147
Si Si3 0.842603 0.088082 0.958948
Si Si4 0.596857 0.920234 0.284887
Si Si5 0.250000 0.500000 0.348680
Si Si6 0.681685 0.213810 0.969198
O O1 0.126743 0.307647 0.602397
O O2 0.084900 0.142679 0.626906
O O3 0.000000 0.269705 0.750000
O O4 0.151783 0.220925 0.860856
O O5 0.190758 0.440284 0.455484
O O6 0.199104 0.432020 0.745525
O O7 0.289333 0.313907 0.581469
O O8 0.755192 0.140889 0.939455
O O9 0.851867 0.989277 0.889816
O O10 0.854458 0.080673 0.132430
O O11 0.500000 0.943689 0.250000
O O12 0.605040 0.822675 0.366617
#
# Coordination Sequence:
#
# PCOD8223049 Si02
#       6
#     8   8   8   8   4   8
#     4  11  22  40  62  92 129 164 203 260 316 369
#     4  10  21  39  67  90 122 160 210 252 313 371
#     4  11  23  39  61  86 124 168 214 248 294 366
#     4  12  24  39  60  91 126 164 203 259 310 352
#     4  10  20  40  68  92 118 160 208 266 300 382
#     4  11  23  40  61  91 121 165 211 248 303 375
#
# _framework density 20.562826000000001
#
# number of rings (size 3 to 8) (size 9 to 14) (size 15 to 20)
#    0.000    1.091    1.818    6.000    2.545    1.455 
#    0.000    0.909    0.000    0.000    0.000    0.000 
#    0.000    0.000    0.000    0.000    0.000    0.000 
#
# Total GULP energy -545262.579409 kJ/mol
# GULP energy per Si atom -12392.331350 kJ/mol
# Density = 2.051602 g / cm^3
# Si number density = 20.562826 Si / 1000 Ang^3
#
#
#
# Elastic Constant Matrix: (Units=GPa)
#
#
# Indices 1 2 3 4 5 6 
#
# 1 57.8887 23.6081 7.2077 0.0000 0.0000 0.0000
# 2 23.6081 114.8129 51.0726 0.0000 0.0000 0.0000
# 3 7.2077 51.0726 129.1819 0.0000 0.0000 0.0000
# 4 0.0000 0.0000 0.0000 33.4252 0.0000 0.0000
# 5 0.0000 0.0000 0.0000 0.0000 22.2537 0.0000
# 6 0.0000 0.0000 0.0000 0.0000 0.0000 13.3077
#
#
#
# Elastic Compliance Matrix: (Units=1/GPa)
#
#
# Indices 1 2 3 4 5 6 
#
# 1 0.018892 -0.004145 0.000585 0.000000 0.000000 0.000000
# 2 -0.004145 0.011478 -0.004307 0.000000 0.000000 0.000000
# 3 0.000585 -0.004307 0.009411 0.000000 0.000000 0.000000
# 4 0.000000 0.000000 0.000000 0.029918 0.000000 0.000000
# 5 0.000000 0.000000 0.000000 0.000000 0.044936 0.000000
# 6 0.000000 0.000000 0.000000 0.000000 0.000000 0.075144
#
#
# Mechanical properties :
#
#
# Convention : Reuss Voigt Hill
#
# Bulk Modulus (GPa) = 41.58437 51.74003 46.66220
# Shear Modulus (GPa) = 23.41613 28.46368 25.93991
#
# Velocity S-wave (km/s) = 3.37821 3.72456 3.55561
# Velocity P-wave (km/s) = 5.95680 6.61158 6.29271
#
# Compressibility (1/GPa) = 0.02404750
#
# Stress axis : x y z
#
# Youngs Moduli (GPa) = 52.93236 87.12515 106.25850
#
# Poissons Ratio (x) = 0.36110 -0.06211
# Poissons Ratio (y) = 0.21939 0.45760
# Poissons Ratio (z) = -0.03094 0.37521
#
# Static dielectric constant tensor:
#      x y z
#    x 3.484300 0.000000 0.000000 
#    y 0.000000 4.079880 0.000000 
#    z 0.000000 0.000000 3.893860 
# 
# 
# High freq. dielectric constant tensor:
#      x y z
#    x 1.773430 0.000000 0.000000 
#    y 0.000000 1.815680 0.000000 
#    z 0.000000 0.000000 1.824250 
# 
# From -- ./inp_files/4121.got.cif
#   From: 2010.03.12/outbox.cif.g09.slc.cpg/sg54_3_cif.got.tgz:4121.got - 2010.04.16 15:00:50.
