data_PCOD8223682
_publ_section_title
;
Structure prediction by ZEFSAII (Michael W. Deem and Ramdas Pophale) SiO2 
 PCOD8223682
Probable space group: P C C A
;
_chemical_formula_sum "Si O2"
_cell_formula_units_Z 48
_cell_length_a 18.142658
_cell_length_b 9.248791
_cell_length_c 14.179786
_cell_angle_alpha 90.000000
_cell_angle_beta 90.000000
_cell_angle_gamma 90.000000
_cell_volume 2379.334797
_symmetry_space_group_name_H-M "P C C A"
_symmetry_group_IT_number 54
_symmetry_cell_setting 'orthorhombic'
loop_
_space_group_symop_operation_xyz
x,y,z
1/2-x,-y,z
1/2+x,-y,1/2-z
-x,y,1/2-z
-x,-y,-z
1/2+x,y,-z
1/2-x,y,1/2+z
x,-y,1/2+z
loop_
_atom_site_type_symbol
_atom_site_label
_atom_site_fract_x
_atom_site_fract_y
_atom_site_fract_z
Si Si1 0.588485 0.672353 0.009111
Si Si2 0.579768 0.335385 0.204597
Si Si3 0.319691 0.182540 0.649999
Si Si4 0.676542 0.404057 0.684602
Si Si5 0.072791 0.652723 0.517599
Si Si6 0.652947 0.140362 0.349548
O O1 0.653464 0.667812 0.085582
O O2 0.583974 0.516287 0.958084
O O3 0.507858 0.701911 0.055392
O O4 0.602240 0.796713 0.932633
O O5 0.500000 0.321388 0.250000
O O6 0.611718 0.494594 0.224938
O O7 0.577798 0.310795 0.092994
O O8 0.633903 0.216930 0.250640
O O9 0.315056 0.271063 0.746040
O O10 0.362455 0.263327 0.568091
O O11 0.236173 0.165135 0.616418
O O12 0.360333 0.029824 0.666695
O O13 0.750000 0.500000 0.671484
#
# Coordination Sequence:
#
# PCOD8223682 Si02
#       6
#     8   8   8   8   8   8
#     4  10  23  40  66  96 125 165 213 273 323 382
#     4  11  22  43  68  94 125 173 213 267 324 383
#     4  11  26  41  63  96 130 176 214 266 322 388
#     4  11  24  41  67  96 127 170 221 271 317 383
#     4  10  23  41  66  98 126 164 218 268 324 382
#     4  11  24  44  63  91 137 174 214 262 326 391
#
# _framework density 20.173705999999999
#
# number of rings (size 3 to 8) (size 9 to 14) (size 15 to 20)
#    0.000    1.333    3.333    1.000    9.333    2.000 
#    3.000    3.333    0.000    0.000    0.000    0.000 
#    0.000    0.000    0.000    0.000    0.000    0.000 
#
# Total GULP energy -595228.442609 kJ/mol
# GULP energy per Si atom -12400.592554 kJ/mol
# Density = 2.012779 g / cm^3
# Si number density = 20.173706 Si / 1000 Ang^3
#
#
#
# Elastic Constant Matrix: (Units=GPa)
#
#
# Indices 1 2 3 4 5 6 
#
# 1 102.1034 41.7875 39.4952 0.0000 0.0000 0.0000
# 2 41.7875 80.2342 26.0078 0.0000 0.0000 0.0000
# 3 39.4952 26.0078 74.1518 0.0000 0.0000 0.0000
# 4 0.0000 0.0000 0.0000 12.6708 0.0000 0.0000
# 5 0.0000 0.0000 0.0000 0.0000 31.9086 0.0000
# 6 0.0000 0.0000 0.0000 0.0000 0.0000 29.0187
#
#
#
# Elastic Compliance Matrix: (Units=1/GPa)
#
#
# Indices 1 2 3 4 5 6 
#
# 1 0.014267 -0.005604 -0.005633 0.000000 0.000000 0.000000
# 2 -0.005604 0.016264 -0.002719 0.000000 0.000000 0.000000
# 3 -0.005633 -0.002719 0.017440 0.000000 0.000000 0.000000
# 4 0.000000 0.000000 0.000000 0.078922 0.000000 0.000000
# 5 0.000000 0.000000 0.000000 0.000000 0.031339 0.000000
# 6 0.000000 0.000000 0.000000 0.000000 0.000000 0.034461
#
#
# Mechanical properties :
#
#
# Convention : Reuss Voigt Hill
#
# Bulk Modulus (GPa) = 49.85829 52.34117 51.09973
# Shear Modulus (GPa) = 21.99818 24.66621 23.33220
#
# Velocity S-wave (km/s) = 3.30576 3.50049 3.40452
# Velocity P-wave (km/s) = 6.27207 6.50688 6.39056
#
# Compressibility (1/GPa) = 0.02005684
#
# Stress axis : x y z
#
# Youngs Moduli (GPa) = 70.09349 61.48611 57.33957
#
# Poissons Ratio (x) = 0.34459 0.32300
# Poissons Ratio (y) = 0.39283 0.15592
# Poissons Ratio (z) = 0.39485 0.16720
#
# Static dielectric constant tensor:
#      x y z
#    x 3.923860 0.000000 0.000000 
#    y 0.000000 3.717310 0.000000 
#    z 0.000000 0.000000 3.562300 
# 
# 
# High freq. dielectric constant tensor:
#      x y z
#    x 1.805240 0.000000 0.000000 
#    y 0.000000 1.779570 0.000000 
#    z 0.000000 0.000000 1.782610 
# 
# From -- ./inp_files/14133.got.cif
#   From: 2010.03.12/outbox.cif.g09.slc.cpg/sg54_8_cif.got.tgz:14133.got - 2010.04.16 15:00:50.
