data_PCOD8223199
_publ_section_title
;
Structure prediction by ZEFSAII (Michael W. Deem and Ramdas Pophale) SiO2 
 PCOD8223199
Probable space group: P C C A
;
_chemical_formula_sum "Si O2"
_cell_formula_units_Z 64
_cell_length_a 28.710262
_cell_length_b 8.239369
_cell_length_c 12.016280
_cell_angle_alpha 90.000000
_cell_angle_beta 90.000000
_cell_angle_gamma 90.000000
_cell_volume 2842.504419
_symmetry_space_group_name_H-M "P C C A"
_symmetry_group_IT_number 54
_symmetry_cell_setting 'orthorhombic'
loop_
_space_group_symop_operation_xyz
x,y,z
1/2-x,-y,z
1/2+x,-y,1/2-z
-x,y,1/2-z
-x,-y,-z
1/2+x,y,-z
1/2-x,y,1/2+z
x,-y,1/2+z
loop_
_atom_site_type_symbol
_atom_site_label
_atom_site_fract_x
_atom_site_fract_y
_atom_site_fract_z
Si Si1 0.678542 0.756146 0.549342
Si Si2 0.888695 0.925863 0.905768
Si Si3 0.579684 0.607572 0.865793
Si Si4 0.538558 0.860643 0.011141
Si Si5 0.662746 0.816654 0.781200
Si Si6 0.353928 0.586794 0.430981
Si Si7 0.072105 0.705600 0.770884
Si Si8 0.730698 0.680788 0.941201
O O1 0.635471 0.775840 0.466070
O O2 0.672415 0.873158 0.654902
O O3 0.673747 0.576082 0.601081
O O4 0.727396 0.790471 0.487915
O O5 0.925108 0.853573 0.816503
O O6 0.912705 0.044477 0.996091
O O7 0.846724 0.020639 0.848378
O O8 0.537683 0.727080 0.910166
O O9 0.616748 0.701148 0.787754
O O10 0.556518 0.458553 0.795611
O O11 0.606583 0.548227 0.976582
O O12 0.536732 0.766875 0.131200
O O13 0.500000 0.000000 0.000000
O O14 0.711340 0.736506 0.821839
O O15 0.377128 0.668502 0.323153
O O16 0.314107 0.704910 0.478558
O O17 0.750000 0.500000 0.928450
#
# Coordination Sequence:
#
# PCOD8223199 Si02
#       8
#     8   8   8   8   8   8   8   8
#     4  11  20  36  60  87 127 174 228 279 327 396
#     4  11  24  40  65  94 127 178 223 274 350 428
#     4   9  18  38  68  99 124 168 226 266 314 418
#     4  10  24  45  69 102 142 168 211 284 359 422
#     4  10  21  38  57  90 128 172 221 274 342 386
#     4   9  18  35  60  96 125 165 227 276 316 380
#     4  11  20  39  74  97 128 179 224 275 338 402
#     4   9  21  35  55  90 132 172 226 282 330 389
#
# _framework density 22.515356000000001
#
# number of rings (size 3 to 8) (size 9 to 14) (size 15 to 20)
#    0.000    2.000    2.500    1.500    0.000    3.500 
#    0.000    1.875    2.750    0.000    0.000    0.000 
#    0.000    0.000    0.000    0.000    0.000    0.000 
#
# Total GULP energy -793077.680215 kJ/mol
# GULP energy per Si atom -12391.838753 kJ/mol
# Density = 2.246411 g / cm^3
# Si number density = 22.515356 Si / 1000 Ang^3
#
#
#
# Elastic Constant Matrix: (Units=GPa)
#
#
# Indices 1 2 3 4 5 6 
#
# 1 72.9646 30.7882 35.9204 0.0000 0.0000 0.0000
# 2 30.7882 94.4763 41.6545 0.0000 0.0000 0.0000
# 3 35.9204 41.6545 111.1512 0.0000 0.0000 0.0000
# 4 0.0000 0.0000 0.0000 34.8156 0.0000 0.0000
# 5 0.0000 0.0000 0.0000 0.0000 18.6938 0.0000
# 6 0.0000 0.0000 0.0000 0.0000 0.0000 38.4783
#
#
#
# Elastic Compliance Matrix: (Units=1/GPa)
#
#
# Indices 1 2 3 4 5 6 
#
# 1 0.017376 -0.003818 -0.004185 0.000000 0.000000 0.000000
# 2 -0.003818 0.013518 -0.003832 0.000000 0.000000 0.000000
# 3 -0.004185 -0.003832 0.011785 0.000000 0.000000 0.000000
# 4 0.000000 0.000000 0.000000 0.028723 0.000000 0.000000
# 5 0.000000 0.000000 0.000000 0.000000 0.053494 0.000000
# 6 0.000000 0.000000 0.000000 0.000000 0.000000 0.025989
#
#
# Mechanical properties :
#
#
# Convention : Reuss Voigt Hill
#
# Bulk Modulus (GPa) = 52.60228 55.03537 53.81882
# Shear Modulus (GPa) = 27.64086 29.74614 28.69350
#
# Velocity S-wave (km/s) = 3.50758 3.63870 3.57374
# Velocity P-wave (km/s) = 6.31013 6.49231 6.40187
#
# Compressibility (1/GPa) = 0.01901058
#
# Stress axis : x y z
#
# Youngs Moduli (GPa) = 57.54956 73.97299 84.85111
#
# Poissons Ratio (x) = 0.28240 0.35508
# Poissons Ratio (y) = 0.21970 0.32518
# Poissons Ratio (z) = 0.24083 0.28349
#
# Static dielectric constant tensor:
#      x y z
#    x 3.829360 0.000000 0.000000 
#    y 0.000000 3.994990 0.000000 
#    z 0.000000 0.000000 4.104090 
# 
# 
# High freq. dielectric constant tensor:
#      x y z
#    x 1.862530 0.000000 0.000000 
#    y 0.000000 1.883430 0.000000 
#    z 0.000000 0.000000 1.887720 
# 
# From -- ./inp_files/10569.got.cif
#   From: 2010.03.12/outbox.cif.g09.slc.cpg/sg54_6_cif.got.tgz:10569.got - 2010.04.16 15:00:50.
