data_PCOD8223887
_publ_section_title
;
Structure prediction by ZEFSAII (Michael W. Deem and Ramdas Pophale) SiO2 
 PCOD8223887
Probable space group: P C C A
;
_chemical_formula_sum "Si O2"
_cell_formula_units_Z 20
_cell_length_a 11.010191
_cell_length_b 7.667147
_cell_length_c 9.682609
_cell_angle_alpha 90.000000
_cell_angle_beta 90.000000
_cell_angle_gamma 90.000000
_cell_volume 817.374411
_symmetry_space_group_name_H-M "P C C A"
_symmetry_group_IT_number 54
_symmetry_cell_setting 'orthorhombic'
loop_
_space_group_symop_operation_xyz
x,y,z
1/2-x,-y,z
1/2+x,-y,1/2-z
-x,y,1/2-z
-x,-y,-z
1/2+x,y,-z
1/2-x,y,1/2+z
x,-y,1/2+z
loop_
_atom_site_type_symbol
_atom_site_label
_atom_site_fract_x
_atom_site_fract_y
_atom_site_fract_z
Si Si1 0.000000 0.833897 0.250000
Si Si2 0.371197 0.168579 0.784563
Si Si3 0.301449 0.691707 0.571002
O O1 0.937572 0.711777 0.365545
O O2 0.897788 0.962823 0.180467
O O3 0.500000 0.261984 0.750000
O O4 0.288245 0.176182 0.648680
O O5 0.304165 0.264735 0.909700
O O6 0.250000 0.500000 0.594671
#
# Coordination Sequence:
#
# PCOD8223887 Si02
#       3
#     4   8   8
#     4  10  26  46  78 104 154 200 254 300 376 452
#     4  10  27  47  74 109 156 201 250 298 379 453
#     4  12  26  47  77 113 152 196 254 315 371 439
#
# _framework density 24.468591
#
# number of rings (size 3 to 8) (size 9 to 14) (size 15 to 20)
#    1.200    0.000    0.000    3.600    8.400    4.800 
#    0.000    0.000    0.000    0.000    0.000    0.000 
#    0.000    0.000    0.000    0.000    0.000    0.000 
#
# Total GULP energy -247932.474211 kJ/mol
# GULP energy per Si atom -12396.623711 kJ/mol
# Density = 2.441290 g / cm^3
# Si number density = 24.468591 Si / 1000 Ang^3
#
#
#
# Elastic Constant Matrix: (Units=GPa)
#
#
# Indices 1 2 3 4 5 6 
#
# 1 106.3083 50.6134 71.1234 0.0000 0.0000 0.0000
# 2 50.6134 135.4002 35.8553 0.0000 0.0000 0.0000
# 3 71.1234 35.8553 147.9834 0.0000 0.0000 0.0000
# 4 0.0000 0.0000 0.0000 17.0061 0.0000 0.0000
# 5 0.0000 0.0000 0.0000 0.0000 52.9753 0.0000
# 6 0.0000 0.0000 0.0000 0.0000 0.0000 47.6088
#
#
#
# Elastic Compliance Matrix: (Units=1/GPa)
#
#
# Indices 1 2 3 4 5 6 
#
# 1 0.015790 -0.004160 -0.006581 0.000000 0.000000 0.000000
# 2 -0.004160 0.008988 -0.000178 0.000000 0.000000 0.000000
# 3 -0.006581 -0.000178 0.009964 0.000000 0.000000 0.000000
# 4 0.000000 0.000000 0.000000 0.058802 0.000000 0.000000
# 5 0.000000 0.000000 0.000000 0.000000 0.018877 0.000000
# 6 0.000000 0.000000 0.000000 0.000000 0.000000 0.021005
#
#
# Mechanical properties :
#
#
# Convention : Reuss Voigt Hill
#
# Bulk Modulus (GPa) = 77.50126 78.31955 77.91041
# Shear Modulus (GPa) = 31.33535 38.99137 35.16336
#
# Velocity S-wave (km/s) = 3.58248 3.99623 3.79500
# Velocity P-wave (km/s) = 6.98962 7.30554 7.14932
#
# Compressibility (1/GPa) = 0.01290302
#
# Stress axis : x y z
#
# Youngs Moduli (GPa) = 63.33145 111.26355 100.36411
#
# Poissons Ratio (x) = 0.46282 0.66050
# Poissons Ratio (y) = 0.26344 0.01791
# Poissons Ratio (z) = 0.41679 0.01985
#
# Static dielectric constant tensor:
#      x y z
#    x 4.756120 0.000000 0.000000 
#    y 0.000000 4.086710 0.000000 
#    z 0.000000 0.000000 4.067250 
# 
# 
# High freq. dielectric constant tensor:
#      x y z
#    x 1.995610 0.000000 0.000000 
#    y 0.000000 1.957380 0.000000 
#    z 0.000000 0.000000 1.957690 
# 
# From -- ./inp_files/2598.got.cif
#   From: 2010.03.12/outbox.cif.g09.slc.cpg/sg54_2_cif.got.tgz:2598.got - 2010.04.16 15:00:50.
