data_PCOD8223130
_publ_section_title
;
Structure prediction by ZEFSAII (Michael W. Deem and Ramdas Pophale) SiO2 
 PCOD8223130
Probable space group: P C C A
;
_chemical_formula_sum "Si O2"
_cell_formula_units_Z 40
_cell_length_a 5.053318
_cell_length_b 24.246898
_cell_length_c 15.954509
_cell_angle_alpha 90.000000
_cell_angle_beta 90.000000
_cell_angle_gamma 90.000000
_cell_volume 1954.862689
_symmetry_space_group_name_H-M "P C C A"
_symmetry_group_IT_number 54
_symmetry_cell_setting 'orthorhombic'
loop_
_space_group_symop_operation_xyz
x,y,z
1/2-x,-y,z
1/2+x,-y,1/2-z
-x,y,1/2-z
-x,-y,-z
1/2+x,y,-z
1/2-x,y,1/2+z
x,-y,1/2+z
loop_
_atom_site_type_symbol
_atom_site_label
_atom_site_fract_x
_atom_site_fract_y
_atom_site_fract_z
Si Si1 0.113065 0.636734 0.947936
Si Si2 0.254852 0.063764 0.946204
Si Si3 0.498103 0.467583 0.849067
Si Si4 0.246133 0.150883 0.306466
Si Si5 0.901027 0.237073 0.055245
O O1 0.020434 0.596280 0.874335
O O2 0.093960 0.699359 0.915929
O O3 0.415904 0.625996 0.974062
O O4 0.185536 0.098918 0.864606
O O5 0.250000 0.000000 0.919778
O O6 0.542910 0.078604 0.981896
O O7 0.250000 0.500000 0.887119
O O8 0.500000 0.469584 0.750000
O O9 0.750000 0.500000 0.886311
O O10 0.500000 0.166088 0.250000
O O11 0.159143 0.203243 0.361338
O O12 0.000000 0.133254 0.250000
O O13 0.685857 0.222562 0.983837
#
# Coordination Sequence:
#
# PCOD8223130 Si02
#       5
#     8   8   8   8   8
#     4  10  21  36  57  82 104 137 184 230 270 314
#     4  10  21  39  62  85 114 157 199 233 284 351
#     4  10  21  36  53  77 110 144 174 213 273 335
#     4  12  24  37  58  89 119 149 190 241 293 337
#     4  10  21  40  60  79 111 151 190 230 279 341
#
# _framework density 20.461794000000001
#
# number of rings (size 3 to 8) (size 9 to 14) (size 15 to 20)
#    0.000    1.600    0.000    4.800    0.000    4.000 
#    0.000    3.000    0.000    0.000    0.000    0.000 
#    0.000    0.000    0.000    0.000    0.000    0.000 
#
# Total GULP energy -496106.446978 kJ/mol
# GULP energy per Si atom -12402.661174 kJ/mol
# Density = 2.041522 g / cm^3
# Si number density = 20.461794 Si / 1000 Ang^3
#
#
#
# Elastic Constant Matrix: (Units=GPa)
#
#
# Indices 1 2 3 4 5 6 
#
# 1 118.8814 39.7573 26.0326 0.0000 0.0000 0.0000
# 2 39.7573 117.8953 55.8098 0.0000 0.0000 0.0000
# 3 26.0326 55.8098 68.3498 0.0000 0.0000 0.0000
# 4 0.0000 0.0000 0.0000 17.5416 0.0000 0.0000
# 5 0.0000 0.0000 0.0000 0.0000 19.8903 0.0000
# 6 0.0000 0.0000 0.0000 0.0000 0.0000 28.8144
#
#
#
# Elastic Compliance Matrix: (Units=1/GPa)
#
#
# Indices 1 2 3 4 5 6 
#
# 1 0.009594 -0.002454 -0.001650 0.000000 0.000000 0.000000
# 2 -0.002454 0.014454 -0.010868 0.000000 0.000000 0.000000
# 3 -0.001650 -0.010868 0.024133 0.000000 0.000000 0.000000
# 4 0.000000 0.000000 0.000000 0.057007 0.000000 0.000000
# 5 0.000000 0.000000 0.000000 0.000000 0.050276 0.000000
# 6 0.000000 0.000000 0.000000 0.000000 0.000000 0.034705
#
#
# Mechanical properties :
#
#
# Convention : Reuss Voigt Hill
#
# Bulk Modulus (GPa) = 54.83322 60.92508 57.87915
# Shear Modulus (GPa) = 22.10514 25.48440 23.79477
#
# Velocity S-wave (km/s) = 3.29038 3.53294 3.41381
# Velocity P-wave (km/s) = 6.42584 6.81776 6.62470
#
# Compressibility (1/GPa) = 0.01823712
#
# Stress axis : x y z
#
# Youngs Moduli (GPa) = 104.23374 69.18364 41.43717
#
# Poissons Ratio (x) = 0.16978 0.06838
# Poissons Ratio (y) = 0.25580 0.45033
# Poissons Ratio (z) = 0.17200 0.75187
#
# Static dielectric constant tensor:
#      x y z
#    x 4.084600 0.000000 0.000000 
#    y 0.000000 3.825570 0.000000 
#    z 0.000000 0.000000 3.402710 
# 
# 
# High freq. dielectric constant tensor:
#      x y z
#    x 1.822500 0.000000 0.000000 
#    y 0.000000 1.811480 0.000000 
#    z 0.000000 0.000000 1.778770 
# 
# From -- ./inp_files/10851.got.cif
#   From: 2010.03.12/outbox.cif.g09.slc.cpg/sg54_6_cif.got.tgz:10851.got - 2010.04.16 15:00:50.
