data_PCOD8223434
_publ_section_title
;
Structure prediction by ZEFSAII (Michael W. Deem and Ramdas Pophale) SiO2 
 PCOD8223434
Probable space group: P C C A
;
_chemical_formula_sum "Si O2"
_cell_formula_units_Z 20
_cell_length_a 4.906817
_cell_length_b 8.488529
_cell_length_c 18.377424
_cell_angle_alpha 90.000000
_cell_angle_beta 90.000000
_cell_angle_gamma 90.000000
_cell_volume 765.450187
_symmetry_space_group_name_H-M "P C C A"
_symmetry_group_IT_number 54
_symmetry_cell_setting 'orthorhombic'
loop_
_space_group_symop_operation_xyz
x,y,z
1/2-x,-y,z
1/2+x,-y,1/2-z
-x,y,1/2-z
-x,-y,-z
1/2+x,y,-z
1/2-x,y,1/2+z
x,-y,1/2+z
loop_
_atom_site_type_symbol
_atom_site_label
_atom_site_fract_x
_atom_site_fract_y
_atom_site_fract_z
Si Si1 0.221881 0.314145 0.541889
Si Si2 0.863020 0.335109 0.672946
Si Si3 0.500000 0.893143 0.250000
O O1 0.250000 0.500000 0.540219
O O2 0.523731 0.249330 0.523743
O O3 0.091653 0.262808 0.619203
O O4 0.750000 0.500000 0.640465
O O5 0.612565 0.213638 0.683405
O O6 0.000000 0.370451 0.750000
O O7 0.750000 0.000000 0.279553
#
# Coordination Sequence:
#
# PCOD8223434 Si02
#       3
#     8   8   4
#     4  10  22  38  62 102 147 179 215 283 359 411
#     4  12  24  41  74 106 137 176 239 293 339 404
#     4  12  28  46  66 100 142 184 228 290 358 410
#
# _framework density 26.128416000000001
#
# number of rings (size 3 to 8) (size 9 to 14) (size 15 to 20)
#    0.000    0.800    4.000    4.800    5.600    0.000 
#    0.000    0.000    0.000    7.200    0.000    0.000 
#    0.000    0.000    0.000    0.000    0.000    0.000 
#
# Total GULP energy -247848.337636 kJ/mol
# GULP energy per Si atom -12392.416882 kJ/mol
# Density = 2.606895 g / cm^3
# Si number density = 26.128416 Si / 1000 Ang^3
#
#
#
# Elastic Constant Matrix: (Units=GPa)
#
#
# Indices 1 2 3 4 5 6 
#
# 1 164.3828 39.1395 14.3783 0.0000 0.0000 0.0000
# 2 39.1395 100.5597 6.7483 0.0000 0.0000 0.0000
# 3 14.3783 6.7483 101.2859 0.0000 0.0000 0.0000
# 4 0.0000 0.0000 0.0000 -7.3593 0.0000 0.0000
# 5 0.0000 0.0000 0.0000 0.0000 48.7727 0.0000
# 6 0.0000 0.0000 0.0000 0.0000 0.0000 25.5325
#
#
#
# Elastic Compliance Matrix: (Units=1/GPa)
#
#
# Indices 1 2 3 4 5 6 
#
# 1 0.006767 -0.002581 -0.000789 0.000000 0.000000 0.000000
# 2 -0.002581 0.010973 -0.000365 0.000000 0.000000 0.000000
# 3 -0.000789 -0.000365 0.010009 0.000000 0.000000 0.000000
# 4 0.000000 0.000000 0.000000 -0.135882 0.000000 0.000000
# 5 0.000000 0.000000 0.000000 0.000000 0.020503 0.000000
# 6 0.000000 0.000000 0.000000 0.000000 0.000000 0.039166
#
#
# Mechanical properties :
#
#
# Convention : Reuss Voigt Hill
#
# Bulk Modulus (GPa) = 49.30727 54.08453 51.69590
# Shear Modulus (GPa) = -146.05224 33.78665 -56.13280
#
# Velocity S-wave (km/s) = -7.48460 3.59987 -4.64005
# Velocity P-wave (km/s) = 7.46861 6.16630 2.97968
#
# Compressibility (1/GPa) = 0.02028099
#
# Stress axis : x y z
#
# Youngs Moduli (GPa) = 147.77937 91.13009 99.90708
#
# Poissons Ratio (x) = 0.23519 0.07879
# Poissons Ratio (y) = 0.38140 0.03644
# Poissons Ratio (z) = 0.11655 0.03324
#
# Static dielectric constant tensor:
#      x y z
#    x 7.138330 0.000000 0.000000 
#    y 0.000000 4.395360 0.000000 
#    z 0.000000 0.000000 4.611820 
# 
# 
# High freq. dielectric constant tensor:
#      x y z
#    x 2.086050 0.000000 0.000000 
#    y 0.000000 1.980080 0.000000 
#    z 0.000000 0.000000 2.043070 
# 
# From -- ./inp_files/15525.got.cif
#   From: 2010.03.12/outbox.cif.g09.slc.cpg/sg54_8_cif.got.tgz:15525.got - 2010.04.16 15:00:50.
