data_PCOD8223340
_publ_section_title
;
Structure prediction by ZEFSAII (Michael W. Deem and Ramdas Pophale) SiO2 
 PCOD8223340
Probable space group: P C C A
;
_chemical_formula_sum "Si O2"
_cell_formula_units_Z 32
_cell_length_a 8.820947
_cell_length_b 7.138648
_cell_length_c 22.545731
_cell_angle_alpha 90.000000
_cell_angle_beta 90.000000
_cell_angle_gamma 90.000000
_cell_volume 1419.696467
_symmetry_space_group_name_H-M "P C C A"
_symmetry_group_IT_number 54
_symmetry_cell_setting 'orthorhombic'
loop_
_space_group_symop_operation_xyz
x,y,z
1/2-x,-y,z
1/2+x,-y,1/2-z
-x,y,1/2-z
-x,-y,-z
1/2+x,y,-z
1/2-x,y,1/2+z
x,-y,1/2+z
loop_
_atom_site_type_symbol
_atom_site_label
_atom_site_fract_x
_atom_site_fract_y
_atom_site_fract_z
Si Si1 0.413389 0.587689 0.374321
Si Si2 0.019045 0.790368 0.085117
Si Si3 0.927386 0.950439 0.688118
Si Si4 0.274986 0.714575 0.485419
O O1 0.250000 0.500000 0.360174
O O2 0.528632 0.415845 0.384008
O O3 0.457647 0.727914 0.321126
O O4 0.404325 0.714330 0.434101
O O5 0.166595 0.822681 0.043872
O O6 0.017268 0.941460 0.136829
O O7 0.873836 0.811773 0.041646
O O8 0.000000 0.012264 0.750000
O O9 0.750000 0.000000 0.686396
O O10 0.250000 0.500000 0.503799
#
# Coordination Sequence:
#
# PCOD8223340 Si02
#       4
#     8   8   8   8
#     4   9  18  39  67  88 126 167 201 256 332 370
#     4  10  21  41  66  99 131 170 202 270 324 389
#     4  12  25  47  65  90 130 174 225 269 309 377
#     4   9  17  36  68  95 135 159 205 254 333 389
#
# _framework density 22.540029000000001
#
# number of rings (size 3 to 8) (size 9 to 14) (size 15 to 20)
#    0.000    2.500    5.000    3.000    0.000    2.000 
#    9.000    0.000    0.000    0.000    0.000    0.000 
#    0.000    0.000    0.000    0.000    0.000    0.000 
#
# Total GULP energy -396623.510469 kJ/mol
# GULP energy per Si atom -12394.484702 kJ/mol
# Density = 2.248873 g / cm^3
# Si number density = 22.540029 Si / 1000 Ang^3
#
#
#
# Elastic Constant Matrix: (Units=GPa)
#
#
# Indices 1 2 3 4 5 6 
#
# 1 35.7404 24.5101 50.6235 0.0000 0.0000 0.0000
# 2 24.5101 85.3616 63.8998 0.0000 0.0000 0.0000
# 3 50.6235 63.8998 148.1686 0.0000 0.0000 0.0000
# 4 0.0000 0.0000 0.0000 32.6071 0.0000 0.0000
# 5 0.0000 0.0000 0.0000 0.0000 27.0416 0.0000
# 6 0.0000 0.0000 0.0000 0.0000 0.0000 11.3101
#
#
#
# Elastic Compliance Matrix: (Units=1/GPa)
#
#
# Indices 1 2 3 4 5 6 
#
# 1 0.054584 -0.002529 -0.017559 0.000000 0.000000 0.000000
# 2 -0.002529 0.017417 -0.006647 0.000000 0.000000 0.000000
# 3 -0.017559 -0.006647 0.015615 0.000000 0.000000 0.000000
# 4 0.000000 0.000000 0.000000 0.030668 0.000000 0.000000
# 5 0.000000 0.000000 0.000000 0.000000 0.036980 0.000000
# 6 0.000000 0.000000 0.000000 0.000000 0.000000 0.088417
#
#
# Mechanical properties :
#
#
# Convention : Reuss Voigt Hill
#
# Bulk Modulus (GPa) = 29.28560 60.81527 45.05044
# Shear Modulus (GPa) = 16.20570 22.87425 19.53998
#
# Velocity S-wave (km/s) = 2.68428 3.18909 2.94751
# Velocity P-wave (km/s) = 4.75690 6.37181 5.62263
#
# Compressibility (1/GPa) = 0.03414647
#
# Stress axis : x y z
#
# Youngs Moduli (GPa) = 18.32028 57.41513 64.04109
#
# Poissons Ratio (x) = 0.14519 1.12448
# Poissons Ratio (y) = 0.04633 0.42570
# Poissons Ratio (z) = 0.32168 0.38166
#
# Static dielectric constant tensor:
#      x y z
#    x 3.721250 0.000000 0.000000 
#    y 0.000000 4.039700 0.000000 
#    z 0.000000 0.000000 3.971750 
# 
# 
# High freq. dielectric constant tensor:
#      x y z
#    x 1.854240 0.000000 0.000000 
#    y 0.000000 1.892040 0.000000 
#    z 0.000000 0.000000 1.872080 
# 
# From -- ./inp_files/20837.got.cif
#   From: 2010.03.12/outbox.cif.g09.slc.cpg/sg54_11_cif.got.tgz:20837.got - 2010.04.16 15:00:50.
