data_PCOD8223381
_publ_section_title
;
Structure prediction by ZEFSAII (Michael W. Deem and Ramdas Pophale) SiO2 
 PCOD8223381
Probable space group: P C C A
;
_chemical_formula_sum "Si O2"
_cell_formula_units_Z 36
_cell_length_a 9.347089
_cell_length_b 12.915030
_cell_length_c 12.484759
_cell_angle_alpha 90.000000
_cell_angle_beta 90.000000
_cell_angle_gamma 90.000000
_cell_volume 1507.134324
_symmetry_space_group_name_H-M "P C C A"
_symmetry_group_IT_number 54
_symmetry_cell_setting 'orthorhombic'
loop_
_space_group_symop_operation_xyz
x,y,z
1/2-x,-y,z
1/2+x,-y,1/2-z
-x,y,1/2-z
-x,-y,-z
1/2+x,y,-z
1/2-x,y,1/2+z
x,-y,1/2+z
loop_
_atom_site_type_symbol
_atom_site_label
_atom_site_fract_x
_atom_site_fract_y
_atom_site_fract_z
Si Si1 0.693307 0.669589 0.394288
Si Si2 0.228512 0.886493 0.033216
Si Si3 0.500000 0.443410 0.750000
Si Si4 0.443525 0.156158 0.363528
Si Si5 0.018205 0.619799 0.405544
O O1 0.691848 0.795349 0.400210
O O2 0.632454 0.631426 0.280772
O O3 0.847768 0.623450 0.416100
O O4 0.585074 0.616601 0.477455
O O5 0.058817 0.863323 0.040431
O O6 0.250000 0.000000 0.085402
O O7 0.292958 0.888425 0.910645
O O8 0.563231 0.517256 0.657403
O O9 0.500000 0.106995 0.250000
O O10 0.422669 0.278549 0.343316
#
# Coordination Sequence:
#
# PCOD8223381 Si02
#       5
#     8   8   4   8   8
#     4  10  24  41  64  98 130 181 231 281 347 423
#     4  10  22  44  66  97 138 176 228 296 350 411
#     4  12  22  38  62  96 132 174 224 276 340 410
#     4  10  21  43  67  98 133 180 232 286 354 424
#     4  10  22  42  64  92 135 176 224 287 346 407
#
# _framework density 23.886389999999999
#
# number of rings (size 3 to 8) (size 9 to 14) (size 15 to 20)
#    0.000    1.778    1.111    2.000    0.000    4.444 
#   22.000    0.000    0.000    0.000    0.000    0.000 
#    0.000    0.000    0.000    0.000    0.000    0.000 
#
# Total GULP energy -446113.350305 kJ/mol
# GULP energy per Si atom -12392.037508 kJ/mol
# Density = 2.383202 g / cm^3
# Si number density = 23.886390 Si / 1000 Ang^3
#
#
#
# Elastic Constant Matrix: (Units=GPa)
#
#
# Indices 1 2 3 4 5 6 
#
# 1 110.1039 22.8527 63.0511 0.0000 0.0000 0.0000
# 2 22.8527 155.4713 53.5765 0.0000 0.0000 0.0000
# 3 63.0511 53.5765 93.8198 0.0000 0.0000 0.0000
# 4 0.0000 0.0000 0.0000 17.2915 0.0000 0.0000
# 5 0.0000 0.0000 0.0000 0.0000 28.6654 0.0000
# 6 0.0000 0.0000 0.0000 0.0000 0.0000 20.3421
#
#
#
# Elastic Compliance Matrix: (Units=1/GPa)
#
#
# Indices 1 2 3 4 5 6 
#
# 1 0.015073 0.001588 -0.011036 0.000000 0.000000 0.000000
# 2 0.001588 0.008175 -0.005735 0.000000 0.000000 0.000000
# 3 -0.011036 -0.005735 0.021351 0.000000 0.000000 0.000000
# 4 0.000000 0.000000 0.000000 0.057832 0.000000 0.000000
# 5 0.000000 0.000000 0.000000 0.000000 0.034885 0.000000
# 6 0.000000 0.000000 0.000000 0.000000 0.000000 0.049159
#
#
# Mechanical properties :
#
#
# Convention : Reuss Voigt Hill
#
# Bulk Modulus (GPa) = 70.27066 70.92841 70.59953
# Shear Modulus (GPa) = 22.56457 27.92078 25.24268
#
# Velocity S-wave (km/s) = 3.07687 3.42263 3.25434
# Velocity P-wave (km/s) = 6.48887 6.73630 6.61374
#
# Compressibility (1/GPa) = 0.01423069
#
# Stress axis : x y z
#
# Youngs Moduli (GPa) = 66.34526 122.32170 46.83676
#
# Poissons Ratio (x) = -0.19420 0.51690
# Poissons Ratio (y) = -0.10533 0.26863
# Poissons Ratio (z) = 0.73219 0.70157
#
# Static dielectric constant tensor:
#      x y z
#    x 4.237760 0.000000 0.000000 
#    y 0.000000 4.527750 0.000000 
#    z 0.000000 0.000000 4.241230 
# 
# 
# High freq. dielectric constant tensor:
#      x y z
#    x 1.942940 0.000000 0.000000 
#    y 0.000000 1.956760 0.000000 
#    z 0.000000 0.000000 1.922110 
# 
# From -- ./inp_files/11403.got.cif
#   From: 2010.03.12/outbox.cif.g09.slc.cpg/sg54_6_cif.got.tgz:11403.got - 2010.04.16 15:00:50.
