data_PCOD8223450
_publ_section_title
;
Structure prediction by ZEFSAII (Michael W. Deem and Ramdas Pophale) SiO2 
 PCOD8223450
Probable space group: P C C A
;
_chemical_formula_sum "Si O2"
_cell_formula_units_Z 40
_cell_length_a 16.630109
_cell_length_b 11.124234
_cell_length_c 9.356154
_cell_angle_alpha 90.000000
_cell_angle_beta 90.000000
_cell_angle_gamma 90.000000
_cell_volume 1730.862517
_symmetry_space_group_name_H-M "P C C A"
_symmetry_group_IT_number 54
_symmetry_cell_setting 'orthorhombic'
loop_
_space_group_symop_operation_xyz
x,y,z
1/2-x,-y,z
1/2+x,-y,1/2-z
-x,y,1/2-z
-x,-y,-z
1/2+x,y,-z
1/2-x,y,1/2+z
x,-y,1/2+z
loop_
_atom_site_type_symbol
_atom_site_label
_atom_site_fract_x
_atom_site_fract_y
_atom_site_fract_z
Si Si1 0.242613 0.863838 0.264048
Si Si2 0.250000 0.500000 0.100020
Si Si3 0.164139 0.362847 0.851717
Si Si4 0.096635 0.098416 0.583794
Si Si5 0.500000 0.288970 0.250000
Si Si6 0.083174 0.131146 0.262372
O O1 0.195898 0.774577 0.372760
O O2 0.189670 0.873182 0.120530
O O3 0.331225 0.806150 0.225756
O O4 0.250000 0.000000 0.328557
O O5 0.296042 0.408181 0.203403
O O6 0.185935 0.436244 0.994193
O O7 0.067712 0.368853 0.830276
O O8 0.040972 0.209650 0.627329
O O9 0.093568 0.075828 0.417670
O O10 0.065275 0.977921 0.656216
O O11 0.000000 0.211669 0.250000
#
# Coordination Sequence:
#
# PCOD8223450 Si02
#       6
#     8   4   8   8   4   8
#     4   9  22  39  64  96 134 173 212 266 338 402
#     4  10  24  46  70  94 124 178 226 278 328 392
#     4  10  23  45  71  95 132 172 224 275 332 391
#     4  10  22  39  56  91 134 176 219 264 330 394
#     4  10  22  40  68  96 128 168 216 284 332 384
#     4  11  22  37  58  91 133 179 222 260 320 402
#
# _framework density 23.109867999999999
#
# number of rings (size 3 to 8) (size 9 to 14) (size 15 to 20)
#    0.000    2.000    1.000    0.600    5.600    9.600 
#    3.600    0.000    8.800    0.000    0.000    0.000 
#    0.000    0.000    0.000    0.000    0.000    0.000 
#
# Total GULP energy -495549.630233 kJ/mol
# GULP energy per Si atom -12388.740756 kJ/mol
# Density = 2.305727 g / cm^3
# Si number density = 23.109868 Si / 1000 Ang^3
#
#
#
# Elastic Constant Matrix: (Units=GPa)
#
#
# Indices 1 2 3 4 5 6 
#
# 1 206.1696 16.4112 16.9795 0.0000 0.0000 0.0000
# 2 16.4112 65.5759 19.4499 0.0000 0.0000 0.0000
# 3 16.9795 19.4499 93.6380 0.0000 0.0000 0.0000
# 4 0.0000 0.0000 0.0000 14.3986 0.0000 0.0000
# 5 0.0000 0.0000 0.0000 0.0000 18.7286 0.0000
# 6 0.0000 0.0000 0.0000 0.0000 0.0000 94.4878
#
#
#
# Elastic Compliance Matrix: (Units=1/GPa)
#
#
# Indices 1 2 3 4 5 6 
#
# 1 0.004990 -0.001045 -0.000688 0.000000 0.000000 0.000000
# 2 -0.001045 0.016469 -0.003231 0.000000 0.000000 0.000000
# 3 -0.000688 -0.003231 0.011475 0.000000 0.000000 0.000000
# 4 0.000000 0.000000 0.000000 0.069451 0.000000 0.000000
# 5 0.000000 0.000000 0.000000 0.000000 0.053394 0.000000
# 6 0.000000 0.000000 0.000000 0.000000 0.000000 0.010583
#
#
# Mechanical properties :
#
#
# Convention : Reuss Voigt Hill
#
# Bulk Modulus (GPa) = 43.46560 52.34052 47.90306
# Shear Modulus (GPa) = 27.17970 46.35920 36.76945
#
# Velocity S-wave (km/s) = 3.43316 4.48374 3.99315
# Velocity P-wave (km/s) = 5.87916 7.03583 6.48334
#
# Compressibility (1/GPa) = 0.02300670
#
# Stress axis : x y z
#
# Youngs Moduli (GPa) = 200.39296 60.71850 87.14311
#
# Poissons Ratio (x) = 0.06344 0.05994
# Poissons Ratio (y) = 0.20938 0.28160
# Poissons Ratio (z) = 0.13784 0.19621
#
# Static dielectric constant tensor:
#      x y z
#    x 5.102590 0.000000 0.000000 
#    y 0.000000 3.876830 0.000000 
#    z 0.000000 0.000000 3.903870 
# 
# 
# High freq. dielectric constant tensor:
#      x y z
#    x 1.945460 0.000000 0.000000 
#    y 0.000000 1.865720 0.000000 
#    z 0.000000 0.000000 1.906880 
# 
# From -- ./inp_files/4012.got.cif
#   From: 2010.03.12/outbox.cif.g09.slc.cpg/sg54_3_cif.got.tgz:4012.got - 2010.04.16 15:00:50.
