data_PCOD8223798
_publ_section_title
;
Structure prediction by ZEFSAII (Michael W. Deem and Ramdas Pophale) SiO2 
 PCOD8223798
Probable space group: P C C A
;
_chemical_formula_sum "Si O2"
_cell_formula_units_Z 36
_cell_length_a 8.649641
_cell_length_b 18.814866
_cell_length_c 9.722743
_cell_angle_alpha 90.000000
_cell_angle_beta 90.000000
_cell_angle_gamma 90.000000
_cell_volume 1582.297050
_symmetry_space_group_name_H-M "P C C A"
_symmetry_group_IT_number 54
_symmetry_cell_setting 'orthorhombic'
loop_
_space_group_symop_operation_xyz
x,y,z
1/2-x,-y,z
1/2+x,-y,1/2-z
-x,y,1/2-z
-x,-y,-z
1/2+x,y,-z
1/2-x,y,1/2+z
x,-y,1/2+z
loop_
_atom_site_type_symbol
_atom_site_label
_atom_site_fract_x
_atom_site_fract_y
_atom_site_fract_z
Si Si1 0.250000 0.500000 0.486898
Si Si2 0.097362 0.041219 0.614238
Si Si3 0.995637 0.596282 0.399482
Si Si4 0.080748 0.720020 0.604107
Si Si5 0.899514 0.201093 0.887584
O O1 0.385493 0.469630 0.390751
O O2 0.175951 0.435316 0.575655
O O3 0.153030 0.120979 0.577530
O O4 0.000000 0.045361 0.750000
O O5 0.250000 0.000000 0.650029
O O6 0.000000 0.000000 0.500000
O O7 0.000000 0.634772 0.250000
O O8 0.055877 0.648416 0.517646
O O9 0.260228 0.741640 0.623891
O O10 0.000000 0.709394 0.750000
O O11 0.001484 0.783095 0.521012
O O12 0.000000 0.206409 0.750000
#
# Coordination Sequence:
#
# PCOD8223798 Si02
#       5
#     4   8   8   8   8
#     4  10  24  42  68  98 128 168 216 264 320 386
#     4  11  24  42  67  98 132 172 221 277 337 400
#     4  11  24  44  68  96 131 170 214 266 323 385
#     4  12  26  43  67  98 134 177 226 275 331 397
#     4  11  25  45  67  95 133 177 223 275 335 402
#
# _framework density 22.751732000000001
#
# number of rings (size 3 to 8) (size 9 to 14) (size 15 to 20)
#    0.000    0.889    0.000    6.000    0.000   16.000 
#    0.000    0.000    0.000    0.000    0.000    0.000 
#    0.000    0.000    0.000    0.000    0.000    0.000 
#
# Total GULP energy -446345.069337 kJ/mol
# GULP energy per Si atom -12398.474148 kJ/mol
# Density = 2.269995 g / cm^3
# Si number density = 22.751732 Si / 1000 Ang^3
#
#
#
# Elastic Constant Matrix: (Units=GPa)
#
#
# Indices 1 2 3 4 5 6 
#
# 1 128.8025 43.7597 30.5243 0.0000 0.0000 0.0000
# 2 43.7597 138.7975 43.5627 0.0000 0.0000 0.0000
# 3 30.5243 43.5627 149.0508 0.0000 0.0000 0.0000
# 4 0.0000 0.0000 0.0000 23.2627 0.0000 0.0000
# 5 0.0000 0.0000 0.0000 0.0000 31.2808 0.0000
# 6 0.0000 0.0000 0.0000 0.0000 0.0000 45.3955
#
#
#
# Elastic Compliance Matrix: (Units=1/GPa)
#
#
# Indices 1 2 3 4 5 6 
#
# 1 0.008856 -0.002447 -0.001098 0.000000 0.000000 0.000000
# 2 -0.002447 0.008609 -0.002015 0.000000 0.000000 0.000000
# 3 -0.001098 -0.002015 0.007523 0.000000 0.000000 0.000000
# 4 0.000000 0.000000 0.000000 0.042987 0.000000 0.000000
# 5 0.000000 0.000000 0.000000 0.000000 0.031969 0.000000
# 6 0.000000 0.000000 0.000000 0.000000 0.000000 0.022029
#
#
# Mechanical properties :
#
#
# Convention : Reuss Voigt Hill
#
# Bulk Modulus (GPa) = 72.11702 72.48268 72.29985
# Shear Modulus (GPa) = 36.30703 39.90807 38.10755
#
# Velocity S-wave (km/s) = 3.99907 4.19270 4.09703
# Velocity P-wave (km/s) = 7.28626 7.44081 7.36394
#
# Compressibility (1/GPa) = 0.01386635
#
# Stress axis : x y z
#
# Youngs Moduli (GPa) = 112.92373 116.16177 132.92711
#
# Poissons Ratio (x) = 0.28428 0.14599
# Poissons Ratio (y) = 0.27635 0.26783
# Poissons Ratio (z) = 0.12402 0.23405
#
# Static dielectric constant tensor:
#      x y z
#    x 4.465940 0.000000 0.000000 
#    y 0.000000 4.520370 0.000000 
#    z 0.000000 0.000000 4.053680 
# 
# 
# High freq. dielectric constant tensor:
#      x y z
#    x 1.912670 0.000000 0.000000 
#    y 0.000000 1.916660 0.000000 
#    z 0.000000 0.000000 1.899490 
# 
# From -- ./inp_files/2473.got.cif
#   From: 2010.03.12/outbox.cif.g09.slc.cpg/sg54_2_cif.got.tgz:2473.got - 2010.04.16 15:00:50.
