data_PCOD8223407
_publ_section_title
;
Structure prediction by ZEFSAII (Michael W. Deem and Ramdas Pophale) SiO2 
 PCOD8223407
Probable space group: P C C A
;
_chemical_formula_sum "Si O2"
_cell_formula_units_Z 56
_cell_length_a 9.518223
_cell_length_b 14.678705
_cell_length_c 19.036762
_cell_angle_alpha 90.000000
_cell_angle_beta 90.000000
_cell_angle_gamma 90.000000
_cell_volume 2659.724773
_symmetry_space_group_name_H-M "P C C A"
_symmetry_group_IT_number 54
_symmetry_cell_setting 'orthorhombic'
loop_
_space_group_symop_operation_xyz
x,y,z
1/2-x,-y,z
1/2+x,-y,1/2-z
-x,y,1/2-z
-x,-y,-z
1/2+x,y,-z
1/2-x,y,1/2+z
x,-y,1/2+z
loop_
_atom_site_type_symbol
_atom_site_label
_atom_site_fract_x
_atom_site_fract_y
_atom_site_fract_z
Si Si1 0.977613 0.195116 0.932747
Si Si2 0.833343 0.408243 0.759157
Si Si3 0.913296 0.006876 0.570328
Si Si4 0.135997 0.562271 0.514051
Si Si5 0.792645 0.322617 0.613423
Si Si6 0.211892 0.288213 0.118765
Si Si7 0.961432 0.813048 0.596172
O O1 0.813462 0.218517 0.922954
O O2 0.032906 0.101706 0.894666
O O3 0.054425 0.278825 0.895021
O O4 0.013079 0.190348 0.015055
O O5 0.750000 0.500000 0.776317
O O6 0.769472 0.365505 0.689243
O O7 0.800446 0.338222 0.821647
O O8 0.000000 0.426307 0.750000
O O9 0.750000 0.000000 0.550709
O O10 0.941477 0.918518 0.619416
O O11 0.000000 0.000000 0.500000
O O12 0.250000 0.500000 0.553262
O O13 0.212357 0.595614 0.442684
O O14 0.118891 0.646196 0.567154
O O15 0.000000 0.500000 0.500000
O O16 0.680197 0.243861 0.602002
O O17 0.083888 0.226022 0.147379
#
# Coordination Sequence:
#
# PCOD8223407 Si02
#       7
#     8   8   8   8   8   8   8
#     4  11  20  41  66  99 139 169 218 269 336 398
#     4  12  30  48  67  93 133 181 228 274 337 404
#     4  10  22  35  61 102 142 172 210 273 337 406
#     4  12  24  39  64  95 128 167 219 284 333 378
#     4  12  23  43  66  93 132 175 221 273 334 395
#     4  12  25  43  68  95 134 176 228 274 332 406
#     4  11  22  39  67 101 133 171 219 274 335 397
#
# _framework density 21.054811000000001
#
# number of rings (size 3 to 8) (size 9 to 14) (size 15 to 20)
#    0.000    0.571    5.714    2.571   10.000    0.000 
#    0.000    0.000    0.000    5.143    0.000    0.000 
#    0.000    0.000    0.000    0.000    0.000    0.000 
#
# Total GULP energy -693947.552263 kJ/mol
# GULP energy per Si atom -12391.920576 kJ/mol
# Density = 2.100689 g / cm^3
# Si number density = 21.054811 Si / 1000 Ang^3
#
#
#
# Elastic Constant Matrix: (Units=GPa)
#
#
# Indices 1 2 3 4 5 6 
#
# 1 118.5867 39.9730 5.5554 0.0000 0.0000 0.0000
# 2 39.9730 114.7185 17.7105 0.0000 0.0000 0.0000
# 3 5.5554 17.7105 60.8589 0.0000 0.0000 0.0000
# 4 0.0000 0.0000 0.0000 19.4814 0.0000 0.0000
# 5 0.0000 0.0000 0.0000 0.0000 22.6928 0.0000
# 6 0.0000 0.0000 0.0000 0.0000 0.0000 47.5199
#
#
#
# Elastic Compliance Matrix: (Units=1/GPa)
#
#
# Indices 1 2 3 4 5 6 
#
# 1 0.009555 -0.003345 0.000101 0.000000 0.000000 0.000000
# 2 -0.003345 0.010298 -0.002691 0.000000 0.000000 0.000000
# 3 0.000101 -0.002691 0.017205 0.000000 0.000000 0.000000
# 4 0.000000 0.000000 0.000000 0.051331 0.000000 0.000000
# 5 0.000000 0.000000 0.000000 0.000000 0.044067 0.000000
# 6 0.000000 0.000000 0.000000 0.000000 0.000000 0.021044
#
#
# Mechanical properties :
#
#
# Convention : Reuss Voigt Hill
#
# Bulk Modulus (GPa) = 39.70116 46.73800 43.21958
# Shear Modulus (GPa) = 28.77403 33.33383 31.05393
#
# Velocity S-wave (km/s) = 3.70080 3.98325 3.84462
# Velocity P-wave (km/s) = 6.09576 6.58798 6.34664
#
# Compressibility (1/GPa) = 0.02518818
#
# Stress axis : x y z
#
# Youngs Moduli (GPa) = 104.65182 97.10508 58.12105
#
# Poissons Ratio (x) = 0.32483 -0.00588
# Poissons Ratio (y) = 0.35008 0.15643
# Poissons Ratio (z) = -0.01059 0.26136
#
# Static dielectric constant tensor:
#      x y z
#    x 3.226050 0.000000 0.000000 
#    y 0.000000 4.375010 0.000000 
#    z 0.000000 0.000000 3.385560 
# 
# 
# High freq. dielectric constant tensor:
#      x y z
#    x 1.844390 0.000000 0.000000 
#    y 0.000000 1.851200 0.000000 
#    z 0.000000 0.000000 1.771950 
# 
# From -- ./inp_files/20514.got.cif
#   From: 2010.03.12/outbox.cif.g09.slc.cpg/sg54_11_cif.got.tgz:20514.got - 2010.04.16 15:00:50.
