data_PCOD8223261
_publ_section_title
;
Structure prediction by ZEFSAII (Michael W. Deem and Ramdas Pophale) SiO2 
 PCOD8223261
Probable space group: P C C A
;
_chemical_formula_sum "Si O2"
_cell_formula_units_Z 64
_cell_length_a 10.501614
_cell_length_b 19.810677
_cell_length_c 14.986436
_cell_angle_alpha 90.000000
_cell_angle_beta 90.000000
_cell_angle_gamma 90.000000
_cell_volume 3117.839334
_symmetry_space_group_name_H-M "P C C A"
_symmetry_group_IT_number 54
_symmetry_cell_setting 'orthorhombic'
loop_
_space_group_symop_operation_xyz
x,y,z
1/2-x,-y,z
1/2+x,-y,1/2-z
-x,y,1/2-z
-x,-y,-z
1/2+x,y,-z
1/2-x,y,1/2+z
x,-y,1/2+z
loop_
_atom_site_type_symbol
_atom_site_label
_atom_site_fract_x
_atom_site_fract_y
_atom_site_fract_z
Si Si1 0.621811 0.457441 0.029999
Si Si2 0.768653 0.331547 0.435670
Si Si3 0.191576 0.751860 0.393448
Si Si4 0.718922 0.099174 0.839876
Si Si5 0.391141 0.117295 0.315527
Si Si6 0.500009 0.357467 0.145943
Si Si7 0.442618 0.016443 0.094112
Si Si8 0.641524 0.241021 0.783946
O O1 0.750000 0.500000 0.042945
O O2 0.584044 0.423515 0.123682
O O3 0.500000 0.500000 0.000000
O O4 0.646271 0.395316 0.963382
O O5 0.741856 0.276373 0.515725
O O6 0.636203 0.361393 0.401098
O O7 0.847593 0.302349 0.352438
O O8 0.150464 0.830919 0.394581
O O9 0.274422 0.742700 0.303402
O O10 0.061180 0.711313 0.388432
O O11 0.768478 0.092336 0.738888
O O12 0.827796 0.072155 0.909109
O O13 0.685490 0.178196 0.846715
O O14 0.596456 0.052362 0.855481
O O15 0.500000 0.150474 0.250000
O O16 0.440288 0.047670 0.353811
O O17 0.500000 0.354559 0.250000
O O18 0.500000 0.000000 0.000000
O O19 0.500000 0.228923 0.750000
#
# Coordination Sequence:
#
# PCOD8223261 Si02
#       8
#     8   8   8   8   8   8   8   8
#     4  11  24  47  71 100 143 185 231 280 344 405
#     4  11  25  42  73 100 141 178 222 291 334 414
#     4  10  23  40  68 100 131 181 221 281 351 405
#     4   9  22  43  59  87 128 168 217 279 344 400
#     4   9  19  39  66  87 123 175 218 274 342 414
#     4  11  22  43  71 101 138 181 229 280 345 410
#     4  10  21  39  64  90 122 168 223 280 339 413
#     4  11  25  44  66 101 138 175 233 286 344 419
#
# _framework density 20.527035999999999
#
# number of rings (size 3 to 8) (size 9 to 14) (size 15 to 20)
#    0.000    1.750    2.500    0.375    8.750    2.500 
#    4.500    8.750    0.000    0.000    0.000    0.000 
#    0.000    0.000    0.000    0.000    0.000    0.000 
#
# Total GULP energy -792947.002950 kJ/mol
# GULP energy per Si atom -12389.796921 kJ/mol
# Density = 2.048032 g / cm^3
# Si number density = 20.527036 Si / 1000 Ang^3
#
#
#
# Elastic Constant Matrix: (Units=GPa)
#
#
# Indices 1 2 3 4 5 6 
#
# 1 89.9631 42.6018 23.0680 0.0000 0.0000 0.0000
# 2 42.6018 95.0382 32.3295 0.0000 0.0000 0.0000
# 3 23.0680 32.3295 71.2740 0.0000 0.0000 0.0000
# 4 0.0000 0.0000 0.0000 1.2422 0.0000 0.0000
# 5 0.0000 0.0000 0.0000 0.0000 30.7024 0.0000
# 6 0.0000 0.0000 0.0000 0.0000 0.0000 38.0616
#
#
#
# Elastic Compliance Matrix: (Units=1/GPa)
#
#
# Indices 1 2 3 4 5 6 
#
# 1 0.014358 -0.005741 -0.002043 0.000000 0.000000 0.000000
# 2 -0.005741 0.014738 -0.004827 0.000000 0.000000 0.000000
# 3 -0.002043 -0.004827 0.016881 0.000000 0.000000 0.000000
# 4 0.000000 0.000000 0.000000 0.805054 0.000000 0.000000
# 5 0.000000 0.000000 0.000000 0.000000 0.032571 0.000000
# 6 0.000000 0.000000 0.000000 0.000000 0.000000 0.026273
#
#
# Mechanical properties :
#
#
# Convention : Reuss Voigt Hill
#
# Bulk Modulus (GPa) = 48.18113 50.25267 49.21690
# Shear Modulus (GPa) = 5.30777 24.55297 14.93037
#
# Velocity S-wave (km/s) = 1.60977 3.46226 2.69987
# Velocity P-wave (km/s) = 5.19405 6.36532 5.80928
#
# Compressibility (1/GPa) = 0.02075502
#
# Stress axis : x y z
#
# Youngs Moduli (GPa) = 69.64630 67.85370 59.23855
#
# Poissons Ratio (x) = 0.38957 0.12102
# Poissons Ratio (y) = 0.39986 0.28593
# Poissons Ratio (z) = 0.14228 0.32751
#
# Static dielectric constant tensor:
#      x y z
#    x 3.653480 0.000000 0.000000 
#    y 0.000000 3.863160 0.000000 
#    z 0.000000 0.000000 4.031860 
# 
# 
# High freq. dielectric constant tensor:
#      x y z
#    x 1.807910 0.000000 0.000000 
#    y 0.000000 1.806780 0.000000 
#    z 0.000000 0.000000 1.794430 
# 
# From -- ./inp_files/12819.got.cif
#   From: 2010.03.12/outbox.cif.g09.slc.cpg/sg54_7_cif.got.tgz:12819.got - 2010.04.16 15:00:50.
