data_PCOD8223794
_publ_section_title
;
Structure prediction by ZEFSAII (Michael W. Deem and Ramdas Pophale) SiO2 
 PCOD8223794
Probable space group: P C C A
;
_chemical_formula_sum "Si O2"
_cell_formula_units_Z 28
_cell_length_a 26.231452
_cell_length_b 5.016443
_cell_length_c 8.829661
_cell_angle_alpha 90.000000
_cell_angle_beta 90.000000
_cell_angle_gamma 90.000000
_cell_volume 1161.882586
_symmetry_space_group_name_H-M "P C C A"
_symmetry_group_IT_number 54
_symmetry_cell_setting 'orthorhombic'
loop_
_space_group_symop_operation_xyz
x,y,z
1/2-x,-y,z
1/2+x,-y,1/2-z
-x,y,1/2-z
-x,-y,-z
1/2+x,y,-z
1/2-x,y,1/2+z
x,-y,1/2+z
loop_
_atom_site_type_symbol
_atom_site_label
_atom_site_fract_x
_atom_site_fract_y
_atom_site_fract_z
Si Si1 0.838652 0.152643 0.024809
Si Si2 0.548000 0.184651 0.499960
Si Si3 0.000000 0.505492 0.250000
Si Si4 0.695415 0.640756 0.697672
O O1 0.841803 0.403572 0.140860
O O2 0.806628 0.900112 0.087357
O O3 0.896601 0.046793 0.001673
O O4 0.815643 0.259309 0.867102
O O5 0.542761 0.340734 0.344168
O O6 0.540997 0.354279 0.649698
O O7 0.500000 0.000000 0.500000
O O8 0.750000 0.500000 0.688190
#
# Coordination Sequence:
#
# PCOD8223794 Si02
#       4
#     8   8   4   8
#     4  12  28  48  83 112 156 204 257 315 399 456
#     4  11  25  42  72 107 155 196 251 301 374 456
#     4  10  24  42  68 104 160 196 246 302 366 440
#     4  12  28  52  79 114 149 199 263 327 387 461
#
# _framework density 24.098818000000001
#
# number of rings (size 3 to 8) (size 9 to 14) (size 15 to 20)
#    0.000    0.571    0.000    6.000   16.000    2.286 
#    0.000    1.429    0.000    0.000    0.000    0.000 
#    0.000    0.000    0.000    0.000    0.000    0.000 
#
# Total GULP energy -346911.305553 kJ/mol
# GULP energy per Si atom -12389.689484 kJ/mol
# Density = 2.404397 g / cm^3
# Si number density = 24.098818 Si / 1000 Ang^3
#
#
#
# Elastic Constant Matrix: (Units=GPa)
#
#
# Indices 1 2 3 4 5 6 
#
# 1 167.6001 67.4463 64.9892 0.0000 0.0000 0.0000
# 2 67.4463 166.4204 74.7297 0.0000 0.0000 0.0000
# 3 64.9892 74.7297 161.5818 0.0000 0.0000 0.0000
# 4 0.0000 0.0000 0.0000 60.1100 0.0000 0.0000
# 5 0.0000 0.0000 0.0000 0.0000 13.5322 0.0000
# 6 0.0000 0.0000 0.0000 0.0000 0.0000 43.8883
#
#
#
# Elastic Compliance Matrix: (Units=1/GPa)
#
#
# Indices 1 2 3 4 5 6 
#
# 1 0.007642 -0.002167 -0.002071 0.000000 0.000000 0.000000
# 2 -0.002167 0.008198 -0.002920 0.000000 0.000000 0.000000
# 3 -0.002071 -0.002920 0.008372 0.000000 0.000000 0.000000
# 4 0.000000 0.000000 0.000000 0.016636 0.000000 0.000000
# 5 0.000000 0.000000 0.000000 0.000000 0.073898 0.000000
# 6 0.000000 0.000000 0.000000 0.000000 0.000000 0.022785
#
#
# Mechanical properties :
#
#
# Convention : Reuss Voigt Hill
#
# Bulk Modulus (GPa) = 101.05316 101.10365 101.07840
# Shear Modulus (GPa) = 32.22742 42.73522 37.48132
#
# Velocity S-wave (km/s) = 3.66088 4.21566 3.94803
# Velocity P-wave (km/s) = 7.73907 8.10806 7.92571
#
# Compressibility (1/GPa) = 0.00989578
#
# Stress axis : x y z
#
# Youngs Moduli (GPa) = 130.85894 121.97626 119.43916
#
# Poissons Ratio (x) = 0.26431 0.24741
# Poissons Ratio (y) = 0.28356 0.34877
# Poissons Ratio (z) = 0.27106 0.35618
#
# Static dielectric constant tensor:
#      x y z
#    x 4.247660 0.000000 0.000000 
#    y 0.000000 4.020590 0.000000 
#    z 0.000000 0.000000 4.702510 
# 
# 
# High freq. dielectric constant tensor:
#      x y z
#    x 1.965260 0.000000 0.000000 
#    y 0.000000 1.960520 0.000000 
#    z 0.000000 0.000000 1.981680 
# 
# From -- ./inp_files/5361.got.cif
#   From: 2010.03.12/outbox.cif.g09.slc.cpg/sg54_3_cif.got.tgz:5361.got - 2010.04.16 15:00:50.
