data_PCOD8223502
_publ_section_title
;
Structure prediction by ZEFSAII (Michael W. Deem and Ramdas Pophale) SiO2 
 PCOD8223502
Probable space group: P C C A
;
_chemical_formula_sum "Si O2"
_cell_formula_units_Z 32
_cell_length_a 4.846723
_cell_length_b 23.407333
_cell_length_c 12.498603
_cell_angle_alpha 90.000000
_cell_angle_beta 90.000000
_cell_angle_gamma 90.000000
_cell_volume 1417.952252
_symmetry_space_group_name_H-M "P C C A"
_symmetry_group_IT_number 54
_symmetry_cell_setting 'orthorhombic'
loop_
_space_group_symop_operation_xyz
x,y,z
1/2-x,-y,z
1/2+x,-y,1/2-z
-x,y,1/2-z
-x,-y,-z
1/2+x,y,-z
1/2-x,y,1/2+z
x,-y,1/2+z
loop_
_atom_site_type_symbol
_atom_site_label
_atom_site_fract_x
_atom_site_fract_y
_atom_site_fract_z
Si Si1 0.500000 0.086698 0.250000
Si Si2 0.250000 0.000000 0.418732
Si Si3 0.667293 0.373634 0.571512
Si Si4 0.432641 0.751771 0.428023
Si Si5 0.000000 0.461308 0.250000
Si Si6 0.500000 0.839022 0.250000
O O1 0.670466 0.051900 0.160022
O O2 0.252420 0.124236 0.199194
O O3 0.500000 0.000000 0.500000
O O4 0.483560 0.379900 0.464477
O O5 0.616070 0.311044 0.623569
O O6 0.607856 0.423069 0.654054
O O7 0.745974 0.758954 0.466605
O O8 0.364645 0.799997 0.341560
O O9 0.250000 0.500000 0.207207
#
# Coordination Sequence:
#
# PCOD8223502 Si02
#       6
#     4   4   8   8   4   4
#     4  12  27  44  67 103 130 167 226 264 318 388
#     4  12  26  48  72  92 132 182 220 268 320 378
#     4  10  22  41  62  85 121 164 206 254 310 381
#     4  10  22  40  63  92 125 166 207 247 317 391
#     4  12  25  38  59  89 118 157 210 262 318 372
#     4  12  24  40  66  98 136 160 200 278 318 370
#
# _framework density 22.567757
#
# number of rings (size 3 to 8) (size 9 to 14) (size 15 to 20)
#    0.000    1.000    0.000    6.750    0.000    9.000 
#    0.000   10.000    0.000    0.000    0.000    0.000 
#    0.000    0.000    0.000    0.000    0.000    0.000 
#
# Total GULP energy -396632.619988 kJ/mol
# GULP energy per Si atom -12394.769375 kJ/mol
# Density = 2.251639 g / cm^3
# Si number density = 22.567757 Si / 1000 Ang^3
#
#
#
# Elastic Constant Matrix: (Units=GPa)
#
#
# Indices 1 2 3 4 5 6 
#
# 1 114.1920 39.8703 15.8727 0.0000 0.0000 0.0000
# 2 39.8703 129.8916 48.4857 0.0000 0.0000 0.0000
# 3 15.8727 48.4857 76.1355 0.0000 0.0000 0.0000
# 4 0.0000 0.0000 0.0000 25.9177 0.0000 0.0000
# 5 0.0000 0.0000 0.0000 0.0000 36.1168 0.0000
# 6 0.0000 0.0000 0.0000 0.0000 0.0000 34.9984
#
#
#
# Elastic Compliance Matrix: (Units=1/GPa)
#
#
# Indices 1 2 3 4 5 6 
#
# 1 0.009810 -0.002949 -0.000167 0.000000 0.000000 0.000000
# 2 -0.002949 0.010986 -0.006381 0.000000 0.000000 0.000000
# 3 -0.000167 -0.006381 0.017233 0.000000 0.000000 0.000000
# 4 0.000000 0.000000 0.000000 0.038584 0.000000 0.000000
# 5 0.000000 0.000000 0.000000 0.000000 0.027688 0.000000
# 6 0.000000 0.000000 0.000000 0.000000 0.000000 0.028573
#
#
# Mechanical properties :
#
#
# Convention : Reuss Voigt Hill
#
# Bulk Modulus (GPa) = 52.53710 58.74185 55.63947
# Shear Modulus (GPa) = 31.60290 33.80593 32.70442
#
# Velocity S-wave (km/s) = 3.74619 3.87457 3.81092
# Velocity P-wave (km/s) = 6.48400 6.78984 6.63868
#
# Compressibility (1/GPa) = 0.01903417
#
# Stress axis : x y z
#
# Youngs Moduli (GPa) = 101.93686 91.02579 58.02717
#
# Poissons Ratio (x) = 0.26841 0.00971
# Poissons Ratio (y) = 0.30058 0.37030
# Poissons Ratio (z) = 0.01706 0.58088
#
# Static dielectric constant tensor:
#      x y z
#    x 4.305450 0.000000 0.000000 
#    y 0.000000 4.343440 0.000000 
#    z 0.000000 0.000000 3.503910 
# 
# 
# High freq. dielectric constant tensor:
#      x y z
#    x 1.913670 0.000000 0.000000 
#    y 0.000000 1.903980 0.000000 
#    z 0.000000 0.000000 1.868100 
# 
# From -- ./inp_files/6302.got.cif
#   From: 2010.03.12/outbox.cif.g09.slc.cpg/sg54_4_cif.got.tgz:6302.got - 2010.04.16 15:00:50.
