data_PCOD8223595
_publ_section_title
;
Structure prediction by ZEFSAII (Michael W. Deem and Ramdas Pophale) SiO2 
 PCOD8223595
Probable space group: P C C A
;
_chemical_formula_sum "Si O2"
_cell_formula_units_Z 64
_cell_length_a 26.720549
_cell_length_b 12.075124
_cell_length_c 9.738989
_cell_angle_alpha 90.000000
_cell_angle_beta 90.000000
_cell_angle_gamma 90.000000
_cell_volume 3142.323197
_symmetry_space_group_name_H-M "P C C A"
_symmetry_group_IT_number 54
_symmetry_cell_setting 'orthorhombic'
loop_
_space_group_symop_operation_xyz
x,y,z
1/2-x,-y,z
1/2+x,-y,1/2-z
-x,y,1/2-z
-x,-y,-z
1/2+x,y,-z
1/2-x,y,1/2+z
x,-y,1/2+z
loop_
_atom_site_type_symbol
_atom_site_label
_atom_site_fract_x
_atom_site_fract_y
_atom_site_fract_z
Si Si1 0.355593 0.523555 0.722599
Si Si2 0.216022 0.284510 0.632871
Si Si3 0.859235 0.916063 0.657570
Si Si4 0.525485 0.915709 0.104023
Si Si5 0.306402 0.040903 0.111555
Si Si6 0.079528 0.529534 0.469577
Si Si7 0.492791 0.335194 0.911182
Si Si8 0.306397 0.306323 0.827142
O O1 0.316070 0.620601 0.703872
O O2 0.375166 0.481107 0.576726
O O3 0.329991 0.425496 0.806718
O O4 0.400662 0.565221 0.819623
O O5 0.188412 0.168210 0.658275
O O6 0.270321 0.278633 0.700881
O O7 0.223839 0.306348 0.470760
O O8 0.915947 0.941616 0.616979
O O9 0.821845 0.970867 0.547134
O O10 0.850960 0.783835 0.668136
O O11 0.846026 0.970296 0.802643
O O12 0.500000 0.931241 0.250000
O O13 0.518127 0.791143 0.048549
O O14 0.500000 0.000000 0.000000
O O15 0.250000 0.000000 0.131595
O O16 0.052489 0.410690 0.464380
O O17 0.043403 0.628631 0.513610
O O18 0.500000 0.351993 0.750000
#
# Coordination Sequence:
#
# PCOD8223595 Si02
#       8
#     8   8   8   8   8   8   8   8
#     4  12  24  42  65  96 133 169 219 267 339 394
#     4  11  26  41  65  96 133 171 215 273 322 395
#     4  11  24  43  71  95 132 176 221 281 335 396
#     4  11  25  46  68  98 135 176 225 283 346 405
#     4  11  23  44  68 100 131 172 227 274 328 401
#     4  11  23  42  67  97 126 175 220 274 332 410
#     4  10  22  42  68  92 133 171 223 275 342 396
#     4  11  25  43  64  94 135 175 214 270 332 393
#
# _framework density 20.367097000000001
#
# number of rings (size 3 to 8) (size 9 to 14) (size 15 to 20)
#    0.000    1.000    3.750    2.250    7.000    2.000 
#    2.250    0.000    0.000    0.000    0.000    0.000 
#    0.000    0.000    0.000    0.000    0.000    0.000 
#
# Total GULP energy -793976.568352 kJ/mol
# GULP energy per Si atom -12405.883880 kJ/mol
# Density = 2.032074 g / cm^3
# Si number density = 20.367097 Si / 1000 Ang^3
#
#
#
# Elastic Constant Matrix: (Units=GPa)
#
#
# Indices 1 2 3 4 5 6 
#
# 1 101.7716 35.4145 27.1064 0.0000 0.0000 0.0000
# 2 35.4145 115.6156 43.2215 0.0000 0.0000 0.0000
# 3 27.1064 43.2215 84.4930 0.0000 0.0000 0.0000
# 4 0.0000 0.0000 0.0000 41.6825 0.0000 0.0000
# 5 0.0000 0.0000 0.0000 0.0000 41.7641 0.0000
# 6 0.0000 0.0000 0.0000 0.0000 0.0000 63.1625
#
#
#
# Elastic Compliance Matrix: (Units=1/GPa)
#
#
# Indices 1 2 3 4 5 6 
#
# 1 0.011349 -0.002615 -0.002303 0.000000 0.000000 0.000000
# 2 -0.002615 0.011297 -0.004940 0.000000 0.000000 0.000000
# 3 -0.002303 -0.004940 0.015101 0.000000 0.000000 0.000000
# 4 0.000000 0.000000 0.000000 0.023991 0.000000 0.000000
# 5 0.000000 0.000000 0.000000 0.000000 0.023944 0.000000
# 6 0.000000 0.000000 0.000000 0.000000 0.000000 0.015832
#
#
# Mechanical properties :
#
#
# Convention : Reuss Voigt Hill
#
# Bulk Modulus (GPa) = 55.46064 57.04056 56.25060
# Shear Modulus (GPa) = 39.29514 42.39769 40.84641
#
# Velocity S-wave (km/s) = 4.39720 4.56749 4.48315
# Velocity P-wave (km/s) = 7.28492 7.47549 7.38082
#
# Compressibility (1/GPa) = 0.01803081
#
# Stress axis : x y z
#
# Youngs Moduli (GPa) = 88.10964 88.51723 66.22022
#
# Poissons Ratio (x) = 0.23152 0.15251
# Poissons Ratio (y) = 0.23045 0.32712
# Poissons Ratio (z) = 0.20293 0.43727
#
# Static dielectric constant tensor:
#      x y z
#    x 3.692210 0.000000 0.000000 
#    y 0.000000 3.793380 0.000000 
#    z 0.000000 0.000000 3.885690 
# 
# 
# High freq. dielectric constant tensor:
#      x y z
#    x 1.799040 0.000000 0.000000 
#    y 0.000000 1.800700 0.000000 
#    z 0.000000 0.000000 1.806250 
# 
# From -- ./inp_files/5963.got.cif
#   From: 2010.03.12/outbox.cif.g09.slc.cpg/sg54_3_cif.got.tgz:5963.got - 2010.04.16 15:00:50.
