data_PCOD8223788
_publ_section_title
;
Structure prediction by ZEFSAII (Michael W. Deem and Ramdas Pophale) SiO2 
 PCOD8223788
Probable space group: P C C A
;
_chemical_formula_sum "Si O2"
_cell_formula_units_Z 28
_cell_length_a 11.833540
_cell_length_b 4.924289
_cell_length_c 21.191041
_cell_angle_alpha 90.000000
_cell_angle_beta 90.000000
_cell_angle_gamma 90.000000
_cell_volume 1234.839485
_symmetry_space_group_name_H-M "P C C A"
_symmetry_group_IT_number 54
_symmetry_cell_setting 'orthorhombic'
loop_
_space_group_symop_operation_xyz
x,y,z
1/2-x,-y,z
1/2+x,-y,1/2-z
-x,y,1/2-z
-x,-y,-z
1/2+x,y,-z
1/2-x,y,1/2+z
x,-y,1/2+z
loop_
_atom_site_type_symbol
_atom_site_label
_atom_site_fract_x
_atom_site_fract_y
_atom_site_fract_z
Si Si1 0.000000 0.472794 0.750000
Si Si2 0.479819 0.110374 0.069292
Si Si3 0.874290 0.386657 0.371773
Si Si4 0.674187 0.240505 0.159696
O O1 0.055924 0.642265 0.693372
O O2 0.096773 0.290320 0.780044
O O3 0.384902 0.916042 0.100980
O O4 0.431243 0.414577 0.076063
O O5 0.602799 0.119058 0.101505
O O6 0.500000 0.000000 0.000000
O O7 0.750000 0.500000 0.357940
O O8 0.750000 0.500000 0.139184
O O9 0.750000 0.000000 0.185393
#
# Coordination Sequence:
#
# PCOD8223788 Si02
#       4
#     4   8   8   8
#     4  10  24  42  64  94 130 160 210 264 312 380
#     4  11  25  44  64  94 130 165 214 263 308 376
#     4  11  24  42  67  95 127 168 208 259 320 374
#     4  11  24  41  65  93 126 170 211 260 322 378
#
# _framework density 22.675013
#
# number of rings (size 3 to 8) (size 9 to 14) (size 15 to 20)
#    0.000    1.143    0.000    6.000    0.000   18.286 
#    0.000    0.000    0.000    0.000    0.000    0.000 
#    0.000    0.000    0.000    0.000    0.000    0.000 
#
# Total GULP energy -347035.040596 kJ/mol
# GULP energy per Si atom -12394.108593 kJ/mol
# Density = 2.262340 g / cm^3
# Si number density = 22.675013 Si / 1000 Ang^3
#
#
#
# Elastic Constant Matrix: (Units=GPa)
#
#
# Indices 1 2 3 4 5 6 
#
# 1 113.4621 24.8709 14.1140 0.0000 0.0000 0.0000
# 2 24.8709 99.0898 17.4802 0.0000 0.0000 0.0000
# 3 14.1140 17.4802 118.3261 0.0000 0.0000 0.0000
# 4 0.0000 0.0000 0.0000 14.1870 0.0000 0.0000
# 5 0.0000 0.0000 0.0000 0.0000 4.2901 0.0000
# 6 0.0000 0.0000 0.0000 0.0000 0.0000 45.6318
#
#
#
# Elastic Compliance Matrix: (Units=1/GPa)
#
#
# Indices 1 2 3 4 5 6 
#
# 1 0.009399 -0.002219 -0.000793 0.000000 0.000000 0.000000
# 2 -0.002219 0.010886 -0.001343 0.000000 0.000000 0.000000
# 3 -0.000793 -0.001343 0.008744 0.000000 0.000000 0.000000
# 4 0.000000 0.000000 0.000000 0.070487 0.000000 0.000000
# 5 0.000000 0.000000 0.000000 0.000000 0.233094 0.000000
# 6 0.000000 0.000000 0.000000 0.000000 0.000000 0.021915
#
#
# Mechanical properties :
#
#
# Convention : Reuss Voigt Hill
#
# Bulk Modulus (GPa) = 49.21938 49.31202 49.26570
# Shear Modulus (GPa) = 13.51321 31.11598 22.31459
#
# Velocity S-wave (km/s) = 2.44386 3.70842 3.14045
# Velocity P-wave (km/s) = 5.45131 6.33490 5.90965
#
# Compressibility (1/GPa) = 0.02031720
#
# Stress axis : x y z
#
# Youngs Moduli (GPa) = 106.39870 91.86264 114.36015
#
# Poissons Ratio (x) = 0.20385 0.09072
# Poissons Ratio (y) = 0.23610 0.15364
# Poissons Ratio (z) = 0.08440 0.12341
#
# Static dielectric constant tensor:
#      x y z
#    x 4.952950 0.000000 0.000000 
#    y 0.000000 -10.605650 0.000000 
#    z 0.000000 0.000000 3.955220 
# 
# 
# High freq. dielectric constant tensor:
#      x y z
#    x 1.910150 0.000000 0.000000 
#    y 0.000000 1.902090 0.000000 
#    z 0.000000 0.000000 1.886780 
# 
# From -- ./inp_files/20731.got.cif
#   From: 2010.03.12/outbox.cif.g09.slc.cpg/sg54_11_cif.got.tgz:20731.got - 2010.04.16 15:00:50.
