data_PCOD8223372
_publ_section_title
;
Structure prediction by ZEFSAII (Michael W. Deem and Ramdas Pophale) SiO2 
 PCOD8223372
Probable space group: P C C A
;
_chemical_formula_sum "Si O2"
_cell_formula_units_Z 56
_cell_length_a 14.308957
_cell_length_b 18.367953
_cell_length_c 9.158173
_cell_angle_alpha 90.000000
_cell_angle_beta 90.000000
_cell_angle_gamma 90.000000
_cell_volume 2407.008263
_symmetry_space_group_name_H-M "P C C A"
_symmetry_group_IT_number 54
_symmetry_cell_setting 'orthorhombic'
loop_
_space_group_symop_operation_xyz
x,y,z
1/2-x,-y,z
1/2+x,-y,1/2-z
-x,y,1/2-z
-x,-y,-z
1/2+x,y,-z
1/2-x,y,1/2+z
x,-y,1/2+z
loop_
_atom_site_type_symbol
_atom_site_label
_atom_site_fract_x
_atom_site_fract_y
_atom_site_fract_z
Si Si1 0.750000 0.000000 0.344152
Si Si2 0.849336 0.202449 0.666538
Si Si3 0.817150 0.903984 0.598834
Si Si4 0.171555 0.360198 0.888504
Si Si5 0.923205 0.548503 0.347962
Si Si6 0.250000 0.500000 0.008789
Si Si7 0.002930 0.645742 0.581561
Si Si8 0.050576 0.204331 0.529068
O O1 0.811168 0.947438 0.446422
O O2 0.676219 0.957316 0.239006
O O3 0.778591 0.140291 0.620645
O O4 0.791997 0.279012 0.646130
O O5 0.880330 0.197468 0.833905
O O6 0.941900 0.191829 0.567464
O O7 0.910083 0.853652 0.590033
O O8 0.249246 0.424296 0.914909
O O9 0.110194 0.347525 0.032892
O O10 0.107621 0.382534 0.750533
O O11 0.838907 0.494702 0.385022
O O12 0.963161 0.574202 0.502221
O O13 0.000000 0.505464 0.250000
O O14 0.940758 0.715633 0.540056
O O15 0.000000 0.631330 0.750000
#
# Coordination Sequence:
#
# PCOD8223372 Si02
#       8
#     4   8   8   8   8   4   8   8
#     4  10  24  42  64 106 150 178 230 290 356 410
#     4  10  21  42  73 101 134 187 237 287 359 417
#     4  11  22  43  69 100 143 190 225 290 348 422
#     4  10  23  42  64  95 135 178 234 299 352 425
#     4  10  23  45  68  90 140 186 229 299 369 422
#     4  12  26  40  68 106 134 190 258 294 362 440
#     4  10  22  41  67  98 132 174 227 297 353 419
#     4  10  21  42  70 103 138 181 233 286 353 421
#
# _framework density 23.265397
#
# number of rings (size 3 to 8) (size 9 to 14) (size 15 to 20)
#    0.000    1.714    2.857    0.429    2.000    7.429 
#    0.000    4.286    0.000    0.000    0.000    0.000 
#    0.000    0.000    0.000    0.000    0.000    0.000 
#
# Total GULP energy -694086.450727 kJ/mol
# GULP energy per Si atom -12394.400906 kJ/mol
# Density = 2.321244 g / cm^3
# Si number density = 23.265397 Si / 1000 Ang^3
#
#
#
# Elastic Constant Matrix: (Units=GPa)
#
#
# Indices 1 2 3 4 5 6 
#
# 1 80.3611 41.1331 27.4975 0.0000 0.0000 0.0000
# 2 41.1331 135.1745 39.0458 0.0000 0.0000 0.0000
# 3 27.4975 39.0458 136.6936 0.0000 0.0000 0.0000
# 4 0.0000 0.0000 0.0000 14.0219 0.0000 0.0000
# 5 0.0000 0.0000 0.0000 0.0000 25.6237 0.0000
# 6 0.0000 0.0000 0.0000 0.0000 0.0000 37.2005
#
#
#
# Elastic Compliance Matrix: (Units=1/GPa)
#
#
# Indices 1 2 3 4 5 6 
#
# 1 0.015174 -0.004072 -0.001889 0.000000 0.000000 0.000000
# 2 -0.004072 0.009156 -0.001796 0.000000 0.000000 0.000000
# 3 -0.001889 -0.001796 0.008209 0.000000 0.000000 0.000000
# 4 0.000000 0.000000 0.000000 0.071317 0.000000 0.000000
# 5 0.000000 0.000000 0.000000 0.000000 0.039026 0.000000
# 6 0.000000 0.000000 0.000000 0.000000 0.000000 0.026881
#
#
# Mechanical properties :
#
#
# Convention : Reuss Voigt Hill
#
# Bulk Modulus (GPa) = 58.74002 63.06468 60.90235
# Shear Modulus (GPa) = 26.18441 31.67275 28.92858
#
# Velocity S-wave (km/s) = 3.35844 3.69367 3.53004
# Velocity P-wave (km/s) = 6.35149 6.73472 6.54591
#
# Compressibility (1/GPa) = 0.01702417
#
# Stress axis : x y z
#
# Youngs Moduli (GPa) = 65.90004 109.22150 121.82065
#
# Poissons Ratio (x) = 0.44472 0.23017
# Poissons Ratio (y) = 0.26833 0.21881
# Poissons Ratio (z) = 0.12451 0.19618
#
# Static dielectric constant tensor:
#      x y z
#    x 3.917030 0.000000 0.000000 
#    y 0.000000 4.319040 0.000000 
#    z 0.000000 0.000000 4.224930 
# 
# 
# High freq. dielectric constant tensor:
#      x y z
#    x 1.893490 0.000000 0.000000 
#    y 0.000000 1.926860 0.000000 
#    z 0.000000 0.000000 1.928280 
# 
# From -- ./inp_files/3705.got.cif
#   From: 2010.03.12/outbox.cif.g09.slc.cpg/sg54_2_cif.got.tgz:3705.got - 2010.04.16 15:00:50.
