data_PCOD8223902
_publ_section_title
;
Structure prediction by ZEFSAII (Michael W. Deem and Ramdas Pophale) SiO2 
 PCOD8223902
Probable space group: P C C A
;
_chemical_formula_sum "Si O2"
_cell_formula_units_Z 60
_cell_length_a 23.610653
_cell_length_b 8.108870
_cell_length_c 15.001379
_cell_angle_alpha 90.000000
_cell_angle_beta 90.000000
_cell_angle_gamma 90.000000
_cell_volume 2872.099754
_symmetry_space_group_name_H-M "P C C A"
_symmetry_group_IT_number 54
_symmetry_cell_setting 'orthorhombic'
loop_
_space_group_symop_operation_xyz
x,y,z
1/2-x,-y,z
1/2+x,-y,1/2-z
-x,y,1/2-z
-x,-y,-z
1/2+x,y,-z
1/2-x,y,1/2+z
x,-y,1/2+z
loop_
_atom_site_type_symbol
_atom_site_label
_atom_site_fract_x
_atom_site_fract_y
_atom_site_fract_z
Si Si1 0.732201 0.695470 0.345469
Si Si2 0.640533 0.598535 0.608996
Si Si3 0.160370 0.870987 0.084029
Si Si4 0.316461 0.035873 0.403982
Si Si5 0.133445 0.894167 0.731383
Si Si6 0.066224 0.582264 0.746835
Si Si7 0.863307 0.512152 0.420189
Si Si8 0.750000 0.500000 0.682829
O O1 0.774237 0.814979 0.398719
O O2 0.675777 0.800265 0.334455
O O3 0.703186 0.527017 0.390695
O O4 0.758483 0.657167 0.248286
O O5 0.664227 0.781652 0.624725
O O6 0.592664 0.534660 0.676332
O O7 0.619066 0.588126 0.508038
O O8 0.694739 0.477559 0.622004
O O9 0.129146 0.703683 0.056606
O O10 0.125936 0.940483 0.171246
O O11 0.157511 0.995308 0.000831
O O12 0.250000 0.000000 0.405603
O O13 0.341596 0.919859 0.328563
O O14 0.078904 0.779247 0.751684
O O15 0.090636 0.523663 0.653724
O O16 0.000000 0.553517 0.750000
#
# Coordination Sequence:
#
# PCOD8223902 Si02
#       8
#     8   8   8   8   8   8   8   4
#     4  11  20  36  58  90 136 181 212 254 319 405
#     4  12  25  41  66  99 134 180 227 274 333 414
#     4  12  22  37  59  96 141 172 209 261 337 410
#     4  12  24  36  61  98 142 180 207 262 341 417
#     4  11  22  39  58  89 127 164 220 279 336 385
#     4  11  25  49  72  91 124 177 242 298 336 391
#     4  11  23  40  65  96 131 174 226 275 327 403
#     4  12  20  36  64  94 134 172 218 260 320 406
#
# _framework density 20.890639
#
# number of rings (size 3 to 8) (size 9 to 14) (size 15 to 20)
#    0.000    0.533    4.000    7.600    3.733    0.533 
#    0.000    2.667    0.000    3.200    0.000    0.000 
#    0.000    0.000    0.000    0.000    0.000    0.000 
#
# Total GULP energy -743500.763416 kJ/mol
# GULP energy per Si atom -12391.679390 kJ/mol
# Density = 2.084309 g / cm^3
# Si number density = 20.890639 Si / 1000 Ang^3
#
#
#
# Elastic Constant Matrix: (Units=GPa)
#
#
# Indices 1 2 3 4 5 6 
#
# 1 120.2077 39.6701 50.3951 0.0000 0.0000 0.0000
# 2 39.6701 100.9240 33.4881 0.0000 0.0000 0.0000
# 3 50.3951 33.4881 141.9811 0.0000 0.0000 0.0000
# 4 0.0000 0.0000 0.0000 34.4984 0.0000 0.0000
# 5 0.0000 0.0000 0.0000 0.0000 2.6358 0.0000
# 6 0.0000 0.0000 0.0000 0.0000 0.0000 21.8498
#
#
#
# Elastic Compliance Matrix: (Units=1/GPa)
#
#
# Indices 1 2 3 4 5 6 
#
# 1 0.010636 -0.003177 -0.003026 0.000000 0.000000 0.000000
# 2 -0.003177 0.011698 -0.001632 0.000000 0.000000 0.000000
# 3 -0.003026 -0.001632 0.008502 0.000000 0.000000 0.000000
# 4 0.000000 0.000000 0.000000 0.028987 0.000000 0.000000
# 5 0.000000 0.000000 0.000000 0.000000 0.379387 0.000000
# 6 0.000000 0.000000 0.000000 0.000000 0.000000 0.045767
#
#
# Mechanical properties :
#
#
# Convention : Reuss Voigt Hill
#
# Bulk Modulus (GPa) = 65.92825 67.80214 66.86520
# Shear Modulus (GPa) = 9.88726 27.76746 18.82736
#
# Velocity S-wave (km/s) = 2.17788 3.64975 3.00531
# Velocity P-wave (km/s) = 6.16048 7.09134 6.64223
#
# Compressibility (1/GPa) = 0.01516800
#
# Stress axis : x y z
#
# Youngs Moduli (GPa) = 94.02223 85.48113 117.61852
#
# Poissons Ratio (x) = 0.27154 0.35590
# Poissons Ratio (y) = 0.29867 0.19192
# Poissons Ratio (z) = 0.28450 0.13948
#
# Static dielectric constant tensor:
#      x y z
#    x 3.342650 0.000000 0.000000 
#    y 0.000000 4.225910 0.000000 
#    z 0.000000 0.000000 3.958370 
# 
# 
# High freq. dielectric constant tensor:
#      x y z
#    x 1.759300 0.000000 0.000000 
#    y 0.000000 1.839110 0.000000 
#    z 0.000000 0.000000 1.834920 
# 
# From -- ./inp_files/14952.got.cif
#   From: 2010.03.12/outbox.cif.g09.slc.cpg/sg54_8_cif.got.tgz:14952.got - 2010.04.16 15:00:50.
