data_PCOD8223085
_publ_section_title
;
Structure prediction by ZEFSAII (Michael W. Deem and Ramdas Pophale) SiO2 
 PCOD8223085
Probable space group: P C C A
;
_chemical_formula_sum "Si O2"
_cell_formula_units_Z 40
_cell_length_a 17.289980
_cell_length_b 7.806025
_cell_length_c 14.286552
_cell_angle_alpha 90.000000
_cell_angle_beta 90.000000
_cell_angle_gamma 90.000000
_cell_volume 1928.199008
_symmetry_space_group_name_H-M "P C C A"
_symmetry_group_IT_number 54
_symmetry_cell_setting 'orthorhombic'
loop_
_space_group_symop_operation_xyz
x,y,z
1/2-x,-y,z
1/2+x,-y,1/2-z
-x,y,1/2-z
-x,-y,-z
1/2+x,y,-z
1/2-x,y,1/2+z
x,-y,1/2+z
loop_
_atom_site_type_symbol
_atom_site_label
_atom_site_fract_x
_atom_site_fract_y
_atom_site_fract_z
Si Si1 0.750000 0.500000 0.685201
Si Si2 0.191405 0.841878 0.227414
Si Si3 0.000000 0.523419 0.250000
Si Si4 0.101545 0.657474 0.900197
Si Si5 0.428927 0.749002 0.599352
Si Si6 0.554609 0.014397 0.163736
O O1 0.767363 0.338779 0.752012
O O2 0.682001 0.438407 0.616410
O O3 0.153120 0.842246 0.122616
O O4 0.250000 0.000000 0.232476
O O5 0.122974 0.862207 0.302854
O O6 0.960484 0.409738 0.172020
O O7 0.938956 0.637232 0.306230
O O8 0.100373 0.861985 0.887356
O O9 0.076866 0.628578 0.008171
O O10 0.501014 0.881104 0.589942
O O11 0.500000 0.952455 0.250000
#
# Coordination Sequence:
#
# PCOD8223085 Si02
#       6
#     4   8   4   8   8   8
#     4  12  24  42  66  96 142 180 218 278 346 412
#     4  11  22  42  68  92 134 185 216 276 347 402
#     4  12  22  42  68  96 132 172 224 288 338 398
#     4  12  24  40  69 101 129 182 231 274 349 415
#     4  11  23  43  67  97 132 175 231 284 337 406
#     4  10  20  42  68  92 129 170 225 281 334 394
#
# _framework density 20.744747
#
# number of rings (size 3 to 8) (size 9 to 14) (size 15 to 20)
#    0.000    0.800    8.000    1.200    0.000    0.800 
#    3.600    0.000    0.000    0.000    0.000    0.000 
#    0.000    0.000    0.000    0.000    0.000    0.000 
#
# Total GULP energy -495743.721144 kJ/mol
# GULP energy per Si atom -12393.593029 kJ/mol
# Density = 2.069753 g / cm^3
# Si number density = 20.744747 Si / 1000 Ang^3
#
#
#
# Elastic Constant Matrix: (Units=GPa)
#
#
# Indices 1 2 3 4 5 6 
#
# 1 126.4129 56.2368 54.8660 0.0000 0.0000 0.0000
# 2 56.2368 130.6542 46.2958 0.0000 0.0000 0.0000
# 3 54.8660 46.2958 126.9523 0.0000 0.0000 0.0000
# 4 0.0000 0.0000 0.0000 39.4834 0.0000 0.0000
# 5 0.0000 0.0000 0.0000 0.0000 22.1493 0.0000
# 6 0.0000 0.0000 0.0000 0.0000 0.0000 34.0544
#
#
#
# Elastic Compliance Matrix: (Units=1/GPa)
#
#
# Indices 1 2 3 4 5 6 
#
# 1 0.010969 -0.003493 -0.003467 0.000000 0.000000 0.000000
# 2 -0.003493 0.009902 -0.002101 0.000000 0.000000 0.000000
# 3 -0.003467 -0.002101 0.010142 0.000000 0.000000 0.000000
# 4 0.000000 0.000000 0.000000 0.025327 0.000000 0.000000
# 5 0.000000 0.000000 0.000000 0.000000 0.045148 0.000000
# 6 0.000000 0.000000 0.000000 0.000000 0.000000 0.029365
#
#
# Mechanical properties :
#
#
# Convention : Reuss Voigt Hill
#
# Bulk Modulus (GPa) = 77.57786 77.64632 77.61209
# Shear Modulus (GPa) = 32.62180 34.24546 33.43363
#
# Velocity S-wave (km/s) = 3.96982 4.06741 4.01891
# Velocity P-wave (km/s) = 7.64789 7.71810 7.68308
#
# Compressibility (1/GPa) = 0.01289028
#
# Stress axis : x y z
#
# Youngs Moduli (GPa) = 91.16453 100.99134 98.60414
#
# Poissons Ratio (x) = 0.35276 0.34185
# Poissons Ratio (y) = 0.31844 0.20720
# Poissons Ratio (z) = 0.31605 0.21222
#
# Static dielectric constant tensor:
#      x y z
#    x 4.712200 0.000000 0.000000 
#    y 0.000000 3.921670 0.000000 
#    z 0.000000 0.000000 3.734580 
# 
# 
# High freq. dielectric constant tensor:
#      x y z
#    x 1.817920 0.000000 0.000000 
#    y 0.000000 1.819910 0.000000 
#    z 0.000000 0.000000 1.795690 
# 
# From -- ./inp_files/13939.got.cif
#   From: 2010.03.12/outbox.cif.g09.slc.cpg/sg54_7_cif.got.tgz:13939.got - 2010.04.16 15:00:50.
