data_PCOD8223807
_publ_section_title
;
Structure prediction by ZEFSAII (Michael W. Deem and Ramdas Pophale) SiO2 
 PCOD8223807
Probable space group: P C C A
;
_chemical_formula_sum "Si O2"
_cell_formula_units_Z 28
_cell_length_a 9.885641
_cell_length_b 5.157994
_cell_length_c 22.839535
_cell_angle_alpha 90.000000
_cell_angle_beta 90.000000
_cell_angle_gamma 90.000000
_cell_volume 1164.589647
_symmetry_space_group_name_H-M "P C C A"
_symmetry_group_IT_number 54
_symmetry_cell_setting 'orthorhombic'
loop_
_space_group_symop_operation_xyz
x,y,z
1/2-x,-y,z
1/2+x,-y,1/2-z
-x,y,1/2-z
-x,-y,-z
1/2+x,y,-z
1/2-x,y,1/2+z
x,-y,1/2+z
loop_
_atom_site_type_symbol
_atom_site_label
_atom_site_fract_x
_atom_site_fract_y
_atom_site_fract_z
Si Si1 0.750000 0.000000 0.170181
Si Si2 0.098785 0.469219 0.054160
Si Si3 0.035711 0.028917 0.625363
Si Si4 0.642035 0.687670 0.770840
O O1 0.779358 0.756687 0.211517
O O2 0.879004 0.053131 0.129279
O O3 0.250000 0.500000 0.029961
O O4 0.053253 0.682679 0.100559
O O5 0.101974 0.186452 0.084409
O O6 0.000000 0.500000 0.000000
O O7 0.106721 0.056523 0.689536
O O8 0.750000 0.500000 0.804710
O O9 0.500000 0.554336 0.750000
#
# Coordination Sequence:
#
# PCOD8223807 Si02
#       4
#     4   8   8   8
#     4  10  26  42  74 110 150 202 234 294 358 456
#     4  12  29  51  79 107 142 191 252 314 374 433
#     4  11  27  47  77 108 151 191 245 306 368 436
#     4  10  24  43  69 110 151 197 243 290 358 445
#
# _framework density 24.042801000000001
#
# number of rings (size 3 to 8) (size 9 to 14) (size 15 to 20)
#    0.000    1.143    0.000    2.571   20.000    1.143 
#    0.000    0.000    0.000    0.000    0.000    0.000 
#    0.000    0.000    0.000    0.000    0.000    0.000 
#
# Total GULP energy -347132.817462 kJ/mol
# GULP energy per Si atom -12397.600624 kJ/mol
# Density = 2.398808 g / cm^3
# Si number density = 24.042801 Si / 1000 Ang^3
#
#
#
# Elastic Constant Matrix: (Units=GPa)
#
#
# Indices 1 2 3 4 5 6 
#
# 1 223.0630 46.7283 53.8295 0.0000 0.0000 0.0000
# 2 46.7283 110.7723 28.7930 0.0000 0.0000 0.0000
# 3 53.8295 28.7930 87.0330 0.0000 0.0000 0.0000
# 4 0.0000 0.0000 0.0000 25.9941 0.0000 0.0000
# 5 0.0000 0.0000 0.0000 0.0000 39.5698 0.0000
# 6 0.0000 0.0000 0.0000 0.0000 0.0000 37.2121
#
#
#
# Elastic Compliance Matrix: (Units=1/GPa)
#
#
# Indices 1 2 3 4 5 6 
#
# 1 0.005509 -0.001574 -0.002887 0.000000 0.000000 0.000000
# 2 -0.001574 0.010326 -0.002443 0.000000 0.000000 0.000000
# 3 -0.002887 -0.002443 0.014084 0.000000 0.000000 0.000000
# 4 0.000000 0.000000 0.000000 0.038470 0.000000 0.000000
# 5 0.000000 0.000000 0.000000 0.000000 0.025272 0.000000
# 6 0.000000 0.000000 0.000000 0.000000 0.000000 0.026873
#
#
# Mechanical properties :
#
#
# Convention : Reuss Voigt Hill
#
# Bulk Modulus (GPa) = 62.06432 75.50774 68.78603
# Shear Modulus (GPa) = 35.78782 39.98968 37.88875
#
# Velocity S-wave (km/s) = 3.86230 4.08275 3.97405
# Velocity P-wave (km/s) = 6.76461 7.32795 7.05191
#
# Compressibility (1/GPa) = 0.01611232
#
# Stress axis : x y z
#
# Youngs Moduli (GPa) = 181.50903 96.83950 71.00446
#
# Poissons Ratio (x) = 0.15240 0.20498
# Poissons Ratio (y) = 0.28564 0.17346
# Poissons Ratio (z) = 0.52400 0.23657
#
# Static dielectric constant tensor:
#      x y z
#    x 4.837170 0.000000 0.000000 
#    y 0.000000 4.169120 0.000000 
#    z 0.000000 0.000000 4.426140 
# 
# 
# High freq. dielectric constant tensor:
#      x y z
#    x 1.984310 0.000000 0.000000 
#    y 0.000000 1.945400 0.000000 
#    z 0.000000 0.000000 1.941040 
# 
# From -- ./inp_files/25584.got.cif
#   From: 2010.03.12/outbox.cif.g09.slc.cpg/sg54_13_cif.got.tgz:25584.got - 2010.04.16 15:00:50.
