data_PCOD8223040
_publ_section_title
;
Structure prediction by ZEFSAII (Michael W. Deem and Ramdas Pophale) SiO2 
 PCOD8223040
Probable space group: P C C A
;
_chemical_formula_sum "Si O2"
_cell_formula_units_Z 60
_cell_length_a 15.421793
_cell_length_b 8.880898
_cell_length_c 21.591740
_cell_angle_alpha 90.000000
_cell_angle_beta 90.000000
_cell_angle_gamma 90.000000
_cell_volume 2957.191121
_symmetry_space_group_name_H-M "P C C A"
_symmetry_group_IT_number 54
_symmetry_cell_setting 'orthorhombic'
loop_
_space_group_symop_operation_xyz
x,y,z
1/2-x,-y,z
1/2+x,-y,1/2-z
-x,y,1/2-z
-x,-y,-z
1/2+x,y,-z
1/2-x,y,1/2+z
x,-y,1/2+z
loop_
_atom_site_type_symbol
_atom_site_label
_atom_site_fract_x
_atom_site_fract_y
_atom_site_fract_z
Si Si1 0.671608 0.816391 0.945807
Si Si2 0.923895 0.657503 0.662530
Si Si3 0.218424 0.333072 0.256091
Si Si4 0.500000 0.590442 0.750000
Si Si5 0.629676 0.825320 0.801769
Si Si6 0.579120 0.154928 0.812829
Si Si7 0.026243 0.338181 0.479739
Si Si8 0.634909 0.149501 0.953426
O O1 0.663791 0.818238 0.871708
O O2 0.771018 0.770808 0.962349
O O3 0.645915 0.977475 0.975216
O O4 0.606280 0.700232 0.976196
O O5 0.819749 0.677548 0.673541
O O6 0.942375 0.652402 0.590487
O O7 0.948295 0.503937 0.698519
O O8 0.977299 0.799411 0.691814
O O9 0.250000 0.500000 0.237697
O O10 0.290806 0.207454 0.244911
O O11 0.133131 0.292817 0.216136
O O12 0.559954 0.696372 0.791802
O O13 0.593711 0.989975 0.783413
O O14 0.608610 0.150315 0.882828
O O15 0.000000 0.500000 0.500000
O O16 0.942982 0.229314 0.491199
#
# Coordination Sequence:
#
# PCOD8223040 Si02
#       8
#     8   8   8   4   8   8   8   8
#     4  10  20  42  65  91 119 158 209 257 313 366
#     4  11  23  41  61  87 128 170 198 257 323 371
#     4  12  21  38  60  90 126 164 200 251 310 375
#     4  12  22  38  56  88 128 162 200 248 314 370
#     4  11  23  37  65  95 119 159 209 260 301 375
#     4  10  20  40  64  92 121 156 208 254 311 368
#     4  11  24  41  62  92 124 164 212 257 310 379
#     4   9  20  39  67  90 119 155 205 263 308 364
#
# _framework density 20.289522999999999
#
# number of rings (size 3 to 8) (size 9 to 14) (size 15 to 20)
#    0.000    1.333    4.000    1.600    1.867    1.600 
#    2.400    0.000    5.867    0.000    0.000    0.000 
#    0.000    0.000    0.000    0.000    0.000    0.000 
#
# Total GULP energy -743690.018050 kJ/mol
# GULP energy per Si atom -12394.833634 kJ/mol
# Density = 2.024334 g / cm^3
# Si number density = 20.289523 Si / 1000 Ang^3
#
#
#
# Elastic Constant Matrix: (Units=GPa)
#
#
# Indices 1 2 3 4 5 6 
#
# 1 135.0231 64.1146 32.1944 0.0000 0.0000 0.0000
# 2 64.1146 120.9164 33.2586 0.0000 0.0000 0.0000
# 3 32.1944 33.2586 43.2025 0.0000 0.0000 0.0000
# 4 0.0000 0.0000 0.0000 26.1415 0.0000 0.0000
# 5 0.0000 0.0000 0.0000 0.0000 28.4413 0.0000
# 6 0.0000 0.0000 0.0000 0.0000 0.0000 33.8511
#
#
#
# Elastic Compliance Matrix: (Units=1/GPa)
#
#
# Indices 1 2 3 4 5 6 
#
# 1 0.010548 -0.004353 -0.004510 0.000000 0.000000 0.000000
# 2 -0.004353 0.012288 -0.006216 0.000000 0.000000 0.000000
# 3 -0.004510 -0.006216 0.031293 0.000000 0.000000 0.000000
# 4 0.000000 0.000000 0.000000 0.038253 0.000000 0.000000
# 5 0.000000 0.000000 0.000000 0.000000 0.035160 0.000000
# 6 0.000000 0.000000 0.000000 0.000000 0.000000 0.029541
#
#
# Mechanical properties :
#
#
# Convention : Reuss Voigt Hill
#
# Bulk Modulus (GPa) = 41.71518 62.03081 51.87300
# Shear Modulus (GPa) = 25.61070 28.99173 27.30121
#
# Velocity S-wave (km/s) = 3.55669 3.78418 3.67220
# Velocity P-wave (km/s) = 6.12138 7.05213 6.60318
#
# Compressibility (1/GPa) = 0.02397209
#
# Stress axis : x y z
#
# Youngs Moduli (GPa) = 94.80244 81.38109 31.95633
#
# Poissons Ratio (x) = 0.35423 0.14411
# Poissons Ratio (y) = 0.41264 0.19864
# Poissons Ratio (z) = 0.42753 0.50586
#
# Static dielectric constant tensor:
#      x y z
#    x 4.213540 0.000000 0.000000 
#    y 0.000000 3.878060 0.000000 
#    z 0.000000 0.000000 3.503610 
# 
# 
# High freq. dielectric constant tensor:
#      x y z
#    x 1.809420 0.000000 0.000000 
#    y 0.000000 1.797170 0.000000 
#    z 0.000000 0.000000 1.771900 
# 
# From -- ./inp_files/24468.got.cif
#   From: 2010.03.12/outbox.cif.g09.slc.cpg/sg54_13_cif.got.tgz:24468.got - 2010.04.16 15:00:50.
