data_PCOD8223185
_publ_section_title
;
Structure prediction by ZEFSAII (Michael W. Deem and Ramdas Pophale) SiO2 
 PCOD8223185
Probable space group: P C C A
;
_chemical_formula_sum "Si O2"
_cell_formula_units_Z 48
_cell_length_a 17.590256
_cell_length_b 5.908872
_cell_length_c 19.472193
_cell_angle_alpha 90.000000
_cell_angle_beta 90.000000
_cell_angle_gamma 90.000000
_cell_volume 2023.911918
_symmetry_space_group_name_H-M "P C C A"
_symmetry_group_IT_number 54
_symmetry_cell_setting 'orthorhombic'
loop_
_space_group_symop_operation_xyz
x,y,z
1/2-x,-y,z
1/2+x,-y,1/2-z
-x,y,1/2-z
-x,-y,-z
1/2+x,y,-z
1/2-x,y,1/2+z
x,-y,1/2+z
loop_
_atom_site_type_symbol
_atom_site_label
_atom_site_fract_x
_atom_site_fract_y
_atom_site_fract_z
Si Si1 0.877120 0.193609 0.603254
Si Si2 0.509863 0.490161 0.672965
Si Si3 0.132902 0.790258 0.637028
Si Si4 0.750000 0.500000 0.938186
Si Si5 0.141890 0.834744 0.792529
Si Si6 0.750000 0.500000 0.135214
Si Si7 0.333867 0.905380 0.519435
O O1 0.955771 0.325363 0.619630
O O2 0.810066 0.373039 0.585047
O O3 0.849636 0.078658 0.673449
O O4 0.884295 0.999636 0.544747
O O5 0.500000 0.597923 0.750000
O O6 0.433436 0.398273 0.637194
O O7 0.562683 0.272198 0.683135
O O8 0.210755 0.681498 0.610797
O O9 0.144859 0.887393 0.712326
O O10 0.119964 0.005965 0.586614
O O11 0.818105 0.367184 0.980299
O O12 0.209598 0.671955 0.813716
O O13 0.250000 0.000000 0.509996
#
# Coordination Sequence:
#
# PCOD8223185 Si02
#       7
#     8   8   8   4   8   4   8
#     4  11  23  39  64  93 125 166 208 260 319 376
#     4   9  22  41  61  90 127 165 211 264 313 371
#     4  10  22  41  62  89 125 168 212 259 319 380
#     4  10  23  41  62  88 127 165 212 268 319 377
#     4  10  21  37  61  90 123 166 211 259 317 378
#     4  10  21  37  60  92 125 155 210 266 311 377
#     4  10  23  40  62  92 127 167 207 260 321 379
#
# _framework density 23.716446999999999
#
# number of rings (size 3 to 8) (size 9 to 14) (size 15 to 20)
#    0.000    2.000    0.000    2.000    0.000   20.667 
#    0.000    1.667    0.000    0.000    0.000    0.000 
#    0.000    0.000    0.000    0.000    0.000    0.000 
#
# Total GULP energy -594823.797395 kJ/mol
# GULP energy per Si atom -12392.162446 kJ/mol
# Density = 2.366247 g / cm^3
# Si number density = 23.716447 Si / 1000 Ang^3
#
#
#
# Elastic Constant Matrix: (Units=GPa)
#
#
# Indices 1 2 3 4 5 6 
#
# 1 70.6226 24.0069 24.6695 0.0000 0.0000 0.0000
# 2 24.0069 109.8944 64.6216 0.0000 0.0000 0.0000
# 3 24.6695 64.6216 145.1200 0.0000 0.0000 0.0000
# 4 0.0000 0.0000 0.0000 31.2441 0.0000 0.0000
# 5 0.0000 0.0000 0.0000 0.0000 21.5925 0.0000
# 6 0.0000 0.0000 0.0000 0.0000 0.0000 30.3959
#
#
#
# Elastic Compliance Matrix: (Units=1/GPa)
#
#
# Indices 1 2 3 4 5 6 
#
# 1 0.015543 -0.002495 -0.001531 0.000000 0.000000 0.000000
# 2 -0.002495 0.012728 -0.005244 0.000000 0.000000 0.000000
# 3 -0.001531 -0.005244 0.009486 0.000000 0.000000 0.000000
# 4 0.000000 0.000000 0.000000 0.032006 0.000000 0.000000
# 5 0.000000 0.000000 0.000000 0.000000 0.046312 0.000000
# 6 0.000000 0.000000 0.000000 0.000000 0.000000 0.032899
#
#
# Mechanical properties :
#
#
# Convention : Reuss Voigt Hill
#
# Bulk Modulus (GPa) = 52.03629 61.35923 56.69776
# Shear Modulus (GPa) = 28.74884 30.80244 29.77564
#
# Velocity S-wave (km/s) = 3.48543 3.60777 3.54713
# Velocity P-wave (km/s) = 6.17950 6.57897 6.38236
#
# Compressibility (1/GPa) = 0.01921736
#
# Stress axis : x y z
#
# Youngs Moduli (GPa) = 64.33865 78.56596 105.41693
#
# Poissons Ratio (x) = 0.19602 0.16141
# Poissons Ratio (y) = 0.16053 0.55277
# Poissons Ratio (z) = 0.09851 0.41198
#
# Static dielectric constant tensor:
#      x y z
#    x 4.239330 0.000000 0.000000 
#    y 0.000000 4.723420 0.000000 
#    z 0.000000 0.000000 4.245130 
# 
# 
# High freq. dielectric constant tensor:
#      x y z
#    x 1.924660 0.000000 0.000000 
#    y 0.000000 1.942910 0.000000 
#    z 0.000000 0.000000 1.938590 
# 
# From -- ./inp_files/22116.got.cif
#   From: 2010.03.12/outbox.cif.g09.slc.cpg/sg54_12_cif.got.tgz:22116.got - 2010.04.16 15:00:50.
