data_PCOD8223079
_publ_section_title
;
Structure prediction by ZEFSAII (Michael W. Deem and Ramdas Pophale) SiO2 
 PCOD8223079
Probable space group: P C C A
;
_chemical_formula_sum "Si O2"
_cell_formula_units_Z 60
_cell_length_a 21.611196
_cell_length_b 11.728651
_cell_length_c 12.052189
_cell_angle_alpha 90.000000
_cell_angle_beta 90.000000
_cell_angle_gamma 90.000000
_cell_volume 3054.870462
_symmetry_space_group_name_H-M "P C C A"
_symmetry_group_IT_number 54
_symmetry_cell_setting 'orthorhombic'
loop_
_space_group_symop_operation_xyz
x,y,z
1/2-x,-y,z
1/2+x,-y,1/2-z
-x,y,1/2-z
-x,-y,-z
1/2+x,y,-z
1/2-x,y,1/2+z
x,-y,1/2+z
loop_
_atom_site_type_symbol
_atom_site_label
_atom_site_fract_x
_atom_site_fract_y
_atom_site_fract_z
Si Si1 0.649790 0.220145 0.107816
Si Si2 0.155536 0.972015 0.867218
Si Si3 0.456827 0.538406 0.644957
Si Si4 0.733626 0.189072 0.489438
Si Si5 0.376235 0.254717 0.141842
Si Si6 0.460659 0.114600 0.977201
Si Si7 0.250000 0.000000 0.682970
Si Si8 0.039680 0.674523 0.519239
O O1 0.649695 0.211241 0.240740
O O2 0.644249 0.089422 0.065065
O O3 0.713430 0.264992 0.050374
O O4 0.594007 0.296651 0.065654
O O5 0.089560 0.906233 0.878503
O O6 0.183564 0.000235 0.746552
O O7 0.210050 0.899360 0.919842
O O8 0.500000 0.532874 0.750000
O O9 0.398626 0.618097 0.670001
O O10 0.435491 0.408602 0.616964
O O11 0.488668 0.600141 0.542016
O O12 0.678909 0.271028 0.446890
O O13 0.756720 0.116005 0.385494
O O14 0.426953 0.164603 0.089937
O O15 0.508304 0.210656 0.932906
O O16 0.500000 0.000000 0.000000
#
# Coordination Sequence:
#
# PCOD8223079 Si02
#       8
#     8   8   8   8   8   8   4   8
#     4  12  19  36  61  90 115 162 208 246 306 368
#     4  11  20  33  55  84 127 162 195 235 298 372
#     4  10  20  42  65  85 116 156 209 248 311 365
#     4  11  21  35  56  88 124 161 206 252 295 365
#     4  10  22  37  65  88 115 168 207 248 308 366
#     4  10  21  37  56  92 130 150 196 249 300 364
#     4  12  18  34  52  80 124 172 196 232 298 370
#     4  10  22  38  63  89 117 158 198 256 298 369
#
# _framework density 19.640768000000001
#
# number of rings (size 3 to 8) (size 9 to 14) (size 15 to 20)
#    0.000    1.333    6.667    0.000    0.000    0.000 
#    2.400    0.667    2.933    1.600    0.000    0.000 
#    0.000    0.000    0.000    0.000    0.000    0.000 
#
# Total GULP energy -743286.927950 kJ/mol
# GULP energy per Si atom -12388.115466 kJ/mol
# Density = 1.959606 g / cm^3
# Si number density = 19.640768 Si / 1000 Ang^3
#
#
#
# Elastic Constant Matrix: (Units=GPa)
#
#
# Indices 1 2 3 4 5 6 
#
# 1 90.9450 34.1580 37.8636 0.0000 0.0000 0.0000
# 2 34.1580 92.1018 28.7222 0.0000 0.0000 0.0000
# 3 37.8636 28.7222 73.9324 0.0000 0.0000 0.0000
# 4 0.0000 0.0000 0.0000 26.0712 0.0000 0.0000
# 5 0.0000 0.0000 0.0000 0.0000 33.4633 0.0000
# 6 0.0000 0.0000 0.0000 0.0000 0.0000 13.3109
#
#
#
# Elastic Compliance Matrix: (Units=1/GPa)
#
#
# Indices 1 2 3 4 5 6 
#
# 1 0.014952 -0.003593 -0.006262 0.000000 0.000000 0.000000
# 2 -0.003593 0.013217 -0.003295 0.000000 0.000000 0.000000
# 3 -0.006262 -0.003295 0.018013 0.000000 0.000000 0.000000
# 4 0.000000 0.000000 0.000000 0.038357 0.000000 0.000000
# 5 0.000000 0.000000 0.000000 0.000000 0.029883 0.000000
# 6 0.000000 0.000000 0.000000 0.000000 0.000000 0.075126
#
#
# Mechanical properties :
#
#
# Convention : Reuss Voigt Hill
#
# Bulk Modulus (GPa) = 50.29262 50.94073 50.61668
# Shear Modulus (GPa) = 22.47442 24.98477 23.72960
#
# Velocity S-wave (km/s) = 3.38638 3.57050 3.47966
# Velocity P-wave (km/s) = 6.39937 6.55672 6.47852
#
# Compressibility (1/GPa) = 0.01988363
#
# Stress axis : x y z
#
# Youngs Moduli (GPa) = 66.88081 75.65738 55.51585
#
# Poissons Ratio (x) = 0.27180 0.34763
# Poissons Ratio (y) = 0.24027 0.18293
# Poissons Ratio (z) = 0.41879 0.24929
#
# Static dielectric constant tensor:
#      x y z
#    x 3.722300 0.000000 0.000000 
#    y 0.000000 3.782270 0.000000 
#    z 0.000000 0.000000 3.469350 
# 
# 
# High freq. dielectric constant tensor:
#      x y z
#    x 1.766930 0.000000 0.000000 
#    y 0.000000 1.751440 0.000000 
#    z 0.000000 0.000000 1.752700 
# 
# From -- ./inp_files/9601.got.cif
#   From: 2010.03.12/outbox.cif.g09.slc.cpg/sg54_5_cif.got.tgz:9601.got - 2010.04.16 15:00:50.
