data_PCOD8223670
_publ_section_title
;
Structure prediction by ZEFSAII (Michael W. Deem and Ramdas Pophale) SiO2 
 PCOD8223670
Probable space group: P C C A
;
_chemical_formula_sum "Si O2"
_cell_formula_units_Z 56
_cell_length_a 8.552337
_cell_length_b 13.938084
_cell_length_c 20.952961
_cell_angle_alpha 90.000000
_cell_angle_beta 90.000000
_cell_angle_gamma 90.000000
_cell_volume 2497.659823
_symmetry_space_group_name_H-M "P C C A"
_symmetry_group_IT_number 54
_symmetry_cell_setting 'orthorhombic'
loop_
_space_group_symop_operation_xyz
x,y,z
1/2-x,-y,z
1/2+x,-y,1/2-z
-x,y,1/2-z
-x,-y,-z
1/2+x,y,-z
1/2-x,y,1/2+z
x,-y,1/2+z
loop_
_atom_site_type_symbol
_atom_site_label
_atom_site_fract_x
_atom_site_fract_y
_atom_site_fract_z
Si Si1 0.250000 0.000000 0.945604
Si Si2 0.417123 0.178290 0.461517
Si Si3 0.000000 0.071089 0.750000
Si Si4 0.509217 0.084583 0.851773
Si Si5 0.171542 0.595571 0.809382
Si Si6 0.336066 0.595847 0.158228
Si Si7 0.767226 0.799034 0.174689
Si Si8 0.736291 0.221137 0.919084
O O1 0.150400 0.075638 0.988578
O O2 0.384293 0.048060 0.902841
O O3 0.323431 0.187523 0.396836
O O4 0.371327 0.250576 0.519384
O O5 0.598978 0.185001 0.446732
O O6 0.137197 0.139901 0.773799
O O7 0.937956 0.003320 0.806886
O O8 0.412890 0.168398 0.814450
O O9 0.664039 0.132315 0.880346
O O10 0.250000 0.500000 0.836143
O O11 0.150369 0.588948 0.733993
O O12 0.286300 0.686025 0.815519
O O13 0.020805 0.605312 0.856473
O O14 0.250000 0.500000 0.131732
O O15 0.245612 0.686863 0.127537
#
# Coordination Sequence:
#
# PCOD8223670 Si02
#       8
#     4   8   4   8   8   8   8   8
#     4  10  22  50  62  98 134 186 236 282 330 422
#     4  11  26  46  68  97 136 189 233 291 347 412
#     4  12  24  38  70 106 148 184 224 290 350 424
#     4  11  23  42  66  99 145 185 231 285 348 415
#     4  10  23  43  76 103 141 183 222 297 355 420
#     4  10  24  45  70 108 137 178 231 285 360 428
#     4  11  24  44  68 104 146 182 237 287 350 422
#     4  12  27  45  73  99 137 186 244 293 349 424
#
# _framework density 22.420987
#
# number of rings (size 3 to 8) (size 9 to 14) (size 15 to 20)
#    0.000    1.143    4.286    1.714    6.000    5.143 
#    0.000    1.429    0.000    0.000    0.000    0.000 
#    0.000    0.000    0.000    0.000    0.000    0.000 
#
# Total GULP energy -693736.445231 kJ/mol
# GULP energy per Si atom -12388.150808 kJ/mol
# Density = 2.236996 g / cm^3
# Si number density = 22.420987 Si / 1000 Ang^3
#
#
#
# Elastic Constant Matrix: (Units=GPa)
#
#
# Indices 1 2 3 4 5 6 
#
# 1 95.8307 70.3657 46.3786 0.0000 0.0000 0.0000
# 2 70.3657 151.9890 36.2962 0.0000 0.0000 0.0000
# 3 46.3786 36.2962 64.1714 0.0000 0.0000 0.0000
# 4 0.0000 0.0000 0.0000 9.6131 0.0000 0.0000
# 5 0.0000 0.0000 0.0000 0.0000 10.3945 0.0000
# 6 0.0000 0.0000 0.0000 0.0000 0.0000 46.4352
#
#
#
# Elastic Compliance Matrix: (Units=1/GPa)
#
#
# Indices 1 2 3 4 5 6 
#
# 1 0.021055 -0.007068 -0.011219 0.000000 0.000000 0.000000
# 2 -0.007068 0.009980 -0.000536 0.000000 0.000000 0.000000
# 3 -0.011219 -0.000536 0.023995 0.000000 0.000000 0.000000
# 4 0.000000 0.000000 0.000000 0.104025 0.000000 0.000000
# 5 0.000000 0.000000 0.000000 0.000000 0.096205 0.000000
# 6 0.000000 0.000000 0.000000 0.000000 0.000000 0.021535
#
#
# Mechanical properties :
#
#
# Convention : Reuss Voigt Hill
#
# Bulk Modulus (GPa) = 57.52955 68.67467 63.10211
# Shear Modulus (GPa) = 15.61347 23.88525 19.74936
#
# Velocity S-wave (km/s) = 2.64176 3.26745 2.97112
# Velocity P-wave (km/s) = 5.91774 6.70306 6.32261
#
# Compressibility (1/GPa) = 0.01738237
#
# Stress axis : x y z
#
# Youngs Moduli (GPa) = 47.49520 100.20117 41.67575
#
# Poissons Ratio (x) = 0.70827 0.46756
# Poissons Ratio (y) = 0.33572 0.02235
# Poissons Ratio (z) = 0.53284 0.05373
#
# Static dielectric constant tensor:
#      x y z
#    x 4.126650 0.000000 0.000000 
#    y 0.000000 4.554500 0.000000 
#    z 0.000000 0.000000 3.709050 
# 
# 
# High freq. dielectric constant tensor:
#      x y z
#    x 1.891320 0.000000 0.000000 
#    y 0.000000 1.879040 0.000000 
#    z 0.000000 0.000000 1.874290 
# 
# From -- ./inp_files/20601.got.cif
#   From: 2010.03.12/outbox.cif.g09.slc.cpg/sg54_11_cif.got.tgz:20601.got - 2010.04.16 15:00:50.
