data_PCOD8223488
_publ_section_title
;
Structure prediction by ZEFSAII (Michael W. Deem and Ramdas Pophale) SiO2 
 PCOD8223488
Probable space group: P C C A
;
_chemical_formula_sum "Si O2"
_cell_formula_units_Z 48
_cell_length_a 9.396665
_cell_length_b 13.642859
_cell_length_c 17.631060
_cell_angle_alpha 90.000000
_cell_angle_beta 90.000000
_cell_angle_gamma 90.000000
_cell_volume 2260.255622
_symmetry_space_group_name_H-M "P C C A"
_symmetry_group_IT_number 54
_symmetry_cell_setting 'orthorhombic'
loop_
_space_group_symop_operation_xyz
x,y,z
1/2-x,-y,z
1/2+x,-y,1/2-z
-x,y,1/2-z
-x,-y,-z
1/2+x,y,-z
1/2-x,y,1/2+z
x,-y,1/2+z
loop_
_atom_site_type_symbol
_atom_site_label
_atom_site_fract_x
_atom_site_fract_y
_atom_site_fract_z
Si Si1 0.516277 0.266087 0.599972
Si Si2 0.347721 0.922700 0.737238
Si Si3 0.242722 0.888720 0.403632
Si Si4 0.284786 0.729684 0.667684
Si Si5 0.749916 0.384442 0.679371
Si Si6 0.461173 0.717536 0.933934
O O1 0.611650 0.170739 0.578972
O O2 0.374266 0.238741 0.645811
O O3 0.597355 0.343722 0.653146
O O4 0.467879 0.316794 0.521247
O O5 0.500000 0.973105 0.750000
O O6 0.263710 0.894989 0.813316
O O7 0.373212 0.825530 0.690405
O O8 0.250000 0.000000 0.691638
O O9 0.103832 0.828997 0.433160
O O10 0.250000 0.000000 0.438375
O O11 0.289264 0.652763 0.736504
O O12 0.378121 0.697678 0.595672
O O13 0.750000 0.500000 0.683631
O O14 0.862011 0.351555 0.616258
#
# Coordination Sequence:
#
# PCOD8223488 Si02
#       6
#     8   8   8   8   8   8
#     4  11  25  41  66  95 129 168 212 256 322 381
#     4  11  22  36  62  95 129 171 218 268 315 365
#     4  10  22  40  61  91 133 171 214 262 305 368
#     4  12  22  40  68  93 125 166 215 265 312 376
#     4  11  25  45  68  94 123 160 213 269 323 386
#     4  11  23  45  64  92 132 172 204 261 323 382
#
# _framework density 21.236536000000001
#
# number of rings (size 3 to 8) (size 9 to 14) (size 15 to 20)
#    0.000    1.000    5.000    3.000    4.667    4.000 
#    0.000    3.333    0.000    0.000    0.000    0.000 
#    0.000    0.000    0.000    0.000    0.000    0.000 
#
# Total GULP energy -594956.966565 kJ/mol
# GULP energy per Si atom -12394.936803 kJ/mol
# Density = 2.118820 g / cm^3
# Si number density = 21.236536 Si / 1000 Ang^3
#
#
#
# Elastic Constant Matrix: (Units=GPa)
#
#
# Indices 1 2 3 4 5 6 
#
# 1 144.0940 40.1772 18.6374 0.0000 0.0000 0.0000
# 2 40.1772 128.7139 19.2448 0.0000 0.0000 0.0000
# 3 18.6374 19.2448 80.9959 0.0000 0.0000 0.0000
# 4 0.0000 0.0000 0.0000 1.4662 0.0000 0.0000
# 5 0.0000 0.0000 0.0000 0.0000 24.9832 0.0000
# 6 0.0000 0.0000 0.0000 0.0000 0.0000 17.4581
#
#
#
# Elastic Compliance Matrix: (Units=1/GPa)
#
#
# Indices 1 2 3 4 5 6 
#
# 1 0.007721 -0.002224 -0.001248 0.000000 0.000000 0.000000
# 2 -0.002224 0.008696 -0.001554 0.000000 0.000000 0.000000
# 3 -0.001248 -0.001554 0.013003 0.000000 0.000000 0.000000
# 4 0.000000 0.000000 0.000000 0.682055 0.000000 0.000000
# 5 0.000000 0.000000 0.000000 0.000000 0.040027 0.000000
# 6 0.000000 0.000000 0.000000 0.000000 0.000000 0.057280
#
#
# Mechanical properties :
#
#
# Convention : Reuss Voigt Hill
#
# Bulk Modulus (GPa) = 51.63381 56.65806 54.14594
# Shear Modulus (GPa) = 6.05848 27.16445 16.61146
#
# Velocity S-wave (km/s) = 1.69087 3.58038 2.79984
# Velocity P-wave (km/s) = 5.30834 6.62040 6.00034
#
# Compressibility (1/GPa) = 0.01936716
#
# Stress axis : x y z
#
# Youngs Moduli (GPa) = 129.51086 115.00014 76.90582
#
# Poissons Ratio (x) = 0.25570 0.09601
# Poissons Ratio (y) = 0.28797 0.11955
# Poissons Ratio (z) = 0.16168 0.17876
#
# Static dielectric constant tensor:
#      x y z
#    x 3.937400 0.000000 0.000000 
#    y 0.000000 3.868070 0.000000 
#    z 0.000000 0.000000 3.771250 
# 
# 
# High freq. dielectric constant tensor:
#      x y z
#    x 1.851510 0.000000 0.000000 
#    y 0.000000 1.810670 0.000000 
#    z 0.000000 0.000000 1.827820 
# 
# From -- ./inp_files/16607.got.cif
#   From: 2010.03.12/outbox.cif.g09.slc.cpg/sg54_9_cif.got.tgz:16607.got - 2010.04.16 15:00:50.
