data_PCOD8223526
_publ_section_title
;
Structure prediction by ZEFSAII (Michael W. Deem and Ramdas Pophale) SiO2 
 PCOD8223526
Probable space group: P C C A
;
_chemical_formula_sum "Si O2"
_cell_formula_units_Z 32
_cell_length_a 7.810391
_cell_length_b 5.095731
_cell_length_c 34.010377
_cell_angle_alpha 90.000000
_cell_angle_beta 90.000000
_cell_angle_gamma 90.000000
_cell_volume 1353.601153
_symmetry_space_group_name_H-M "P C C A"
_symmetry_group_IT_number 54
_symmetry_cell_setting 'orthorhombic'
loop_
_space_group_symop_operation_xyz
x,y,z
1/2-x,-y,z
1/2+x,-y,1/2-z
-x,y,1/2-z
-x,-y,-z
1/2+x,y,-z
1/2-x,y,1/2+z
x,-y,1/2+z
loop_
_atom_site_type_symbol
_atom_site_label
_atom_site_fract_x
_atom_site_fract_y
_atom_site_fract_z
Si Si1 0.250000 0.000000 0.474441
Si Si2 0.546486 0.018301 0.161183
Si Si3 0.750000 0.500000 0.472058
Si Si4 0.049063 0.484947 0.294196
Si Si5 0.433795 0.877949 0.574472
O O1 0.206752 0.745710 0.500226
O O2 0.082928 0.041224 0.447264
O O3 0.475161 0.739432 0.176559
O O4 0.750000 0.000000 0.157064
O O5 0.479305 0.232057 0.192768
O O6 0.466754 0.114463 0.120557
O O7 0.587725 0.418770 0.443491
O O8 0.250000 0.500000 0.298348
O O9 0.000000 0.415069 0.250000
O O10 0.250000 0.000000 0.564603
#
# Coordination Sequence:
#
# PCOD8223526 Si02
#       5
#     4   8   4   8   8
#     4  12  28  50  72  98 148 184 228 310 356 408
#     4  10  23  44  66  96 138 184 224 281 349 412
#     4  12  28  48  72 106 138 184 244 294 356 420
#     4  10  22  40  68  98 135 179 227 276 343 412
#     4  12  28  46  74 105 139 187 242 285 357 425
#
# _framework density 23.640643000000001
#
# number of rings (size 3 to 8) (size 9 to 14) (size 15 to 20)
#    0.000    1.000    2.500    2.250    7.000    2.000 
#    0.000    0.000    0.000    0.000    0.000    0.000 
#    0.000    0.000    0.000    0.000    0.000    0.000 
#
# Total GULP energy -396556.370901 kJ/mol
# GULP energy per Si atom -12392.386591 kJ/mol
# Density = 2.358684 g / cm^3
# Si number density = 23.640643 Si / 1000 Ang^3
#
#
#
# Elastic Constant Matrix: (Units=GPa)
#
#
# Indices 1 2 3 4 5 6 
#
# 1 92.5068 40.2944 45.9834 0.0000 0.0000 0.0000
# 2 40.2944 149.7580 61.1481 0.0000 0.0000 0.0000
# 3 45.9834 61.1481 170.4008 0.0000 0.0000 0.0000
# 4 0.0000 0.0000 0.0000 27.2619 0.0000 0.0000
# 5 0.0000 0.0000 0.0000 0.0000 32.4397 0.0000
# 6 0.0000 0.0000 0.0000 0.0000 0.0000 24.8790
#
#
#
# Elastic Compliance Matrix: (Units=1/GPa)
#
#
# Indices 1 2 3 4 5 6 
#
# 1 0.013215 -0.002460 -0.002683 0.000000 0.000000 0.000000
# 2 -0.002460 0.008282 -0.002308 0.000000 0.000000 0.000000
# 3 -0.002683 -0.002308 0.007421 0.000000 0.000000 0.000000
# 4 0.000000 0.000000 0.000000 0.036681 0.000000 0.000000
# 5 0.000000 0.000000 0.000000 0.000000 0.030826 0.000000
# 6 0.000000 0.000000 0.000000 0.000000 0.000000 0.040195
#
#
# Mechanical properties :
#
#
# Convention : Reuss Voigt Hill
#
# Bulk Modulus (GPa) = 71.35232 78.61304 74.98268
# Shear Modulus (GPa) = 32.01123 34.59877 33.30500
#
# Velocity S-wave (km/s) = 3.68377 3.82976 3.75747
# Velocity P-wave (km/s) = 6.95278 7.27197 7.11417
#
# Compressibility (1/GPa) = 0.01401496
#
# Stress axis : x y z
#
# Youngs Moduli (GPa) = 75.66879 120.74725 134.75472
#
# Poissons Ratio (x) = 0.29705 0.36161
# Poissons Ratio (y) = 0.18615 0.31102
# Poissons Ratio (z) = 0.20305 0.27869
#
# Static dielectric constant tensor:
#      x y z
#    x 4.239180 0.000000 0.000000 
#    y 0.000000 4.922500 0.000000 
#    z 0.000000 0.000000 4.279410 
# 
# 
# High freq. dielectric constant tensor:
#      x y z
#    x 1.923690 0.000000 0.000000 
#    y 0.000000 1.945410 0.000000 
#    z 0.000000 0.000000 1.951090 
# 
# From -- ./inp_files/27424.got.cif
#   From: 2010.03.12/outbox.cif.g09.slc.cpg/sg54_14_cif.got.tgz:27424.got - 2010.04.16 15:00:50.
