data_PCOD8223500
_publ_section_title
;
Structure prediction by ZEFSAII (Michael W. Deem and Ramdas Pophale) SiO2 
 PCOD8223500
Probable space group: P C C A
;
_chemical_formula_sum "Si O2"
_cell_formula_units_Z 24
_cell_length_a 16.167306
_cell_length_b 12.209680
_cell_length_c 5.162285
_cell_angle_alpha 90.000000
_cell_angle_beta 90.000000
_cell_angle_gamma 90.000000
_cell_volume 1019.022838
_symmetry_space_group_name_H-M "P C C A"
_symmetry_group_IT_number 54
_symmetry_cell_setting 'orthorhombic'
loop_
_space_group_symop_operation_xyz
x,y,z
1/2-x,-y,z
1/2+x,-y,1/2-z
-x,y,1/2-z
-x,-y,-z
1/2+x,y,-z
1/2-x,y,1/2+z
x,-y,1/2+z
loop_
_atom_site_type_symbol
_atom_site_label
_atom_site_fract_x
_atom_site_fract_y
_atom_site_fract_z
Si Si1 0.697275 0.280113 0.633180
Si Si2 0.463509 0.621951 0.496994
Si Si3 0.402966 0.064830 0.765497
O O1 0.771699 0.289640 0.428068
O O2 0.635542 0.377563 0.538793
O O3 0.646100 0.168403 0.622628
O O4 0.500000 0.686646 0.250000
O O5 0.500000 0.500000 0.500000
O O6 0.500000 0.683797 0.750000
O O7 0.500000 0.089759 0.750000
O O8 0.377763 0.029018 0.475132
#
# Coordination Sequence:
#
# PCOD8223500 Si02
#       3
#     8   8   8
#     4  12  25  40  64  99 134 166 212 275 335 383
#     4  10  22  44  68  89 120 170 217 260 320 395
#     4  10  22  40  63  91 128 177 222 255 303 384
#
# _framework density 23.551974000000001
#
# number of rings (size 3 to 8) (size 9 to 14) (size 15 to 20)
#    0.000    1.333    0.000    5.000    0.000    8.000 
#    0.000   20.000    0.000    0.000    0.000    0.000 
#    0.000    0.000    0.000    0.000    0.000    0.000 
#
# Total GULP energy -297325.293950 kJ/mol
# GULP energy per Si atom -12388.553915 kJ/mol
# Density = 2.349837 g / cm^3
# Si number density = 23.551974 Si / 1000 Ang^3
#
#
#
# Elastic Constant Matrix: (Units=GPa)
#
#
# Indices 1 2 3 4 5 6 
#
# 1 113.0388 39.2214 40.9558 0.0000 0.0000 0.0000
# 2 39.2214 74.6169 10.7102 0.0000 0.0000 0.0000
# 3 40.9558 10.7102 193.5797 0.0000 0.0000 0.0000
# 4 0.0000 0.0000 0.0000 11.1280 0.0000 0.0000
# 5 0.0000 0.0000 0.0000 0.0000 58.7719 0.0000
# 6 0.0000 0.0000 0.0000 0.0000 0.0000 36.4293
#
#
#
# Elastic Compliance Matrix: (Units=1/GPa)
#
#
# Indices 1 2 3 4 5 6 
#
# 1 0.011638 -0.005810 -0.002141 0.000000 0.000000 0.000000
# 2 -0.005810 0.016410 0.000321 0.000000 0.000000 0.000000
# 3 -0.002141 0.000321 0.005601 0.000000 0.000000 0.000000
# 4 0.000000 0.000000 0.000000 0.089864 0.000000 0.000000
# 5 0.000000 0.000000 0.000000 0.000000 0.017015 0.000000
# 6 0.000000 0.000000 0.000000 0.000000 0.000000 0.027450
#
#
# Mechanical properties :
#
#
# Convention : Reuss Voigt Hill
#
# Bulk Modulus (GPa) = 54.37865 62.55670 58.46767
# Shear Modulus (GPa) = 26.40375 40.62236 33.51306
#
# Velocity S-wave (km/s) = 3.35189 4.15757 3.77628
# Velocity P-wave (km/s) = 6.17407 7.04741 6.62515
#
# Compressibility (1/GPa) = 0.01838957
#
# Stress axis : x y z
#
# Youngs Moduli (GPa) = 85.92429 60.93955 178.53988
#
# Poissons Ratio (x) = 0.35407 0.38222
# Poissons Ratio (y) = 0.49923 -0.05738
# Poissons Ratio (z) = 0.18395 -0.01958
#
# Static dielectric constant tensor:
#      x y z
#    x 4.412070 0.000000 0.000000 
#    y 0.000000 4.470520 0.000000 
#    z 0.000000 0.000000 1.259090 
# 
# 
# High freq. dielectric constant tensor:
#      x y z
#    x 1.932590 0.000000 0.000000 
#    y 0.000000 1.906200 0.000000 
#    z 0.000000 0.000000 1.965580 
# 
# From -- ./inp_files/329.got.cif
#   From: 2010.03.12/outbox.cif.g09.slc.cpg/sg54_1_cif.got.tgz:329.got - 2010.04.16 15:00:50.
