data_PCOD8223353
_publ_section_title
;
Structure prediction by ZEFSAII (Michael W. Deem and Ramdas Pophale) SiO2 
 PCOD8223353
Probable space group: P C C A
;
_chemical_formula_sum "Si O2"
_cell_formula_units_Z 32
_cell_length_a 10.984391
_cell_length_b 15.209005
_cell_length_c 9.276832
_cell_angle_alpha 90.000000
_cell_angle_beta 90.000000
_cell_angle_gamma 90.000000
_cell_volume 1549.802932
_symmetry_space_group_name_H-M "P C C A"
_symmetry_group_IT_number 54
_symmetry_cell_setting 'orthorhombic'
loop_
_space_group_symop_operation_xyz
x,y,z
1/2-x,-y,z
1/2+x,-y,1/2-z
-x,y,1/2-z
-x,-y,-z
1/2+x,y,-z
1/2-x,y,1/2+z
x,-y,1/2+z
loop_
_atom_site_type_symbol
_atom_site_label
_atom_site_fract_x
_atom_site_fract_y
_atom_site_fract_z
Si Si1 0.746776 0.699621 0.778525
Si Si2 0.814820 0.589855 0.532211
Si Si3 0.139357 0.888444 0.244247
Si Si4 0.000000 0.632420 0.750000
Si Si5 0.250000 0.000000 0.496027
O O1 0.722651 0.648285 0.629216
O O2 0.720131 0.801772 0.766663
O O3 0.891676 0.691924 0.817545
O O4 0.660661 0.649633 0.892678
O O5 0.750000 0.500000 0.484735
O O6 0.940959 0.572689 0.621289
O O7 0.000000 0.860360 0.250000
O O8 0.170997 0.937659 0.392739
O O9 0.160356 0.946049 0.100834
#
# Coordination Sequence:
#
# PCOD8223353 Si02
#       5
#     8   8   8   4   4
#     4  10  22  42  63  93 128 172 210 260 324 375
#     4  10  21  42  63  93 128 171 215 257 318 369
#     4  11  23  44  67  98 128 168 216 262 325 389
#     4   8  24  42  58  96 132 166 206 282 298 374
#     4  10  24  44  66  98 130 164 212 268 328 380
#
# _framework density 20.647786
#
# number of rings (size 3 to 8) (size 9 to 14) (size 15 to 20)
#    1.500    0.500    0.000    3.000    0.000    5.000 
#   11.250    0.000    0.000    0.000    0.000    0.000 
#    0.000    0.000    0.000    0.000    0.000    0.000 
#
# Total GULP energy -396485.069622 kJ/mol
# GULP energy per Si atom -12390.158426 kJ/mol
# Density = 2.060079 g / cm^3
# Si number density = 20.647786 Si / 1000 Ang^3
#
#
#
# Elastic Constant Matrix: (Units=GPa)
#
#
# Indices 1 2 3 4 5 6 
#
# 1 82.7310 17.0717 -2.3866 0.0000 0.0000 0.0000
# 2 17.0717 126.9094 36.1714 0.0000 0.0000 0.0000
# 3 -2.3866 36.1714 101.7792 0.0000 0.0000 0.0000
# 4 0.0000 0.0000 0.0000 8.9487 0.0000 0.0000
# 5 0.0000 0.0000 0.0000 0.0000 23.6942 0.0000
# 6 0.0000 0.0000 0.0000 0.0000 0.0000 4.6998
#
#
#
# Elastic Compliance Matrix: (Units=1/GPa)
#
#
# Indices 1 2 3 4 5 6 
#
# 1 0.012522 -0.001967 0.000993 0.000000 0.000000 0.000000
# 2 -0.001967 0.009077 -0.003272 0.000000 0.000000 0.000000
# 3 0.000993 -0.003272 0.011011 0.000000 0.000000 0.000000
# 4 0.000000 0.000000 0.000000 0.111748 0.000000 0.000000
# 5 0.000000 0.000000 0.000000 0.000000 0.042204 0.000000
# 6 0.000000 0.000000 0.000000 0.000000 0.000000 0.212774
#
#
# Mechanical properties :
#
#
# Convention : Reuss Voigt Hill
#
# Bulk Modulus (GPa) = 41.46445 45.90361 43.68403
# Shear Modulus (GPa) = 12.02304 24.83942 18.43123
#
# Velocity S-wave (km/s) = 2.41569 3.47220 2.99097
# Velocity P-wave (km/s) = 5.28263 6.19313 5.75591
#
# Compressibility (1/GPa) = 0.02411705
#
# Stress axis : x y z
#
# Youngs Moduli (GPa) = 79.85947 110.17020 90.81581
#
# Poissons Ratio (x) = 0.21675 -0.09017
# Poissons Ratio (y) = 0.15712 0.29715
# Poissons Ratio (z) = -0.07929 0.36047
#
# Static dielectric constant tensor:
#      x y z
#    x 3.455020 0.000000 0.000000 
#    y 0.000000 3.517890 0.000000 
#    z 0.000000 0.000000 3.816120 
# 
# 
# High freq. dielectric constant tensor:
#      x y z
#    x 1.791540 0.000000 0.000000 
#    y 0.000000 1.801470 0.000000 
#    z 0.000000 0.000000 1.822010 
# 
# From -- ./inp_files/2829.got.cif
#   From: 2010.03.12/outbox.cif.g09.slc.cpg/sg54_2_cif.got.tgz:2829.got - 2010.04.16 15:00:50.
