data_PCOD8223867
_publ_section_title
;
Structure prediction by ZEFSAII (Michael W. Deem and Ramdas Pophale) SiO2 
 PCOD8223867
Probable space group: P C C A
;
_chemical_formula_sum "Si O2"
_cell_formula_units_Z 40
_cell_length_a 16.713672
_cell_length_b 8.755813
_cell_length_c 11.623175
_cell_angle_alpha 90.000000
_cell_angle_beta 90.000000
_cell_angle_gamma 90.000000
_cell_volume 1700.956195
_symmetry_space_group_name_H-M "P C C A"
_symmetry_group_IT_number 54
_symmetry_cell_setting 'orthorhombic'
loop_
_space_group_symop_operation_xyz
x,y,z
1/2-x,-y,z
1/2+x,-y,1/2-z
-x,y,1/2-z
-x,-y,-z
1/2+x,y,-z
1/2-x,y,1/2+z
x,-y,1/2+z
loop_
_atom_site_type_symbol
_atom_site_label
_atom_site_fract_x
_atom_site_fract_y
_atom_site_fract_z
Si Si1 0.114085 0.118986 0.974040
Si Si2 0.122709 0.738663 0.244728
Si Si3 0.280685 0.331867 0.622091
Si Si4 0.087062 0.410538 0.301669
Si Si5 0.439003 0.795489 0.509983
O O1 0.187175 0.224248 0.018896
O O2 0.121411 0.940273 0.004767
O O3 0.113079 0.123645 0.834683
O O4 0.029403 0.170708 0.028918
O O5 0.207958 0.753179 0.183233
O O6 0.110231 0.586404 0.320072
O O7 0.056922 0.739214 0.142562
O O8 0.250000 0.500000 0.579094
O O9 0.351122 0.338003 0.713679
O O10 0.096025 0.335553 0.427548
O O11 0.000000 0.385416 0.250000
#
# Coordination Sequence:
#
# PCOD8223867 Si02
#       5
#     8   8   8   8   8
#     4  11  25  47  72 100 150 187 246 310 372 446
#     4  11  27  44  70 105 143 187 244 304 373 442
#     4  10  25  45  69 104 142 191 237 300 369 442
#     4  11  23  44  74 102 141 189 245 298 361 435
#     4  11  26  45  74 107 141 191 251 307 375 440
#
# _framework density 23.516186000000001
#
# number of rings (size 3 to 8) (size 9 to 14) (size 15 to 20)
#    0.000    1.200    2.000    1.800   11.200    3.200 
#    0.000    0.000    0.000    0.000    0.000    0.000 
#    0.000    0.000    0.000    0.000    0.000    0.000 
#
# Total GULP energy -496054.129737 kJ/mol
# GULP energy per Si atom -12401.353243 kJ/mol
# Density = 2.346266 g / cm^3
# Si number density = 23.516186 Si / 1000 Ang^3
#
#
#
# Elastic Constant Matrix: (Units=GPa)
#
#
# Indices 1 2 3 4 5 6 
#
# 1 83.4863 32.5282 12.9114 0.0000 0.0000 0.0000
# 2 32.5282 115.3084 66.7011 0.0000 0.0000 0.0000
# 3 12.9114 66.7011 132.3501 0.0000 0.0000 0.0000
# 4 0.0000 0.0000 0.0000 41.1752 0.0000 0.0000
# 5 0.0000 0.0000 0.0000 0.0000 31.1751 0.0000
# 6 0.0000 0.0000 0.0000 0.0000 0.0000 38.7431
#
#
#
# Elastic Compliance Matrix: (Units=1/GPa)
#
#
# Indices 1 2 3 4 5 6 
#
# 1 0.013525 -0.004308 0.000852 0.000000 0.000000 0.000000
# 2 -0.004308 0.013613 -0.006440 0.000000 0.000000 0.000000
# 3 0.000852 -0.006440 0.010718 0.000000 0.000000 0.000000
# 4 0.000000 0.000000 0.000000 0.024286 0.000000 0.000000
# 5 0.000000 0.000000 0.000000 0.000000 0.032077 0.000000
# 6 0.000000 0.000000 0.000000 0.000000 0.000000 0.025811
#
#
# Mechanical properties :
#
#
# Convention : Reuss Voigt Hill
#
# Bulk Modulus (GPa) = 55.36182 61.71403 58.53793
# Shear Modulus (GPa) = 34.28291 36.81895 35.55093
#
# Velocity S-wave (km/s) = 3.82231 3.96117 3.89236
# Velocity P-wave (km/s) = 6.56302 6.87178 6.71917
#
# Compressibility (1/GPa) = 0.01806299
#
# Stress axis : x y z
#
# Youngs Moduli (GPa) = 73.93830 73.45820 93.29717
#
# Poissons Ratio (x) = 0.31646 -0.07946
# Poissons Ratio (y) = 0.31852 0.60087
# Poissons Ratio (z) = -0.06297 0.47310
#
# Static dielectric constant tensor:
#      x y z
#    x 4.391230 0.000000 0.000000 
#    y 0.000000 4.152500 0.000000 
#    z 0.000000 0.000000 4.169960 
# 
# 
# High freq. dielectric constant tensor:
#      x y z
#    x 1.942310 0.000000 0.000000 
#    y 0.000000 1.922520 0.000000 
#    z 0.000000 0.000000 1.930000 
# 
# From -- ./inp_files/8740.got.cif
#   From: 2010.03.12/outbox.cif.g09.slc.cpg/sg54_5_cif.got.tgz:8740.got - 2010.04.16 15:00:50.
