data_PCOD8223016
_publ_section_title
;
Structure prediction by ZEFSAII (Michael W. Deem and Ramdas Pophale) SiO2 
 PCOD8223016
Probable space group: P C C A
;
_chemical_formula_sum "Si O2"
_cell_formula_units_Z 40
_cell_length_a 8.715194
_cell_length_b 7.715015
_cell_length_c 27.614411
_cell_angle_alpha 90.000000
_cell_angle_beta 90.000000
_cell_angle_gamma 90.000000
_cell_volume 1856.733692
_symmetry_space_group_name_H-M "P C C A"
_symmetry_group_IT_number 54
_symmetry_cell_setting 'orthorhombic'
loop_
_space_group_symop_operation_xyz
x,y,z
1/2-x,-y,z
1/2+x,-y,1/2-z
-x,y,1/2-z
-x,-y,-z
1/2+x,y,-z
1/2-x,y,1/2+z
x,-y,1/2+z
loop_
_atom_site_type_symbol
_atom_site_label
_atom_site_fract_x
_atom_site_fract_y
_atom_site_fract_z
Si Si1 0.062990 0.176035 0.127905
Si Si2 0.574600 0.785719 0.870588
Si Si3 0.890456 0.608656 0.465408
Si Si4 0.889629 0.109692 0.034511
Si Si5 0.068501 0.483658 0.197235
O O1 0.243390 0.200549 0.123800
O O2 0.007105 0.314975 0.167905
O O3 0.984382 0.211261 0.076175
O O4 0.012842 0.978421 0.141249
O O5 0.516423 0.704180 0.921702
O O6 0.512176 0.660158 0.828539
O O7 0.750000 0.500000 0.442037
O O8 0.810179 0.749693 0.499924
O O9 0.000000 0.500000 0.500000
O O10 0.750000 0.000000 0.057574
O O11 0.000000 0.000000 0.000000
O O12 0.250000 0.500000 0.200630
O O13 0.000000 0.470967 0.250000
#
# Coordination Sequence:
#
# PCOD8223016 Si02
#       5
#     8   8   8   8   8
#     4  10  21  40  64  89 122 168 211 258 313 381
#     4  10  20  39  66  86 120 168 211 253 315 379
#     4  12  23  36  58  89 124 168 212 253 307 373
#     4  12  23  39  60  91 131 170 212 261 315 374
#     4  10  22  43  65  92 122 160 208 266 325 384
#
# _framework density 21.543208
#
# number of rings (size 3 to 8) (size 9 to 14) (size 15 to 20)
#    0.000    1.200    2.000    6.600    0.000    0.800 
#    3.600    1.000    0.000    0.000    0.000    0.000 
#    0.000    0.000    0.000    0.000    0.000    0.000 
#
# Total GULP energy -495746.158138 kJ/mol
# GULP energy per Si atom -12393.653953 kJ/mol
# Density = 2.149418 g / cm^3
# Si number density = 21.543208 Si / 1000 Ang^3
#
#
#
# Elastic Constant Matrix: (Units=GPa)
#
#
# Indices 1 2 3 4 5 6 
#
# 1 34.5217 16.7656 18.4016 0.0000 0.0000 0.0000
# 2 16.7656 163.2520 82.4551 0.0000 0.0000 0.0000
# 3 18.4016 82.4551 166.4887 0.0000 0.0000 0.0000
# 4 0.0000 0.0000 0.0000 42.8272 0.0000 0.0000
# 5 0.0000 0.0000 0.0000 0.0000 34.0621 0.0000
# 6 0.0000 0.0000 0.0000 0.0000 0.0000 25.1400
#
#
#
# Elastic Compliance Matrix: (Units=1/GPa)
#
#
# Indices 1 2 3 4 5 6 
#
# 1 0.031241 -0.001953 -0.002486 0.000000 0.000000 0.000000
# 2 -0.001953 0.008291 -0.003890 0.000000 0.000000 0.000000
# 3 -0.002486 -0.003890 0.008208 0.000000 0.000000 0.000000
# 4 0.000000 0.000000 0.000000 0.023350 0.000000 0.000000
# 5 0.000000 0.000000 0.000000 0.000000 0.029358 0.000000
# 6 0.000000 0.000000 0.000000 0.000000 0.000000 0.039777
#
#
# Mechanical properties :
#
#
# Convention : Reuss Voigt Hill
#
# Bulk Modulus (GPa) = 32.17329 66.61187 49.39258
# Shear Modulus (GPa) = 29.89658 36.84852 33.37255
#
# Velocity S-wave (km/s) = 3.72929 4.14024 3.94013
# Velocity P-wave (km/s) = 5.78880 7.33776 6.60882
#
# Compressibility (1/GPa) = 0.03108168
#
# Stress axis : x y z
#
# Youngs Moduli (GPa) = 32.00945 120.61306 121.83392
#
# Poissons Ratio (x) = 0.23554 0.30286
# Poissons Ratio (y) = 0.06251 0.47398
# Poissons Ratio (z) = 0.07957 0.46923
#
# Static dielectric constant tensor:
#      x y z
#    x 3.609670 0.000000 0.000000 
#    y 0.000000 4.733290 0.000000 
#    z 0.000000 0.000000 3.955360 
# 
# 
# High freq. dielectric constant tensor:
#      x y z
#    x 1.811690 0.000000 0.000000 
#    y 0.000000 1.874820 0.000000 
#    z 0.000000 0.000000 1.832560 
# 
# From -- ./inp_files/25731.got.cif
#   From: 2010.03.12/outbox.cif.g09.slc.cpg/sg54_13_cif.got.tgz:25731.got - 2010.04.16 15:00:50.
