data_PCOD8223370
_publ_section_title
;
Structure prediction by ZEFSAII (Michael W. Deem and Ramdas Pophale) SiO2 
 PCOD8223370
Probable space group: P C C A
;
_chemical_formula_sum "Si O2"
_cell_formula_units_Z 40
_cell_length_a 13.131858
_cell_length_b 6.478827
_cell_length_c 22.252035
_cell_angle_alpha 90.000000
_cell_angle_beta 90.000000
_cell_angle_gamma 90.000000
_cell_volume 1893.181691
_symmetry_space_group_name_H-M "P C C A"
_symmetry_group_IT_number 54
_symmetry_cell_setting 'orthorhombic'
loop_
_space_group_symop_operation_xyz
x,y,z
1/2-x,-y,z
1/2+x,-y,1/2-z
-x,y,1/2-z
-x,-y,-z
1/2+x,y,-z
1/2-x,y,1/2+z
x,-y,1/2+z
loop_
_atom_site_type_symbol
_atom_site_label
_atom_site_fract_x
_atom_site_fract_y
_atom_site_fract_z
Si Si1 0.494413 0.997863 0.599515
Si Si2 0.250000 0.500000 0.949248
Si Si3 0.054564 0.673799 0.190739
Si Si4 0.750000 0.500000 0.751806
Si Si5 0.111579 0.335892 0.346176
Si Si6 0.928330 0.298017 0.497043
O O1 0.575187 0.101093 0.645444
O O2 0.434374 0.186047 0.567696
O O3 0.426597 0.849933 0.641036
O O4 0.547181 0.861129 0.549473
O O5 0.334986 0.391247 0.908866
O O6 0.309577 0.651642 0.994054
O O7 0.168498 0.604698 0.205128
O O8 0.000000 0.765308 0.250000
O O9 0.983119 0.489449 0.165898
O O10 0.808007 0.663017 0.708504
O O11 0.000000 0.500000 0.500000
#
# Coordination Sequence:
#
# PCOD8223370 Si02
#       6
#     8   4   8   4   8   8
#     4  11  22  42  71  96 135 172 225 289 328 394
#     4  11  20  42  69  92 136 183 213 272 344 398
#     4  10  21  43  66 101 139 174 224 286 337 402
#     4   9  22  42  71  94 138 185 217 276 354 396
#     4  10  21  42  69  99 131 175 231 280 325 403
#     4  11  23  43  65  99 136 171 225 284 334 393
#
# _framework density 21.128450999999998
#
# number of rings (size 3 to 8) (size 9 to 14) (size 15 to 20)
#    0.000    1.600    4.000    0.000    0.000    3.200 
#    0.000   11.000    0.000    2.400    0.000    0.000 
#    0.000    0.000    0.000    0.000    0.000    0.000 
#
# Total GULP energy -495795.721121 kJ/mol
# GULP energy per Si atom -12394.893028 kJ/mol
# Density = 2.108036 g / cm^3
# Si number density = 21.128451 Si / 1000 Ang^3
#
#
#
# Elastic Constant Matrix: (Units=GPa)
#
#
# Indices 1 2 3 4 5 6 
#
# 1 151.2113 60.4805 72.5072 0.0000 0.0000 0.0000
# 2 60.4805 109.0845 62.5160 0.0000 0.0000 0.0000
# 3 72.5072 62.5160 116.2242 0.0000 0.0000 0.0000
# 4 0.0000 0.0000 0.0000 44.9773 0.0000 0.0000
# 5 0.0000 0.0000 0.0000 0.0000 41.8974 0.0000
# 6 0.0000 0.0000 0.0000 0.0000 0.0000 26.0351
#
#
#
# Elastic Compliance Matrix: (Units=1/GPa)
#
#
# Indices 1 2 3 4 5 6 
#
# 1 0.010014 -0.002850 -0.004714 0.000000 0.000000 0.000000
# 2 -0.002850 0.014064 -0.005787 0.000000 0.000000 0.000000
# 3 -0.004714 -0.005787 0.014657 0.000000 0.000000 0.000000
# 4 0.000000 0.000000 0.000000 0.022233 0.000000 0.000000
# 5 0.000000 0.000000 0.000000 0.000000 0.023868 0.000000
# 6 0.000000 0.000000 0.000000 0.000000 0.000000 0.038410
#
#
# Mechanical properties :
#
#
# Convention : Reuss Voigt Hill
#
# Bulk Modulus (GPa) = 83.10364 85.28083 84.19223
# Shear Modulus (GPa) = 32.47622 34.64971 33.56297
#
# Velocity S-wave (km/s) = 3.92482 4.05403 3.98995
# Velocity P-wave (km/s) = 7.74319 7.89710 7.82052
#
# Compressibility (1/GPa) = 0.01203317
#
# Stress axis : x y z
#
# Youngs Moduli (GPa) = 99.86300 71.10416 68.22504
#
# Poissons Ratio (x) = 0.20268 0.32160
# Poissons Ratio (y) = 0.28466 0.39479
# Poissons Ratio (z) = 0.47074 0.41145
#
# Static dielectric constant tensor:
#      x y z
#    x 3.820330 0.000000 0.000000 
#    y 0.000000 3.832340 0.000000 
#    z 0.000000 0.000000 4.142860 
# 
# 
# High freq. dielectric constant tensor:
#      x y z
#    x 1.818320 0.000000 0.000000 
#    y 0.000000 1.820030 0.000000 
#    z 0.000000 0.000000 1.843970 
# 
# From -- ./inp_files/26088.got.cif
#   From: 2010.03.12/outbox.cif.g09.slc.cpg/sg54_14_cif.got.tgz:26088.got - 2010.04.16 15:00:50.
