data_PCOD8223088
_publ_section_title
;
Structure prediction by ZEFSAII (Michael W. Deem and Ramdas Pophale) SiO2 
 PCOD8223088
Probable space group: P C C A
;
_chemical_formula_sum "Si O2"
_cell_formula_units_Z 56
_cell_length_a 14.093465
_cell_length_b 14.112767
_cell_length_c 12.481224
_cell_angle_alpha 90.000000
_cell_angle_beta 90.000000
_cell_angle_gamma 90.000000
_cell_volume 2482.487842
_symmetry_space_group_name_H-M "P C C A"
_symmetry_group_IT_number 54
_symmetry_cell_setting 'orthorhombic'
loop_
_space_group_symop_operation_xyz
x,y,z
1/2-x,-y,z
1/2+x,-y,1/2-z
-x,y,1/2-z
-x,-y,-z
1/2+x,y,-z
1/2-x,y,1/2+z
x,-y,1/2+z
loop_
_atom_site_type_symbol
_atom_site_label
_atom_site_fract_x
_atom_site_fract_y
_atom_site_fract_z
Si Si1 0.901608 0.809740 0.719643
Si Si2 0.269070 0.847526 0.917968
Si Si3 0.527594 0.369450 0.593411
Si Si4 0.000000 0.533561 0.250000
Si Si5 0.823649 0.290325 0.412397
Si Si6 0.250000 0.000000 0.587797
Si Si7 0.374000 0.666856 0.627727
Si Si8 0.605040 0.873333 0.783834
O O1 0.837036 0.863664 0.631727
O O2 0.930251 0.706962 0.675043
O O3 0.841040 0.796150 0.828153
O O4 0.000000 0.865192 0.750000
O O5 0.345913 0.848328 0.826561
O O6 0.280704 0.746521 0.975227
O O7 0.294343 0.922958 0.008523
O O8 0.535253 0.471243 0.649697
O O9 0.417373 0.350270 0.567513
O O10 0.584184 0.369853 0.483752
O O11 0.086040 0.603254 0.222612
O O12 0.738539 0.353515 0.365249
O O13 0.336567 0.958508 0.659136
O O14 0.397428 0.779456 0.641361
O O15 0.500000 0.907688 0.750000
#
# Coordination Sequence:
#
# PCOD8223088 Si02
#       8
#     8   8   8   4   8   4   8   8
#     4  10  20  42  72 100 146 193 239 302 375 444
#     4  12  23  43  76 108 143 194 250 305 371 447
#     4  11  23  46  66 104 151 192 251 312 368 439
#     4  12  26  44  68 108 148 190 256 316 358 446
#     4  11  22  40  73 102 138 196 245 296 375 444
#     4  12  26  48  74 114 146 180 256 312 358 470
#     4  12  24  45  73 104 149 202 244 307 380 450
#     4  12  26  49  73 107 151 193 241 302 388 447
#
# _framework density 22.558017
#
# number of rings (size 3 to 8) (size 9 to 14) (size 15 to 20)
#    0.000    0.571    7.143    1.714    0.000    2.286 
#    0.000    7.857    0.000    0.000    0.000    0.000 
#    0.000    0.000    0.000    0.000    0.000    0.000 
#
# Total GULP energy -694303.745243 kJ/mol
# GULP energy per Si atom -12398.281165 kJ/mol
# Density = 2.250667 g / cm^3
# Si number density = 22.558017 Si / 1000 Ang^3
#
#
#
# Elastic Constant Matrix: (Units=GPa)
#
#
# Indices 1 2 3 4 5 6 
#
# 1 161.9894 42.2161 69.9325 0.0000 0.0000 0.0000
# 2 42.2161 84.1392 36.7502 0.0000 0.0000 0.0000
# 3 69.9325 36.7502 124.8441 0.0000 0.0000 0.0000
# 4 0.0000 0.0000 0.0000 6.2300 0.0000 0.0000
# 5 0.0000 0.0000 0.0000 0.0000 41.9975 0.0000
# 6 0.0000 0.0000 0.0000 0.0000 0.0000 20.7502
#
#
#
# Elastic Compliance Matrix: (Units=1/GPa)
#
#
# Indices 1 2 3 4 5 6 
#
# 1 0.008588 -0.002534 -0.004065 0.000000 0.000000 0.000000
# 2 -0.002534 0.014386 -0.002816 0.000000 0.000000 0.000000
# 3 -0.004065 -0.002816 0.011116 0.000000 0.000000 0.000000
# 4 0.000000 0.000000 0.000000 0.160513 0.000000 0.000000
# 5 0.000000 0.000000 0.000000 0.000000 0.023811 0.000000
# 6 0.000000 0.000000 0.000000 0.000000 0.000000 0.048192
#
#
# Mechanical properties :
#
#
# Convention : Reuss Voigt Hill
#
# Bulk Modulus (GPa) = 65.52281 74.30779 69.91530
# Shear Modulus (GPa) = 17.21038 28.60048 22.90543
#
# Velocity S-wave (km/s) = 2.76513 3.56457 3.18999
# Velocity P-wave (km/s) = 6.26929 7.06780 6.68049
#
# Compressibility (1/GPa) = 0.01526186
#
# Stress axis : x y z
#
# Youngs Moduli (GPa) = 116.43516 69.51163 89.96135
#
# Poissons Ratio (x) = 0.17612 0.36570
# Poissons Ratio (y) = 0.29501 0.25329
# Poissons Ratio (z) = 0.47332 0.19571
#
# Static dielectric constant tensor:
#      x y z
#    x 4.406060 0.000000 0.000000 
#    y 0.000000 3.906420 0.000000 
#    z 0.000000 0.000000 4.337140 
# 
# 
# High freq. dielectric constant tensor:
#      x y z
#    x 1.899530 0.000000 0.000000 
#    y 0.000000 1.866420 0.000000 
#    z 0.000000 0.000000 1.908790 
# 
# From -- ./inp_files/8468.got.cif
#   From: 2010.03.12/outbox.cif.g09.slc.cpg/sg54_5_cif.got.tgz:8468.got - 2010.04.16 15:00:50.
