data_PCOD8223332
_publ_section_title
;
Structure prediction by ZEFSAII (Michael W. Deem and Ramdas Pophale) SiO2 
 PCOD8223332
Probable space group: P C C A
;
_chemical_formula_sum "Si O2"
_cell_formula_units_Z 40
_cell_length_a 14.555842
_cell_length_b 13.700118
_cell_length_c 8.654729
_cell_angle_alpha 90.000000
_cell_angle_beta 90.000000
_cell_angle_gamma 90.000000
_cell_volume 1725.897955
_symmetry_space_group_name_H-M "P C C A"
_symmetry_group_IT_number 54
_symmetry_cell_setting 'orthorhombic'
loop_
_space_group_symop_operation_xyz
x,y,z
1/2-x,-y,z
1/2+x,-y,1/2-z
-x,y,1/2-z
-x,-y,-z
1/2+x,y,-z
1/2-x,y,1/2+z
x,-y,1/2+z
loop_
_atom_site_type_symbol
_atom_site_label
_atom_site_fract_x
_atom_site_fract_y
_atom_site_fract_z
Si Si1 0.842801 0.400277 0.929740
Si Si2 0.869737 0.188643 0.026565
Si Si3 0.550889 0.206985 0.088102
Si Si4 0.722989 0.111322 0.226786
Si Si5 0.858218 0.595144 0.064807
O O1 0.845446 0.408217 0.746945
O O2 0.888848 0.301186 0.986483
O O3 0.898475 0.491378 0.005131
O O4 0.738106 0.394429 0.980330
O O5 0.815761 0.173692 0.187400
O O6 0.805911 0.134417 0.900717
O O7 0.976570 0.151563 0.024994
O O8 0.500000 0.223831 0.250000
O O9 0.640540 0.139039 0.109160
O O10 0.579355 0.312588 0.019127
O O11 0.750000 0.000000 0.205270
#
# Coordination Sequence:
#
# PCOD8223332 Si02
#       5
#     8   8   8   8   8
#     4  11  20  36  64  91 130 176 210 258 312 386
#     4  11  22  43  67  90 132 168 207 269 324 377
#     4  10  21  41  64  92 132 169 204 268 325 369
#     4  11  23  42  70  93 122 168 217 262 327 386
#     4  11  21  37  63  94 129 172 222 249 319 381
#
# _framework density 23.176341000000001
#
# number of rings (size 3 to 8) (size 9 to 14) (size 15 to 20)
#    0.000    1.200    6.000    3.000    0.000    1.600 
#    0.000    3.000    0.000    0.000    0.000    0.000 
#    0.000    0.000    0.000    0.000    0.000    0.000 
#
# Total GULP energy -495730.381072 kJ/mol
# GULP energy per Si atom -12393.259527 kJ/mol
# Density = 2.312359 g / cm^3
# Si number density = 23.176341 Si / 1000 Ang^3
#
#
#
# Elastic Constant Matrix: (Units=GPa)
#
#
# Indices 1 2 3 4 5 6 
#
# 1 104.6203 51.8519 0.5622 0.0000 0.0000 0.0000
# 2 51.8519 141.4346 24.1010 0.0000 0.0000 0.0000
# 3 0.5622 24.1010 43.7519 0.0000 0.0000 0.0000
# 4 0.0000 0.0000 0.0000 44.9890 0.0000 0.0000
# 5 0.0000 0.0000 0.0000 0.0000 31.1416 0.0000
# 6 0.0000 0.0000 0.0000 0.0000 0.0000 19.6372
#
#
#
# Elastic Compliance Matrix: (Units=1/GPa)
#
#
# Indices 1 2 3 4 5 6 
#
# 1 0.011921 -0.004794 0.002488 0.000000 0.000000 0.000000
# 2 -0.004794 0.009731 -0.005299 0.000000 0.000000 0.000000
# 3 0.002488 -0.005299 0.025743 0.000000 0.000000 0.000000
# 4 0.000000 0.000000 0.000000 0.022228 0.000000 0.000000
# 5 0.000000 0.000000 0.000000 0.000000 0.032111 0.000000
# 6 0.000000 0.000000 0.000000 0.000000 0.000000 0.050924
#
#
# Mechanical properties :
#
#
# Convention : Reuss Voigt Hill
#
# Bulk Modulus (GPa) = 31.07077 49.20411 40.13744
# Shear Modulus (GPa) = 27.99598 33.37299 30.68449
#
# Velocity S-wave (km/s) = 3.47934 3.79880 3.64257
# Velocity P-wave (km/s) = 5.43842 6.36534 5.92005
#
# Compressibility (1/GPa) = 0.03218459
#
# Stress axis : x y z
#
# Youngs Moduli (GPa) = 83.88394 102.76380 38.84545
#
# Poissons Ratio (x) = 0.49269 -0.09664
# Poissons Ratio (y) = 0.40218 0.20583
# Poissons Ratio (z) = -0.20869 0.54453
#
# Static dielectric constant tensor:
#      x y z
#    x 4.627900 0.000000 0.000000 
#    y 0.000000 4.699600 0.000000 
#    z 0.000000 0.000000 3.976730 
# 
# 
# High freq. dielectric constant tensor:
#      x y z
#    x 1.930480 0.000000 0.000000 
#    y 0.000000 1.914550 0.000000 
#    z 0.000000 0.000000 1.895070 
# 
# From -- ./inp_files/3425.got.cif
#   From: 2010.03.12/outbox.cif.g09.slc.cpg/sg54_2_cif.got.tgz:3425.got - 2010.04.16 15:00:50.
