data_PCOD8223448
_publ_section_title
;
Structure prediction by ZEFSAII (Michael W. Deem and Ramdas Pophale) SiO2 
 PCOD8223448
Probable space group: P C C A
;
_chemical_formula_sum "Si O2"
_cell_formula_units_Z 28
_cell_length_a 10.094464
_cell_length_b 10.272439
_cell_length_c 15.293935
_cell_angle_alpha 90.000000
_cell_angle_beta 90.000000
_cell_angle_gamma 90.000000
_cell_volume 1585.901006
_symmetry_space_group_name_H-M "P C C A"
_symmetry_group_IT_number 54
_symmetry_cell_setting 'orthorhombic'
loop_
_space_group_symop_operation_xyz
x,y,z
1/2-x,-y,z
1/2+x,-y,1/2-z
-x,y,1/2-z
-x,-y,-z
1/2+x,y,-z
1/2-x,y,1/2+z
x,-y,1/2+z
loop_
_atom_site_type_symbol
_atom_site_label
_atom_site_fract_x
_atom_site_fract_y
_atom_site_fract_z
Si Si1 0.346938 0.120011 0.751533
Si Si2 0.354582 0.254318 0.930088
Si Si3 0.651547 0.245438 0.931383
Si Si4 0.250000 0.500000 0.004850
O O1 0.500000 0.073043 0.750000
O O2 0.250000 0.000000 0.765191
O O3 0.678150 0.220252 0.669652
O O4 0.306876 0.194167 0.663320
O O5 0.501584 0.205889 0.954985
O O6 0.343543 0.411034 0.942466
O O7 0.250383 0.183226 0.995835
O O8 0.664240 0.403416 0.933329
#
# Coordination Sequence:
#
# PCOD8223448 Si02
#       4
#     8   8   8   4
#     4  10  22  39  54  78 108 143 181 218 261 314
#     4   9  19  35  56  79 109 139 175 219 264 314
#     4   9  19  35  56  79 109 139 175 219 264 314
#     4   8  18  34  60  76 112 132 182 204 282 304
#
# _framework density 17.655578999999999
#
# number of rings (size 3 to 8) (size 9 to 14) (size 15 to 20)
#    1.714    1.143    0.000    0.857    0.000    4.571 
#    0.000    5.714    0.000    0.000    0.000    0.000 
#    0.000    0.000    0.000    0.000    0.000    0.000 
#
# Total GULP energy -346881.909505 kJ/mol
# GULP energy per Si atom -12388.639625 kJ/mol
# Density = 1.761539 g / cm^3
# Si number density = 17.655579 Si / 1000 Ang^3
#
#
#
# Elastic Constant Matrix: (Units=GPa)
#
#
# Indices 1 2 3 4 5 6 
#
# 1 91.5685 16.4651 50.3915 0.0000 0.0000 0.0000
# 2 16.4651 51.2535 8.6681 0.0000 0.0000 0.0000
# 3 50.3915 8.6681 90.9984 0.0000 0.0000 0.0000
# 4 0.0000 0.0000 0.0000 26.6403 0.0000 0.0000
# 5 0.0000 0.0000 0.0000 0.0000 31.4619 0.0000
# 6 0.0000 0.0000 0.0000 0.0000 0.0000 26.3810
#
#
#
# Elastic Compliance Matrix: (Units=1/GPa)
#
#
# Indices 1 2 3 4 5 6 
#
# 1 0.016403 -0.003794 -0.008722 0.000000 0.000000 0.000000
# 2 -0.003794 0.020708 0.000129 0.000000 0.000000 0.000000
# 3 -0.008722 0.000129 0.015807 0.000000 0.000000 0.000000
# 4 0.000000 0.000000 0.000000 0.037537 0.000000 0.000000
# 5 0.000000 0.000000 0.000000 0.000000 0.031784 0.000000
# 6 0.000000 0.000000 0.000000 0.000000 0.000000 0.037906
#
#
# Mechanical properties :
#
#
# Convention : Reuss Voigt Hill
#
# Bulk Modulus (GPa) = 35.53344 42.76334 39.14839
# Shear Modulus (GPa) = 25.73323 27.44967 26.59145
#
# Velocity S-wave (km/s) = 3.82188 3.94728 3.88509
# Velocity P-wave (km/s) = 6.29645 6.71179 6.50744
#
# Compressibility (1/GPa) = 0.02814250
#
# Stress axis : x y z
#
# Youngs Moduli (GPa) = 60.96519 48.29042 63.26403
#
# Poissons Ratio (x) = 0.18323 0.55178
# Poissons Ratio (y) = 0.23132 -0.00814
# Poissons Ratio (z) = 0.53173 -0.00621
#
# Static dielectric constant tensor:
#      x y z
#    x 3.257560 0.000000 0.000000 
#    y 0.000000 3.001720 0.000000 
#    z 0.000000 0.000000 3.185040 
# 
# 
# High freq. dielectric constant tensor:
#      x y z
#    x 1.688030 0.000000 0.000000 
#    y 0.000000 1.662070 0.000000 
#    z 0.000000 0.000000 1.679860 
# 
# From -- ./inp_files/19966.got.cif
#   From: 2010.03.12/outbox.cif.g09.slc.cpg/sg54_10_cif.got.tgz:19966.got - 2010.04.16 15:00:50.
