data_PCOD8223954
_publ_section_title
;
Structure prediction by ZEFSAII (Michael W. Deem and Ramdas Pophale) SiO2 
 PCOD8223954
Probable space group: P C C A
;
_chemical_formula_sum "Si O2"
_cell_formula_units_Z 64
_cell_length_a 13.741277
_cell_length_b 11.905931
_cell_length_c 18.369103
_cell_angle_alpha 90.000000
_cell_angle_beta 90.000000
_cell_angle_gamma 90.000000
_cell_volume 3005.234770
_symmetry_space_group_name_H-M "P C C A"
_symmetry_group_IT_number 54
_symmetry_cell_setting 'orthorhombic'
loop_
_space_group_symop_operation_xyz
x,y,z
1/2-x,-y,z
1/2+x,-y,1/2-z
-x,y,1/2-z
-x,-y,-z
1/2+x,y,-z
1/2-x,y,1/2+z
x,-y,1/2+z
loop_
_atom_site_type_symbol
_atom_site_label
_atom_site_fract_x
_atom_site_fract_y
_atom_site_fract_z
Si Si1 0.796488 0.117948 0.963768
Si Si2 0.606670 0.741804 0.447895
Si Si3 0.509812 0.846055 0.589499
Si Si4 0.457181 0.249107 0.826640
Si Si5 0.855897 0.456193 0.100936
Si Si6 0.858219 0.514890 0.437403
Si Si7 0.999464 0.372278 0.665503
Si Si8 0.650891 0.949564 0.122363
O O1 0.719529 0.218046 0.946100
O O2 0.895374 0.130619 0.918810
O O3 0.750000 0.000000 0.940272
O O4 0.821116 0.118230 0.049301
O O5 0.553738 0.790444 0.517931
O O6 0.547299 0.784532 0.378205
O O7 0.593350 0.607407 0.446301
O O8 0.520645 0.760355 0.656979
O O9 0.569185 0.957994 0.606087
O O10 0.500000 0.287195 0.750000
O O11 0.387639 0.348321 0.853851
O O12 0.390963 0.137952 0.819043
O O13 0.750000 0.500000 0.121809
O O14 0.919566 0.562732 0.119953
O O15 0.864292 0.423323 0.015600
O O16 0.750000 0.500000 0.410269
O O17 0.900915 0.592108 0.373724
O O18 0.000000 0.405717 0.750000
O O19 0.750000 0.000000 0.156057
#
# Coordination Sequence:
#
# PCOD8223954 Si02
#       8
#     8   8   8   8   8   8   8   8
#     4  11  22  39  70 108 129 174 234 299 352 400
#     4  12  22  41  71 100 137 178 237 294 346 413
#     4  12  23  43  70 101 138 178 237 294 345 415
#     4  12  27  47  67 101 146 190 229 282 355 427
#     4  11  25  43  74 101 134 180 237 287 342 410
#     4  11  24  42  70 104 134 180 235 289 339 409
#     4  12  26  45  66 101 147 181 221 280 352 421
#     4  11  24  42  74 100 134 181 235 295 351 416
#
# _framework density 21.296171999999999
#
# number of rings (size 3 to 8) (size 9 to 14) (size 15 to 20)
#    0.000    0.500    6.250    3.375    5.250    1.000 
#    2.250    1.875    0.000    0.000    0.000    0.000 
#    0.000    0.000    0.000    0.000    0.000    0.000 
#
# Total GULP energy -793704.700522 kJ/mol
# GULP energy per Si atom -12401.635946 kJ/mol
# Density = 2.124770 g / cm^3
# Si number density = 21.296172 Si / 1000 Ang^3
#
#
#
# Elastic Constant Matrix: (Units=GPa)
#
#
# Indices 1 2 3 4 5 6 
#
# 1 138.4257 32.3870 48.8136 0.0000 0.0000 0.0000
# 2 32.3870 105.4110 33.6095 0.0000 0.0000 0.0000
# 3 48.8136 33.6095 104.3896 0.0000 0.0000 0.0000
# 4 0.0000 0.0000 0.0000 16.0786 0.0000 0.0000
# 5 0.0000 0.0000 0.0000 0.0000 25.9850 0.0000
# 6 0.0000 0.0000 0.0000 0.0000 0.0000 41.1364
#
#
#
# Elastic Compliance Matrix: (Units=1/GPa)
#
#
# Indices 1 2 3 4 5 6 
#
# 1 0.008876 -0.001564 -0.003647 0.000000 0.000000 0.000000
# 2 -0.001564 0.010848 -0.002761 0.000000 0.000000 0.000000
# 3 -0.003647 -0.002761 0.012174 0.000000 0.000000 0.000000
# 4 0.000000 0.000000 0.000000 0.062194 0.000000 0.000000
# 5 0.000000 0.000000 0.000000 0.000000 0.038484 0.000000
# 6 0.000000 0.000000 0.000000 0.000000 0.000000 0.024309
#
#
# Mechanical properties :
#
#
# Convention : Reuss Voigt Hill
#
# Bulk Modulus (GPa) = 62.68421 64.20516 63.44468
# Shear Modulus (GPa) = 28.06669 32.20109 30.13389
#
# Velocity S-wave (km/s) = 3.63426 3.89274 3.76572
# Velocity P-wave (km/s) = 6.86359 7.10061 6.98311
#
# Compressibility (1/GPa) = 0.01595298
#
# Stress axis : x y z
#
# Youngs Moduli (GPa) = 112.66184 92.18591 82.14388
#
# Poissons Ratio (x) = 0.14421 0.29957
# Poissons Ratio (y) = 0.17624 0.22680
# Poissons Ratio (z) = 0.41087 0.25453
#
# Static dielectric constant tensor:
#      x y z
#    x 4.137430 0.000000 0.000000 
#    y 0.000000 4.051310 0.000000 
#    z 0.000000 0.000000 3.645860 
# 
# 
# High freq. dielectric constant tensor:
#      x y z
#    x 1.857120 0.000000 0.000000 
#    y 0.000000 1.850980 0.000000 
#    z 0.000000 0.000000 1.801500 
# 
# From -- ./inp_files/18228.got.cif
#   From: 2010.03.12/outbox.cif.g09.slc.cpg/sg54_10_cif.got.tgz:18228.got - 2010.04.16 15:00:50.
