data_PCOD8223186
_publ_section_title
;
Structure prediction by ZEFSAII (Michael W. Deem and Ramdas Pophale) SiO2 
 PCOD8223186
Probable space group: P C C A
;
_chemical_formula_sum "Si O2"
_cell_formula_units_Z 24
_cell_length_a 8.631884
_cell_length_b 4.968938
_cell_length_c 23.762940
_cell_angle_alpha 90.000000
_cell_angle_beta 90.000000
_cell_angle_gamma 90.000000
_cell_volume 1019.223303
_symmetry_space_group_name_H-M "P C C A"
_symmetry_group_IT_number 54
_symmetry_cell_setting 'orthorhombic'
loop_
_space_group_symop_operation_xyz
x,y,z
1/2-x,-y,z
1/2+x,-y,1/2-z
-x,y,1/2-z
-x,-y,-z
1/2+x,y,-z
1/2-x,y,1/2+z
x,-y,1/2+z
loop_
_atom_site_type_symbol
_atom_site_label
_atom_site_fract_x
_atom_site_fract_y
_atom_site_fract_z
Si Si1 0.355422 0.244475 0.528782
Si Si2 0.862754 0.250409 0.705559
Si Si3 0.420666 0.602212 0.913060
O O1 0.250000 0.500000 0.513486
O O2 0.472079 0.337746 0.577658
O O3 0.439854 0.190948 0.467359
O O4 0.250000 0.000000 0.550551
O O5 0.750000 0.500000 0.716649
O O6 0.956675 0.251964 0.645689
O O7 0.000000 0.235455 0.750000
O O8 0.750000 0.000000 0.709331
O O9 0.250000 0.500000 0.904440
#
# Coordination Sequence:
#
# PCOD8223186 Si02
#       3
#     8   8   8
#     4  10  21  37  60  93 128 164 209 260 319 389
#     4  11  24  44  67  93 127 169 218 271 327 386
#     4   9  21  39  62  89 126 169 210 261 326 388
#
# _framework density 23.547343999999999
#
# number of rings (size 3 to 8) (size 9 to 14) (size 15 to 20)
#    0.000    2.000    0.000    2.000    0.000   18.667 
#    0.000    3.333    0.000    0.000    0.000    0.000 
#    0.000    0.000    0.000    0.000    0.000    0.000 
#
# Total GULP energy -297449.116041 kJ/mol
# GULP energy per Si atom -12393.713168 kJ/mol
# Density = 2.349375 g / cm^3
# Si number density = 23.547344 Si / 1000 Ang^3
#
#
#
# Elastic Constant Matrix: (Units=GPa)
#
#
# Indices 1 2 3 4 5 6 
#
# 1 135.1442 65.3090 95.9620 0.0000 0.0000 0.0000
# 2 65.3090 151.6138 62.8514 0.0000 0.0000 0.0000
# 3 95.9620 62.8514 193.5302 0.0000 0.0000 0.0000
# 4 0.0000 0.0000 0.0000 23.4879 0.0000 0.0000
# 5 0.0000 0.0000 0.0000 0.0000 33.6301 0.0000
# 6 0.0000 0.0000 0.0000 0.0000 0.0000 51.6244
#
#
#
# Elastic Compliance Matrix: (Units=1/GPa)
#
#
# Indices 1 2 3 4 5 6 
#
# 1 0.012710 -0.003308 -0.005228 0.000000 0.000000 0.000000
# 2 -0.003308 0.008483 -0.001115 0.000000 0.000000 0.000000
# 3 -0.005228 -0.001115 0.008122 0.000000 0.000000 0.000000
# 4 0.000000 0.000000 0.000000 0.042575 0.000000 0.000000
# 5 0.000000 0.000000 0.000000 0.000000 0.029735 0.000000
# 6 0.000000 0.000000 0.000000 0.000000 0.000000 0.019371
#
#
# Mechanical properties :
#
#
# Convention : Reuss Voigt Hill
#
# Bulk Modulus (GPa) = 99.86739 103.17034 101.51886
# Shear Modulus (GPa) = 34.81048 38.82619 36.81834
#
# Velocity S-wave (km/s) = 3.84906 4.06502 3.95851
# Velocity P-wave (km/s) = 7.89032 8.12044 8.00621
#
# Compressibility (1/GPa) = 0.01001328
#
# Stress axis : x y z
#
# Youngs Moduli (GPa) = 78.67567 117.88765 123.12879
#
# Poissons Ratio (x) = 0.38994 0.64374
# Poissons Ratio (y) = 0.26024 0.13725
# Poissons Ratio (z) = 0.41133 0.13141
#
# Static dielectric constant tensor:
#      x y z
#    x 4.507730 0.000000 0.000000 
#    y 0.000000 4.464620 0.000000 
#    z 0.000000 0.000000 4.842030 
# 
# 
# High freq. dielectric constant tensor:
#      x y z
#    x 1.948800 0.000000 0.000000 
#    y 0.000000 1.935190 0.000000 
#    z 0.000000 0.000000 1.922170 
# 
# From -- ./inp_files/23075.got.cif
#   From: 2010.03.12/outbox.cif.g09.slc.cpg/sg54_12_cif.got.tgz:23075.got - 2010.04.16 15:00:50.
