data_PCOD8223921
_publ_section_title
;
Structure prediction by ZEFSAII (Michael W. Deem and Ramdas Pophale) SiO2 
 PCOD8223921
Probable space group: P C C A
;
_chemical_formula_sum "Si O2"
_cell_formula_units_Z 32
_cell_length_a 17.212370
_cell_length_b 7.947423
_cell_length_c 9.895859
_cell_angle_alpha 90.000000
_cell_angle_beta 90.000000
_cell_angle_gamma 90.000000
_cell_volume 1353.693990
_symmetry_space_group_name_H-M "P C C A"
_symmetry_group_IT_number 54
_symmetry_cell_setting 'orthorhombic'
loop_
_space_group_symop_operation_xyz
x,y,z
1/2-x,-y,z
1/2+x,-y,1/2-z
-x,y,1/2-z
-x,-y,-z
1/2+x,y,-z
1/2-x,y,1/2+z
x,-y,1/2+z
loop_
_atom_site_type_symbol
_atom_site_label
_atom_site_fract_x
_atom_site_fract_y
_atom_site_fract_z
Si Si1 0.431140 0.840830 0.401358
Si Si2 0.171869 0.396399 0.026591
Si Si3 0.894396 0.073827 0.378667
Si Si4 0.413609 0.520575 0.777052
O O1 0.523844 0.840172 0.424446
O O2 0.401754 0.966091 0.280764
O O3 0.408234 0.655941 0.356252
O O4 0.385757 0.900130 0.537011
O O5 0.250000 0.500000 0.001393
O O6 0.131809 0.360198 0.881063
O O7 0.175774 0.206826 0.090139
O O8 0.124336 0.513515 0.129970
O O9 0.500000 0.587151 0.750000
#
# Coordination Sequence:
#
# PCOD8223921 Si02
#       4
#     8   8   8   8
#     4   9  17  34  57  87 118 146 205 253 297 360
#     4  11  23  39  59  88 128 163 204 259 325 377
#     4   9  18  34  56  88 118 155 194 256 308 362
#     4  11  21  39  60  90 120 165 212 264 302 374
#
# _framework density 23.639021
#
# number of rings (size 3 to 8) (size 9 to 14) (size 15 to 20)
#    0.000    2.000    5.000    1.500    0.000    2.000 
#    4.500    1.250    0.000    6.000    0.000    0.000 
#    0.000    0.000    0.000    0.000    0.000    0.000 
#
# Total GULP energy -396456.101966 kJ/mol
# GULP energy per Si atom -12389.253186 kJ/mol
# Density = 2.358522 g / cm^3
# Si number density = 23.639021 Si / 1000 Ang^3
#
#
#
# Elastic Constant Matrix: (Units=GPa)
#
#
# Indices 1 2 3 4 5 6 
#
# 1 93.4791 15.9764 25.5373 0.0000 0.0000 0.0000
# 2 15.9764 29.0359 -20.8970 0.0000 0.0000 0.0000
# 3 25.5373 -20.8970 74.1286 0.0000 0.0000 0.0000
# 4 0.0000 0.0000 0.0000 22.9461 0.0000 0.0000
# 5 0.0000 0.0000 0.0000 0.0000 28.1220 0.0000
# 6 0.0000 0.0000 0.0000 0.0000 0.0000 14.7571
#
#
#
# Elastic Compliance Matrix: (Units=1/GPa)
#
#
# Indices 1 2 3 4 5 6 
#
# 1 0.016267 -0.016288 -0.010195 0.000000 0.000000 0.000000
# 2 -0.016288 0.059515 0.022389 0.000000 0.000000 0.000000
# 3 -0.010195 0.022389 0.023314 0.000000 0.000000 0.000000
# 4 0.000000 0.000000 0.000000 0.043580 0.000000 0.000000
# 5 0.000000 0.000000 0.000000 0.000000 0.035559 0.000000
# 6 0.000000 0.000000 0.000000 0.000000 0.000000 0.067764
#
#
# Mechanical properties :
#
#
# Convention : Reuss Voigt Hill
#
# Bulk Modulus (GPa) = 11.00032 26.43077 18.71555
# Shear Modulus (GPa) = 17.57523 24.90016 21.23770
#
# Velocity S-wave (km/s) = 2.72965 3.24906 3.00061
# Velocity P-wave (km/s) = 3.82076 5.02796 4.46535
#
# Compressibility (1/GPa) = 0.09090641
#
# Stress axis : x y z
#
# Youngs Moduli (GPa) = 61.47550 16.80235 42.89293
#
# Poissons Ratio (x) = 0.27368 0.43731
# Poissons Ratio (y) = 1.00132 -0.96032
# Poissons Ratio (z) = 0.62677 -0.37618
#
# Static dielectric constant tensor:
#      x y z
#    x 3.785270 0.000000 0.000000 
#    y 0.000000 3.938710 0.000000 
#    z 0.000000 0.000000 4.836610 
# 
# 
# High freq. dielectric constant tensor:
#      x y z
#    x 1.887930 0.000000 0.000000 
#    y 0.000000 1.910940 0.000000 
#    z 0.000000 0.000000 1.961030 
# 
# From -- ./inp_files/3254.got.cif
#   From: 2010.03.12/outbox.cif.g09.slc.cpg/sg54_2_cif.got.tgz:3254.got - 2010.04.16 15:00:50.
