data_PCOD8223265
_publ_section_title
;
Structure prediction by ZEFSAII (Michael W. Deem and Ramdas Pophale) SiO2 
 PCOD8223265
Probable space group: P C C A
;
_chemical_formula_sum "Si O2"
_cell_formula_units_Z 40
_cell_length_a 14.676606
_cell_length_b 8.981951
_cell_length_c 14.285683
_cell_angle_alpha 90.000000
_cell_angle_beta 90.000000
_cell_angle_gamma 90.000000
_cell_volume 1883.203818
_symmetry_space_group_name_H-M "P C C A"
_symmetry_group_IT_number 54
_symmetry_cell_setting 'orthorhombic'
loop_
_space_group_symop_operation_xyz
x,y,z
1/2-x,-y,z
1/2+x,-y,1/2-z
-x,y,1/2-z
-x,-y,-z
1/2+x,y,-z
1/2-x,y,1/2+z
x,-y,1/2+z
loop_
_atom_site_type_symbol
_atom_site_label
_atom_site_fract_x
_atom_site_fract_y
_atom_site_fract_z
Si Si1 0.048248 0.395548 0.072520
Si Si2 0.232219 0.327931 0.012941
Si Si3 0.250350 0.174544 0.701962
Si Si4 0.866892 0.320187 0.153221
Si Si5 0.898512 0.399726 0.759846
O O1 0.122290 0.302533 0.011623
O O2 0.104396 0.496148 0.147573
O O3 0.971158 0.286801 0.119154
O O4 0.000000 0.500000 0.000000
O O5 0.250000 0.500000 0.036874
O O6 0.263396 0.217297 0.094548
O O7 0.289062 0.277764 0.921966
O O8 0.344189 0.232692 0.750386
O O9 0.165141 0.256639 0.749627
O O10 0.250000 0.000000 0.717118
O O11 0.866035 0.497674 0.172755
O O12 0.000000 0.337964 0.750000
#
# Coordination Sequence:
#
# PCOD8223265 Si02
#       5
#     8   8   8   8   8
#     4  11  21  36  69 104 122 157 213 285 330 375
#     4  12  21  40  68  94 128 161 221 278 323 386
#     4  12  25  42  61  91 138 183 214 262 330 410
#     4  11  23  41  70  96 128 168 223 278 335 382
#     4  10  21  39  64  96 123 162 220 274 320 380
#
# _framework density 21.240397999999999
#
# number of rings (size 3 to 8) (size 9 to 14) (size 15 to 20)
#    0.000    0.800    6.000    1.800    2.800    0.800 
#    3.600    0.000    0.000    3.600    0.000    0.000 
#    0.000    0.000    0.000    0.000    0.000    0.000 
#
# Total GULP energy -495535.940586 kJ/mol
# GULP energy per Si atom -12388.398515 kJ/mol
# Density = 2.119205 g / cm^3
# Si number density = 21.240398 Si / 1000 Ang^3
#
#
#
# Elastic Constant Matrix: (Units=GPa)
#
#
# Indices 1 2 3 4 5 6 
#
# 1 111.4929 31.5542 26.8660 0.0000 0.0000 0.0000
# 2 31.5542 90.7629 11.3042 0.0000 0.0000 0.0000
# 3 26.8660 11.3042 78.5436 0.0000 0.0000 0.0000
# 4 0.0000 0.0000 0.0000 15.0466 0.0000 0.0000
# 5 0.0000 0.0000 0.0000 0.0000 41.4987 0.0000
# 6 0.0000 0.0000 0.0000 0.0000 0.0000 16.7976
#
#
#
# Elastic Compliance Matrix: (Units=1/GPa)
#
#
# Indices 1 2 3 4 5 6 
#
# 1 0.010672 -0.003315 -0.003173 0.000000 0.000000 0.000000
# 2 -0.003315 0.012249 -0.000629 0.000000 0.000000 0.000000
# 3 -0.003173 -0.000629 0.013908 0.000000 0.000000 0.000000
# 4 0.000000 0.000000 0.000000 0.066460 0.000000 0.000000
# 5 0.000000 0.000000 0.000000 0.000000 0.024097 0.000000
# 6 0.000000 0.000000 0.000000 0.000000 0.000000 0.059532
#
#
# Mechanical properties :
#
#
# Convention : Reuss Voigt Hill
#
# Bulk Modulus (GPa) = 44.25978 46.69423 45.47700
# Shear Modulus (GPa) = 23.95974 28.74026 26.35000
#
# Velocity S-wave (km/s) = 3.36225 3.68243 3.52598
# Velocity P-wave (km/s) = 5.99631 6.33339 6.16716
#
# Compressibility (1/GPa) = 0.02259388
#
# Stress axis : x y z
#
# Youngs Moduli (GPa) = 93.70296 81.64260 71.90247
#
# Poissons Ratio (x) = 0.27064 0.22817
# Poissons Ratio (y) = 0.31062 0.04522
# Poissons Ratio (z) = 0.29735 0.05135
#
# Static dielectric constant tensor:
#      x y z
#    x 4.495960 0.000000 0.000000 
#    y 0.000000 3.340990 0.000000 
#    z 0.000000 0.000000 4.251160 
# 
# 
# High freq. dielectric constant tensor:
#      x y z
#    x 1.857380 0.000000 0.000000 
#    y 0.000000 1.755330 0.000000 
#    z 0.000000 0.000000 1.851550 
# 
# From -- ./inp_files/13250.got.cif
#   From: 2010.03.12/outbox.cif.g09.slc.cpg/sg54_7_cif.got.tgz:13250.got - 2010.04.16 15:00:50.
