data_PCOD8223771
_publ_section_title
;
Structure prediction by ZEFSAII (Michael W. Deem and Ramdas Pophale) SiO2 
 PCOD8223771
Probable space group: P C C A
;
_chemical_formula_sum "Si O2"
_cell_formula_units_Z 40
_cell_length_a 4.984307
_cell_length_b 12.833062
_cell_length_c 26.395531
_cell_angle_alpha 90.000000
_cell_angle_beta 90.000000
_cell_angle_gamma 90.000000
_cell_volume 1688.361653
_symmetry_space_group_name_H-M "P C C A"
_symmetry_group_IT_number 54
_symmetry_cell_setting 'orthorhombic'
loop_
_space_group_symop_operation_xyz
x,y,z
1/2-x,-y,z
1/2+x,-y,1/2-z
-x,y,1/2-z
-x,-y,-z
1/2+x,y,-z
1/2-x,y,1/2+z
x,-y,1/2+z
loop_
_atom_site_type_symbol
_atom_site_label
_atom_site_fract_x
_atom_site_fract_y
_atom_site_fract_z
Si Si1 0.264006 0.379120 0.387535
Si Si2 0.929876 0.081010 0.898280
Si Si3 0.250000 0.000000 0.311746
Si Si4 0.755397 0.720705 0.843913
Si Si5 0.000000 0.826084 0.250000
Si Si6 0.211301 0.206191 0.466321
O O1 0.250000 0.500000 0.399893
O O2 0.550696 0.367111 0.361841
O O3 0.243297 0.319293 0.440985
O O4 0.048715 0.331319 0.347475
O O5 0.759148 0.182886 0.883094
O O6 0.993673 0.010186 0.848450
O O7 0.203852 0.115568 0.926495
O O8 0.750000 0.000000 0.931755
O O9 0.268552 0.103221 0.276873
O O10 0.673839 0.754844 0.787553
O O11 0.405717 0.194363 0.515228
#
# Coordination Sequence:
#
# PCOD8223771 Si02
#       6
#     8   8   4   8   4   8
#     4  11  24  47  73  97 132 181 226 281 358 411
#     4  10  24  40  64  94 140 183 219 269 336 412
#     4  10  24  38  62  98 130 186 234 260 328 402
#     4  10  24  42  69 103 138 176 222 283 340 399
#     4  10  24  40  68 106 138 182 232 292 314 408
#     4  11  25  43  66 101 136 174 231 286 335 400
#
# _framework density 23.691607999999999
#
# number of rings (size 3 to 8) (size 9 to 14) (size 15 to 20)
#    0.000    1.600    0.000    3.000   16.800    2.400 
#    0.000    2.000    0.000    0.000    0.000    0.000 
#    0.000    0.000    0.000    0.000    0.000    0.000 
#
# Total GULP energy -495759.957160 kJ/mol
# GULP energy per Si atom -12393.998929 kJ/mol
# Density = 2.363768 g / cm^3
# Si number density = 23.691608 Si / 1000 Ang^3
#
#
#
# Elastic Constant Matrix: (Units=GPa)
#
#
# Indices 1 2 3 4 5 6 
#
# 1 62.5459 35.9674 -4.9130 0.0000 0.0000 0.0000
# 2 35.9674 122.9384 37.1871 0.0000 0.0000 0.0000
# 3 -4.9130 37.1871 93.2054 0.0000 0.0000 0.0000
# 4 0.0000 0.0000 0.0000 11.9750 0.0000 0.0000
# 5 0.0000 0.0000 0.0000 0.0000 15.4316 0.0000
# 6 0.0000 0.0000 0.0000 0.0000 0.0000 41.4072
#
#
#
# Elastic Compliance Matrix: (Units=1/GPa)
#
#
# Indices 1 2 3 4 5 6 
#
# 1 0.020416 -0.007163 0.003934 0.000000 0.000000 0.000000
# 2 -0.007163 0.011764 -0.005071 0.000000 0.000000 0.000000
# 3 0.003934 -0.005071 0.012960 0.000000 0.000000 0.000000
# 4 0.000000 0.000000 0.000000 0.083507 0.000000 0.000000
# 5 0.000000 0.000000 0.000000 0.000000 0.064802 0.000000
# 6 0.000000 0.000000 0.000000 0.000000 0.000000 0.024150
#
#
# Mechanical properties :
#
#
# Convention : Reuss Voigt Hill
#
# Bulk Modulus (GPa) = 35.03893 46.13030 40.58461
# Shear Modulus (GPa) = 20.51591 27.79264 24.15428
#
# Velocity S-wave (km/s) = 2.94591 3.42877 3.19647
# Velocity P-wave (km/s) = 5.13740 5.93201 5.54895
#
# Compressibility (1/GPa) = 0.02853969
#
# Stress axis : x y z
#
# Youngs Moduli (GPa) = 48.98000 85.00666 77.16267
#
# Poissons Ratio (x) = 0.60892 -0.30357
# Poissons Ratio (y) = 0.35085 0.39130
# Poissons Ratio (z) = -0.19269 0.43108
#
# Static dielectric constant tensor:
#      x y z
#    x 4.269780 0.000000 0.000000 
#    y 0.000000 4.109270 0.000000 
#    z 0.000000 0.000000 4.266140 
# 
# 
# High freq. dielectric constant tensor:
#      x y z
#    x 1.953320 0.000000 0.000000 
#    y 0.000000 1.925140 0.000000 
#    z 0.000000 0.000000 1.933970 
# 
# From -- ./inp_files/25193.got.cif
#   From: 2010.03.12/outbox.cif.g09.slc.cpg/sg54_13_cif.got.tgz:25193.got - 2010.04.16 15:00:50.
