data_PCOD8223752
_publ_section_title
;
Structure prediction by ZEFSAII (Michael W. Deem and Ramdas Pophale) SiO2 
 PCOD8223752
Probable space group: P C C A
;
_chemical_formula_sum "Si O2"
_cell_formula_units_Z 56
_cell_length_a 16.017966
_cell_length_b 11.980488
_cell_length_c 14.364380
_cell_angle_alpha 90.000000
_cell_angle_beta 90.000000
_cell_angle_gamma 90.000000
_cell_volume 2756.568325
_symmetry_space_group_name_H-M "P C C A"
_symmetry_group_IT_number 54
_symmetry_cell_setting 'orthorhombic'
loop_
_space_group_symop_operation_xyz
x,y,z
1/2-x,-y,z
1/2+x,-y,1/2-z
-x,y,1/2-z
-x,-y,-z
1/2+x,y,-z
1/2-x,y,1/2+z
x,-y,1/2+z
loop_
_atom_site_type_symbol
_atom_site_label
_atom_site_fract_x
_atom_site_fract_y
_atom_site_fract_z
Si Si1 0.699065 0.887402 0.247472
Si Si2 0.403813 0.573270 0.754886
Si Si3 0.846374 0.403415 0.106015
Si Si4 0.153053 0.483940 0.075322
Si Si5 0.875899 0.227093 0.422049
Si Si6 0.189679 0.731739 0.379437
Si Si7 0.955322 0.202282 0.158959
O O1 0.687414 0.830232 0.348678
O O2 0.756993 0.814940 0.181527
O O3 0.607591 0.897621 0.195312
O O4 0.750000 0.000000 0.263463
O O5 0.500000 0.549910 0.750000
O O6 0.355777 0.466189 0.796616
O O7 0.375822 0.578178 0.648224
O O8 0.384205 0.685113 0.813636
O O9 0.748478 0.372651 0.089306
O O10 0.899319 0.290866 0.105823
O O11 0.883863 0.481858 0.025179
O O12 0.250000 0.500000 0.072047
O O13 0.121115 0.359616 0.099448
O O14 0.845704 0.207227 0.528285
O O15 0.968198 0.169774 0.410448
O O16 0.000000 0.254961 0.250000
#
# Coordination Sequence:
#
# PCOD8223752 Si02
#       7
#     8   8   8   8   8   8   8
#     4  10  23  45  69  89 117 168 223 278 339 401
#     4  12  24  35  53  87 131 174 209 261 314 373
#     4  11  20  37  59  89 128 180 212 246 305 396
#     4  12  21  34  59  89 130 177 218 249 309 385
#     4  11  21  39  65  96 128 168 220 274 326 389
#     4  11  23  40  61  92 133 164 221 274 321 393
#     4   9  20  38  63  94 127 167 215 266 322 385
#
# _framework density 20.315114000000001
#
# number of rings (size 3 to 8) (size 9 to 14) (size 15 to 20)
#    0.000    1.143    2.857    6.000    2.000    1.714 
#    0.000    2.857    0.000    0.000    0.000    0.000 
#    0.000    0.000    0.000    0.000    0.000    0.000 
#
# Total GULP energy -693979.475276 kJ/mol
# GULP energy per Si atom -12392.490630 kJ/mol
# Density = 2.026888 g / cm^3
# Si number density = 20.315114 Si / 1000 Ang^3
#
#
#
# Elastic Constant Matrix: (Units=GPa)
#
#
# Indices 1 2 3 4 5 6 
#
# 1 90.3442 27.9935 30.2258 0.0000 0.0000 0.0000
# 2 27.9935 65.6674 11.8605 0.0000 0.0000 0.0000
# 3 30.2258 11.8605 37.9050 0.0000 0.0000 0.0000
# 4 0.0000 0.0000 0.0000 18.2440 0.0000 0.0000
# 5 0.0000 0.0000 0.0000 0.0000 21.3973 0.0000
# 6 0.0000 0.0000 0.0000 0.0000 0.0000 26.0730
#
#
#
# Elastic Compliance Matrix: (Units=1/GPa)
#
#
# Indices 1 2 3 4 5 6 
#
# 1 0.016475 -0.004929 -0.011595 0.000000 0.000000 0.000000
# 2 -0.004929 0.017615 -0.001581 0.000000 0.000000 0.000000
# 3 -0.011595 -0.001581 0.036123 0.000000 0.000000 0.000000
# 4 0.000000 0.000000 0.000000 0.054813 0.000000 0.000000
# 5 0.000000 0.000000 0.000000 0.000000 0.046735 0.000000
# 6 0.000000 0.000000 0.000000 0.000000 0.000000 0.038354
#
#
# Mechanical properties :
#
#
# Convention : Reuss Voigt Hill
#
# Bulk Modulus (GPa) = 29.41014 37.11959 33.26487
# Shear Modulus (GPa) = 19.40541 21.39864 20.40202
#
# Velocity S-wave (km/s) = 3.09402 3.24903 3.17247
# Velocity P-wave (km/s) = 5.22229 5.69092 5.46163
#
# Compressibility (1/GPa) = 0.03400188
#
# Stress axis : x y z
#
# Youngs Moduli (GPa) = 60.69640 56.76957 27.68332
#
# Poissons Ratio (x) = 0.27982 0.32100
# Poissons Ratio (y) = 0.29918 0.04378
# Poissons Ratio (z) = 0.70380 0.08977
#
# Static dielectric constant tensor:
#      x y z
#    x 4.004720 0.000000 0.000000 
#    y 0.000000 3.386280 0.000000 
#    z 0.000000 0.000000 3.273180 
# 
# 
# High freq. dielectric constant tensor:
#      x y z
#    x 1.805630 0.000000 0.000000 
#    y 0.000000 1.743700 0.000000 
#    z 0.000000 0.000000 1.808920 
# 
# From -- ./inp_files/13475.got.cif
#   From: 2010.03.12/outbox.cif.g09.slc.cpg/sg54_7_cif.got.tgz:13475.got - 2010.04.16 15:00:50.
