data_PCOD8223100
_publ_section_title
;
Structure prediction by ZEFSAII (Michael W. Deem and Ramdas Pophale) SiO2 
 PCOD8223100
Probable space group: P C C A
;
_chemical_formula_sum "Si O2"
_cell_formula_units_Z 40
_cell_length_a 10.616630
_cell_length_b 12.163425
_cell_length_c 13.943516
_cell_angle_alpha 90.000000
_cell_angle_beta 90.000000
_cell_angle_gamma 90.000000
_cell_volume 1800.590121
_symmetry_space_group_name_H-M "P C C A"
_symmetry_group_IT_number 54
_symmetry_cell_setting 'orthorhombic'
loop_
_space_group_symop_operation_xyz
x,y,z
1/2-x,-y,z
1/2+x,-y,1/2-z
-x,y,1/2-z
-x,-y,-z
1/2+x,y,-z
1/2-x,y,1/2+z
x,-y,1/2+z
loop_
_atom_site_type_symbol
_atom_site_label
_atom_site_fract_x
_atom_site_fract_y
_atom_site_fract_z
Si Si1 0.250000 0.500000 0.697765
Si Si2 0.219955 0.124180 0.356913
Si Si3 0.428857 0.626637 0.080280
Si Si4 0.673694 0.705897 0.985790
Si Si5 0.000000 0.788246 0.750000
Si Si6 0.637856 0.286078 0.266281
O O1 0.122703 0.513950 0.631353
O O2 0.269047 0.610637 0.759919
O O3 0.172517 0.183655 0.452599
O O4 0.337231 0.185577 0.306086
O O5 0.108318 0.128376 0.280806
O O6 0.250000 0.000000 0.384327
O O7 0.562697 0.620686 0.023291
O O8 0.444123 0.715954 0.164143
O O9 0.314691 0.655908 0.006765
O O10 0.652461 0.745332 0.877357
O O11 0.500000 0.330515 0.250000
#
# Coordination Sequence:
#
# PCOD8223100 Si02
#       6
#     4   8   8   8   4   8
#     4  10  22  40  68 102 134 184 220 276 348 402
#     4  11  24  42  69  97 132 180 222 282 341 399
#     4  10  21  40  67  95 140 175 220 274 340 405
#     4  10  22  43  63  98 137 174 224 278 335 405
#     4  10  20  44  64  92 134 176 222 270 336 406
#     4  11  24  42  66 101 135 172 227 276 334 408
#
# _framework density 22.214939999999999
#
# number of rings (size 3 to 8) (size 9 to 14) (size 15 to 20)
#    0.000    1.600    4.000    1.200    2.800    4.000 
#    0.000    8.000    0.000    0.000    0.000    0.000 
#    0.000    0.000    0.000    0.000    0.000    0.000 
#
# Total GULP energy -495541.572428 kJ/mol
# GULP energy per Si atom -12388.539311 kJ/mol
# Density = 2.216438 g / cm^3
# Si number density = 22.214940 Si / 1000 Ang^3
#
#
#
# Elastic Constant Matrix: (Units=GPa)
#
#
# Indices 1 2 3 4 5 6 
#
# 1 143.0407 20.6350 18.2937 0.0000 0.0000 0.0000
# 2 20.6350 63.6921 2.5562 0.0000 0.0000 0.0000
# 3 18.2937 2.5562 59.3169 0.0000 0.0000 0.0000
# 4 0.0000 0.0000 0.0000 5.7865 0.0000 0.0000
# 5 0.0000 0.0000 0.0000 0.0000 39.0260 0.0000
# 6 0.0000 0.0000 0.0000 0.0000 0.0000 30.5437
#
#
#
# Elastic Compliance Matrix: (Units=1/GPa)
#
#
# Indices 1 2 3 4 5 6 
#
# 1 0.007622 -0.002379 -0.002248 0.000000 0.000000 0.000000
# 2 -0.002379 0.016470 0.000024 0.000000 0.000000 0.000000
# 3 -0.002248 0.000024 0.017551 0.000000 0.000000 0.000000
# 4 0.000000 0.000000 0.000000 0.172817 0.000000 0.000000
# 5 0.000000 0.000000 0.000000 0.000000 0.025624 0.000000
# 6 0.000000 0.000000 0.000000 0.000000 0.000000 0.032740
#
#
# Mechanical properties :
#
#
# Convention : Reuss Voigt Hill
#
# Bulk Modulus (GPa) = 30.82938 38.77995 34.80466
# Shear Modulus (GPa) = 17.07403 30.04221 23.55812
#
# Velocity S-wave (km/s) = 2.77534 3.68141 3.26001
# Velocity P-wave (km/s) = 4.91711 5.96364 5.46548
#
# Compressibility (1/GPa) = 0.03243659
#
# Stress axis : x y z
#
# Youngs Moduli (GPa) = 131.20381 60.71515 56.97719
#
# Poissons Ratio (x) = 0.14445 0.12809
# Poissons Ratio (y) = 0.31214 -0.00136
# Poissons Ratio (z) = 0.29496 -0.00145
#
# Static dielectric constant tensor:
#      x y z
#    x 4.493290 0.000000 0.000000 
#    y 0.000000 3.617810 0.000000 
#    z 0.000000 0.000000 4.038800 
# 
# 
# High freq. dielectric constant tensor:
#      x y z
#    x 1.896060 0.000000 0.000000 
#    y 0.000000 1.841280 0.000000 
#    z 0.000000 0.000000 1.876720 
# 
# From -- ./inp_files/12540.got.cif
#   From: 2010.03.12/outbox.cif.g09.slc.cpg/sg54_7_cif.got.tgz:12540.got - 2010.04.16 15:00:50.
