data_PCOD8223726
_publ_section_title
;
Structure prediction by ZEFSAII (Michael W. Deem and Ramdas Pophale) SiO2 
 PCOD8223726
Probable space group: P C C A
;
_chemical_formula_sum "Si O2"
_cell_formula_units_Z 48
_cell_length_a 8.577515
_cell_length_b 8.501204
_cell_length_c 30.531171
_cell_angle_alpha 90.000000
_cell_angle_beta 90.000000
_cell_angle_gamma 90.000000
_cell_volume 2226.308712
_symmetry_space_group_name_H-M "P C C A"
_symmetry_group_IT_number 54
_symmetry_cell_setting 'orthorhombic'
loop_
_space_group_symop_operation_xyz
x,y,z
1/2-x,-y,z
1/2+x,-y,1/2-z
-x,y,1/2-z
-x,-y,-z
1/2+x,y,-z
1/2-x,y,1/2+z
x,-y,1/2+z
loop_
_atom_site_type_symbol
_atom_site_label
_atom_site_fract_x
_atom_site_fract_y
_atom_site_fract_z
Si Si1 0.016609 0.380147 0.635986
Si Si2 0.000000 0.680874 0.750000
Si Si3 0.520852 0.281333 0.899184
Si Si4 0.704207 0.171948 0.825211
Si Si5 0.795684 0.678438 0.064949
Si Si6 0.250000 0.500000 0.806755
Si Si7 0.628678 0.118395 0.982877
O O1 0.963869 0.305516 0.589093
O O2 0.855409 0.385063 0.663511
O O3 0.078729 0.554694 0.623181
O O4 0.147462 0.283006 0.662282
O O5 0.894883 0.774796 0.783830
O O6 0.876037 0.582912 0.723128
O O7 0.592501 0.150570 0.867350
O O8 0.334924 0.265735 0.900221
O O9 0.578556 0.253128 0.948758
O O10 0.750000 0.000000 0.810674
O O11 0.750000 0.500000 0.051069
O O12 0.792987 0.788937 0.022967
O O13 0.750000 0.000000 0.960009
O O14 0.500000 0.000000 0.000000
#
# Coordination Sequence:
#
# PCOD8223726 Si02
#       7
#     8   4   8   8   8   4   8
#     4  11  23  45  74 106 136 186 240 290 357 422
#     4  12  26  46  74 106 144 182 238 296 358 434
#     4  11  23  46  66 101 140 186 237 289 348 421
#     4  12  28  45  72 107 145 185 234 296 369 431
#     4  10  23  43  68  98 141 185 239 288 349 417
#     4  12  22  46  78 106 136 184 234 298 346 428
#     4  12  26  43  66 101 143 188 237 292 360 419
#
# _framework density 21.560351000000001
#
# number of rings (size 3 to 8) (size 9 to 14) (size 15 to 20)
#    0.000    0.667    5.833    2.000    4.667    5.333 
#    0.000    1.667    0.000    0.000    0.000    0.000 
#    0.000    0.000    0.000    0.000    0.000    0.000 
#
# Total GULP energy -594684.713378 kJ/mol
# GULP energy per Si atom -12389.264862 kJ/mol
# Density = 2.151128 g / cm^3
# Si number density = 21.560351 Si / 1000 Ang^3
#
#
#
# Elastic Constant Matrix: (Units=GPa)
#
#
# Indices 1 2 3 4 5 6 
#
# 1 112.2473 67.8292 48.1229 0.0000 0.0000 0.0000
# 2 67.8292 103.0841 57.4185 0.0000 0.0000 0.0000
# 3 48.1229 57.4185 110.1407 0.0000 0.0000 0.0000
# 4 0.0000 0.0000 0.0000 -114.4100 0.0000 0.0000
# 5 0.0000 0.0000 0.0000 0.0000 51.8269 0.0000
# 6 0.0000 0.0000 0.0000 0.0000 0.0000 33.5859
#
#
#
# Elastic Compliance Matrix: (Units=1/GPa)
#
#
# Indices 1 2 3 4 5 6 
#
# 1 0.015095 -0.008820 -0.001997 0.000000 0.000000 0.000000
# 2 -0.008820 0.018824 -0.005960 0.000000 0.000000 0.000000
# 3 -0.001997 -0.005960 0.013059 0.000000 0.000000 0.000000
# 4 0.000000 0.000000 0.000000 -0.008740 0.000000 0.000000
# 5 0.000000 0.000000 0.000000 0.000000 0.019295 0.000000
# 6 0.000000 0.000000 0.000000 0.000000 0.000000 0.029774
#
#
# Mechanical properties :
#
#
# Convention : Reuss Voigt Hill
#
# Bulk Modulus (GPa) = 74.49400 74.69038 74.59219
# Shear Modulus (GPa) = 39.89310 4.34066 22.11688
#
# Velocity S-wave (km/s) = 4.30618 1.42043 3.20631
# Velocity P-wave (km/s) = 7.70393 6.11620 6.95552
#
# Compressibility (1/GPa) = 0.01342390
#
# Stress axis : x y z
#
# Youngs Moduli (GPa) = 66.24736 53.12401 76.57648
#
# Poissons Ratio (x) = 0.46855 0.15295
# Poissons Ratio (y) = 0.58430 0.45637
# Poissons Ratio (z) = 0.13232 0.31660
#
# Static dielectric constant tensor:
#      x y z
#    x 3.864210 0.000000 0.000000 
#    y 0.000000 3.792910 0.000000 
#    z 0.000000 0.000000 4.441000 
# 
# 
# High freq. dielectric constant tensor:
#      x y z
#    x 1.868660 0.000000 0.000000 
#    y 0.000000 1.829740 0.000000 
#    z 0.000000 0.000000 1.857660 
# 
# From -- ./inp_files/27815.got.cif
#   From: 2010.03.12/outbox.cif.g09.slc.cpg/sg54_14_cif.got.tgz:27815.got - 2010.04.16 15:00:50.
