data_PCOD8223569
_publ_section_title
;
Structure prediction by ZEFSAII (Michael W. Deem and Ramdas Pophale) SiO2 
 PCOD8223569
Probable space group: P C C A
;
_chemical_formula_sum "Si O2"
_cell_formula_units_Z 32
_cell_length_a 12.580425
_cell_length_b 20.555828
_cell_length_c 5.251333
_cell_angle_alpha 90.000000
_cell_angle_beta 90.000000
_cell_angle_gamma 90.000000
_cell_volume 1358.000241
_symmetry_space_group_name_H-M "P C C A"
_symmetry_group_IT_number 54
_symmetry_cell_setting 'orthorhombic'
loop_
_space_group_symop_operation_xyz
x,y,z
1/2-x,-y,z
1/2+x,-y,1/2-z
-x,y,1/2-z
-x,-y,-z
1/2+x,y,-z
1/2-x,y,1/2+z
x,-y,1/2+z
loop_
_atom_site_type_symbol
_atom_site_label
_atom_site_fract_x
_atom_site_fract_y
_atom_site_fract_z
Si Si1 0.184664 0.213049 0.350541
Si Si2 0.701386 0.927904 0.458456
Si Si3 0.500000 0.456572 0.750000
Si Si4 0.000000 0.876482 0.750000
Si Si5 0.311986 0.638184 0.362959
O O1 0.275668 0.198614 0.560748
O O2 0.079835 0.169294 0.409383
O O3 0.147407 0.287722 0.353390
O O4 0.742966 0.892358 0.714295
O O5 0.573107 0.923959 0.430642
O O6 0.750000 0.000000 0.477826
O O7 0.500000 0.500000 0.500000
O O8 0.600568 0.410646 0.735341
O O9 0.282020 0.625508 0.657748
#
# Coordination Sequence:
#
# PCOD8223569 Si02
#       5
#     8   8   4   4   8
#     4  10  23  41  63  93 120 154 208 255 304 369
#     4  10  24  42  60  89 122 157 204 243 294 369
#     4  12  25  38  60  94 124 161 214 248 290 370
#     4  12  23  40  68  88 124 163 196 258 312 350
#     4  10  22  42  63  86 124 163 200 256 311 353
#
# _framework density 23.564060000000001
#
# number of rings (size 3 to 8) (size 9 to 14) (size 15 to 20)
#    0.000    1.500    0.000    3.750    0.000   11.000 
#    0.000    7.500    0.000    0.000    0.000    0.000 
#    0.000    0.000    0.000    0.000    0.000    0.000 
#
# Total GULP energy -396606.084226 kJ/mol
# GULP energy per Si atom -12393.940132 kJ/mol
# Density = 2.351043 g / cm^3
# Si number density = 23.564060 Si / 1000 Ang^3
#
#
#
# Elastic Constant Matrix: (Units=GPa)
#
#
# Indices 1 2 3 4 5 6 
#
# 1 130.8296 63.7916 13.7201 0.0000 0.0000 0.0000
# 2 63.7916 141.2699 42.0853 0.0000 0.0000 0.0000
# 3 13.7201 42.0853 133.3675 0.0000 0.0000 0.0000
# 4 0.0000 0.0000 0.0000 39.5602 0.0000 0.0000
# 5 0.0000 0.0000 0.0000 0.0000 24.7183 0.0000
# 6 0.0000 0.0000 0.0000 0.0000 0.0000 65.9285
#
#
#
# Elastic Compliance Matrix: (Units=1/GPa)
#
#
# Indices 1 2 3 4 5 6 
#
# 1 0.009824 -0.004564 0.000430 0.000000 0.000000 0.000000
# 2 -0.004564 0.009934 -0.002665 0.000000 0.000000 0.000000
# 3 0.000430 -0.002665 0.008295 0.000000 0.000000 0.000000
# 4 0.000000 0.000000 0.000000 0.025278 0.000000 0.000000
# 5 0.000000 0.000000 0.000000 0.000000 0.040456 0.000000
# 6 0.000000 0.000000 0.000000 0.000000 0.000000 0.015168
#
#
# Mechanical properties :
#
#
# Convention : Reuss Voigt Hill
#
# Bulk Modulus (GPa) = 69.18872 71.62898 70.40885
# Shear Modulus (GPa) = 39.25545 45.09938 42.17741
#
# Velocity S-wave (km/s) = 4.08598 4.37957 4.23532
# Velocity P-wave (km/s) = 7.18930 7.48583 7.33906
#
# Compressibility (1/GPa) = 0.01445322
#
# Stress axis : x y z
#
# Youngs Moduli (GPa) = 101.79291 100.66923 120.55632
#
# Poissons Ratio (x) = 0.45946 -0.05179
# Poissons Ratio (y) = 0.46459 0.32129
# Poissons Ratio (z) = -0.04373 0.26829
#
# Static dielectric constant tensor:
#      x y z
#    x 4.024870 0.000000 0.000000 
#    y 0.000000 4.392270 0.000000 
#    z 0.000000 0.000000 5.331020 
# 
# 
# High freq. dielectric constant tensor:
#      x y z
#    x 1.914480 0.000000 0.000000 
#    y 0.000000 1.976630 0.000000 
#    z 0.000000 0.000000 1.949190 
# 
# From -- ./inp_files/160.got.cif
#   From: 2010.03.12/outbox.cif.g09.slc.cpg/sg54_1_cif.got.tgz:160.got - 2010.04.16 15:00:50.
