data_PCOD8223718
_publ_section_title
;
Structure prediction by ZEFSAII (Michael W. Deem and Ramdas Pophale) SiO2 
 PCOD8223718
Probable space group: P C C A
;
_chemical_formula_sum "Si O2"
_cell_formula_units_Z 56
_cell_length_a 16.208779
_cell_length_b 5.378640
_cell_length_c 29.758234
_cell_angle_alpha 90.000000
_cell_angle_beta 90.000000
_cell_angle_gamma 90.000000
_cell_volume 2594.358166
_symmetry_space_group_name_H-M "P C C A"
_symmetry_group_IT_number 54
_symmetry_cell_setting 'orthorhombic'
loop_
_space_group_symop_operation_xyz
x,y,z
1/2-x,-y,z
1/2+x,-y,1/2-z
-x,y,1/2-z
-x,-y,-z
1/2+x,y,-z
1/2-x,y,1/2+z
x,-y,1/2+z
loop_
_atom_site_type_symbol
_atom_site_label
_atom_site_fract_x
_atom_site_fract_y
_atom_site_fract_z
Si Si1 0.463525 0.154309 0.708013
Si Si2 0.841437 0.503361 0.943633
Si Si3 0.826222 0.179692 0.761436
Si Si4 0.971006 0.132679 0.633246
Si Si5 0.443278 0.005770 0.043081
Si Si6 0.627036 0.462549 0.343547
Si Si7 0.200591 0.739059 0.337278
O O1 0.500000 0.318573 0.750000
O O2 0.392223 0.274005 0.678424
O O3 0.417552 0.935073 0.735186
O O4 0.534507 0.071056 0.673229
O O5 0.750000 0.500000 0.965624
O O6 0.889174 0.256709 0.959560
O O7 0.826681 0.496911 0.890181
O O8 0.887775 0.757193 0.957060
O O9 0.812957 0.335083 0.807257
O O10 0.825355 0.328154 0.714180
O O11 0.750000 0.000000 0.758995
O O12 0.880178 0.250645 0.630513
O O13 0.997159 0.006062 0.586405
O O14 0.039687 0.329673 0.648004
O O15 0.500000 0.000000 0.000000
O O16 0.250000 0.500000 0.355886
O O17 0.250000 0.000000 0.341456
#
# Coordination Sequence:
#
# PCOD8223718 Si02
#       7
#     8   8   8   8   8   8   8
#     4  11  21  36  59  89 125 170 224 263 325 384
#     4  11  24  43  70 106 142 168 216 281 349 401
#     4  10  24  35  52  85 126 174 221 266 324 383
#     4  10  23  43  60  92 127 166 226 268 333 399
#     4  11  24  47  74 101 130 181 219 275 339 417
#     4  10  24  34  62  91 127 178 214 270 329 400
#     4  11  26  41  60  87 125 175 224 281 325 375
#
# _framework density 21.585301000000001
#
# number of rings (size 3 to 8) (size 9 to 14) (size 15 to 20)
#    0.000    1.429    2.857    0.857   10.000    0.000 
#    0.000    2.143    0.000    0.000    0.000    0.000 
#    0.000    0.000    0.000    0.000    0.000    0.000 
#
# Total GULP energy -693919.642382 kJ/mol
# GULP energy per Si atom -12391.422185 kJ/mol
# Density = 2.153617 g / cm^3
# Si number density = 21.585301 Si / 1000 Ang^3
#
#
#
# Elastic Constant Matrix: (Units=GPa)
#
#
# Indices 1 2 3 4 5 6 
#
# 1 135.9164 51.1847 57.1334 0.0000 0.0000 0.0000
# 2 51.1847 124.1000 39.9234 0.0000 0.0000 0.0000
# 3 57.1334 39.9234 109.1861 0.0000 0.0000 0.0000
# 4 0.0000 0.0000 0.0000 23.8149 0.0000 0.0000
# 5 0.0000 0.0000 0.0000 0.0000 24.2198 0.0000
# 6 0.0000 0.0000 0.0000 0.0000 0.0000 30.7809
#
#
#
# Elastic Compliance Matrix: (Units=1/GPa)
#
#
# Indices 1 2 3 4 5 6 
#
# 1 0.010242 -0.002833 -0.004323 0.000000 0.000000 0.000000
# 2 -0.002833 0.009916 -0.002143 0.000000 0.000000 0.000000
# 3 -0.004323 -0.002143 0.012204 0.000000 0.000000 0.000000
# 4 0.000000 0.000000 0.000000 0.041990 0.000000 0.000000
# 5 0.000000 0.000000 0.000000 0.000000 0.041289 0.000000
# 6 0.000000 0.000000 0.000000 0.000000 0.000000 0.032488
#
#
# Mechanical properties :
#
#
# Convention : Reuss Voigt Hill
#
# Bulk Modulus (GPa) = 72.65900 73.96504 73.31202
# Shear Modulus (GPa) = 29.18581 30.49386 29.83984
#
# Velocity S-wave (km/s) = 3.68110 3.76269 3.72212
# Velocity P-wave (km/s) = 7.19734 7.29506 7.24637
#
# Compressibility (1/GPa) = 0.01376292
#
# Stress axis : x y z
#
# Youngs Moduli (GPa) = 97.63946 100.84602 81.93723
#
# Poissons Ratio (x) = 0.28574 0.35423
# Poissons Ratio (y) = 0.27665 0.17560
# Poissons Ratio (z) = 0.42211 0.21613
#
# Static dielectric constant tensor:
#      x y z
#    x 3.828720 0.000000 0.000000 
#    y 0.000000 3.917000 0.000000 
#    z 0.000000 0.000000 3.979980 
# 
# 
# High freq. dielectric constant tensor:
#      x y z
#    x 1.858210 0.000000 0.000000 
#    y 0.000000 1.842830 0.000000 
#    z 0.000000 0.000000 1.830690 
# 
# From -- ./inp_files/28255.got.cif
#   From: 2010.03.12/outbox.cif.g09.slc.cpg/sg54_15_cif.got.tgz:28255.got - 2010.04.16 15:00:50.
