data_PCOD8223244
_publ_section_title
;
Structure prediction by ZEFSAII (Michael W. Deem and Ramdas Pophale) SiO2 
 PCOD8223244
Probable space group: P C C A
;
_chemical_formula_sum "Si O2"
_cell_formula_units_Z 44
_cell_length_a 9.720738
_cell_length_b 12.999657
_cell_length_c 16.145649
_cell_angle_alpha 90.000000
_cell_angle_beta 90.000000
_cell_angle_gamma 90.000000
_cell_volume 2040.265276
_symmetry_space_group_name_H-M "P C C A"
_symmetry_group_IT_number 54
_symmetry_cell_setting 'orthorhombic'
loop_
_space_group_symop_operation_xyz
x,y,z
1/2-x,-y,z
1/2+x,-y,1/2-z
-x,y,1/2-z
-x,-y,-z
1/2+x,y,-z
1/2-x,y,1/2+z
x,-y,1/2+z
loop_
_atom_site_type_symbol
_atom_site_label
_atom_site_fract_x
_atom_site_fract_y
_atom_site_fract_z
Si Si1 0.025358 0.362240 0.879058
Si Si2 0.253576 0.114959 0.541430
Si Si3 0.871304 0.174722 0.794515
Si Si4 0.473989 0.247168 0.961362
Si Si5 0.190274 0.307805 0.313421
Si Si6 0.000000 0.534326 0.750000
O O1 0.188588 0.350756 0.870517
O O2 0.938791 0.277747 0.830195
O O3 0.983901 0.469510 0.835742
O O4 0.994990 0.345885 0.977201
O O5 0.192008 0.104826 0.633984
O O6 0.403097 0.165536 0.538437
O O7 0.162164 0.186310 0.484744
O O8 0.250000 0.000000 0.504150
O O9 0.746097 0.206482 0.733926
O O10 0.000000 0.115139 0.750000
O O11 0.445900 0.285316 0.868421
O O12 0.138535 0.396332 0.250937
#
# Coordination Sequence:
#
# PCOD8223244 Si02
#       6
#     8   8   8   8   8   4
#     4  10  21  39  61  91 127 170 207 267 323 381
#     4  11  23  42  66  98 126 169 225 268 325 395
#     4   9  20  41  64  85 132 173 203 271 336 372
#     4  11  23  43  67  92 136 173 208 272 337 383
#     4  11  21  40  63  92 126 168 219 255 326 387
#     4  12  22  36  66  90 122 168 222 262 300 390
#
# _framework density 21.565823000000002
#
# number of rings (size 3 to 8) (size 9 to 14) (size 15 to 20)
#    0.000    1.455    4.545    2.182    0.000    0.727 
#    3.273    0.000    0.000    0.000    0.000    0.000 
#    0.000    0.000    0.000    0.000    0.000    0.000 
#
# Total GULP energy -545324.142617 kJ/mol
# GULP energy per Si atom -12393.730514 kJ/mol
# Density = 2.151674 g / cm^3
# Si number density = 21.565823 Si / 1000 Ang^3
#
#
#
# Elastic Constant Matrix: (Units=GPa)
#
#
# Indices 1 2 3 4 5 6 
#
# 1 98.4305 28.1722 9.3413 0.0000 0.0000 0.0000
# 2 28.1722 73.9675 15.4709 0.0000 0.0000 0.0000
# 3 9.3413 15.4709 65.2931 0.0000 0.0000 0.0000
# 4 0.0000 0.0000 0.0000 11.9166 0.0000 0.0000
# 5 0.0000 0.0000 0.0000 0.0000 36.2557 0.0000
# 6 0.0000 0.0000 0.0000 0.0000 0.0000 13.9574
#
#
#
# Elastic Compliance Matrix: (Units=1/GPa)
#
#
# Indices 1 2 3 4 5 6 
#
# 1 0.011427 -0.004220 -0.000635 0.000000 0.000000 0.000000
# 2 -0.004220 0.015782 -0.003136 0.000000 0.000000 0.000000
# 3 -0.000635 -0.003136 0.016149 0.000000 0.000000 0.000000
# 4 0.000000 0.000000 0.000000 0.083917 0.000000 0.000000
# 5 0.000000 0.000000 0.000000 0.000000 0.027582 0.000000
# 6 0.000000 0.000000 0.000000 0.000000 0.000000 0.071646
#
#
# Mechanical properties :
#
#
# Convention : Reuss Voigt Hill
#
# Bulk Modulus (GPa) = 36.52535 38.18444 37.35489
# Shear Modulus (GPa) = 19.87188 24.73971 22.30579
#
# Velocity S-wave (km/s) = 3.03884 3.39067 3.21956
# Velocity P-wave (km/s) = 5.41167 5.75094 5.58388
#
# Compressibility (1/GPa) = 0.02737825
#
# Stress axis : x y z
#
# Youngs Moduli (GPa) = 87.50879 63.36144 61.92156
#
# Poissons Ratio (x) = 0.26736 0.03932
# Poissons Ratio (y) = 0.36925 0.19418
# Poissons Ratio (z) = 0.05557 0.19870
#
# Static dielectric constant tensor:
#      x y z
#    x 4.115760 0.000000 0.000000 
#    y 0.000000 3.560800 0.000000 
#    z 0.000000 0.000000 4.188870 
# 
# 
# High freq. dielectric constant tensor:
#      x y z
#    x 1.863790 0.000000 0.000000 
#    y 0.000000 1.815990 0.000000 
#    z 0.000000 0.000000 1.844550 
# 
# From -- ./inp_files/16547.got.cif
#   From: 2010.03.12/outbox.cif.g09.slc.cpg/sg54_9_cif.got.tgz:16547.got - 2010.04.16 15:00:50.
