data_PCOD8223303
_publ_section_title
;
Structure prediction by ZEFSAII (Michael W. Deem and Ramdas Pophale) SiO2 
 PCOD8223303
Probable space group: P C C A
;
_chemical_formula_sum "Si O2"
_cell_formula_units_Z 56
_cell_length_a 9.833463
_cell_length_b 12.689803
_cell_length_c 20.825575
_cell_angle_alpha 90.000000
_cell_angle_beta 90.000000
_cell_angle_gamma 90.000000
_cell_volume 2598.713301
_symmetry_space_group_name_H-M "P C C A"
_symmetry_group_IT_number 54
_symmetry_cell_setting 'orthorhombic'
loop_
_space_group_symop_operation_xyz
x,y,z
1/2-x,-y,z
1/2+x,-y,1/2-z
-x,y,1/2-z
-x,-y,-z
1/2+x,y,-z
1/2-x,y,1/2+z
x,-y,1/2+z
loop_
_atom_site_type_symbol
_atom_site_label
_atom_site_fract_x
_atom_site_fract_y
_atom_site_fract_z
Si Si1 0.719355 0.882808 0.092160
Si Si2 0.593722 0.694849 0.015248
Si Si3 0.970660 0.253443 0.619968
Si Si4 0.179683 0.389764 0.060704
Si Si5 0.862739 0.420551 0.717775
Si Si6 0.762715 0.737004 0.319049
Si Si7 0.644327 0.086450 0.735543
O O1 0.621272 0.809235 0.048177
O O2 0.869463 0.838721 0.102093
O O3 0.648796 0.885266 0.160933
O O4 0.750000 0.000000 0.063101
O O5 0.485245 0.615806 0.050360
O O6 0.536509 0.703992 0.944296
O O7 0.742651 0.641591 0.006018
O O8 0.895341 0.346863 0.657452
O O9 0.091175 0.208351 0.665620
O O10 0.250000 0.500000 0.083206
O O11 0.196249 0.301672 0.115091
O O12 0.750000 0.500000 0.690287
O O13 0.785270 0.362134 0.774254
O O14 0.000000 0.470870 0.750000
O O15 0.662565 0.813725 0.281557
O O16 0.500000 0.035694 0.750000
O O17 0.750000 0.000000 0.756535
#
# Coordination Sequence:
#
# PCOD8223303 Si02
#       7
#     8   8   8   8   8   8   8
#     4  11  24  43  70  97 133 174 231 284 342 412
#     4  11  23  45  66  95 134 176 226 278 336 404
#     4  10  22  43  65  96 130 177 217 283 337 397
#     4  11  23  42  66  96 134 177 223 275 336 406
#     4  10  21  40  64  94 132 173 220 275 343 402
#     4  10  22  41  66  91 135 169 223 275 331 406
#     4  11  25  41  68 101 133 178 220 280 351 407
#
# _framework density 21.549123999999999
#
# number of rings (size 3 to 8) (size 9 to 14) (size 15 to 20)
#    0.000    1.429    2.857    1.714    4.000    1.714 
#   10.286    1.429    0.000    0.000    0.000    0.000 
#    0.000    0.000    0.000    0.000    0.000    0.000 
#
# Total GULP energy -693841.687688 kJ/mol
# GULP energy per Si atom -12390.030137 kJ/mol
# Density = 2.150008 g / cm^3
# Si number density = 21.549124 Si / 1000 Ang^3
#
#
#
# Elastic Constant Matrix: (Units=GPa)
#
#
# Indices 1 2 3 4 5 6 
#
# 1 113.4000 36.0418 11.4849 0.0000 0.0000 0.0000
# 2 36.0418 75.8191 12.1772 0.0000 0.0000 0.0000
# 3 11.4849 12.1772 55.8758 0.0000 0.0000 0.0000
# 4 0.0000 0.0000 0.0000 11.4620 0.0000 0.0000
# 5 0.0000 0.0000 0.0000 0.0000 -25.1361 0.0000
# 6 0.0000 0.0000 0.0000 0.0000 0.0000 38.4229
#
#
#
# Elastic Compliance Matrix: (Units=1/GPa)
#
#
# Indices 1 2 3 4 5 6 
#
# 1 0.010453 -0.004792 -0.001104 0.000000 0.000000 0.000000
# 2 -0.004792 0.015864 -0.002472 0.000000 0.000000 0.000000
# 3 -0.001104 -0.002472 0.018663 0.000000 0.000000 0.000000
# 4 0.000000 0.000000 0.000000 0.087245 0.000000 0.000000
# 5 0.000000 0.000000 0.000000 0.000000 -0.039783 0.000000
# 6 0.000000 0.000000 0.000000 0.000000 0.000000 0.026026
#
#
# Mechanical properties :
#
#
# Convention : Reuss Voigt Hill
#
# Bulk Modulus (GPa) = 35.40690 40.50032 37.95361
# Shear Modulus (GPa) = 34.57365 17.30914 25.94140
#
# Velocity S-wave (km/s) = 4.00986 2.83723 3.47338
# Velocity P-wave (km/s) = 6.15671 5.43768 5.80833
#
# Compressibility (1/GPa) = 0.02824308
#
# Stress axis : x y z
#
# Youngs Moduli (GPa) = 95.66512 63.03499 53.58294
#
# Poissons Ratio (x) = 0.30205 0.05917
# Poissons Ratio (y) = 0.45840 0.13248
# Poissons Ratio (z) = 0.10564 0.15585
#
# Static dielectric constant tensor:
#      x y z
#    x 4.041500 0.000000 0.000000 
#    y 0.000000 3.787520 0.000000 
#    z 0.000000 0.000000 4.117600 
# 
# 
# High freq. dielectric constant tensor:
#      x y z
#    x 1.864100 0.000000 0.000000 
#    y 0.000000 1.825810 0.000000 
#    z 0.000000 0.000000 1.852070 
# 
# From -- ./inp_files/21190.got.cif
#   From: 2010.03.12/outbox.cif.g09.slc.cpg/sg54_11_cif.got.tgz:21190.got - 2010.04.16 15:00:50.
