data_PCOD8223828
_publ_section_title
;
Structure prediction by ZEFSAII (Michael W. Deem and Ramdas Pophale) SiO2 
 PCOD8223828
Probable space group: P C C A
;
_chemical_formula_sum "Si O2"
_cell_formula_units_Z 40
_cell_length_a 8.901494
_cell_length_b 9.751046
_cell_length_c 21.488707
_cell_angle_alpha 90.000000
_cell_angle_beta 90.000000
_cell_angle_gamma 90.000000
_cell_volume 1865.195646
_symmetry_space_group_name_H-M "P C C A"
_symmetry_group_IT_number 54
_symmetry_cell_setting 'orthorhombic'
loop_
_space_group_symop_operation_xyz
x,y,z
1/2-x,-y,z
1/2+x,-y,1/2-z
-x,y,1/2-z
-x,-y,-z
1/2+x,y,-z
1/2-x,y,1/2+z
x,-y,1/2+z
loop_
_atom_site_type_symbol
_atom_site_label
_atom_site_fract_x
_atom_site_fract_y
_atom_site_fract_z
Si Si1 0.957324 0.232030 0.139255
Si Si2 0.618133 0.896281 0.476183
Si Si3 0.383028 0.784933 0.892224
Si Si4 0.927578 0.021426 0.810232
Si Si5 0.422901 0.525414 0.814541
O O1 0.781921 0.196000 0.135386
O O2 0.994908 0.387325 0.157869
O O3 0.057917 0.198512 0.078891
O O4 0.011121 0.132870 0.193654
O O5 0.647346 0.791386 0.533628
O O6 0.750000 0.000000 0.454676
O O7 0.500000 0.000000 0.500000
O O8 0.447682 0.639469 0.868211
O O9 0.503796 0.901193 0.870885
O O10 0.000000 0.098522 0.750000
O O11 0.750000 0.000000 0.810909
O O12 0.250000 0.500000 0.799327
O O13 0.500000 0.570837 0.750000
#
# Coordination Sequence:
#
# PCOD8223828 Si02
#       5
#     8   8   8   8   8
#     4  11  23  41  65  93 129 168 214 267 323 382
#     4  12  22  40  67  98 132 167 215 270 322 381
#     4  11  23  42  65  91 129 172 211 267 326 380
#     4  12  24  38  62  92 123 164 218 268 325 387
#     4  10  24  45  65  92 130 171 214 267 323 385
#
# _framework density 21.445471999999999
#
# number of rings (size 3 to 8) (size 9 to 14) (size 15 to 20)
#    0.000    0.800    4.000    3.600    0.000    5.600 
#    0.000    0.000    0.000    0.000    0.000    0.000 
#    0.000    0.000    0.000    0.000    0.000    0.000 
#
# Total GULP energy -495586.114308 kJ/mol
# GULP energy per Si atom -12389.652858 kJ/mol
# Density = 2.139666 g / cm^3
# Si number density = 21.445472 Si / 1000 Ang^3
#
#
#
# Elastic Constant Matrix: (Units=GPa)
#
#
# Indices 1 2 3 4 5 6 
#
# 1 109.7628 39.7856 19.4359 0.0000 0.0000 0.0000
# 2 39.7856 132.1070 33.0684 0.0000 0.0000 0.0000
# 3 19.4359 33.0684 104.0331 0.0000 0.0000 0.0000
# 4 0.0000 0.0000 0.0000 25.0265 0.0000 0.0000
# 5 0.0000 0.0000 0.0000 0.0000 28.0080 0.0000
# 6 0.0000 0.0000 0.0000 0.0000 0.0000 23.5467
#
#
#
# Elastic Compliance Matrix: (Units=1/GPa)
#
#
# Indices 1 2 3 4 5 6 
#
# 1 0.010326 -0.002854 -0.001022 0.000000 0.000000 0.000000
# 2 -0.002854 0.009013 -0.002332 0.000000 0.000000 0.000000
# 3 -0.001022 -0.002332 0.010544 0.000000 0.000000 0.000000
# 4 0.000000 0.000000 0.000000 0.039958 0.000000 0.000000
# 5 0.000000 0.000000 0.000000 0.000000 0.035704 0.000000
# 6 0.000000 0.000000 0.000000 0.000000 0.000000 0.042469
#
#
# Mechanical properties :
#
#
# Convention : Reuss Voigt Hill
#
# Bulk Modulus (GPa) = 57.24759 58.94252 58.09505
# Shear Modulus (GPa) = 30.07492 32.22378 31.14935
#
# Velocity S-wave (km/s) = 3.74891 3.88053 3.81529
# Velocity P-wave (km/s) = 6.74474 6.90091 6.82327
#
# Compressibility (1/GPa) = 0.01746798
#
# Stress axis : x y z
#
# Youngs Moduli (GPa) = 96.84296 110.95349 94.83704
#
# Poissons Ratio (x) = 0.31666 0.09692
# Poissons Ratio (y) = 0.27639 0.22113
# Poissons Ratio (z) = 0.09897 0.25870
#
# Static dielectric constant tensor:
#      x y z
#    x 3.842260 0.000000 0.000000 
#    y 0.000000 3.923610 0.000000 
#    z 0.000000 0.000000 4.480530 
# 
# 
# High freq. dielectric constant tensor:
#      x y z
#    x 1.850220 0.000000 0.000000 
#    y 0.000000 1.835200 0.000000 
#    z 0.000000 0.000000 1.854640 
# 
# From -- ./inp_files/23215.got.cif
#   From: 2010.03.12/outbox.cif.g09.slc.cpg/sg54_12_cif.got.tgz:23215.got - 2010.04.16 15:00:50.
