data_PCOD8223004
_publ_section_title
;
Structure prediction by ZEFSAII (Michael W. Deem and Ramdas Pophale) SiO2 
 PCOD8223004
Probable space group: P C C A
;
_chemical_formula_sum "Si O2"
_cell_formula_units_Z 64
_cell_length_a 9.033742
_cell_length_b 14.105572
_cell_length_c 23.010812
_cell_angle_alpha 90.000000
_cell_angle_beta 90.000000
_cell_angle_gamma 90.000000
_cell_volume 2932.177990
_symmetry_space_group_name_H-M "P C C A"
_symmetry_group_IT_number 54
_symmetry_cell_setting 'orthorhombic'
loop_
_space_group_symop_operation_xyz
x,y,z
1/2-x,-y,z
1/2+x,-y,1/2-z
-x,y,1/2-z
-x,-y,-z
1/2+x,y,-z
1/2-x,y,1/2+z
x,-y,1/2+z
loop_
_atom_site_type_symbol
_atom_site_label
_atom_site_fract_x
_atom_site_fract_y
_atom_site_fract_z
Si Si1 0.198747 0.206458 0.058585
Si Si2 0.338638 0.765247 0.760564
Si Si3 0.348225 0.413045 0.783165
Si Si4 0.654228 0.386209 0.579393
Si Si5 0.353144 0.418882 0.522504
Si Si6 0.173849 0.089281 0.854601
Si Si7 0.837547 0.096834 0.843029
Si Si8 0.871814 0.828277 0.552226
O O1 0.184433 0.319448 0.053446
O O2 0.265708 0.181728 0.120541
O O3 0.045877 0.148412 0.051009
O O4 0.316754 0.167906 0.013160
O O5 0.500000 0.718370 0.750000
O O6 0.217340 0.683634 0.756028
O O7 0.315725 0.809074 0.823947
O O8 0.327471 0.858790 0.720768
O O9 0.250000 0.500000 0.762232
O O10 0.500000 0.426666 0.750000
O O11 0.358882 0.418588 0.853705
O O12 0.528193 0.435031 0.536657
O O13 0.810960 0.413371 0.547415
O O14 0.641943 0.274342 0.581136
O O15 0.250000 0.500000 0.551969
O O16 0.272746 0.096865 0.912808
O O17 0.001034 0.069993 0.865328
O O18 0.250000 0.000000 0.820692
O O19 0.750000 0.000000 0.846138
#
# Coordination Sequence:
#
# PCOD8223004 Si02
#       8
#     8   8   8   8   8   8   8   8
#     4  10  22  38  62  93 134 168 219 267 334 399
#     4  10  24  46  68  94 129 170 224 275 330 395
#     4  12  27  46  69  99 142 186 232 276 338 397
#     4  10  22  42  66  98 137 179 223 280 331 399
#     4  10  21  39  64 100 133 175 223 270 334 392
#     4  11  22  40  67  94 126 167 213 272 338 396
#     4  11  24  42  66  98 128 167 221 275 335 404
#     4  10  20  39  61  94 131 174 213 269 335 401
#
# _framework density 21.826777
#
# number of rings (size 3 to 8) (size 9 to 14) (size 15 to 20)
#    0.000    1.500    1.250    3.000    3.500    3.000 
#    4.500    2.500    0.000    0.000    0.000    0.000 
#    0.000    0.000    0.000    0.000    0.000    0.000 
#
# Total GULP energy -793195.608979 kJ/mol
# GULP energy per Si atom -12393.681390 kJ/mol
# Density = 2.177710 g / cm^3
# Si number density = 21.826777 Si / 1000 Ang^3
#
#
#
# Elastic Constant Matrix: (Units=GPa)
#
#
# Indices 1 2 3 4 5 6 
#
# 1 164.8187 54.8040 44.7127 0.0000 0.0000 0.0000
# 2 54.8040 85.8092 25.0048 0.0000 0.0000 0.0000
# 3 44.7127 25.0048 80.6276 0.0000 0.0000 0.0000
# 4 0.0000 0.0000 0.0000 9.9793 0.0000 0.0000
# 5 0.0000 0.0000 0.0000 0.0000 26.9370 0.0000
# 6 0.0000 0.0000 0.0000 0.0000 0.0000 39.5467
#
#
#
# Elastic Compliance Matrix: (Units=1/GPa)
#
#
# Indices 1 2 3 4 5 6 
#
# 1 0.008435 -0.004424 -0.003306 0.000000 0.000000 0.000000
# 2 -0.004424 0.015132 -0.002239 0.000000 0.000000 0.000000
# 3 -0.003306 -0.002239 0.014930 0.000000 0.000000 0.000000
# 4 0.000000 0.000000 0.000000 0.100207 0.000000 0.000000
# 5 0.000000 0.000000 0.000000 0.000000 0.037124 0.000000
# 6 0.000000 0.000000 0.000000 0.000000 0.000000 0.025287
#
#
# Mechanical properties :
#
#
# Convention : Reuss Voigt Hill
#
# Bulk Modulus (GPa) = 53.88216 64.47761 59.17988
# Shear Modulus (GPa) = 22.00324 29.07486 25.53905
#
# Velocity S-wave (km/s) = 3.17848 3.65372 3.42435
# Velocity P-wave (km/s) = 6.18144 6.88508 6.54272
#
# Compressibility (1/GPa) = 0.01855902
#
# Stress axis : x y z
#
# Youngs Moduli (GPa) = 118.55238 66.08596 66.97723
#
# Poissons Ratio (x) = 0.29236 0.22141
# Poissons Ratio (y) = 0.52447 0.14999
# Poissons Ratio (z) = 0.39191 0.14800
#
# Static dielectric constant tensor:
#      x y z
#    x 4.169780 0.000000 0.000000 
#    y 0.000000 3.951390 0.000000 
#    z 0.000000 0.000000 3.737030 
# 
# 
# High freq. dielectric constant tensor:
#      x y z
#    x 1.869140 0.000000 0.000000 
#    y 0.000000 1.873510 0.000000 
#    z 0.000000 0.000000 1.843780 
# 
# From -- ./inp_files/23666.got.cif
#   From: 2010.03.12/outbox.cif.g09.slc.cpg/sg54_12_cif.got.tgz:23666.got - 2010.04.16 15:00:50.
