data_PCOD8223269
_publ_section_title
;
Structure prediction by ZEFSAII (Michael W. Deem and Ramdas Pophale) SiO2 
 PCOD8223269
Probable space group: P C C A
;
_chemical_formula_sum "Si O2"
_cell_formula_units_Z 48
_cell_length_a 24.467117
_cell_length_b 5.251070
_cell_length_c 18.270874
_cell_angle_alpha 90.000000
_cell_angle_beta 90.000000
_cell_angle_gamma 90.000000
_cell_volume 2347.415290
_symmetry_space_group_name_H-M "P C C A"
_symmetry_group_IT_number 54
_symmetry_cell_setting 'orthorhombic'
loop_
_space_group_symop_operation_xyz
x,y,z
1/2-x,-y,z
1/2+x,-y,1/2-z
-x,y,1/2-z
-x,-y,-z
1/2+x,y,-z
1/2-x,y,1/2+z
x,-y,1/2+z
loop_
_atom_site_type_symbol
_atom_site_label
_atom_site_fract_x
_atom_site_fract_y
_atom_site_fract_z
Si Si1 0.811976 0.001638 0.095437
Si Si2 0.313011 0.499114 0.495710
Si Si3 0.480467 0.792420 0.445039
Si Si4 0.579367 0.513848 0.927656
Si Si5 0.905391 0.852327 0.691795
Si Si6 0.061430 0.650651 0.230034
O O1 0.825084 0.722038 0.063295
O O2 0.750000 0.000000 0.120878
O O3 0.824961 0.220648 0.035957
O O4 0.844575 0.065472 0.168946
O O5 0.250000 0.500000 0.524401
O O6 0.356389 0.447143 0.561267
O O7 0.444793 0.599744 0.493901
O O8 0.537141 0.708979 0.406580
O O9 0.441715 0.882684 0.380642
O O10 0.500000 0.000000 0.500000
O O11 0.574886 0.687500 0.855857
O O12 0.903677 0.573071 0.729627
O O13 0.926812 0.064547 0.745955
O O14 0.000000 0.573902 0.250000
#
# Coordination Sequence:
#
# PCOD8223269 Si02
#       6
#     8   8   8   8   8   8
#     4  10  21  40  66  94 123 162 217 270 313 370
#     4  10  21  39  65  94 125 161 212 272 323 367
#     4  11  23  38  67  91 122 162 222 266 304 376
#     4  11  24  40  61  98 125 167 212 268 316 380
#     4  12  24  42  63  92 127 169 212 254 319 387
#     4  12  26  42  60  92 137 173 202 256 336 385
#
# _framework density 20.448021000000001
#
# number of rings (size 3 to 8) (size 9 to 14) (size 15 to 20)
#    0.000    1.000    3.333    3.500    4.667    0.000 
#    0.000    1.667    0.000    0.000    0.000    0.000 
#    0.000    0.000    0.000    0.000    0.000    0.000 
#
# Total GULP energy -594671.404116 kJ/mol
# GULP energy per Si atom -12388.987586 kJ/mol
# Density = 2.040148 g / cm^3
# Si number density = 20.448021 Si / 1000 Ang^3
#
#
#
# Elastic Constant Matrix: (Units=GPa)
#
#
# Indices 1 2 3 4 5 6 
#
# 1 123.3526 9.0866 37.8620 0.0000 0.0000 0.0000
# 2 9.0866 83.2337 10.9203 0.0000 0.0000 0.0000
# 3 37.8620 10.9203 89.7816 0.0000 0.0000 0.0000
# 4 0.0000 0.0000 0.0000 34.0395 0.0000 0.0000
# 5 0.0000 0.0000 0.0000 0.0000 19.6407 0.0000
# 6 0.0000 0.0000 0.0000 0.0000 0.0000 19.2194
#
#
#
# Elastic Compliance Matrix: (Units=1/GPa)
#
#
# Indices 1 2 3 4 5 6 
#
# 1 0.009334 -0.000511 -0.003874 0.000000 0.000000 0.000000
# 2 -0.000511 0.012237 -0.001273 0.000000 0.000000 0.000000
# 3 -0.003874 -0.001273 0.012927 0.000000 0.000000 0.000000
# 4 0.000000 0.000000 0.000000 0.029378 0.000000 0.000000
# 5 0.000000 0.000000 0.000000 0.000000 0.050915 0.000000
# 6 0.000000 0.000000 0.000000 0.000000 0.000000 0.052031
#
#
# Mechanical properties :
#
#
# Convention : Reuss Voigt Hill
#
# Bulk Modulus (GPa) = 43.13698 45.78953 44.46325
# Shear Modulus (GPa) = 26.90151 30.47985 28.69068
#
# Velocity S-wave (km/s) = 3.63106 3.86502 3.74987
# Velocity P-wave (km/s) = 6.22264 6.50842 6.36713
#
# Compressibility (1/GPa) = 0.02318197
#
# Stress axis : x y z
#
# Youngs Moduli (GPa) = 107.14058 81.71841 77.35942
#
# Poissons Ratio (x) = 0.04173 0.29969
# Poissons Ratio (y) = 0.05471 0.09848
# Poissons Ratio (z) = 0.41506 0.10403
#
# Static dielectric constant tensor:
#      x y z
#    x 3.995130 0.000000 0.000000 
#    y 0.000000 3.742270 0.000000 
#    z 0.000000 0.000000 3.108880 
# 
# 
# High freq. dielectric constant tensor:
#      x y z
#    x 1.807990 0.000000 0.000000 
#    y 0.000000 1.806300 0.000000 
#    z 0.000000 0.000000 1.785150 
# 
# From -- ./inp_files/19056.got.cif
#   From: 2010.03.12/outbox.cif.g09.slc.cpg/sg54_10_cif.got.tgz:19056.got - 2010.04.16 15:00:50.
