data_PCOD8223780
_publ_section_title
;
Structure prediction by ZEFSAII (Michael W. Deem and Ramdas Pophale) SiO2 
 PCOD8223780
Probable space group: P C C A
;
_chemical_formula_sum "Si O2"
_cell_formula_units_Z 44
_cell_length_a 14.677527
_cell_length_b 5.202057
_cell_length_c 27.186688
_cell_angle_alpha 90.000000
_cell_angle_beta 90.000000
_cell_angle_gamma 90.000000
_cell_volume 2075.794217
_symmetry_space_group_name_H-M "P C C A"
_symmetry_group_IT_number 54
_symmetry_cell_setting 'orthorhombic'
loop_
_space_group_symop_operation_xyz
x,y,z
1/2-x,-y,z
1/2+x,-y,1/2-z
-x,y,1/2-z
-x,-y,-z
1/2+x,y,-z
1/2-x,y,1/2+z
x,-y,1/2+z
loop_
_atom_site_type_symbol
_atom_site_label
_atom_site_fract_x
_atom_site_fract_y
_atom_site_fract_z
Si Si1 0.605546 0.551415 0.494440
Si Si2 0.948460 0.443193 0.198767
Si Si3 0.677909 0.812376 0.582783
Si Si4 0.350538 0.944550 0.564831
Si Si5 0.250000 0.500000 0.829776
Si Si6 0.990253 0.052632 0.637388
O O1 0.500000 0.500000 0.500000
O O2 0.654579 0.568973 0.547948
O O3 0.652534 0.325535 0.464067
O O4 0.614004 0.829760 0.469946
O O5 0.837582 0.425100 0.204041
O O6 0.974178 0.694746 0.169000
O O7 0.000000 0.456914 0.250000
O O8 0.986728 0.197178 0.170853
O O9 0.722522 0.733713 0.634687
O O10 0.584578 0.966419 0.593934
O O11 0.750000 0.000000 0.555462
O O12 0.411053 0.924253 0.613362
O O13 0.250000 0.000000 0.584337
#
# Coordination Sequence:
#
# PCOD8223780 Si02
#       6
#     8   8   8   8   4   8
#     4  12  26  41  66  97 137 186 232 284 331 394
#     4  11  24  46  72 103 135 167 225 286 355 416
#     4  11  23  39  68  98 141 169 232 277 346 386
#     4  12  27  46  62  96 142 186 237 270 333 407
#     4  10  24  40  68 102 132 172 218 282 344 412
#     4  11  24  45  69  96 134 183 217 284 339 407
#
# _framework density 21.196705000000001
#
# number of rings (size 3 to 8) (size 9 to 14) (size 15 to 20)
#    0.000    0.727    3.636    3.273    7.636    0.000 
#    3.273    0.000    0.000    0.000    0.000    0.000 
#    0.000    0.000    0.000    0.000    0.000    0.000 
#
# Total GULP energy -545737.066851 kJ/mol
# GULP energy per Si atom -12403.115156 kJ/mol
# Density = 2.114846 g / cm^3
# Si number density = 21.196705 Si / 1000 Ang^3
#
#
#
# Elastic Constant Matrix: (Units=GPa)
#
#
# Indices 1 2 3 4 5 6 
#
# 1 193.8852 45.0363 80.8855 0.0000 0.0000 0.0000
# 2 45.0363 137.6906 50.3738 0.0000 0.0000 0.0000
# 3 80.8855 50.3738 108.7874 0.0000 0.0000 0.0000
# 4 0.0000 0.0000 0.0000 31.1978 0.0000 0.0000
# 5 0.0000 0.0000 0.0000 0.0000 37.9576 0.0000
# 6 0.0000 0.0000 0.0000 0.0000 0.0000 36.5692
#
#
#
# Elastic Compliance Matrix: (Units=1/GPa)
#
#
# Indices 1 2 3 4 5 6 
#
# 1 0.007505 -0.000498 -0.005350 0.000000 0.000000 0.000000
# 2 -0.000498 0.008777 -0.003694 0.000000 0.000000 0.000000
# 3 -0.005350 -0.003694 0.014880 0.000000 0.000000 0.000000
# 4 0.000000 0.000000 0.000000 0.032054 0.000000 0.000000
# 5 0.000000 0.000000 0.000000 0.000000 0.026345 0.000000
# 6 0.000000 0.000000 0.000000 0.000000 0.000000 0.027345
#
#
# Mechanical properties :
#
#
# Convention : Reuss Voigt Hill
#
# Bulk Modulus (GPa) = 82.78537 88.10604 85.44570
# Shear Modulus (GPa) = 35.71014 38.74941 37.22978
#
# Velocity S-wave (km/s) = 4.10897 4.28025 4.19548
# Velocity P-wave (km/s) = 7.85188 8.12918 7.99173
#
# Compressibility (1/GPa) = 0.01207943
#
# Stress axis : x y z
#
# Youngs Moduli (GPa) = 133.24258 113.93519 67.20210
#
# Poissons Ratio (x) = 0.05669 0.35952
# Poissons Ratio (y) = 0.06630 0.24826
# Poissons Ratio (z) = 0.71282 0.42090
#
# Static dielectric constant tensor:
#      x y z
#    x 4.304540 0.000000 0.000000 
#    y 0.000000 4.033360 0.000000 
#    z 0.000000 0.000000 3.651110 
# 
# 
# High freq. dielectric constant tensor:
#      x y z
#    x 1.853790 0.000000 0.000000 
#    y 0.000000 1.849660 0.000000 
#    z 0.000000 0.000000 1.801870 
# 
# From -- ./inp_files/26390.got.cif
#   From: 2010.03.12/outbox.cif.g09.slc.cpg/sg54_14_cif.got.tgz:26390.got - 2010.04.16 15:00:50.
