data_PCOD8223083
_publ_section_title
;
Structure prediction by ZEFSAII (Michael W. Deem and Ramdas Pophale) SiO2 
 PCOD8223083
Probable space group: P C C A
;
_chemical_formula_sum "Si O2"
_cell_formula_units_Z 64
_cell_length_a 17.094142
_cell_length_b 15.597941
_cell_length_c 10.763519
_cell_angle_alpha 90.000000
_cell_angle_beta 90.000000
_cell_angle_gamma 90.000000
_cell_volume 2869.913865
_symmetry_space_group_name_H-M "P C C A"
_symmetry_group_IT_number 54
_symmetry_cell_setting 'orthorhombic'
loop_
_space_group_symop_operation_xyz
x,y,z
1/2-x,-y,z
1/2+x,-y,1/2-z
-x,y,1/2-z
-x,-y,-z
1/2+x,y,-z
1/2-x,y,1/2+z
x,-y,1/2+z
loop_
_atom_site_type_symbol
_atom_site_label
_atom_site_fract_x
_atom_site_fract_y
_atom_site_fract_z
Si Si1 0.590680 0.832526 0.255341
Si Si2 0.626489 0.723461 0.695852
Si Si3 0.882966 0.150269 0.913467
Si Si4 0.590616 0.018996 0.219069
Si Si5 0.591992 0.468357 0.258795
Si Si6 0.202233 0.260341 0.407319
Si Si7 0.943647 0.154079 0.523319
Si Si8 0.330482 0.450077 0.975919
O O1 0.500000 0.809221 0.250000
O O2 0.638648 0.752205 0.202380
O O3 0.607531 0.845005 0.400047
O O4 0.619645 0.922456 0.191566
O O5 0.600326 0.772549 0.818732
O O6 0.618281 0.623472 0.711408
O O7 0.714078 0.746081 0.654915
O O8 0.567062 0.754098 0.589123
O O9 0.864888 0.063349 0.836604
O O10 0.962785 0.139057 0.996232
O O11 0.810636 0.179805 0.998911
O O12 0.500000 0.011986 0.250000
O O13 0.598992 0.078247 0.099154
O O14 0.500000 0.481560 0.250000
O O15 0.619648 0.480379 0.402602
O O16 0.629583 0.533336 0.158364
O O17 0.186779 0.348501 0.481140
O O18 0.250000 0.500000 0.983721
#
# Coordination Sequence:
#
# PCOD8223083 Si02
#       8
#     8   8   8   8   8   8   8   8
#     4  11  23  37  65 103 139 177 229 293 343 397
#     4  11  24  42  68  92 129 183 223 270 348 420
#     4  10  20  42  66  92 131 175 232 278 333 405
#     4   8  19  36  65  96 131 183 228 277 337 410
#     4  12  26  47  76 107 140 182 239 297 355 429
#     4  12  26  41  68 100 138 178 229 285 345 423
#     4  10  21  40  65  97 131 178 234 283 338 409
#     4  12  27  49  73 106 145 193 232 292 370 439
#
# _framework density 22.300322000000001
#
# number of rings (size 3 to 8) (size 9 to 14) (size 15 to 20)
#    0.000    1.250    3.750    2.625    3.500    3.000 
#    0.000    2.500    0.000    0.000    0.000    0.000 
#    0.000    0.000    0.000    0.000    0.000    0.000 
#
# Total GULP energy -793265.431913 kJ/mol
# GULP energy per Si atom -12394.772374 kJ/mol
# Density = 2.224957 g / cm^3
# Si number density = 22.300322 Si / 1000 Ang^3
#
#
#
# Elastic Constant Matrix: (Units=GPa)
#
#
# Indices 1 2 3 4 5 6 
#
# 1 100.0997 26.0585 32.0409 0.0000 0.0000 0.0000
# 2 26.0585 74.7924 23.8031 0.0000 0.0000 0.0000
# 3 32.0409 23.8031 110.0178 0.0000 0.0000 0.0000
# 4 0.0000 0.0000 0.0000 26.6355 0.0000 0.0000
# 5 0.0000 0.0000 0.0000 0.0000 31.2867 0.0000
# 6 0.0000 0.0000 0.0000 0.0000 0.0000 26.3122
#
#
#
# Elastic Compliance Matrix: (Units=1/GPa)
#
#
# Indices 1 2 3 4 5 6 
#
# 1 0.011694 -0.003212 -0.002711 0.000000 0.000000 0.000000
# 2 -0.003212 0.015241 -0.002362 0.000000 0.000000 0.000000
# 3 -0.002711 -0.002362 0.010390 0.000000 0.000000 0.000000
# 4 0.000000 0.000000 0.000000 0.037544 0.000000 0.000000
# 5 0.000000 0.000000 0.000000 0.000000 0.031962 0.000000
# 6 0.000000 0.000000 0.000000 0.000000 0.000000 0.038005
#
#
# Mechanical properties :
#
#
# Convention : Reuss Voigt Hill
#
# Bulk Modulus (GPa) = 48.17930 49.85721 49.01826
# Shear Modulus (GPa) = 29.70464 30.38072 30.04268
#
# Velocity S-wave (km/s) = 3.65365 3.69500 3.67438
# Velocity P-wave (km/s) = 6.28097 6.37258 6.32694
#
# Compressibility (1/GPa) = 0.02075580
#
# Stress axis : x y z
#
# Youngs Moduli (GPa) = 85.51561 65.61219 96.24650
#
# Poissons Ratio (x) = 0.21071 0.26090
# Poissons Ratio (y) = 0.27464 0.22735
# Poissons Ratio (z) = 0.23181 0.15499
#
# Static dielectric constant tensor:
#      x y z
#    x 3.792050 0.000000 0.000000 
#    y 0.000000 4.271080 0.000000 
#    z 0.000000 0.000000 4.485070 
# 
# 
# High freq. dielectric constant tensor:
#      x y z
#    x 1.855910 0.000000 0.000000 
#    y 0.000000 1.875040 0.000000 
#    z 0.000000 0.000000 1.899610 
# 
# From -- ./inp_files/8560.got.cif
#   From: 2010.03.12/outbox.cif.g09.slc.cpg/sg54_5_cif.got.tgz:8560.got - 2010.04.16 15:00:50.
