data_PCOD8223725
_publ_section_title
;
Structure prediction by ZEFSAII (Michael W. Deem and Ramdas Pophale) SiO2 
 PCOD8223725
Probable space group: P C C A
;
_chemical_formula_sum "Si O2"
_cell_formula_units_Z 28
_cell_length_a 19.146623
_cell_length_b 7.605632
_cell_length_c 9.800016
_cell_angle_alpha 90.000000
_cell_angle_beta 90.000000
_cell_angle_gamma 90.000000
_cell_volume 1427.099582
_symmetry_space_group_name_H-M "P C C A"
_symmetry_group_IT_number 54
_symmetry_cell_setting 'orthorhombic'
loop_
_space_group_symop_operation_xyz
x,y,z
1/2-x,-y,z
1/2+x,-y,1/2-z
-x,y,1/2-z
-x,-y,-z
1/2+x,y,-z
1/2-x,y,1/2+z
x,-y,1/2+z
loop_
_atom_site_type_symbol
_atom_site_label
_atom_site_fract_x
_atom_site_fract_y
_atom_site_fract_z
Si Si1 0.450449 0.972412 0.625929
Si Si2 0.382948 0.665715 0.203517
Si Si3 0.384869 0.635015 0.512810
Si Si4 0.750000 0.500000 0.890299
O O1 0.500000 0.923015 0.750000
O O2 0.399598 0.812160 0.594575
O O3 0.500000 0.000000 0.500000
O O4 0.401584 0.139319 0.655817
O O5 0.412324 0.637553 0.357044
O O6 0.298982 0.629988 0.201387
O O7 0.419377 0.528430 0.097248
O O8 0.300507 0.616341 0.513534
#
# Coordination Sequence:
#
# PCOD8223725 Si02
#       4
#     8   8   8   4
#     4  12  26  43  62  98 133 169 217 258 323 388
#     4  10  23  43  68  96 129 170 214 268 322 380
#     4  10  23  43  68  95 129 170 210 275 317 383
#     4   8  22  42  70  98 122 166 222 260 338 362
#
# _framework density 19.620213
#
# number of rings (size 3 to 8) (size 9 to 14) (size 15 to 20)
#    1.714    0.000    2.857    0.857    4.000    3.429 
#    0.000    2.857    0.000    0.000    0.000    0.000 
#    0.000    0.000    0.000    0.000    0.000    0.000 
#
# Total GULP energy -346904.068870 kJ/mol
# GULP energy per Si atom -12389.431031 kJ/mol
# Density = 1.957556 g / cm^3
# Si number density = 19.620213 Si / 1000 Ang^3
#
#
#
# Elastic Constant Matrix: (Units=GPa)
#
#
# Indices 1 2 3 4 5 6 
#
# 1 69.1623 34.3483 21.1009 0.0000 0.0000 0.0000
# 2 34.3483 135.8772 54.4684 0.0000 0.0000 0.0000
# 3 21.1009 54.4684 147.5068 0.0000 0.0000 0.0000
# 4 0.0000 0.0000 0.0000 36.8195 0.0000 0.0000
# 5 0.0000 0.0000 0.0000 0.0000 16.7037 0.0000
# 6 0.0000 0.0000 0.0000 0.0000 0.0000 41.5789
#
#
#
# Elastic Compliance Matrix: (Units=1/GPa)
#
#
# Indices 1 2 3 4 5 6 
#
# 1 0.016652 -0.003820 -0.000972 0.000000 0.000000 0.000000
# 2 -0.003820 0.009515 -0.002967 0.000000 0.000000 0.000000
# 3 -0.000972 -0.002967 0.008014 0.000000 0.000000 0.000000
# 4 0.000000 0.000000 0.000000 0.027160 0.000000 0.000000
# 5 0.000000 0.000000 0.000000 0.000000 0.059867 0.000000
# 6 0.000000 0.000000 0.000000 0.000000 0.000000 0.024051
#
#
# Mechanical properties :
#
#
# Convention : Reuss Voigt Hill
#
# Bulk Modulus (GPa) = 53.57962 63.59793 58.58877
# Shear Modulus (GPa) = 29.94079 35.19568 32.56824
#
# Velocity S-wave (km/s) = 3.91067 4.23998 4.07865
# Velocity P-wave (km/s) = 6.91077 7.51364 7.21850
#
# Compressibility (1/GPa) = 0.01866381
#
# Stress axis : x y z
#
# Youngs Moduli (GPa) = 60.05168 105.10182 124.78350
#
# Poissons Ratio (x) = 0.40150 0.12123
# Poissons Ratio (y) = 0.22940 0.37022
# Poissons Ratio (z) = 0.05834 0.31183
#
# Static dielectric constant tensor:
#      x y z
#    x 3.381740 0.000000 0.000000 
#    y 0.000000 3.715410 0.000000 
#    z 0.000000 0.000000 3.751800 
# 
# 
# High freq. dielectric constant tensor:
#      x y z
#    x 1.754610 0.000000 0.000000 
#    y 0.000000 1.761530 0.000000 
#    z 0.000000 0.000000 1.774840 
# 
# From -- ./inp_files/3876.got.cif
#   From: 2010.03.12/outbox.cif.g09.slc.cpg/sg54_2_cif.got.tgz:3876.got - 2010.04.16 15:00:50.
