data_PCOD8223046
_publ_section_title
;
Structure prediction by ZEFSAII (Michael W. Deem and Ramdas Pophale) SiO2 
 PCOD8223046
Probable space group: P C C A
;
_chemical_formula_sum "Si O2"
_cell_formula_units_Z 48
_cell_length_a 9.713088
_cell_length_b 7.945124
_cell_length_c 29.224588
_cell_angle_alpha 90.000000
_cell_angle_beta 90.000000
_cell_angle_gamma 90.000000
_cell_volume 2255.310804
_symmetry_space_group_name_H-M "P C C A"
_symmetry_group_IT_number 54
_symmetry_cell_setting 'orthorhombic'
loop_
_space_group_symop_operation_xyz
x,y,z
1/2-x,-y,z
1/2+x,-y,1/2-z
-x,y,1/2-z
-x,-y,-z
1/2+x,y,-z
1/2-x,y,1/2+z
x,-y,1/2+z
loop_
_atom_site_type_symbol
_atom_site_label
_atom_site_fract_x
_atom_site_fract_y
_atom_site_fract_z
Si Si1 0.750000 0.500000 0.104070
Si Si2 0.304981 0.812602 0.037551
Si Si3 0.885085 0.723319 0.537255
Si Si4 0.500000 0.661167 0.750000
Si Si5 0.750000 0.500000 0.297966
Si Si6 0.926710 0.226184 0.653862
Si Si7 0.233392 0.804538 0.139094
Si Si8 0.250000 0.000000 0.900055
O O1 0.625184 0.561566 0.070587
O O2 0.681793 0.366099 0.137929
O O3 0.462298 0.779331 0.022064
O O4 0.308054 0.776302 0.091207
O O5 0.250000 0.000000 0.027436
O O6 0.202339 0.690972 0.009354
O O7 0.804091 0.859749 0.566432
O O8 0.380448 0.539456 0.733003
O O9 0.557997 0.778193 0.709014
O O10 0.796411 0.333045 0.326238
O O11 0.075796 0.249640 0.631725
O O12 0.873099 0.050189 0.634183
O O13 0.250000 0.000000 0.156307
#
# Coordination Sequence:
#
# PCOD8223046 Si02
#       8
#     4   8   8   4   4   8   8   4
#     4  10  25  41  64  96 134 178 220 263 345 396
#     4  11  23  38  63  95 133 172 226 274 322 390
#     4  11  24  38  64  92 133 179 221 271 326 387
#     4  10  22  44  68  98 126 170 216 274 342 394
#     4  10  23  45  70  94 136 174 212 283 341 402
#     4  10  22  44  67  94 134 166 222 276 332 412
#     4  10  23  42  67  97 133 177 224 271 335 398
#     4  10  20  40  66  92 128 176 214 270 334 390
#
# _framework density 21.283099
#
# number of rings (size 3 to 8) (size 9 to 14) (size 15 to 20)
#    0.000    1.667    0.833    3.000    9.333    1.333 
#    9.000    0.833    0.000    0.000    0.000    0.000 
#    0.000    0.000    0.000    0.000    0.000    0.000 
#
# Total GULP energy -594875.956276 kJ/mol
# GULP energy per Si atom -12393.249089 kJ/mol
# Density = 2.123466 g / cm^3
# Si number density = 21.283099 Si / 1000 Ang^3
#
#
#
# Elastic Constant Matrix: (Units=GPa)
#
#
# Indices 1 2 3 4 5 6 
#
# 1 105.2029 -7.6994 28.2935 0.0000 0.0000 0.0000
# 2 -7.6994 48.6864 24.6956 0.0000 0.0000 0.0000
# 3 28.2935 24.6956 100.1082 0.0000 0.0000 0.0000
# 4 0.0000 0.0000 0.0000 -63.7811 0.0000 0.0000
# 5 0.0000 0.0000 0.0000 0.0000 40.8883 0.0000
# 6 0.0000 0.0000 0.0000 0.0000 0.0000 32.9777
#
#
#
# Elastic Compliance Matrix: (Units=1/GPa)
#
#
# Indices 1 2 3 4 5 6 
#
# 1 0.010852 0.003740 -0.003990 0.000000 0.000000 0.000000
# 2 0.003740 0.024766 -0.007167 0.000000 0.000000 0.000000
# 3 -0.003990 -0.007167 0.012885 0.000000 0.000000 0.000000
# 4 0.000000 0.000000 0.000000 -0.015679 0.000000 0.000000
# 5 0.000000 0.000000 0.000000 0.000000 0.024457 0.000000
# 6 0.000000 0.000000 0.000000 0.000000 0.000000 0.030324
#
#
# Mechanical properties :
#
#
# Convention : Reuss Voigt Hill
#
# Bulk Modulus (GPa) = 29.69970 38.28632 33.99301
# Shear Modulus (GPa) = 43.99040 15.93083 29.96061
#
# Velocity S-wave (km/s) = 4.55127 2.73888 3.75603
# Velocity P-wave (km/s) = 6.45009 5.29434 5.90058
#
# Compressibility (1/GPa) = 0.03367037
#
# Stress axis : x y z
#
# Youngs Moduli (GPa) = 92.14746 40.37756 77.61121
#
# Poissons Ratio (x) = -0.15101 0.30965
# Poissons Ratio (y) = -0.34463 0.55621
# Poissons Ratio (z) = 0.36765 0.28937
#
# Static dielectric constant tensor:
#      x y z
#    x 3.866860 0.000000 0.000000 
#    y 0.000000 4.229540 0.000000 
#    z 0.000000 0.000000 4.058560 
# 
# 
# High freq. dielectric constant tensor:
#      x y z
#    x 1.839900 0.000000 0.000000 
#    y 0.000000 1.825620 0.000000 
#    z 0.000000 0.000000 1.841140 
# 
# From -- ./inp_files/27856.got.cif
#   From: 2010.03.12/outbox.cif.g09.slc.cpg/sg54_14_cif.got.tgz:27856.got - 2010.04.16 15:00:50.
