data_PCOD8223203
_publ_section_title
;
Structure prediction by ZEFSAII (Michael W. Deem and Ramdas Pophale) SiO2 
 PCOD8223203
Probable space group: P C C A
;
_chemical_formula_sum "Si O2"
_cell_formula_units_Z 40
_cell_length_a 5.366116
_cell_length_b 15.910179
_cell_length_c 18.671319
_cell_angle_alpha 90.000000
_cell_angle_beta 90.000000
_cell_angle_gamma 90.000000
_cell_volume 1594.080031
_symmetry_space_group_name_H-M "P C C A"
_symmetry_group_IT_number 54
_symmetry_cell_setting 'orthorhombic'
loop_
_space_group_symop_operation_xyz
x,y,z
1/2-x,-y,z
1/2+x,-y,1/2-z
-x,y,1/2-z
-x,-y,-z
1/2+x,y,-z
1/2-x,y,1/2+z
x,-y,1/2+z
loop_
_atom_site_type_symbol
_atom_site_label
_atom_site_fract_x
_atom_site_fract_y
_atom_site_fract_z
Si Si1 0.655833 0.717674 0.033090
Si Si2 0.903482 0.325101 0.330281
Si Si3 0.750000 0.500000 0.795901
Si Si4 0.900511 0.097044 0.974810
Si Si5 0.500000 0.052541 0.750000
Si Si6 0.851175 0.840742 0.323951
O O1 0.633306 0.697014 0.117511
O O2 0.411054 0.676197 0.995682
O O3 0.669676 0.816920 0.017339
O O4 0.792408 0.417751 0.344972
O O5 0.684286 0.257088 0.343219
O O6 0.000000 0.317520 0.250000
O O7 0.500000 0.515792 0.750000
O O8 0.977461 0.113886 0.892010
O O9 0.628531 0.050138 0.983230
O O10 0.419046 0.113875 0.684817
O O11 0.250000 0.000000 0.771298
O O12 0.000000 0.854036 0.250000
#
# Coordination Sequence:
#
# PCOD8223203 Si02
#       6
#     8   8   4   8   4   8
#     4  10  21  38  59  92 141 175 225 292 335 400
#     4  11  23  40  70 104 135 186 244 281 349 408
#     4  10  24  44  60  96 150 178 226 310 340 394
#     4  10  22  39  62 101 144 175 225 291 338 403
#     4  12  28  50  68 110 146 170 224 310 362 410
#     4  12  25  40  79 105 134 187 243 278 353 433
#
# _framework density 25.092841
#
# number of rings (size 3 to 8) (size 9 to 14) (size 15 to 20)
#    0.000    1.200    6.000    0.600    8.400    3.200 
#    0.000    1.000    0.000    3.600    0.000    0.000 
#    0.000    0.000    0.000    0.000    0.000    0.000 
#
# Total GULP energy -495695.174649 kJ/mol
# GULP energy per Si atom -12392.379366 kJ/mol
# Density = 2.503573 g / cm^3
# Si number density = 25.092841 Si / 1000 Ang^3
#
#
#
# Elastic Constant Matrix: (Units=GPa)
#
#
# Indices 1 2 3 4 5 6 
#
# 1 157.4133 29.0334 45.7894 0.0000 0.0000 0.0000
# 2 29.0334 110.6917 13.8938 0.0000 0.0000 0.0000
# 3 45.7894 13.8938 137.7088 0.0000 0.0000 0.0000
# 4 0.0000 0.0000 0.0000 12.0869 0.0000 0.0000
# 5 0.0000 0.0000 0.0000 0.0000 45.1295 0.0000
# 6 0.0000 0.0000 0.0000 0.0000 0.0000 28.6969
#
#
#
# Elastic Compliance Matrix: (Units=1/GPa)
#
#
# Indices 1 2 3 4 5 6 
#
# 1 0.007313 -0.001634 -0.002267 0.000000 0.000000 0.000000
# 2 -0.001634 0.009515 -0.000417 0.000000 0.000000 0.000000
# 3 -0.002267 -0.000417 0.008058 0.000000 0.000000 0.000000
# 4 0.000000 0.000000 0.000000 0.082734 0.000000 0.000000
# 5 0.000000 0.000000 0.000000 0.000000 0.022158 0.000000
# 6 0.000000 0.000000 0.000000 0.000000 0.000000 0.034847
#
#
# Mechanical properties :
#
#
# Convention : Reuss Voigt Hill
#
# Bulk Modulus (GPa) = 61.53449 64.80521 63.16985
# Shear Modulus (GPa) = 27.98346 38.32250 33.15298
#
# Velocity S-wave (km/s) = 3.34308 3.91222 3.63879
# Velocity P-wave (km/s) = 6.28311 6.80364 6.54855
#
# Compressibility (1/GPa) = 0.01625105
#
# Stress axis : x y z
#
# Youngs Moduli (GPa) = 136.73439 105.09811 124.10751
#
# Poissons Ratio (x) = 0.17170 0.28135
# Poissons Ratio (y) = 0.22338 0.05172
# Poissons Ratio (z) = 0.30997 0.04380
#
# Static dielectric constant tensor:
#      x y z
#    x 5.415070 0.000000 0.000000 
#    y 0.000000 4.835920 0.000000 
#    z 0.000000 0.000000 4.318710 
# 
# 
# High freq. dielectric constant tensor:
#      x y z
#    x 2.023690 0.000000 0.000000 
#    y 0.000000 1.995090 0.000000 
#    z 0.000000 0.000000 1.985800 
# 
# From -- ./inp_files/15806.got.cif
#   From: 2010.03.12/outbox.cif.g09.slc.cpg/sg54_8_cif.got.tgz:15806.got - 2010.04.16 15:00:50.
