data_PCOD8223878
_publ_section_title
;
Structure prediction by ZEFSAII (Michael W. Deem and Ramdas Pophale) SiO2 
 PCOD8223878
Probable space group: P C C A
;
_chemical_formula_sum "Si O2"
_cell_formula_units_Z 40
_cell_length_a 15.878257
_cell_length_b 11.205295
_cell_length_c 8.827334
_cell_angle_alpha 90.000000
_cell_angle_beta 90.000000
_cell_angle_gamma 90.000000
_cell_volume 1570.564154
_symmetry_space_group_name_H-M "P C C A"
_symmetry_group_IT_number 54
_symmetry_cell_setting 'orthorhombic'
loop_
_space_group_symop_operation_xyz
x,y,z
1/2-x,-y,z
1/2+x,-y,1/2-z
-x,y,1/2-z
-x,-y,-z
1/2+x,y,-z
1/2-x,y,1/2+z
x,-y,1/2+z
loop_
_atom_site_type_symbol
_atom_site_label
_atom_site_fract_x
_atom_site_fract_y
_atom_site_fract_z
Si Si1 0.326330 0.910362 0.933406
Si Si2 0.379595 0.347067 0.466466
Si Si3 0.580534 0.937382 0.858782
Si Si4 0.658348 0.537417 0.235211
Si Si5 0.045558 0.743290 0.899222
O O1 0.316933 0.768213 0.958894
O O2 0.250000 0.000000 0.980329
O O3 0.407723 0.941772 0.041692
O O4 0.341002 0.927243 0.754799
O O5 0.391661 0.415979 0.306739
O O6 0.340507 0.440358 0.586083
O O7 0.475508 0.322914 0.505333
O O8 0.500000 0.932231 0.750000
O O9 0.412282 0.839454 0.509005
O O10 0.750000 0.500000 0.174104
O O11 0.619354 0.653712 0.153021
O O12 0.000000 0.801374 0.750000
#
# Coordination Sequence:
#
# PCOD8223878 Si02
#       5
#     8   8   8   8   8
#     4  12  30  50  78 118 166 211 274 350 426 492
#     4  11  26  49  75 112 156 213 266 328 412 493
#     4  12  27  48  81 113 157 217 282 333 413 498
#     4  11  26  45  78 109 155 205 266 329 406 479
#     4  10  25  49  78 111 161 211 276 335 397 497
#
# _framework density 25.468554000000001
#
# number of rings (size 3 to 8) (size 9 to 14) (size 15 to 20)
#    0.000    0.800    2.000    2.400   11.200    1.600 
#    0.000    0.000    0.000    0.000    0.000    0.000 
#    0.000    0.000    0.000    0.000    0.000    0.000 
#
# Total GULP energy -495546.938507 kJ/mol
# GULP energy per Si atom -12388.673463 kJ/mol
# Density = 2.541059 g / cm^3
# Si number density = 25.468554 Si / 1000 Ang^3
#
#
#
# Elastic Constant Matrix: (Units=GPa)
#
#
# Indices 1 2 3 4 5 6 
#
# 1 72.8425 24.3809 35.1579 0.0000 0.0000 0.0000
# 2 24.3809 150.3988 92.6011 0.0000 0.0000 0.0000
# 3 35.1579 92.6011 146.8000 0.0000 0.0000 0.0000
# 4 0.0000 0.0000 0.0000 37.1569 0.0000 0.0000
# 5 0.0000 0.0000 0.0000 0.0000 35.8849 0.0000
# 6 0.0000 0.0000 0.0000 0.0000 0.0000 30.5690
#
#
#
# Elastic Compliance Matrix: (Units=1/GPa)
#
#
# Indices 1 2 3 4 5 6 
#
# 1 0.015535 -0.000372 -0.003486 0.000000 0.000000 0.000000
# 2 -0.000372 0.010880 -0.006774 0.000000 0.000000 0.000000
# 3 -0.003486 -0.006774 0.011920 0.000000 0.000000 0.000000
# 4 0.000000 0.000000 0.000000 0.026913 0.000000 0.000000
# 5 0.000000 0.000000 0.000000 0.000000 0.027867 0.000000
# 6 0.000000 0.000000 0.000000 0.000000 0.000000 0.032713
#
#
# Mechanical properties :
#
#
# Convention : Reuss Voigt Hill
#
# Bulk Modulus (GPa) = 58.57820 74.92456 66.75138
# Shear Modulus (GPa) = 32.72627 35.24890 33.98759
#
# Velocity S-wave (km/s) = 3.58853 3.72427 3.65703
# Velocity P-wave (km/s) = 6.34194 6.92647 6.64064
#
# Compressibility (1/GPa) = 0.01707120
#
# Stress axis : x y z
#
# Youngs Moduli (GPa) = 64.36957 91.91093 83.89349
#
# Poissons Ratio (x) = 0.03420 0.29244
# Poissons Ratio (y) = 0.02395 0.56830
# Poissons Ratio (z) = 0.22438 0.62261
#
# Static dielectric constant tensor:
#      x y z
#    x 4.448550 0.000000 0.000000 
#    y 0.000000 4.793990 0.000000 
#    z 0.000000 0.000000 5.127960 
# 
# 
# High freq. dielectric constant tensor:
#      x y z
#    x 2.007380 0.000000 0.000000 
#    y 0.000000 2.020880 0.000000 
#    z 0.000000 0.000000 2.038980 
# 
# From -- ./inp_files/3968.got.cif
#   From: 2010.03.12/outbox.cif.g09.slc.cpg/sg54_2_cif.got.tgz:3968.got - 2010.04.16 15:00:50.
