data_PCOD8223690
_publ_section_title
;
Structure prediction by ZEFSAII (Michael W. Deem and Ramdas Pophale) SiO2 
 PCOD8223690
Probable space group: P C C A
;
_chemical_formula_sum "Si O2"
_cell_formula_units_Z 48
_cell_length_a 9.896890
_cell_length_b 15.487989
_cell_length_c 14.202291
_cell_angle_alpha 90.000000
_cell_angle_beta 90.000000
_cell_angle_gamma 90.000000
_cell_volume 2176.968684
_symmetry_space_group_name_H-M "P C C A"
_symmetry_group_IT_number 54
_symmetry_cell_setting 'orthorhombic'
loop_
_space_group_symop_operation_xyz
x,y,z
1/2-x,-y,z
1/2+x,-y,1/2-z
-x,y,1/2-z
-x,-y,-z
1/2+x,y,-z
1/2-x,y,1/2+z
x,-y,1/2+z
loop_
_atom_site_type_symbol
_atom_site_label
_atom_site_fract_x
_atom_site_fract_y
_atom_site_fract_z
Si Si1 0.896981 0.166864 0.183140
Si Si2 0.127740 0.939412 0.003460
Si Si3 0.369689 0.169705 0.192240
Si Si4 0.605224 0.509568 0.820453
Si Si5 0.335096 0.672780 0.570411
Si Si6 0.971728 0.673978 0.898757
O O1 0.882554 0.131709 0.077968
O O2 0.753738 0.171302 0.234780
O O3 0.000000 0.110603 0.250000
O O4 0.978862 0.258044 0.178714
O O5 0.250000 0.000000 0.977037
O O6 0.152331 0.894895 0.104511
O O7 0.000000 0.000000 0.000000
O O8 0.500000 0.139208 0.250000
O O9 0.393157 0.265881 0.152392
O O10 0.750000 0.500000 0.767484
O O11 0.500000 0.554562 0.750000
O O12 0.637725 0.572799 0.906554
O O13 0.535134 0.421417 0.854788
O O14 0.175977 0.695196 0.557786
O O15 0.411751 0.686566 0.474611
#
# Coordination Sequence:
#
# PCOD8223690 Si02
#       6
#     8   8   8   8   8   8
#     4  12  25  46  76 103 145 193 241 301 368 438
#     4  12  28  48  73 106 147 185 241 308 371 447
#     4  12  27  45  74 108 142 191 248 298 369 442
#     4  10  23  41  64 102 144 190 246 297 358 430
#     4  11  24  43  68 102 142 186 245 296 359 432
#     4  11  24  42  71 100 143 191 238 298 362 429
#
# _framework density 22.049009999999999
#
# number of rings (size 3 to 8) (size 9 to 14) (size 15 to 20)
#    0.000    0.667    3.333    3.500    4.667    5.333 
#    0.000    0.000    0.000    0.000    0.000    0.000 
#    0.000    0.000    0.000    0.000    0.000    0.000 
#
# Total GULP energy -594939.025239 kJ/mol
# GULP energy per Si atom -12394.563026 kJ/mol
# Density = 2.199883 g / cm^3
# Si number density = 22.049010 Si / 1000 Ang^3
#
#
#
# Elastic Constant Matrix: (Units=GPa)
#
#
# Indices 1 2 3 4 5 6 
#
# 1 166.1768 40.7814 75.7573 0.0000 0.0000 0.0000
# 2 40.7814 111.4383 35.9425 0.0000 0.0000 0.0000
# 3 75.7573 35.9425 123.2722 0.0000 0.0000 0.0000
# 4 0.0000 0.0000 0.0000 -28.0700 0.0000 0.0000
# 5 0.0000 0.0000 0.0000 0.0000 50.6012 0.0000
# 6 0.0000 0.0000 0.0000 0.0000 0.0000 34.3358
#
#
#
# Elastic Compliance Matrix: (Units=1/GPa)
#
#
# Indices 1 2 3 4 5 6 
#
# 1 0.008609 -0.001594 -0.004826 0.000000 0.000000 0.000000
# 2 -0.001594 0.010200 -0.001994 0.000000 0.000000 0.000000
# 3 -0.004826 -0.001994 0.011659 0.000000 0.000000 0.000000
# 4 0.000000 0.000000 0.000000 -0.035625 0.000000 0.000000
# 5 0.000000 0.000000 0.000000 0.000000 0.019762 0.000000
# 6 0.000000 0.000000 0.000000 0.000000 0.000000 0.029124
#
#
# Mechanical properties :
#
#
# Convention : Reuss Voigt Hill
#
# Bulk Modulus (GPa) = 73.31465 78.42774 75.87120
# Shear Modulus (GPa) = 76.79902 27.93382 52.36642
#
# Velocity S-wave (km/s) = 5.90819 3.56321 4.87869
# Velocity P-wave (km/s) = 8.93673 7.25090 8.13759
#
# Compressibility (1/GPa) = 0.01363984
#
# Stress axis : x y z
#
# Youngs Moduli (GPa) = 116.15899 98.03738 85.76763
#
# Poissons Ratio (x) = 0.15627 0.41390
# Poissons Ratio (y) = 0.18515 0.17106
# Poissons Ratio (z) = 0.56057 0.19554
#
# Static dielectric constant tensor:
#      x y z
#    x 4.246880 0.000000 0.000000 
#    y 0.000000 4.188950 0.000000 
#    z 0.000000 0.000000 9.173670 
# 
# 
# High freq. dielectric constant tensor:
#      x y z
#    x 1.885770 0.000000 0.000000 
#    y 0.000000 1.869710 0.000000 
#    z 0.000000 0.000000 1.877100 
# 
# From -- ./inp_files/11713.got.cif
#   From: 2010.03.12/outbox.cif.g09.slc.cpg/sg54_6_cif.got.tgz:11713.got - 2010.04.16 15:00:50.
