data_PCOD8223999
_publ_section_title
;
Structure prediction by ZEFSAII (Michael W. Deem and Ramdas Pophale) SiO2 
 PCOD8223999
Probable space group: P C C A
;
_chemical_formula_sum "Si O2"
_cell_formula_units_Z 24
_cell_length_a 16.116046
_cell_length_b 4.883204
_cell_length_c 13.754446
_cell_angle_alpha 90.000000
_cell_angle_beta 90.000000
_cell_angle_gamma 90.000000
_cell_volume 1082.446570
_symmetry_space_group_name_H-M "P C C A"
_symmetry_group_IT_number 54
_symmetry_cell_setting 'orthorhombic'
loop_
_space_group_symop_operation_xyz
x,y,z
1/2-x,-y,z
1/2+x,-y,1/2-z
-x,y,1/2-z
-x,-y,-z
1/2+x,y,-z
1/2-x,y,1/2+z
x,-y,1/2+z
loop_
_atom_site_type_symbol
_atom_site_label
_atom_site_fract_x
_atom_site_fract_y
_atom_site_fract_z
Si Si1 0.659886 0.386947 0.892210
Si Si2 0.591015 0.121053 0.494581
Si Si3 0.807010 0.256729 0.178910
O O1 0.750000 0.500000 0.919542
O O2 0.647639 0.357949 0.776751
O O3 0.590849 0.599646 0.931742
O O4 0.651862 0.095102 0.943879
O O5 0.621966 0.179940 0.603195
O O6 0.500000 0.000000 0.500000
O O7 0.750000 0.500000 0.135504
O O8 0.750000 0.000000 0.205966
#
# Coordination Sequence:
#
# PCOD8223999 Si02
#       3
#     8   8   8
#     4  11  23  43  67  92 126 171 220 263 309 376
#     4  12  25  42  66  98 134 168 206 265 329 381
#     4  11  23  41  68  96 124 169 222 264 309 375
#
# _framework density 22.171993000000001
#
# number of rings (size 3 to 8) (size 9 to 14) (size 15 to 20)
#    0.000    0.667    0.000   11.000    0.000    1.333 
#    0.000    6.667    0.000    0.000    0.000    0.000 
#    0.000    0.000    0.000    0.000    0.000    0.000 
#
# Total GULP energy -297813.804784 kJ/mol
# GULP energy per Si atom -12408.908533 kJ/mol
# Density = 2.212153 g / cm^3
# Si number density = 22.171993 Si / 1000 Ang^3
#
#
#
# Elastic Constant Matrix: (Units=GPa)
#
#
# Indices 1 2 3 4 5 6 
#
# 1 88.4734 14.6212 58.9152 0.0000 0.0000 0.0000
# 2 14.6212 114.6834 43.2085 0.0000 0.0000 0.0000
# 3 58.9152 43.2085 161.8931 0.0000 0.0000 0.0000
# 4 0.0000 0.0000 0.0000 46.4445 0.0000 0.0000
# 5 0.0000 0.0000 0.0000 0.0000 11.7192 0.0000
# 6 0.0000 0.0000 0.0000 0.0000 0.0000 41.8525
#
#
#
# Elastic Compliance Matrix: (Units=1/GPa)
#
#
# Indices 1 2 3 4 5 6 
#
# 1 0.014921 0.000160 -0.005472 0.000000 0.000000 0.000000
# 2 0.000160 0.009696 -0.002646 0.000000 0.000000 0.000000
# 3 -0.005472 -0.002646 0.008875 0.000000 0.000000 0.000000
# 4 0.000000 0.000000 0.000000 0.021531 0.000000 0.000000
# 5 0.000000 0.000000 0.000000 0.000000 0.085330 0.000000
# 6 0.000000 0.000000 0.000000 0.000000 0.000000 0.023893
#
#
# Mechanical properties :
#
#
# Convention : Reuss Voigt Hill
#
# Bulk Modulus (GPa) = 56.90285 66.50442 61.70363
# Shear Modulus (GPa) = 26.87858 36.55689 31.71774
#
# Velocity S-wave (km/s) = 3.48555 4.06493 3.78634
# Velocity P-wave (km/s) = 6.47447 7.21744 6.85603
#
# Compressibility (1/GPa) = 0.01757381
#
# Stress axis : x y z
#
# Youngs Moduli (GPa) = 67.02147 103.13311 112.68129
#
# Poissons Ratio (x) = -0.01645 0.61664
# Poissons Ratio (y) = -0.01069 0.29815
# Poissons Ratio (z) = 0.36677 0.27288
#
# Static dielectric constant tensor:
#      x y z
#    x 3.634990 0.000000 0.000000 
#    y 0.000000 4.516630 0.000000 
#    z 0.000000 0.000000 4.006560 
# 
# 
# High freq. dielectric constant tensor:
#      x y z
#    x 1.849700 0.000000 0.000000 
#    y 0.000000 1.901910 0.000000 
#    z 0.000000 0.000000 1.886800 
# 
# From -- ./inp_files/8588.got.cif
#   From: 2010.03.12/outbox.cif.g09.slc.cpg/sg54_5_cif.got.tgz:8588.got - 2010.04.16 15:00:50.
