data_PCOD8223841
_publ_section_title
;
Structure prediction by ZEFSAII (Michael W. Deem and Ramdas Pophale) SiO2 
 PCOD8223841
Probable space group: P C C A
;
_chemical_formula_sum "Si O2"
_cell_formula_units_Z 20
_cell_length_a 5.034746
_cell_length_b 10.032989
_cell_length_c 17.282388
_cell_angle_alpha 90.000000
_cell_angle_beta 90.000000
_cell_angle_gamma 90.000000
_cell_volume 872.994792
_symmetry_space_group_name_H-M "P C C A"
_symmetry_group_IT_number 54
_symmetry_cell_setting 'orthorhombic'
loop_
_space_group_symop_operation_xyz
x,y,z
1/2-x,-y,z
1/2+x,-y,1/2-z
-x,y,1/2-z
-x,-y,-z
1/2+x,y,-z
1/2-x,y,1/2+z
x,-y,1/2+z
loop_
_atom_site_type_symbol
_atom_site_label
_atom_site_fract_x
_atom_site_fract_y
_atom_site_fract_z
Si Si1 0.915913 0.137942 0.835345
Si Si2 0.750000 0.000000 0.055836
Si Si3 0.720154 0.348168 0.948372
O O1 0.741651 0.254608 0.873356
O O2 0.000000 0.181925 0.750000
O O3 0.750000 0.000000 0.835017
O O4 0.187270 0.122411 0.885865
O O5 0.500000 0.000000 0.000000
O O6 0.750000 0.500000 0.919918
O O7 0.436893 0.316316 0.986004
#
# Coordination Sequence:
#
# PCOD8223841 Si02
#       3
#     8   4   8
#     4  12  26  43  68 107 145 183 230 291 360 427
#     4  12  24  40  66  98 134 180 228 282 340 408
#     4  10  24  46  71  99 133 182 240 288 339 416
#
# _framework density 22.909645000000001
#
# number of rings (size 3 to 8) (size 9 to 14) (size 15 to 20)
#    0.000    0.800    4.000    2.400    5.600    0.000 
#    0.000    8.000    0.000    0.000    0.000    0.000 
#    0.000    0.000    0.000    0.000    0.000    0.000 
#
# Total GULP energy -247822.903766 kJ/mol
# GULP energy per Si atom -12391.145188 kJ/mol
# Density = 2.285750 g / cm^3
# Si number density = 22.909645 Si / 1000 Ang^3
#
#
#
# Elastic Constant Matrix: (Units=GPa)
#
#
# Indices 1 2 3 4 5 6 
#
# 1 119.5430 25.5674 47.9432 0.0000 0.0000 0.0000
# 2 25.5674 133.1074 76.1583 0.0000 0.0000 0.0000
# 3 47.9432 76.1583 175.2200 0.0000 0.0000 0.0000
# 4 0.0000 0.0000 0.0000 34.1337 0.0000 0.0000
# 5 0.0000 0.0000 0.0000 0.0000 16.5184 0.0000
# 6 0.0000 0.0000 0.0000 0.0000 0.0000 31.8395
#
#
#
# Elastic Compliance Matrix: (Units=1/GPa)
#
#
# Indices 1 2 3 4 5 6 
#
# 1 0.009416 -0.000445 -0.002383 0.000000 0.000000 0.000000
# 2 -0.000445 0.010020 -0.004234 0.000000 0.000000 0.000000
# 3 -0.002383 -0.004234 0.008199 0.000000 0.000000 0.000000
# 4 0.000000 0.000000 0.000000 0.029297 0.000000 0.000000
# 5 0.000000 0.000000 0.000000 0.000000 0.060538 0.000000
# 6 0.000000 0.000000 0.000000 0.000000 0.000000 0.031408
#
#
# Mechanical properties :
#
#
# Convention : Reuss Voigt Hill
#
# Bulk Modulus (GPa) = 74.00588 80.80091 77.40339
# Shear Modulus (GPa) = 29.84971 35.04507 32.44739
#
# Velocity S-wave (km/s) = 3.61353 3.91539 3.76749
# Velocity P-wave (km/s) = 7.05575 7.46903 7.26533
#
# Compressibility (1/GPa) = 0.01351244
#
# Stress axis : x y z
#
# Youngs Moduli (GPa) = 106.20129 99.79550 121.96355
#
# Poissons Ratio (x) = 0.04444 0.29062
# Poissons Ratio (y) = 0.04729 0.51633
# Poissons Ratio (z) = 0.25306 0.42248
#
# Static dielectric constant tensor:
#      x y z
#    x 3.655310 0.000000 0.000000 
#    y 0.000000 4.390170 0.000000 
#    z 0.000000 0.000000 4.422170 
# 
# 
# High freq. dielectric constant tensor:
#      x y z
#    x 1.922580 0.000000 0.000000 
#    y 0.000000 1.897270 0.000000 
#    z 0.000000 0.000000 1.906470 
# 
# From -- ./inp_files/10646.got.cif
#   From: 2010.03.12/outbox.cif.g09.slc.cpg/sg54_6_cif.got.tgz:10646.got - 2010.04.16 15:00:50.
