data_PCOD8223957
_publ_section_title
;
Structure prediction by ZEFSAII (Michael W. Deem and Ramdas Pophale) SiO2 
 PCOD8223957
Probable space group: P C C A
;
_chemical_formula_sum "Si O2"
_cell_formula_units_Z 32
_cell_length_a 17.550168
_cell_length_b 9.860716
_cell_length_c 8.330321
_cell_angle_alpha 90.000000
_cell_angle_beta 90.000000
_cell_angle_gamma 90.000000
_cell_volume 1441.622214
_symmetry_space_group_name_H-M "P C C A"
_symmetry_group_IT_number 54
_symmetry_cell_setting 'orthorhombic'
loop_
_space_group_symop_operation_xyz
x,y,z
1/2-x,-y,z
1/2+x,-y,1/2-z
-x,y,1/2-z
-x,-y,-z
1/2+x,y,-z
1/2-x,y,1/2+z
x,-y,1/2+z
loop_
_atom_site_type_symbol
_atom_site_label
_atom_site_fract_x
_atom_site_fract_y
_atom_site_fract_z
Si Si1 0.166610 0.565523 0.995800
Si Si2 0.153023 0.108512 0.043950
Si Si3 0.817044 0.163328 0.826108
Si Si4 0.083386 0.353490 0.186501
O O1 0.250000 0.500000 0.990800
O O2 0.159163 0.685912 0.125049
O O3 0.103746 0.453842 0.040768
O O4 0.147649 0.624851 0.821717
O O5 0.227860 0.144668 0.145459
O O6 0.085617 0.200033 0.117992
O O7 0.135482 0.948723 0.070143
O O8 0.164950 0.142882 0.859444
O O9 0.000000 0.385887 0.250000
#
# Coordination Sequence:
#
# PCOD8223957 Si02
#       4
#     8   8   8   8
#     4  12  24  42  69 100 132 181 234 280 330 405
#     4  11  22  41  66 100 133 171 221 281 338 400
#     4  11  22  40  70 100 130 169 230 281 329 394
#     4  12  26  44  65 100 143 181 222 281 349 404
#
# _framework density 22.197215
#
# number of rings (size 3 to 8) (size 9 to 14) (size 15 to 20)
#    0.000    0.500    2.500    9.000    0.000    0.000 
#    0.000    6.250    0.000    0.000    0.000    0.000 
#    0.000    0.000    0.000    0.000    0.000    0.000 
#
# Total GULP energy -396923.822134 kJ/mol
# GULP energy per Si atom -12403.869442 kJ/mol
# Density = 2.214669 g / cm^3
# Si number density = 22.197215 Si / 1000 Ang^3
#
#
#
# Elastic Constant Matrix: (Units=GPa)
#
#
# Indices 1 2 3 4 5 6 
#
# 1 57.1913 42.0081 19.0520 0.0000 0.0000 0.0000
# 2 42.0081 141.2021 33.8048 0.0000 0.0000 0.0000
# 3 19.0520 33.8048 135.8914 0.0000 0.0000 0.0000
# 4 0.0000 0.0000 0.0000 40.7637 0.0000 0.0000
# 5 0.0000 0.0000 0.0000 0.0000 21.3088 0.0000
# 6 0.0000 0.0000 0.0000 0.0000 0.0000 11.1616
#
#
#
# Elastic Compliance Matrix: (Units=1/GPa)
#
#
# Indices 1 2 3 4 5 6 
#
# 1 0.022696 -0.006370 -0.001597 0.000000 0.000000 0.000000
# 2 -0.006370 0.009318 -0.001425 0.000000 0.000000 0.000000
# 3 -0.001597 -0.001425 0.007937 0.000000 0.000000 0.000000
# 4 0.000000 0.000000 0.000000 0.024532 0.000000 0.000000
# 5 0.000000 0.000000 0.000000 0.000000 0.046929 0.000000
# 6 0.000000 0.000000 0.000000 0.000000 0.000000 0.089593
#
#
# Mechanical properties :
#
#
# Convention : Reuss Voigt Hill
#
# Bulk Modulus (GPa) = 47.24291 58.22386 52.73338
# Shear Modulus (GPa) = 22.04147 30.60814 26.32480
#
# Velocity S-wave (km/s) = 3.15458 3.71741 3.44750
# Velocity P-wave (km/s) = 5.88201 6.68675 6.29725
#
# Compressibility (1/GPa) = 0.02116720
#
# Stress axis : x y z
#
# Youngs Moduli (GPa) = 44.06067 107.31680 125.98799
#
# Poissons Ratio (x) = 0.68358 0.20126
# Poissons Ratio (y) = 0.28065 0.17953
# Poissons Ratio (z) = 0.07038 0.15293
#
# Static dielectric constant tensor:
#      x y z
#    x 3.609050 0.000000 0.000000 
#    y 0.000000 4.684490 0.000000 
#    z 0.000000 0.000000 4.068750 
# 
# 
# High freq. dielectric constant tensor:
#      x y z
#    x 1.829150 0.000000 0.000000 
#    y 0.000000 1.900060 0.000000 
#    z 0.000000 0.000000 1.891090 
# 
# From -- ./inp_files/3321.got.cif
#   From: 2010.03.12/outbox.cif.g09.slc.cpg/sg54_2_cif.got.tgz:3321.got - 2010.04.16 15:00:50.
