data_PCOD8223574
_publ_section_title
;
Structure prediction by ZEFSAII (Michael W. Deem and Ramdas Pophale) SiO2 
 PCOD8223574
Probable space group: P C C A
;
_chemical_formula_sum "Si O2"
_cell_formula_units_Z 52
_cell_length_a 24.675730
_cell_length_b 8.182309
_cell_length_c 12.623332
_cell_angle_alpha 90.000000
_cell_angle_beta 90.000000
_cell_angle_gamma 90.000000
_cell_volume 2548.706875
_symmetry_space_group_name_H-M "P C C A"
_symmetry_group_IT_number 54
_symmetry_cell_setting 'orthorhombic'
loop_
_space_group_symop_operation_xyz
x,y,z
1/2-x,-y,z
1/2+x,-y,1/2-z
-x,y,1/2-z
-x,-y,-z
1/2+x,y,-z
1/2-x,y,1/2+z
x,-y,1/2+z
loop_
_atom_site_type_symbol
_atom_site_label
_atom_site_fract_x
_atom_site_fract_y
_atom_site_fract_z
Si Si1 0.264587 0.222585 0.690347
Si Si2 0.017359 0.340727 0.629878
Si Si3 0.667054 0.937344 0.724181
Si Si4 0.682371 0.733450 0.526666
Si Si5 0.551555 0.998185 0.825441
Si Si6 0.067260 0.335928 0.051175
Si Si7 0.750000 0.500000 0.671237
O O1 0.199210 0.199388 0.705615
O O2 0.277151 0.208408 0.566045
O O3 0.283512 0.388366 0.746619
O O4 0.297508 0.097292 0.762171
O O5 0.046763 0.166903 0.602287
O O6 0.054403 0.502430 0.620081
O O7 0.000000 0.329444 0.750000
O O8 0.964335 0.354197 0.558467
O O9 0.666375 0.887334 0.600063
O O10 0.606031 0.972597 0.758491
O O11 0.630532 0.656444 0.470880
O O12 0.708629 0.593743 0.596792
O O13 0.500000 0.016822 0.750000
O O14 0.553243 0.164057 0.893205
#
# Coordination Sequence:
#
# PCOD8223574 Si02
#       7
#     8   8   8   8   8   8   4
#     4  10  22  42  64  90 132 168 217 272 331 400
#     4  10  23  41  64  92 133 170 214 274 327 395
#     4  10  23  42  64  96 127 170 221 276 331 396
#     4  11  22  42  66  93 131 171 221 274 331 402
#     4  11  22  43  68  96 132 171 218 278 332 403
#     4  11  23  42  64  98 128 174 222 269 337 398
#     4  10  24  40  60  96 126 168 216 270 332 398
#
# _framework density 20.402504
#
# number of rings (size 3 to 8) (size 9 to 14) (size 15 to 20)
#    0.000    1.538    1.538    3.231    0.000    9.846 
#    8.308    0.000    0.000    0.000    0.000    0.000 
#    0.000    0.000    0.000    0.000    0.000    0.000 
#
# Total GULP energy -644401.296777 kJ/mol
# GULP energy per Si atom -12392.332630 kJ/mol
# Density = 2.035607 g / cm^3
# Si number density = 20.402504 Si / 1000 Ang^3
#
#
#
# Elastic Constant Matrix: (Units=GPa)
#
#
# Indices 1 2 3 4 5 6 
#
# 1 115.8150 23.3913 42.0694 0.0000 0.0000 0.0000
# 2 23.3913 149.4716 49.3235 0.0000 0.0000 0.0000
# 3 42.0694 49.3235 108.1223 0.0000 0.0000 0.0000
# 4 0.0000 0.0000 0.0000 32.7482 0.0000 0.0000
# 5 0.0000 0.0000 0.0000 0.0000 23.8545 0.0000
# 6 0.0000 0.0000 0.0000 0.0000 0.0000 24.0271
#
#
#
# Elastic Compliance Matrix: (Units=1/GPa)
#
#
# Indices 1 2 3 4 5 6 
#
# 1 0.010070 -0.000333 -0.003766 0.000000 0.000000 0.000000
# 2 -0.000333 0.007887 -0.003468 0.000000 0.000000 0.000000
# 3 -0.003766 -0.003468 0.012296 0.000000 0.000000 0.000000
# 4 0.000000 0.000000 0.000000 0.030536 0.000000 0.000000
# 5 0.000000 0.000000 0.000000 0.000000 0.041921 0.000000
# 6 0.000000 0.000000 0.000000 0.000000 0.000000 0.041620
#
#
# Mechanical properties :
#
#
# Convention : Reuss Voigt Hill
#
# Bulk Modulus (GPa) = 66.14616 66.99746 66.57181
# Shear Modulus (GPa) = 30.39449 33.36762 31.88105
#
# Velocity S-wave (km/s) = 3.86391 4.04848 3.95727
# Velocity P-wave (km/s) = 7.23860 7.40018 7.31984
#
# Compressibility (1/GPa) = 0.01511804
#
# Stress axis : x y z
#
# Youngs Moduli (GPa) = 99.30724 126.79368 81.32538
#
# Poissons Ratio (x) = 0.04223 0.30628
# Poissons Ratio (y) = 0.03308 0.28206
# Poissons Ratio (z) = 0.37400 0.43975
#
# Static dielectric constant tensor:
#      x y z
#    x 3.875070 0.000000 0.000000 
#    y 0.000000 4.327210 0.000000 
#    z 0.000000 0.000000 3.738760 
# 
# 
# High freq. dielectric constant tensor:
#      x y z
#    x 1.798190 0.000000 0.000000 
#    y 0.000000 1.815870 0.000000 
#    z 0.000000 0.000000 1.798060 
# 
# From -- ./inp_files/10301.got.cif
#   From: 2010.03.12/outbox.cif.g09.slc.cpg/sg54_6_cif.got.tgz:10301.got - 2010.04.16 15:00:50.
