data_PCOD8223002
_publ_section_title
;
Structure prediction by ZEFSAII (Michael W. Deem and Ramdas Pophale) SiO2 
 PCOD8223002
Probable space group: P C C A
;
_chemical_formula_sum "Si O2"
_cell_formula_units_Z 40
_cell_length_a 9.078520
_cell_length_b 8.081373
_cell_length_c 27.107056
_cell_angle_alpha 90.000000
_cell_angle_beta 90.000000
_cell_angle_gamma 90.000000
_cell_volume 1988.760841
_symmetry_space_group_name_H-M "P C C A"
_symmetry_group_IT_number 54
_symmetry_cell_setting 'orthorhombic'
loop_
_space_group_symop_operation_xyz
x,y,z
1/2-x,-y,z
1/2+x,-y,1/2-z
-x,y,1/2-z
-x,-y,-z
1/2+x,y,-z
1/2-x,y,1/2+z
x,-y,1/2+z
loop_
_atom_site_type_symbol
_atom_site_label
_atom_site_fract_x
_atom_site_fract_y
_atom_site_fract_z
Si Si1 0.591400 0.432213 0.799305
Si Si2 0.692507 0.811632 0.547166
Si Si3 0.510455 0.704629 0.453047
Si Si4 0.816571 0.173404 0.369469
Si Si5 0.964443 0.622303 0.395136
O O1 0.750000 0.500000 0.785210
O O2 0.500000 0.427700 0.750000
O O3 0.614515 0.247001 0.819637
O O4 0.508743 0.540019 0.841456
O O5 0.585430 0.777057 0.501576
O O6 0.598241 0.751147 0.594880
O O7 0.835379 0.698918 0.540544
O O8 0.750000 0.000000 0.551421
O O9 0.554745 0.835998 0.410263
O O10 0.551266 0.516319 0.438144
O O11 0.692289 0.288025 0.394214
O O12 0.750000 0.000000 0.354611
#
# Coordination Sequence:
#
# PCOD8223002 Si02
#       5
#     8   8   8   8   8
#     4   9  20  38  62  85 111 147 189 236 288 348
#     4  12  23  36  56  87 120 154 193 239 285 334
#     4  11  22  36  56  83 117 158 195 232 279 343
#     4  10  20  39  61  85 116 150 189 241 291 334
#     4  10  22  39  58  82 113 153 194 234 285 343
#
# _framework density 20.113026000000001
#
# number of rings (size 3 to 8) (size 9 to 14) (size 15 to 20)
#    0.000    1.600    0.000    6.600    0.000    4.800 
#    0.000    4.000    0.000    6.000    0.000    0.000 
#    0.000    0.000    0.000    0.000    0.000    0.000 
#
# Total GULP energy -495872.801272 kJ/mol
# GULP energy per Si atom -12396.820032 kJ/mol
# Density = 2.006725 g / cm^3
# Si number density = 20.113026 Si / 1000 Ang^3
#
#
#
# Elastic Constant Matrix: (Units=GPa)
#
#
# Indices 1 2 3 4 5 6 
#
# 1 108.1764 29.5764 65.6935 0.0000 0.0000 0.0000
# 2 29.5764 115.4553 54.0684 0.0000 0.0000 0.0000
# 3 65.6935 54.0684 114.3930 0.0000 0.0000 0.0000
# 4 0.0000 0.0000 0.0000 15.0853 0.0000 0.0000
# 5 0.0000 0.0000 0.0000 0.0000 354.9644 0.0000
# 6 0.0000 0.0000 0.0000 0.0000 0.0000 34.0750
#
#
#
# Elastic Compliance Matrix: (Units=1/GPa)
#
#
# Indices 1 2 3 4 5 6 
#
# 1 0.014199 0.000233 -0.008264 0.000000 0.000000 0.000000
# 2 0.000233 0.011127 -0.005393 0.000000 0.000000 0.000000
# 3 -0.008264 -0.005393 0.016037 0.000000 0.000000 0.000000
# 4 0.000000 0.000000 0.000000 0.066290 0.000000 0.000000
# 5 0.000000 0.000000 0.000000 0.000000 0.002817 0.000000
# 6 0.000000 0.000000 0.000000 0.000000 0.000000 0.029347
#
#
# Mechanical properties :
#
#
# Convention : Reuss Voigt Hill
#
# Bulk Modulus (GPa) = 68.89795 70.74460 69.82127
# Shear Modulus (GPa) = 29.15364 93.40402 61.27883
#
# Velocity S-wave (km/s) = 3.81135 6.82205 5.52570
# Velocity P-wave (km/s) = 7.32791 9.86427 8.68913
#
# Compressibility (1/GPa) = 0.01451422
#
# Stress axis : x y z
#
# Youngs Moduli (GPa) = 70.42583 89.86877 62.35601
#
# Poissons Ratio (x) = -0.02092 0.51534
# Poissons Ratio (y) = -0.01640 0.33629
# Poissons Ratio (z) = 0.58203 0.48467
#
# Static dielectric constant tensor:
#      x y z
#    x 4.001950 0.000000 0.000000 
#    y 0.000000 4.027880 0.000000 
#    z 0.000000 0.000000 3.495600 
# 
# 
# High freq. dielectric constant tensor:
#      x y z
#    x 1.796910 0.000000 0.000000 
#    y 0.000000 1.787530 0.000000 
#    z 0.000000 0.000000 1.768280 
# 
# From -- ./inp_files/23258.got.cif
#   From: 2010.03.12/outbox.cif.g09.slc.cpg/sg54_12_cif.got.tgz:23258.got - 2010.04.16 15:00:50.
