data_PCOD8223926
_publ_section_title
;
Structure prediction by ZEFSAII (Michael W. Deem and Ramdas Pophale) SiO2 
 PCOD8223926
Probable space group: P C C A
;
_chemical_formula_sum "Si O2"
_cell_formula_units_Z 48
_cell_length_a 19.140996
_cell_length_b 9.126095
_cell_length_c 13.903523
_cell_angle_alpha 90.000000
_cell_angle_beta 90.000000
_cell_angle_gamma 90.000000
_cell_volume 2428.702822
_symmetry_space_group_name_H-M "P C C A"
_symmetry_group_IT_number 54
_symmetry_cell_setting 'orthorhombic'
loop_
_space_group_symop_operation_xyz
x,y,z
1/2-x,-y,z
1/2+x,-y,1/2-z
-x,y,1/2-z
-x,-y,-z
1/2+x,y,-z
1/2-x,y,1/2+z
x,-y,1/2+z
loop_
_atom_site_type_symbol
_atom_site_label
_atom_site_fract_x
_atom_site_fract_y
_atom_site_fract_z
Si Si1 0.325941 0.948491 0.950905
Si Si2 0.558912 0.337474 0.330997
Si Si3 0.459030 0.657849 0.156443
Si Si4 0.454159 0.141482 0.985503
Si Si5 0.681640 0.835479 0.762142
Si Si6 0.666800 0.853679 0.345055
O O1 0.320283 0.860738 0.851976
O O2 0.250000 0.000000 0.981740
O O3 0.378813 0.087602 0.944849
O O4 0.344088 0.839785 0.039174
O O5 0.500000 0.316397 0.250000
O O6 0.562007 0.496611 0.383254
O O7 0.548943 0.216859 0.412009
O O8 0.634204 0.305387 0.282770
O O9 0.500000 0.613168 0.250000
O O10 0.509108 0.747004 0.086581
O O11 0.392282 0.747038 0.194775
O O12 0.500000 0.000000 0.000000
O O13 0.759281 0.802592 0.801327
O O14 0.651204 0.979306 0.814803
#
# Coordination Sequence:
#
# PCOD8223926 Si02
#       6
#     8   8   8   8   8   8
#     4  12  21  37  65  98 124 157 212 268 319 371
#     4  11  24  42  62  91 128 169 208 255 320 383
#     4  11  25  41  61  91 130 168 210 259 314 387
#     4  12  22  40  67  94 122 163 214 265 317 371
#     4  11  22  39  65  90 127 163 206 264 309 380
#     4  11  21  40  63  94 123 162 211 260 320 369
#
# _framework density 19.763636000000002
#
# number of rings (size 3 to 8) (size 9 to 14) (size 15 to 20)
#    0.000    0.667    6.667    2.500    0.000    2.000 
#    0.000    0.000    0.000    2.000    0.000    0.000 
#    0.000    0.000    0.000    0.000    0.000    0.000 
#
# Total GULP energy -595023.683304 kJ/mol
# GULP energy per Si atom -12396.326735 kJ/mol
# Density = 1.971865 g / cm^3
# Si number density = 19.763636 Si / 1000 Ang^3
#
#
#
# Elastic Constant Matrix: (Units=GPa)
#
#
# Indices 1 2 3 4 5 6 
#
# 1 134.8327 62.0810 24.1467 0.0000 0.0000 0.0000
# 2 62.0810 87.5614 21.0830 0.0000 0.0000 0.0000
# 3 24.1467 21.0830 108.9589 0.0000 0.0000 0.0000
# 4 0.0000 0.0000 0.0000 25.5601 0.0000 0.0000
# 5 0.0000 0.0000 0.0000 0.0000 28.0497 0.0000
# 6 0.0000 0.0000 0.0000 0.0000 0.0000 -4.7359
#
#
#
# Elastic Compliance Matrix: (Units=1/GPa)
#
#
# Indices 1 2 3 4 5 6 
#
# 1 0.011111 -0.007641 -0.000984 0.000000 0.000000 0.000000
# 2 -0.007641 0.017233 -0.001641 0.000000 0.000000 0.000000
# 3 -0.000984 -0.001641 0.009713 0.000000 0.000000 0.000000
# 4 0.000000 0.000000 0.000000 0.039123 0.000000 0.000000
# 5 0.000000 0.000000 0.000000 0.000000 0.035651 0.000000
# 6 0.000000 0.000000 0.000000 0.000000 0.000000 -0.211155
#
#
# Mechanical properties :
#
#
# Convention : Reuss Voigt Hill
#
# Bulk Modulus (GPa) = 57.05926 60.66381 58.86153
# Shear Modulus (GPa) = -69.49246 24.71093 -22.39076
#
# Velocity S-wave (km/s) = -5.93617 3.53983 -3.36955
# Velocity P-wave (km/s) = 4.24860 6.88974 3.83522
#
# Compressibility (1/GPa) = 0.01752564
#
# Stress axis : x y z
#
# Youngs Moduli (GPa) = 90.00267 58.02838 102.95076
#
# Poissons Ratio (x) = 0.44337 0.10129
# Poissons Ratio (y) = 0.68768 0.16897
# Poissons Ratio (z) = 0.08855 0.09524
#
# Static dielectric constant tensor:
#      x y z
#    x 3.454960 0.000000 0.000000 
#    y 0.000000 3.535650 0.000000 
#    z 0.000000 0.000000 5.983810 
# 
# 
# High freq. dielectric constant tensor:
#      x y z
#    x 1.785380 0.000000 0.000000 
#    y 0.000000 1.753770 0.000000 
#    z 0.000000 0.000000 1.783060 
# 
# From -- ./inp_files/14125.got.cif
#   From: 2010.03.12/outbox.cif.g09.slc.cpg/sg54_8_cif.got.tgz:14125.got - 2010.04.16 15:00:50.
