data_PCOD8223634
_publ_section_title
;
Structure prediction by ZEFSAII (Michael W. Deem and Ramdas Pophale) SiO2 
 PCOD8223634
Probable space group: P C C A
;
_chemical_formula_sum "Si O2"
_cell_formula_units_Z 60
_cell_length_a 19.492342
_cell_length_b 11.932576
_cell_length_c 10.763653
_cell_angle_alpha 90.000000
_cell_angle_beta 90.000000
_cell_angle_gamma 90.000000
_cell_volume 2503.559516
_symmetry_space_group_name_H-M "P C C A"
_symmetry_group_IT_number 54
_symmetry_cell_setting 'orthorhombic'
loop_
_space_group_symop_operation_xyz
x,y,z
1/2-x,-y,z
1/2+x,-y,1/2-z
-x,y,1/2-z
-x,-y,-z
1/2+x,y,-z
1/2-x,y,1/2+z
x,-y,1/2+z
loop_
_atom_site_type_symbol
_atom_site_label
_atom_site_fract_x
_atom_site_fract_y
_atom_site_fract_z
Si Si1 0.269801 0.255000 0.697381
Si Si2 0.961644 0.302646 0.535090
Si Si3 0.320882 0.050677 0.819790
Si Si4 0.500000 0.542958 0.750000
Si Si5 0.101579 0.772092 0.983342
Si Si6 0.296030 0.403978 0.008752
Si Si7 0.629286 0.815867 0.733279
Si Si8 0.373676 0.573871 0.169230
O O1 0.304080 0.131168 0.700783
O O2 0.251107 0.299988 0.559439
O O3 0.202924 0.246535 0.786647
O O4 0.325463 0.343076 0.750623
O O5 0.922080 0.217607 0.624617
O O6 0.906627 0.361780 0.447754
O O7 0.003115 0.389558 0.621637
O O8 0.020322 0.240784 0.451238
O O9 0.250000 0.000000 0.877476
O O10 0.366622 0.950058 0.768788
O O11 0.364214 0.118379 0.922690
O O12 0.567715 0.467802 0.738485
O O13 0.142970 0.660285 0.936718
O O14 0.102348 0.780940 0.132462
O O15 0.250000 0.500000 0.935147
O O16 0.327761 0.469719 0.126018
#
# Coordination Sequence:
#
# PCOD8223634 Si02
#       8
#     8   8   8   4   8   8   8   8
#     4   9  21  42  62  96 133 168 224 286 336 400
#     4  12  24  43  68  98 136 187 228 276 350 425
#     4  10  24  41  69  98 128 177 232 290 355 395
#     4  12  22  42  66  94 140 186 216 274 342 420
#     4  11  22  41  66  96 133 173 230 284 339 417
#     4   9  19  38  61  92 132 174 214 272 332 398
#     4  10  22  44  67  91 132 179 223 291 344 404
#     4  11  24  38  67 100 135 178 229 277 337 411
#
# _framework density 23.965875
#
# number of rings (size 3 to 8) (size 9 to 14) (size 15 to 20)
#    0.000    1.600    2.667    1.200    1.867   10.667 
#    0.000    4.667    0.000    0.000    0.000    0.000 
#    0.000    0.000    0.000    0.000    0.000    0.000 
#
# Total GULP energy -743323.305353 kJ/mol
# GULP energy per Si atom -12388.721756 kJ/mol
# Density = 2.391133 g / cm^3
# Si number density = 23.965875 Si / 1000 Ang^3
#
#
#
# Elastic Constant Matrix: (Units=GPa)
#
#
# Indices 1 2 3 4 5 6 
#
# 1 125.0772 53.6314 10.4270 0.0000 0.0000 0.0000
# 2 53.6314 133.0745 22.7547 0.0000 0.0000 0.0000
# 3 10.4270 22.7547 52.8438 0.0000 0.0000 0.0000
# 4 0.0000 0.0000 0.0000 -38.0832 0.0000 0.0000
# 5 0.0000 0.0000 0.0000 0.0000 -4.4942 0.0000
# 6 0.0000 0.0000 0.0000 0.0000 0.0000 46.7079
#
#
#
# Elastic Compliance Matrix: (Units=1/GPa)
#
#
# Indices 1 2 3 4 5 6 
#
# 1 0.009668 -0.003854 -0.000248 0.000000 0.000000 0.000000
# 2 -0.003854 0.009648 -0.003394 0.000000 0.000000 0.000000
# 3 -0.000248 -0.003394 0.020434 0.000000 0.000000 0.000000
# 4 0.000000 0.000000 0.000000 -0.026258 0.000000 0.000000
# 5 0.000000 0.000000 0.000000 0.000000 -0.222508 0.000000
# 6 0.000000 0.000000 0.000000 0.000000 0.000000 0.021410
#
#
# Mechanical properties :
#
#
# Convention : Reuss Voigt Hill
#
# Bulk Modulus (GPa) = 40.39084 53.84685 47.11885
# Shear Modulus (GPa) = -30.42094 15.77158 -7.32468
#
# Velocity S-wave (km/s) = -3.56665 2.56810 -1.75012
# Velocity P-wave (km/s) = 0.26695 5.59557 3.95216
#
# Compressibility (1/GPa) = 0.02475809
#
# Stress axis : x y z
#
# Youngs Moduli (GPa) = 103.43047 103.64611 48.93769
#
# Poissons Ratio (x) = 0.39946 0.01214
# Poissons Ratio (y) = 0.39863 0.16610
# Poissons Ratio (z) = 0.02567 0.35178
#
# Static dielectric constant tensor:
#      x y z
#    x 4.730840 0.000000 0.000000 
#    y 0.000000 4.522240 0.000000 
#    z 0.000000 0.000000 3.749280 
# 
# 
# High freq. dielectric constant tensor:
#      x y z
#    x 1.968860 0.000000 0.000000 
#    y 0.000000 1.953410 0.000000 
#    z 0.000000 0.000000 1.920320 
# 
# From -- ./inp_files/9604.got.cif
#   From: 2010.03.12/outbox.cif.g09.slc.cpg/sg54_5_cif.got.tgz:9604.got - 2010.04.16 15:00:50.
