data_PCOD8223913
_publ_section_title
;
Structure prediction by ZEFSAII (Michael W. Deem and Ramdas Pophale) SiO2 
 PCOD8223913
Probable space group: P C C A
;
_chemical_formula_sum "Si O2"
_cell_formula_units_Z 48
_cell_length_a 17.727546
_cell_length_b 7.652425
_cell_length_c 18.326020
_cell_angle_alpha 90.000000
_cell_angle_beta 90.000000
_cell_angle_gamma 90.000000
_cell_volume 2486.084346
_symmetry_space_group_name_H-M "P C C A"
_symmetry_group_IT_number 54
_symmetry_cell_setting 'orthorhombic'
loop_
_space_group_symop_operation_xyz
x,y,z
1/2-x,-y,z
1/2+x,-y,1/2-z
-x,y,1/2-z
-x,-y,-z
1/2+x,y,-z
1/2-x,y,1/2+z
x,-y,1/2+z
loop_
_atom_site_type_symbol
_atom_site_label
_atom_site_fract_x
_atom_site_fract_y
_atom_site_fract_z
Si Si1 0.935253 0.171865 0.294936
Si Si2 0.079827 0.303885 0.050157
Si Si3 0.837025 0.979986 0.674939
Si Si4 0.835363 0.982504 0.509532
Si Si5 0.437996 0.309408 0.036961
Si Si6 0.019867 0.809709 0.325112
O O1 0.904139 0.275316 0.364348
O O2 0.867032 0.148159 0.237838
O O3 0.000000 0.276958 0.250000
O O4 0.973564 0.992550 0.324100
O O5 0.126758 0.172045 0.999478
O O6 0.103123 0.503120 0.031535
O O7 0.990755 0.277485 0.033727
O O8 0.750000 0.000000 0.696240
O O9 0.840835 0.907990 0.591946
O O10 0.889570 0.154623 0.673510
O O11 0.750000 0.000000 0.482863
O O12 0.875786 0.841730 0.457480
O O13 0.493232 0.306281 0.107133
O O14 0.000000 0.707479 0.250000
#
# Coordination Sequence:
#
# PCOD8223913 Si02
#       6
#     8   8   8   8   8   8
#     4   9  18  33  55  84 110 150 191 235 284 346
#     4  11  22  35  61  90 115 153 192 243 292 345
#     4   9  18  33  59  84 110 152 194 232 294 352
#     4  11  22  38  60  83 118 157 191 245 297 350
#     4  11  21  37  59  88 118 151 197 242 288 352
#     4   9  17  33  56  80 112 150 195 238 280 341
#
# _framework density 19.307471
#
# number of rings (size 3 to 8) (size 9 to 14) (size 15 to 20)
#    0.000    2.333    3.333    2.500    0.000    2.000 
#    0.000    0.000    0.000    0.000    0.000    0.000 
#    0.000    0.000    0.000    0.000    0.000    0.000 
#
# Total GULP energy -594787.110450 kJ/mol
# GULP energy per Si atom -12391.398134 kJ/mol
# Density = 1.926353 g / cm^3
# Si number density = 19.307471 Si / 1000 Ang^3
#
#
#
# Elastic Constant Matrix: (Units=GPa)
#
#
# Indices 1 2 3 4 5 6 
#
# 1 132.6374 51.9592 44.5289 0.0000 0.0000 0.0000
# 2 51.9592 94.8020 23.3239 0.0000 0.0000 0.0000
# 3 44.5289 23.3239 114.2203 0.0000 0.0000 0.0000
# 4 0.0000 0.0000 0.0000 14.1788 0.0000 0.0000
# 5 0.0000 0.0000 0.0000 0.0000 28.4399 0.0000
# 6 0.0000 0.0000 0.0000 0.0000 0.0000 9.6938
#
#
#
# Elastic Compliance Matrix: (Units=1/GPa)
#
#
# Indices 1 2 3 4 5 6 
#
# 1 0.010541 -0.005018 -0.003085 0.000000 0.000000 0.000000
# 2 -0.005018 0.013495 -0.000799 0.000000 0.000000 0.000000
# 3 -0.003085 -0.000799 0.010121 0.000000 0.000000 0.000000
# 4 0.000000 0.000000 0.000000 0.070528 0.000000 0.000000
# 5 0.000000 0.000000 0.000000 0.000000 0.035162 0.000000
# 6 0.000000 0.000000 0.000000 0.000000 0.000000 0.103159
#
#
# Mechanical properties :
#
#
# Convention : Reuss Voigt Hill
#
# Bulk Modulus (GPa) = 61.15308 64.58706 62.87007
# Shear Modulus (GPa) = 18.77856 25.25233 22.01545
#
# Velocity S-wave (km/s) = 3.12205 3.62042 3.38043
# Velocity P-wave (km/s) = 6.68867 7.14150 6.91879
#
# Compressibility (1/GPa) = 0.01635241
#
# Stress axis : x y z
#
# Youngs Moduli (GPa) = 94.86968 74.09922 98.80670
#
# Poissons Ratio (x) = 0.37185 0.30478
# Poissons Ratio (y) = 0.47609 0.07898
# Poissons Ratio (z) = 0.29263 0.05923
#
# Static dielectric constant tensor:
#      x y z
#    x 3.440210 0.000000 0.000000 
#    y 0.000000 3.132100 0.000000 
#    z 0.000000 0.000000 3.794970 
# 
# 
# High freq. dielectric constant tensor:
#      x y z
#    x 1.737660 0.000000 0.000000 
#    y 0.000000 1.710510 0.000000 
#    z 0.000000 0.000000 1.770190 
# 
# From -- ./inp_files/18525.got.cif
#   From: 2010.03.12/outbox.cif.g09.slc.cpg/sg54_10_cif.got.tgz:18525.got - 2010.04.16 15:00:50.
