data_PCOD8223655
_publ_section_title
;
Structure prediction by ZEFSAII (Michael W. Deem and Ramdas Pophale) SiO2 
 PCOD8223655
Probable space group: P C C A
;
_chemical_formula_sum "Si O2"
_cell_formula_units_Z 40
_cell_length_a 18.176899
_cell_length_b 7.988584
_cell_length_c 12.135286
_cell_angle_alpha 90.000000
_cell_angle_beta 90.000000
_cell_angle_gamma 90.000000
_cell_volume 1762.136781
_symmetry_space_group_name_H-M "P C C A"
_symmetry_group_IT_number 54
_symmetry_cell_setting 'orthorhombic'
loop_
_space_group_symop_operation_xyz
x,y,z
1/2-x,-y,z
1/2+x,-y,1/2-z
-x,y,1/2-z
-x,-y,-z
1/2+x,y,-z
1/2-x,y,1/2+z
x,-y,1/2+z
loop_
_atom_site_type_symbol
_atom_site_label
_atom_site_fract_x
_atom_site_fract_y
_atom_site_fract_z
Si Si1 0.965896 0.685117 0.020046
Si Si2 0.884758 0.272337 0.890411
Si Si3 0.159153 0.826527 0.335650
Si Si4 0.323151 0.796592 0.383180
Si Si5 0.922453 0.618748 0.795848
O O1 0.898305 0.698434 0.106261
O O2 0.034334 0.789965 0.068683
O O3 0.937058 0.745466 0.899738
O O4 0.000000 0.500000 0.000000
O O5 0.859212 0.148402 0.793509
O O6 0.879028 0.458208 0.840028
O O7 0.829949 0.272631 0.993451
O O8 0.241091 0.753385 0.344626
O O9 0.156966 0.007764 0.391161
O O10 0.378864 0.709639 0.299911
O O11 0.000000 0.552442 0.750000
#
# Coordination Sequence:
#
# PCOD8223655 Si02
#       5
#     8   8   8   8   8
#     4  10  22  45  73  98 139 186 240 302 357 423
#     4  11  24  46  71 100 140 187 237 298 359 429
#     4  11  27  46  71  99 153 186 239 301 370 439
#     4  11  28  46  67 110 142 194 238 295 374 441
#     4  11  23  45  72 104 141 181 239 299 354 434
#
# _framework density 22.699714
#
# number of rings (size 3 to 8) (size 9 to 14) (size 15 to 20)
#    0.000    1.200    2.000    3.000    8.400    4.800 
#    3.600    0.000    0.000    0.000    0.000    0.000 
#    0.000    0.000    0.000    0.000    0.000    0.000 
#
# Total GULP energy -495939.787702 kJ/mol
# GULP energy per Si atom -12398.494693 kJ/mol
# Density = 2.264805 g / cm^3
# Si number density = 22.699714 Si / 1000 Ang^3
#
#
#
# Elastic Constant Matrix: (Units=GPa)
#
#
# Indices 1 2 3 4 5 6 
#
# 1 133.2894 43.5577 60.1843 0.0000 0.0000 0.0000
# 2 43.5577 60.2752 31.0089 0.0000 0.0000 0.0000
# 3 60.1843 31.0089 194.3509 0.0000 0.0000 0.0000
# 4 0.0000 0.0000 0.0000 31.8164 0.0000 0.0000
# 5 0.0000 0.0000 0.0000 0.0000 37.3815 0.0000
# 6 0.0000 0.0000 0.0000 0.0000 0.0000 28.6615
#
#
#
# Elastic Compliance Matrix: (Units=1/GPa)
#
#
# Indices 1 2 3 4 5 6 
#
# 1 0.010659 -0.006542 -0.002257 0.000000 0.000000 0.000000
# 2 -0.006542 0.022089 -0.001499 0.000000 0.000000 0.000000
# 3 -0.002257 -0.001499 0.006083 0.000000 0.000000 0.000000
# 4 0.000000 0.000000 0.000000 0.031430 0.000000 0.000000
# 5 0.000000 0.000000 0.000000 0.000000 0.026751 0.000000
# 6 0.000000 0.000000 0.000000 0.000000 0.000000 0.034890
#
#
# Mechanical properties :
#
#
# Convention : Reuss Voigt Hill
#
# Bulk Modulus (GPa) = 54.83415 73.04636 63.94025
# Shear Modulus (GPa) = 31.53038 36.44951 33.98995
#
# Velocity S-wave (km/s) = 3.73100 4.01150 3.87379
# Velocity P-wave (km/s) = 6.53982 7.32840 6.94531
#
# Compressibility (1/GPa) = 0.01823681
#
# Stress axis : x y z
#
# Youngs Moduli (GPa) = 93.81352 45.27153 164.38215
#
# Poissons Ratio (x) = 0.29616 0.37103
# Poissons Ratio (y) = 0.61371 0.24633
# Poissons Ratio (z) = 0.21175 0.06784
#
# Static dielectric constant tensor:
#      x y z
#    x 4.299280 0.000000 0.000000 
#    y 0.000000 3.682730 0.000000 
#    z 0.000000 0.000000 4.737640 
# 
# 
# High freq. dielectric constant tensor:
#      x y z
#    x 1.899200 0.000000 0.000000 
#    y 0.000000 1.863980 0.000000 
#    z 0.000000 0.000000 1.927020 
# 
# From -- ./inp_files/8755.got.cif
#   From: 2010.03.12/outbox.cif.g09.slc.cpg/sg54_5_cif.got.tgz:8755.got - 2010.04.16 15:00:50.
