data_PCOD8223403
_publ_section_title
;
Structure prediction by ZEFSAII (Michael W. Deem and Ramdas Pophale) SiO2 
 PCOD8223403
Probable space group: P C C A
;
_chemical_formula_sum "Si O2"
_cell_formula_units_Z 40
_cell_length_a 17.375653
_cell_length_b 5.165576
_cell_length_c 17.975791
_cell_angle_alpha 90.000000
_cell_angle_beta 90.000000
_cell_angle_gamma 90.000000
_cell_volume 1613.421725
_symmetry_space_group_name_H-M "P C C A"
_symmetry_group_IT_number 54
_symmetry_cell_setting 'orthorhombic'
loop_
_space_group_symop_operation_xyz
x,y,z
1/2-x,-y,z
1/2+x,-y,1/2-z
-x,y,1/2-z
-x,-y,-z
1/2+x,y,-z
1/2-x,y,1/2+z
x,-y,1/2+z
loop_
_atom_site_type_symbol
_atom_site_label
_atom_site_fract_x
_atom_site_fract_y
_atom_site_fract_z
Si Si1 0.419123 0.239970 0.564530
Si Si2 0.903567 0.743862 0.524321
Si Si3 0.000000 0.452044 0.750000
Si Si4 0.129426 0.112220 0.693362
Si Si5 0.250000 0.500000 0.713103
Si Si6 0.369988 0.746191 0.316545
O O1 0.510369 0.253990 0.556691
O O2 0.385696 0.514593 0.535152
O O3 0.384661 0.012323 0.514376
O O4 0.386956 0.156648 0.646766
O O5 0.848001 0.734731 0.596381
O O6 0.052991 0.289559 0.691407
O O7 0.044108 0.634863 0.807597
O O8 0.209013 0.262748 0.666902
O O9 0.137974 0.033225 0.780832
O O10 0.182352 0.564603 0.768252
#
# Coordination Sequence:
#
# PCOD8223403 Si02
#       6
#     8   8   4   8   4   8
#     4  10  23  39  66 103 145 177 226 288 373 420
#     4  10  23  39  66 104 141 181 222 294 361 434
#     4  10  22  34  68 104 126 174 242 288 360 416
#     4  11  23  42  67 100 139 187 237 306 350 441
#     4  10  26  42  70  90 136 184 256 282 364 416
#     4  11  23  42  67  97 133 181 235 294 348 424
#
# _framework density 24.792027999999998
#
# number of rings (size 3 to 8) (size 9 to 14) (size 15 to 20)
#    0.000    1.600    0.000    3.600   19.600    0.000 
#    0.000    1.000    0.000    0.000    0.000    0.000 
#    0.000    0.000    0.000    0.000    0.000    0.000 
#
# Total GULP energy -495523.801805 kJ/mol
# GULP energy per Si atom -12388.095045 kJ/mol
# Density = 2.473560 g / cm^3
# Si number density = 24.792028 Si / 1000 Ang^3
#
#
#
# Elastic Constant Matrix: (Units=GPa)
#
#
# Indices 1 2 3 4 5 6 
#
# 1 48.0980 35.0142 18.8445 0.0000 0.0000 0.0000
# 2 35.0142 128.5501 31.3869 0.0000 0.0000 0.0000
# 3 18.8445 31.3869 120.4888 0.0000 0.0000 0.0000
# 4 0.0000 0.0000 0.0000 76.6082 0.0000 0.0000
# 5 0.0000 0.0000 0.0000 0.0000 1.8082 0.0000
# 6 0.0000 0.0000 0.0000 0.0000 0.0000 25.6409
#
#
#
# Elastic Compliance Matrix: (Units=1/GPa)
#
#
# Indices 1 2 3 4 5 6 
#
# 1 0.026581 -0.006648 -0.002426 0.000000 0.000000 0.000000
# 2 -0.006648 0.009970 -0.001557 0.000000 0.000000 0.000000
# 3 -0.002426 -0.001557 0.009085 0.000000 0.000000 0.000000
# 4 0.000000 0.000000 0.000000 0.013053 0.000000 0.000000
# 5 0.000000 0.000000 0.000000 0.000000 0.553023 0.000000
# 6 0.000000 0.000000 0.000000 0.000000 0.000000 0.039000
#
#
# Mechanical properties :
#
#
# Convention : Reuss Voigt Hill
#
# Bulk Modulus (GPa) = 41.02766 51.95870 46.49318
# Shear Modulus (GPa) = 7.35189 34.93756 21.14473
#
# Velocity S-wave (km/s) = 1.72391 3.75804 2.92359
# Velocity P-wave (km/s) = 4.53290 6.31140 5.49458
#
# Compressibility (1/GPa) = 0.02437380
#
# Stress axis : x y z
#
# Youngs Moduli (GPa) = 37.62142 100.30050 110.07654
#
# Poissons Ratio (x) = 0.66677 0.26699
# Poissons Ratio (y) = 0.25010 0.17144
# Poissons Ratio (z) = 0.09125 0.15621
#
# Static dielectric constant tensor:
#      x y z
#    x 3.771420 0.000000 0.000000 
#    y 0.000000 5.157850 0.000000 
#    z 0.000000 0.000000 4.443790 
# 
# 
# High freq. dielectric constant tensor:
#      x y z
#    x 1.959280 0.000000 0.000000 
#    y 0.000000 2.003470 0.000000 
#    z 0.000000 0.000000 1.978280 
# 
# From -- ./inp_files/18420.got.cif
#   From: 2010.03.12/outbox.cif.g09.slc.cpg/sg54_10_cif.got.tgz:18420.got - 2010.04.16 15:00:50.
