data_PCOD8223675
_publ_section_title
;
Structure prediction by ZEFSAII (Michael W. Deem and Ramdas Pophale) SiO2 
 PCOD8223675
Probable space group: P C C A
;
_chemical_formula_sum "Si O2"
_cell_formula_units_Z 32
_cell_length_a 8.769735
_cell_length_b 10.716255
_cell_length_c 14.253204
_cell_angle_alpha 90.000000
_cell_angle_beta 90.000000
_cell_angle_gamma 90.000000
_cell_volume 1339.497819
_symmetry_space_group_name_H-M "P C C A"
_symmetry_group_IT_number 54
_symmetry_cell_setting 'orthorhombic'
loop_
_space_group_symop_operation_xyz
x,y,z
1/2-x,-y,z
1/2+x,-y,1/2-z
-x,y,1/2-z
-x,-y,-z
1/2+x,y,-z
1/2-x,y,1/2+z
x,-y,1/2+z
loop_
_atom_site_type_symbol
_atom_site_label
_atom_site_fract_x
_atom_site_fract_y
_atom_site_fract_z
Si Si1 0.144609 0.107590 0.693179
Si Si2 0.007865 0.669295 0.412316
Si Si3 0.417263 0.400350 0.604801
Si Si4 0.282730 0.320216 0.786406
O O1 0.256577 0.172296 0.770474
O O2 0.000000 0.052295 0.750000
O O3 0.086666 0.206337 0.614135
O O4 0.250000 0.000000 0.646084
O O5 0.097885 0.686644 0.511539
O O6 0.126940 0.628454 0.331668
O O7 0.903007 0.545910 0.425697
O O8 0.286634 0.376839 0.681377
O O9 0.575376 0.354791 0.650795
#
# Coordination Sequence:
#
# PCOD8223675 Si02
#       4
#     8   8   8   8
#     4  10  24  44  69  96 136 186 239 282 334 413
#     4  10  23  42  65 104 136 179 227 288 345 422
#     4  10  23  39  68 102 138 171 226 286 359 418
#     4  10  23  40  66  94 137 176 224 281 355 402
#
# _framework density 23.889551999999998
#
# number of rings (size 3 to 8) (size 9 to 14) (size 15 to 20)
#    0.000    2.000    0.000    0.750   21.000    0.000 
#    0.000    2.500    0.000    0.000    0.000    0.000 
#    0.000    0.000    0.000    0.000    0.000    0.000 
#
# Total GULP energy -396428.991268 kJ/mol
# GULP energy per Si atom -12388.405977 kJ/mol
# Density = 2.383518 g / cm^3
# Si number density = 23.889552 Si / 1000 Ang^3
#
#
#
# Elastic Constant Matrix: (Units=GPa)
#
#
# Indices 1 2 3 4 5 6 
#
# 1 59.3969 64.2497 50.7380 0.0000 0.0000 0.0000
# 2 64.2497 116.0756 61.7733 0.0000 0.0000 0.0000
# 3 50.7380 61.7733 158.9610 0.0000 0.0000 0.0000
# 4 0.0000 0.0000 0.0000 24.4202 0.0000 0.0000
# 5 0.0000 0.0000 0.0000 0.0000 28.7556 0.0000
# 6 0.0000 0.0000 0.0000 0.0000 0.0000 50.1628
#
#
#
# Elastic Compliance Matrix: (Units=1/GPa)
#
#
# Indices 1 2 3 4 5 6 
#
# 1 0.046163 -0.022328 -0.006058 0.000000 0.000000 0.000000
# 2 -0.022328 0.021661 -0.001291 0.000000 0.000000 0.000000
# 3 -0.006058 -0.001291 0.008726 0.000000 0.000000 0.000000
# 4 0.000000 0.000000 0.000000 0.040950 0.000000 0.000000
# 5 0.000000 0.000000 0.000000 0.000000 0.034776 0.000000
# 6 0.000000 0.000000 0.000000 0.000000 0.000000 0.019935
#
#
# Mechanical properties :
#
#
# Convention : Reuss Voigt Hill
#
# Bulk Modulus (GPa) = 58.15075 76.43950 67.29512
# Shear Modulus (GPa) = 21.07078 31.17922 26.12500
#
# Velocity S-wave (km/s) = 2.97308 3.61659 3.31051
# Velocity P-wave (km/s) = 6.01498 7.03606 6.54546
#
# Compressibility (1/GPa) = 0.01719668
#
# Stress axis : x y z
#
# Youngs Moduli (GPa) = 21.66249 46.16609 114.60032
#
# Poissons Ratio (x) = 1.03080 0.69421
# Poissons Ratio (y) = 0.48368 0.14792
# Poissons Ratio (z) = 0.13122 0.05959
#
# Static dielectric constant tensor:
#      x y z
#    x 4.439430 0.000000 0.000000 
#    y 0.000000 4.046060 0.000000 
#    z 0.000000 0.000000 4.504250 
# 
# 
# High freq. dielectric constant tensor:
#      x y z
#    x 1.967560 0.000000 0.000000 
#    y 0.000000 1.918310 0.000000 
#    z 0.000000 0.000000 1.945590 
# 
# From -- ./inp_files/11236.got.cif
#   From: 2010.03.12/outbox.cif.g09.slc.cpg/sg54_6_cif.got.tgz:11236.got - 2010.04.16 15:00:50.
