data_PCOD8223868
_publ_section_title
;
Structure prediction by ZEFSAII (Michael W. Deem and Ramdas Pophale) SiO2 
 PCOD8223868
Probable space group: P C C A
;
_chemical_formula_sum "Si O2"
_cell_formula_units_Z 32
_cell_length_a 27.467670
_cell_length_b 4.708483
_cell_length_c 8.672058
_cell_angle_alpha 90.000000
_cell_angle_beta 90.000000
_cell_angle_gamma 90.000000
_cell_volume 1121.566430
_symmetry_space_group_name_H-M "P C C A"
_symmetry_group_IT_number 54
_symmetry_cell_setting 'orthorhombic'
loop_
_space_group_symop_operation_xyz
x,y,z
1/2-x,-y,z
1/2+x,-y,1/2-z
-x,y,1/2-z
-x,-y,-z
1/2+x,y,-z
1/2-x,y,1/2+z
x,-y,1/2+z
loop_
_atom_site_type_symbol
_atom_site_label
_atom_site_fract_x
_atom_site_fract_y
_atom_site_fract_z
Si Si1 0.026354 0.247392 0.093675
Si Si2 0.848145 0.584723 0.703819
Si Si3 0.715342 0.260352 0.970192
Si Si4 0.910242 0.757234 0.431082
O O1 0.077481 0.077506 0.123328
O O2 0.000000 0.322083 0.250000
O O3 0.042012 0.554714 0.014544
O O4 0.000000 0.000000 0.000000
O O5 0.822912 0.793833 0.829947
O O6 0.810478 0.364649 0.626492
O O7 0.870965 0.779126 0.568055
O O8 0.890501 0.399430 0.780819
O O9 0.750000 0.500000 0.901600
O O10 0.750000 0.000000 0.014815
#
# Coordination Sequence:
#
# PCOD8223868 Si02
#       4
#     8   8   8   8
#     4  12  24  41  66  98 135 178 227 284 343 409
#     4  10  25  45  70  99 137 182 230 288 352 420
#     4  11  26  45  70 101 136 178 231 290 352 420
#     4  11  24  43  67  98 135 180 229 282 346 417
#
# _framework density 28.531524999999998
#
# number of rings (size 3 to 8) (size 9 to 14) (size 15 to 20)
#    0.000    1.000    0.000    5.250    0.000   16.000 
#    0.000    3.750    0.000    0.000    0.000    0.000 
#    0.000    0.000    0.000    0.000    0.000    0.000 
#
# Total GULP energy -396840.341211 kJ/mol
# GULP energy per Si atom -12401.260663 kJ/mol
# Density = 2.846659 g / cm^3
# Si number density = 28.531525 Si / 1000 Ang^3
#
#
#
# Elastic Constant Matrix: (Units=GPa)
#
#
# Indices 1 2 3 4 5 6 
#
# 1 66.9758 16.1916 13.5475 0.0000 0.0000 0.0000
# 2 16.1916 165.8187 19.5721 0.0000 0.0000 0.0000
# 3 13.5475 19.5721 134.4064 0.0000 0.0000 0.0000
# 4 0.0000 0.0000 0.0000 25.3988 0.0000 0.0000
# 5 0.0000 0.0000 0.0000 0.0000 55.7482 0.0000
# 6 0.0000 0.0000 0.0000 0.0000 0.0000 27.3515
#
#
#
# Elastic Compliance Matrix: (Units=1/GPa)
#
#
# Indices 1 2 3 4 5 6 
#
# 1 0.015535 -0.001355 -0.001369 0.000000 0.000000 0.000000
# 2 -0.001355 0.006254 -0.000774 0.000000 0.000000 0.000000
# 3 -0.001369 -0.000774 0.007691 0.000000 0.000000 0.000000
# 4 0.000000 0.000000 0.000000 0.039372 0.000000 0.000000
# 5 0.000000 0.000000 0.000000 0.000000 0.017938 0.000000
# 6 0.000000 0.000000 0.000000 0.000000 0.000000 0.036561
#
#
# Mechanical properties :
#
#
# Convention : Reuss Voigt Hill
#
# Bulk Modulus (GPa) = 44.47547 51.75814 48.11681
# Shear Modulus (GPa) = 36.27338 42.89236 39.58287
#
# Velocity S-wave (km/s) = 3.56946 3.88149 3.72874
# Velocity P-wave (km/s) = 5.71052 6.18611 5.95307
#
# Compressibility (1/GPa) = 0.02248431
#
# Stress axis : x y z
#
# Youngs Moduli (GPa) = 64.36973 159.88719 130.02570
#
# Poissons Ratio (x) = 0.21672 0.17794
# Poissons Ratio (y) = 0.08725 0.10066
# Poissons Ratio (z) = 0.08809 0.12377
#
# Static dielectric constant tensor:
#      x y z
#    x 6.171380 0.000000 0.000000 
#    y 0.000000 6.259300 0.000000 
#    z 0.000000 0.000000 4.803800 
# 
# 
# High freq. dielectric constant tensor:
#      x y z
#    x 2.202010 0.000000 0.000000 
#    y 0.000000 2.165470 0.000000 
#    z 0.000000 0.000000 2.151470 
# 
# From -- ./inp_files/5695.got.cif
#   From: 2010.03.12/outbox.cif.g09.slc.cpg/sg54_3_cif.got.tgz:5695.got - 2010.04.16 15:00:50.
