data_PCOD8223951
_publ_section_title
;
Structure prediction by ZEFSAII (Michael W. Deem and Ramdas Pophale) SiO2 
 PCOD8223951
Probable space group: P C C A
;
_chemical_formula_sum "Si O2"
_cell_formula_units_Z 48
_cell_length_a 9.857760
_cell_length_b 13.900576
_cell_length_c 16.627766
_cell_angle_alpha 90.000000
_cell_angle_beta 90.000000
_cell_angle_gamma 90.000000
_cell_volume 2278.478533
_symmetry_space_group_name_H-M "P C C A"
_symmetry_group_IT_number 54
_symmetry_cell_setting 'orthorhombic'
loop_
_space_group_symop_operation_xyz
x,y,z
1/2-x,-y,z
1/2+x,-y,1/2-z
-x,y,1/2-z
-x,-y,-z
1/2+x,y,-z
1/2-x,y,1/2+z
x,-y,1/2+z
loop_
_atom_site_type_symbol
_atom_site_label
_atom_site_fract_x
_atom_site_fract_y
_atom_site_fract_z
Si Si1 0.231526 0.712519 0.158426
Si Si2 0.016400 0.621305 0.418350
Si Si3 0.272190 0.707568 0.343292
Si Si4 0.847077 0.916606 0.844350
Si Si5 0.477838 0.594704 0.104924
Si Si6 0.651323 0.917453 0.152802
O O1 0.212225 0.710860 0.253967
O O2 0.292035 0.813338 0.127163
O O3 0.327131 0.626187 0.128746
O O4 0.083749 0.699620 0.120035
O O5 0.170533 0.652753 0.402608
O O6 0.990784 0.518234 0.377162
O O7 0.989202 0.616987 0.512670
O O8 0.415213 0.652092 0.340216
O O9 0.293947 0.814820 0.377435
O O10 0.849794 0.919828 0.748623
O O11 0.998211 0.933413 0.879176
O O12 0.750000 0.000000 0.879134
O O13 0.750000 0.000000 0.117782
#
# Coordination Sequence:
#
# PCOD8223951 Si02
#       6
#     8   8   8   8   8   8
#     4  11  22  38  62  92 120 150 198 254 296 338
#     4  11  25  39  60  87 118 162 203 237 294 365
#     4  11  22  38  62  92 120 150 198 254 296 338
#     4   9  18  33  56  86 119 153 190 238 296 354
#     4  11  23  43  60  81 120 166 201 235 296 365
#     4   9  18  33  56  86 119 153 190 238 296 354
#
# _framework density 21.066690999999999
#
# number of rings (size 3 to 8) (size 9 to 14) (size 15 to 20)
#    0.000    1.667    1.667    3.000    2.333    6.667 
#    0.000    0.000    0.000    6.000    0.000    0.000 
#    0.000    0.000    0.000    0.000    0.000    0.000 
#
# Total GULP energy -595494.779557 kJ/mol
# GULP energy per Si atom -12406.141241 kJ/mol
# Density = 2.101874 g / cm^3
# Si number density = 21.066691 Si / 1000 Ang^3
#
#
#
# Elastic Constant Matrix: (Units=GPa)
#
#
# Indices 1 2 3 4 5 6 
#
# 1 107.3921 53.6445 11.4679 0.0000 0.0000 0.0000
# 2 53.6445 146.6676 11.2025 0.0000 0.0000 0.0000
# 3 11.4679 11.2025 29.2410 0.0000 0.0000 0.0000
# 4 0.0000 0.0000 0.0000 9.0529 0.0000 0.0000
# 5 0.0000 0.0000 0.0000 0.0000 27.3278 0.0000
# 6 0.0000 0.0000 0.0000 0.0000 0.0000 47.3380
#
#
#
# Elastic Compliance Matrix: (Units=1/GPa)
#
#
# Indices 1 2 3 4 5 6 
#
# 1 0.011647 -0.004029 -0.003024 0.000000 0.000000 0.000000
# 2 -0.004029 0.008417 -0.001645 0.000000 0.000000 0.000000
# 3 -0.003024 -0.001645 0.036015 0.000000 0.000000 0.000000
# 4 0.000000 0.000000 0.000000 0.110462 0.000000 0.000000
# 5 0.000000 0.000000 0.000000 0.000000 0.036593 0.000000
# 6 0.000000 0.000000 0.000000 0.000000 0.000000 0.021125
#
#
# Mechanical properties :
#
#
# Convention : Reuss Voigt Hill
#
# Bulk Modulus (GPa) = 25.85094 48.43670 37.14382
# Shear Modulus (GPa) = 19.64255 30.54280 25.09268
#
# Velocity S-wave (km/s) = 3.05683 3.81177 3.45499
# Velocity P-wave (km/s) = 4.97560 6.51267 5.79532
#
# Compressibility (1/GPa) = 0.03868332
#
# Stress axis : x y z
#
# Youngs Moduli (GPa) = 85.85752 118.80156 27.76647
#
# Poissons Ratio (x) = 0.47866 0.08397
# Poissons Ratio (y) = 0.34592 0.04567
# Poissons Ratio (z) = 0.25966 0.19539
#
# Static dielectric constant tensor:
#      x y z
#    x 3.842950 0.000000 0.000000 
#    y 0.000000 3.982700 0.000000 
#    z 0.000000 0.000000 3.362700 
# 
# 
# High freq. dielectric constant tensor:
#      x y z
#    x 1.837680 0.000000 0.000000 
#    y 0.000000 1.834730 0.000000 
#    z 0.000000 0.000000 1.790710 
# 
# From -- ./inp_files/16619.got.cif
#   From: 2010.03.12/outbox.cif.g09.slc.cpg/sg54_9_cif.got.tgz:16619.got - 2010.04.16 15:00:50.
