data_PCOD8223513
_publ_section_title
;
Structure prediction by ZEFSAII (Michael W. Deem and Ramdas Pophale) SiO2 
 PCOD8223513
Probable space group: P C C A
;
_chemical_formula_sum "Si O2"
_cell_formula_units_Z 32
_cell_length_a 8.134354
_cell_length_b 11.624005
_cell_length_c 15.296643
_cell_angle_alpha 90.000000
_cell_angle_beta 90.000000
_cell_angle_gamma 90.000000
_cell_volume 1446.355288
_symmetry_space_group_name_H-M "P C C A"
_symmetry_group_IT_number 54
_symmetry_cell_setting 'orthorhombic'
loop_
_space_group_symop_operation_xyz
x,y,z
1/2-x,-y,z
1/2+x,-y,1/2-z
-x,y,1/2-z
-x,-y,-z
1/2+x,y,-z
1/2-x,y,1/2+z
x,-y,1/2+z
loop_
_atom_site_type_symbol
_atom_site_label
_atom_site_fract_x
_atom_site_fract_y
_atom_site_fract_z
Si Si1 0.526841 0.189013 0.599529
Si Si2 0.250000 0.500000 0.141429
Si Si3 0.839284 0.263133 0.914835
Si Si4 0.750000 0.000000 0.171330
Si Si5 0.000000 0.834963 0.250000
Si Si6 0.500000 0.646265 0.250000
O O1 0.328162 0.190730 0.601314
O O2 0.579324 0.229600 0.504896
O O3 0.589313 0.273367 0.677119
O O4 0.608240 0.063084 0.613515
O O5 0.178875 0.598819 0.078658
O O6 0.372691 0.563345 0.205389
O O7 0.964877 0.241218 0.835387
O O8 0.838850 0.910266 0.233683
#
# Coordination Sequence:
#
# PCOD8223513 Si02
#       6
#     8   4   8   4   4   4
#     4  11  25  42  64  96 130 167 217 261 311 383
#     4  10  22  40  66  92 128 172 204 260 322 364
#     4  11  25  43  65  97 129 166 216 262 314 383
#     4  12  24  42  68  92 130 174 206 264 322 366
#     4  12  24  42  68  96 128 168 214 260 318 382
#     4  10  22  42  64  94 128 164 214 260 312 382
#
# _framework density 22.124579000000001
#
# number of rings (size 3 to 8) (size 9 to 14) (size 15 to 20)
#    0.000    1.000    0.000    7.500    0.000   12.000 
#    0.000    0.000    0.000    0.000    0.000    0.000 
#    0.000    0.000    0.000    0.000    0.000    0.000 
#
# Total GULP energy -396738.029497 kJ/mol
# GULP energy per Si atom -12398.063422 kJ/mol
# Density = 2.207422 g / cm^3
# Si number density = 22.124579 Si / 1000 Ang^3
#
#
#
# Elastic Constant Matrix: (Units=GPa)
#
#
# Indices 1 2 3 4 5 6 
#
# 1 83.6487 37.9624 29.1475 0.0000 0.0000 0.0000
# 2 37.9624 116.1033 51.2325 0.0000 0.0000 0.0000
# 3 29.1475 51.2325 152.4149 0.0000 0.0000 0.0000
# 4 0.0000 0.0000 0.0000 -0.3245 0.0000 0.0000
# 5 0.0000 0.0000 0.0000 0.0000 3.6030 0.0000
# 6 0.0000 0.0000 0.0000 0.0000 0.0000 42.8889
#
#
#
# Elastic Compliance Matrix: (Units=1/GPa)
#
#
# Indices 1 2 3 4 5 6 
#
# 1 0.014275 -0.004066 -0.001363 0.000000 0.000000 0.000000
# 2 -0.004066 0.011271 -0.003011 0.000000 0.000000 0.000000
# 3 -0.001363 -0.003011 0.007834 0.000000 0.000000 0.000000
# 4 0.000000 0.000000 0.000000 -3.081687 0.000000 0.000000
# 5 0.000000 0.000000 0.000000 0.000000 0.277544 0.000000
# 6 0.000000 0.000000 0.000000 0.000000 0.000000 0.023316
#
#
# Mechanical properties :
#
#
# Convention : Reuss Voigt Hill
#
# Bulk Modulus (GPa) = 60.60781 65.42795 63.01788
# Shear Modulus (GPa) = -1.83482 24.82179 11.49348
#
# Velocity S-wave (km/s) = -0.91165 3.35313 2.28170
# Velocity P-wave (km/s) = 5.13276 6.68042 5.95706
#
# Compressibility (1/GPa) = 0.01649952
#
# Stress axis : x y z
#
# Youngs Moduli (GPa) = 70.05230 88.72183 127.65066
#
# Poissons Ratio (x) = 0.36074 0.17401
# Poissons Ratio (y) = 0.28483 0.38437
# Poissons Ratio (z) = 0.09549 0.26715
#
# Static dielectric constant tensor:
#      x y z
#    x 4.060870 0.000000 0.000000 
#    y 0.000000 5.038150 0.000000 
#    z 0.000000 0.000000 3.968820 
# 
# 
# High freq. dielectric constant tensor:
#      x y z
#    x 1.874900 0.000000 0.000000 
#    y 0.000000 1.876890 0.000000 
#    z 0.000000 0.000000 1.882660 
# 
# From -- ./inp_files/11292.got.cif
#   From: 2010.03.12/outbox.cif.g09.slc.cpg/sg54_6_cif.got.tgz:11292.got - 2010.04.16 15:00:50.
