data_PCOD8223712
_publ_section_title
;
Structure prediction by ZEFSAII (Michael W. Deem and Ramdas Pophale) SiO2 
 PCOD8223712
Probable space group: P C C A
;
_chemical_formula_sum "Si O2"
_cell_formula_units_Z 64
_cell_length_a 15.080796
_cell_length_b 9.151634
_cell_length_c 22.019937
_cell_angle_alpha 90.000000
_cell_angle_beta 90.000000
_cell_angle_gamma 90.000000
_cell_volume 3039.057943
_symmetry_space_group_name_H-M "P C C A"
_symmetry_group_IT_number 54
_symmetry_cell_setting 'orthorhombic'
loop_
_space_group_symop_operation_xyz
x,y,z
1/2-x,-y,z
1/2+x,-y,1/2-z
-x,y,1/2-z
-x,-y,-z
1/2+x,y,-z
1/2-x,y,1/2+z
x,-y,1/2+z
loop_
_atom_site_type_symbol
_atom_site_label
_atom_site_fract_x
_atom_site_fract_y
_atom_site_fract_z
Si Si1 0.149772 0.498255 0.906127
Si Si2 0.346416 0.951046 0.437294
Si Si3 0.221240 0.661527 0.150636
Si Si4 0.934451 0.841451 0.304786
Si Si5 0.076077 0.753553 0.833670
Si Si6 0.881748 0.168850 0.297914
Si Si7 0.958412 0.781777 0.077615
Si Si8 0.133836 0.310055 0.521617
O O1 0.250000 0.500000 0.882392
O O2 0.091126 0.592766 0.860150
O O3 0.115306 0.333987 0.902223
O O4 0.146624 0.557731 0.974953
O O5 0.389933 0.873479 0.380141
O O6 0.335160 0.844375 0.494416
O O7 0.250000 0.000000 0.415857
O O8 0.407519 0.088018 0.457307
O O9 0.250000 0.500000 0.171440
O O10 0.137497 0.711663 0.191136
O O11 0.301558 0.774440 0.160577
O O12 0.193787 0.659883 0.080170
O O13 0.000000 0.806476 0.250000
O O14 0.992310 0.852001 0.365211
O O15 0.882698 0.993345 0.295886
O O16 0.128498 0.772582 0.770625
O O17 0.971563 0.770070 0.826319
O O18 0.028924 0.700986 0.034675
#
# Coordination Sequence:
#
# PCOD8223712 Si02
#       8
#     8   8   8   8   8   8   8   8
#     4  11  24  44  64  97 133 177 222 277 340 405
#     4  11  22  41  65  98 130 172 225 280 329 401
#     4  11  27  44  69 101 136 180 223 286 342 405
#     4  11  23  44  67 101 137 177 225 279 339 411
#     4  10  23  42  69  98 130 178 218 270 343 404
#     4  11  22  46  70  97 136 175 226 273 339 410
#     4  11  22  40  67  96 130 176 226 277 338 398
#     4  10  24  44  62  93 133 176 225 270 345 400
#
# _framework density 21.059158
#
# number of rings (size 3 to 8) (size 9 to 14) (size 15 to 20)
#    0.000    1.250    2.500    3.000    3.500    6.500 
#    9.000    0.000    0.000    0.000    0.000    0.000 
#    0.000    0.000    0.000    0.000    0.000    0.000 
#
# Total GULP energy -793924.703314 kJ/mol
# GULP energy per Si atom -12405.073489 kJ/mol
# Density = 2.101123 g / cm^3
# Si number density = 21.059158 Si / 1000 Ang^3
#
#
#
# Elastic Constant Matrix: (Units=GPa)
#
#
# Indices 1 2 3 4 5 6 
#
# 1 104.3102 39.2190 30.3528 0.0000 0.0000 0.0000
# 2 39.2190 102.9320 29.6674 0.0000 0.0000 0.0000
# 3 30.3528 29.6674 79.6590 0.0000 0.0000 0.0000
# 4 0.0000 0.0000 0.0000 10.2432 0.0000 0.0000
# 5 0.0000 0.0000 0.0000 0.0000 30.1245 0.0000
# 6 0.0000 0.0000 0.0000 0.0000 0.0000 34.1972
#
#
#
# Elastic Compliance Matrix: (Units=1/GPa)
#
#
# Indices 1 2 3 4 5 6 
#
# 1 0.011867 -0.003605 -0.003179 0.000000 0.000000 0.000000
# 2 -0.003605 0.011979 -0.003087 0.000000 0.000000 0.000000
# 3 -0.003179 -0.003087 0.014915 0.000000 0.000000 0.000000
# 4 0.000000 0.000000 0.000000 0.097626 0.000000 0.000000
# 5 0.000000 0.000000 0.000000 0.000000 0.033196 0.000000
# 6 0.000000 0.000000 0.000000 0.000000 0.000000 0.029242
#
#
# Mechanical properties :
#
#
# Convention : Reuss Voigt Hill
#
# Bulk Modulus (GPa) = 52.58478 53.93107 53.25793
# Shear Modulus (GPa) = 22.23134 27.42376 24.82755
#
# Velocity S-wave (km/s) = 3.25262 3.61255 3.43730
# Velocity P-wave (km/s) = 6.25542 6.56244 6.41077
#
# Compressibility (1/GPa) = 0.01901691
#
# Stress axis : x y z
#
# Youngs Moduli (GPa) = 84.26405 83.48109 67.04776
#
# Poissons Ratio (x) = 0.30098 0.21315
# Poissons Ratio (y) = 0.30381 0.20701
# Poissons Ratio (z) = 0.26789 0.25775
#
# Static dielectric constant tensor:
#      x y z
#    x 4.006350 0.000000 0.000000 
#    y 0.000000 3.903810 0.000000 
#    z 0.000000 0.000000 3.809140 
# 
# 
# High freq. dielectric constant tensor:
#      x y z
#    x 1.837950 0.000000 0.000000 
#    y 0.000000 1.834680 0.000000 
#    z 0.000000 0.000000 1.820670 
# 
# From -- ./inp_files/24547.got.cif
#   From: 2010.03.12/outbox.cif.g09.slc.cpg/sg54_13_cif.got.tgz:24547.got - 2010.04.16 15:00:50.
