data_PCOD8223644
_publ_section_title
;
Structure prediction by ZEFSAII (Michael W. Deem and Ramdas Pophale) SiO2 
 PCOD8223644
Probable space group: P C C A
;
_chemical_formula_sum "Si O2"
_cell_formula_units_Z 64
_cell_length_a 19.314360
_cell_length_b 16.536218
_cell_length_c 8.538118
_cell_angle_alpha 90.000000
_cell_angle_beta 90.000000
_cell_angle_gamma 90.000000
_cell_volume 2726.959347
_symmetry_space_group_name_H-M "P C C A"
_symmetry_group_IT_number 54
_symmetry_cell_setting 'orthorhombic'
loop_
_space_group_symop_operation_xyz
x,y,z
1/2-x,-y,z
1/2+x,-y,1/2-z
-x,y,1/2-z
-x,-y,-z
1/2+x,y,-z
1/2-x,y,1/2+z
x,-y,1/2+z
loop_
_atom_site_type_symbol
_atom_site_label
_atom_site_fract_x
_atom_site_fract_y
_atom_site_fract_z
Si Si1 0.373847 0.228219 0.056118
Si Si2 0.959520 0.568853 0.090308
Si Si3 0.303163 0.840065 0.292781
Si Si4 0.804383 0.570656 0.085029
Si Si5 0.696639 0.073450 0.021569
Si Si6 0.753065 0.681139 0.837107
Si Si7 0.431427 0.863383 0.841834
Si Si8 0.511994 0.729205 0.433917
O O1 0.304802 0.282103 0.046366
O O2 0.384572 0.188243 0.224030
O O3 0.365059 0.158190 0.921687
O O4 0.438137 0.284588 0.015880
O O5 0.881438 0.537233 0.120768
O O6 0.000000 0.590234 0.250000
O O7 0.948275 0.647311 0.979371
O O8 0.000000 0.500000 0.000000
O O9 0.231089 0.851532 0.386695
O O10 0.305734 0.752214 0.210816
O O11 0.311980 0.909863 0.163180
O O12 0.750000 0.500000 0.115476
O O13 0.790133 0.647607 0.192415
O O14 0.795657 0.606441 0.910352
O O15 0.618624 0.063769 0.094834
O O16 0.750000 0.000000 0.048110
O O17 0.500000 0.896252 0.750000
O O18 0.451281 0.808196 0.991658
O O19 0.500000 0.741151 0.250000
#
# Coordination Sequence:
#
# PCOD8223644 Si02
#       8
#     8   8   8   8   8   8   8   8
#     4  11  22  40  71 104 140 184 245 314 361 431
#     4  12  29  48  69  98 146 197 249 314 395 466
#     4  12  23  41  71 105 143 186 252 307 362 451
#     4  12  29  44  71 100 148 190 245 315 388 448
#     4  12  24  42  70 109 151 193 242 313 388 451
#     4  12  23  43  70 101 136 187 247 310 366 440
#     4  10  22  44  72 107 149 196 246 308 367 454
#     4  11  24  42  72 104 143 191 251 304 373 448
#
# _framework density 23.469363999999999
#
# number of rings (size 3 to 8) (size 9 to 14) (size 15 to 20)
#    0.000    0.500    3.750    4.500    8.750    0.000 
#    0.000    0.625    0.000   12.750    0.000    0.000 
#    0.000    0.000    0.000    0.000    0.000    0.000 
#
# Total GULP energy -793370.689873 kJ/mol
# GULP energy per Si atom -12396.417029 kJ/mol
# Density = 2.341595 g / cm^3
# Si number density = 23.469364 Si / 1000 Ang^3
#
#
#
# Elastic Constant Matrix: (Units=GPa)
#
#
# Indices 1 2 3 4 5 6 
#
# 1 145.7527 46.9336 43.4102 0.0000 0.0000 0.0000
# 2 46.9336 82.8222 37.9596 0.0000 0.0000 0.0000
# 3 43.4102 37.9596 134.2268 0.0000 0.0000 0.0000
# 4 0.0000 0.0000 0.0000 29.6810 0.0000 0.0000
# 5 0.0000 0.0000 0.0000 0.0000 37.9256 0.0000
# 6 0.0000 0.0000 0.0000 0.0000 0.0000 37.6557
#
#
#
# Elastic Compliance Matrix: (Units=1/GPa)
#
#
# Indices 1 2 3 4 5 6 
#
# 1 0.008692 -0.004179 -0.001629 0.000000 0.000000 0.000000
# 2 -0.004179 0.015881 -0.003140 0.000000 0.000000 0.000000
# 3 -0.001629 -0.003140 0.008865 0.000000 0.000000 0.000000
# 4 0.000000 0.000000 0.000000 0.033692 0.000000 0.000000
# 5 0.000000 0.000000 0.000000 0.000000 0.026367 0.000000
# 6 0.000000 0.000000 0.000000 0.000000 0.000000 0.026556
#
#
# Mechanical properties :
#
#
# Convention : Reuss Voigt Hill
#
# Bulk Modulus (GPa) = 64.34049 68.82317 66.58183
# Shear Modulus (GPa) = 34.93341 36.68567 35.80954
#
# Velocity S-wave (km/s) = 3.86225 3.95793 3.91039
# Velocity P-wave (km/s) = 6.88212 7.09051 6.98709
#
# Compressibility (1/GPa) = 0.01554231
#
# Stress axis : x y z
#
# Youngs Moduli (GPa) = 115.05142 62.96797 112.80408
#
# Poissons Ratio (x) = 0.26313 0.18379
# Poissons Ratio (y) = 0.48077 0.35418
# Poissons Ratio (z) = 0.18745 0.19771
#
# Static dielectric constant tensor:
#      x y z
#    x 4.376330 0.000000 0.000000 
#    y 0.000000 3.806210 0.000000 
#    z 0.000000 0.000000 4.473380 
# 
# 
# High freq. dielectric constant tensor:
#      x y z
#    x 1.935060 0.000000 0.000000 
#    y 0.000000 1.898040 0.000000 
#    z 0.000000 0.000000 1.949530 
# 
# From -- ./inp_files/4898.got.cif
#   From: 2010.03.12/outbox.cif.g09.slc.cpg/sg54_3_cif.got.tgz:4898.got - 2010.04.16 15:00:50.
