data_PCOD8223548
_publ_section_title
;
Structure prediction by ZEFSAII (Michael W. Deem and Ramdas Pophale) SiO2 
 PCOD8223548
Probable space group: P C C A
;
_chemical_formula_sum "Si O2"
_cell_formula_units_Z 36
_cell_length_a 12.872885
_cell_length_b 11.242675
_cell_length_c 11.226626
_cell_angle_alpha 90.000000
_cell_angle_beta 90.000000
_cell_angle_gamma 90.000000
_cell_volume 1624.780884
_symmetry_space_group_name_H-M "P C C A"
_symmetry_group_IT_number 54
_symmetry_cell_setting 'orthorhombic'
loop_
_space_group_symop_operation_xyz
x,y,z
1/2-x,-y,z
1/2+x,-y,1/2-z
-x,y,1/2-z
-x,-y,-z
1/2+x,y,-z
1/2-x,y,1/2+z
x,-y,1/2+z
loop_
_atom_site_type_symbol
_atom_site_label
_atom_site_fract_x
_atom_site_fract_y
_atom_site_fract_z
Si Si1 0.417065 0.843182 0.428640
Si Si2 0.020131 0.654439 0.117663
Si Si3 0.140854 0.803929 0.671665
Si Si4 0.147964 0.564352 0.548057
Si Si5 0.250000 0.000000 0.039141
O O1 0.417060 0.749864 0.537865
O O2 0.535372 0.860782 0.384336
O O3 0.356298 0.794099 0.314140
O O4 0.354006 0.964236 0.463256
O O5 0.080789 0.530344 0.121909
O O6 0.000000 0.705529 0.250000
O O7 0.908079 0.624520 0.063706
O O8 0.170538 0.670280 0.638496
O O9 0.231231 0.887605 0.623342
O O10 0.250000 0.500000 0.499129
#
# Coordination Sequence:
#
# PCOD8223548 Si02
#       5
#     8   8   8   8   4
#     4  10  23  45  66  95 132 171 218 269 334 381
#     4  10  23  42  67  96 134 172 212 266 328 397
#     4  10  23  43  67  93 135 173 212 277 325 385
#     4  10  22  41  65 100 130 172 215 266 328 390
#     4  12  22  44  66 100 124 174 228 270 318 390
#
# _framework density 22.156832999999999
#
# number of rings (size 3 to 8) (size 9 to 14) (size 15 to 20)
#    0.000    1.778    0.000    2.667    9.333    0.889 
#   32.000    0.000    0.000    0.000    0.000    0.000 
#    0.000    0.000    0.000    0.000    0.000    0.000 
#
# Total GULP energy -446160.982325 kJ/mol
# GULP energy per Si atom -12393.360620 kJ/mol
# Density = 2.210640 g / cm^3
# Si number density = 22.156833 Si / 1000 Ang^3
#
#
#
# Elastic Constant Matrix: (Units=GPa)
#
#
# Indices 1 2 3 4 5 6 
#
# 1 69.7870 30.0268 30.5017 0.0000 0.0000 0.0000
# 2 30.0268 115.6876 62.7197 0.0000 0.0000 0.0000
# 3 30.5017 62.7197 164.2853 0.0000 0.0000 0.0000
# 4 0.0000 0.0000 0.0000 23.6244 0.0000 0.0000
# 5 0.0000 0.0000 0.0000 0.0000 9.6148 0.0000
# 6 0.0000 0.0000 0.0000 0.0000 0.0000 41.1112
#
#
#
# Elastic Compliance Matrix: (Units=1/GPa)
#
#
# Indices 1 2 3 4 5 6 
#
# 1 0.016545 -0.003315 -0.001806 0.000000 0.000000 0.000000
# 2 -0.003315 0.011564 -0.003799 0.000000 0.000000 0.000000
# 3 -0.001806 -0.003799 0.007873 0.000000 0.000000 0.000000
# 4 0.000000 0.000000 0.000000 0.042329 0.000000 0.000000
# 5 0.000000 0.000000 0.000000 0.000000 0.104007 0.000000
# 6 0.000000 0.000000 0.000000 0.000000 0.000000 0.024324
#
#
# Mechanical properties :
#
#
# Convention : Reuss Voigt Hill
#
# Bulk Modulus (GPa) = 55.12445 66.25072 60.68758
# Shear Modulus (GPa) = 21.68908 29.97084 25.82996
#
# Velocity S-wave (km/s) = 3.13211 3.68185 3.41805
# Velocity P-wave (km/s) = 6.16550 6.93112 6.55949
#
# Compressibility (1/GPa) = 0.01814077
#
# Stress axis : x y z
#
# Youngs Moduli (GPa) = 60.44084 86.47345 127.01900
#
# Poissons Ratio (x) = 0.28667 0.22942
# Poissons Ratio (y) = 0.20037 0.48260
# Poissons Ratio (z) = 0.10917 0.32855
#
# Static dielectric constant tensor:
#      x y z
#    x 4.037270 0.000000 0.000000 
#    y 0.000000 3.863290 0.000000 
#    z 0.000000 0.000000 3.910650 
# 
# 
# High freq. dielectric constant tensor:
#      x y z
#    x 1.874280 0.000000 0.000000 
#    y 0.000000 1.870220 0.000000 
#    z 0.000000 0.000000 1.866900 
# 
# From -- ./inp_files/7393.got.cif
#   From: 2010.03.12/outbox.cif.g09.slc.cpg/sg54_4_cif.got.tgz:7393.got - 2010.04.16 15:00:50.
