data_PCOD8223282
_publ_section_title
;
Structure prediction by ZEFSAII (Michael W. Deem and Ramdas Pophale) SiO2 
 PCOD8223282
Probable space group: P C C A
;
_chemical_formula_sum "Si O2"
_cell_formula_units_Z 64
_cell_length_a 21.668993
_cell_length_b 5.470028
_cell_length_c 25.874060
_cell_angle_alpha 90.000000
_cell_angle_beta 90.000000
_cell_angle_gamma 90.000000
_cell_volume 3066.852291
_symmetry_space_group_name_H-M "P C C A"
_symmetry_group_IT_number 54
_symmetry_cell_setting 'orthorhombic'
loop_
_space_group_symop_operation_xyz
x,y,z
1/2-x,-y,z
1/2+x,-y,1/2-z
-x,y,1/2-z
-x,-y,-z
1/2+x,y,-z
1/2-x,y,1/2+z
x,-y,1/2+z
loop_
_atom_site_type_symbol
_atom_site_label
_atom_site_fract_x
_atom_site_fract_y
_atom_site_fract_z
Si Si1 0.403011 0.191383 0.183670
Si Si2 0.514171 0.652145 0.902626
Si Si3 0.320139 0.426823 0.432046
Si Si4 0.908503 0.046735 0.558801
Si Si5 0.788598 0.753680 0.384057
Si Si6 0.429136 0.697124 0.242247
Si Si7 0.585234 0.669580 0.141973
Si Si8 0.878988 0.317239 0.973482
O O1 0.451633 0.158817 0.136248
O O2 0.334909 0.257835 0.164058
O O3 0.420992 0.426835 0.218337
O O4 0.400150 0.927366 0.211511
O O5 0.461842 0.748746 0.942448
O O6 0.481600 0.457352 0.865219
O O7 0.568519 0.543218 0.939538
O O8 0.250000 0.500000 0.424834
O O9 0.337148 0.139851 0.434532
O O10 0.357326 0.533867 0.384106
O O11 0.345905 0.503996 0.487414
O O12 0.923545 0.923498 0.613293
O O13 0.913475 0.892193 0.506621
O O14 0.750000 0.500000 0.385017
O O15 0.825908 0.790553 0.437164
O O16 0.750000 0.000000 0.377353
O O17 0.500000 0.761410 0.250000
O O18 0.397156 0.697849 0.298425
#
# Coordination Sequence:
#
# PCOD8223282 Si02
#       8
#     8   8   8   8   8   8   8   8
#     4  11  25  42  70 101 133 177 225 277 345 406
#     4  10  21  40  58  97 133 168 209 270 340 396
#     4  10  23  41  61  87 128 172 224 269 319 391
#     4  10  22  38  62  90 132 169 217 268 329 397
#     4  11  25  46  70  96 138 176 228 282 333 398
#     4  12  23  41  71 101 134 171 223 277 344 413
#     4  10  23  39  62  91 126 169 213 273 330 394
#     4  10  23  36  64  96 128 176 217 268 328 402
#
# _framework density 20.868302
#
# number of rings (size 3 to 8) (size 9 to 14) (size 15 to 20)
#    0.000    1.500    1.250    2.625    7.000    7.000 
#    0.000    1.875    2.750    0.000    0.000    0.000 
#    0.000    0.000    0.000    0.000    0.000    0.000 
#
# Total GULP energy -792873.483269 kJ/mol
# GULP energy per Si atom -12388.648176 kJ/mol
# Density = 2.082080 g / cm^3
# Si number density = 20.868302 Si / 1000 Ang^3
#
#
#
# Elastic Constant Matrix: (Units=GPa)
#
#
# Indices 1 2 3 4 5 6 
#
# 1 120.6394 29.6053 43.5564 0.0000 0.0000 0.0000
# 2 29.6053 87.3012 20.2231 0.0000 0.0000 0.0000
# 3 43.5564 20.2231 115.5409 0.0000 0.0000 0.0000
# 4 0.0000 0.0000 0.0000 -311.6354 0.0000 0.0000
# 5 0.0000 0.0000 0.0000 0.0000 -38.0814 0.0000
# 6 0.0000 0.0000 0.0000 0.0000 0.0000 -77.3860
#
#
#
# Elastic Compliance Matrix: (Units=1/GPa)
#
#
# Indices 1 2 3 4 5 6 
#
# 1 0.010157 -0.002666 -0.003363 0.000000 0.000000 0.000000
# 2 -0.002666 0.012638 -0.001207 0.000000 0.000000 0.000000
# 3 -0.003363 -0.001207 0.010134 0.000000 0.000000 0.000000
# 4 0.000000 0.000000 0.000000 -0.003209 0.000000 0.000000
# 5 0.000000 0.000000 0.000000 0.000000 -0.026260 0.000000
# 6 0.000000 0.000000 0.000000 0.000000 0.000000 -0.012922
#
#
# Mechanical properties :
#
#
# Convention : Reuss Voigt Hill
#
# Bulk Modulus (GPa) = 54.17494 56.69457 55.43476
# Shear Modulus (GPa) = 447.93589 -70.08078 188.92755
#
# Velocity S-wave (km/s) = 14.66680 -5.80132 9.52522
# Velocity P-wave (km/s) = 17.68719 4.20083 12.14886
#
# Compressibility (1/GPa) = 0.01845872
#
# Stress axis : x y z
#
# Youngs Moduli (GPa) = 98.45088 79.12528 98.67928
#
# Poissons Ratio (x) = 0.21092 0.33181
# Poissons Ratio (y) = 0.26243 0.11912
# Poissons Ratio (z) = 0.33104 0.09552
#
# Static dielectric constant tensor:
#      x y z
#    x 3.340010 0.000000 0.000000 
#    y 0.000000 3.798510 0.000000 
#    z 0.000000 0.000000 4.071920 
# 
# 
# High freq. dielectric constant tensor:
#      x y z
#    x 1.817910 0.000000 0.000000 
#    y 0.000000 1.811750 0.000000 
#    z 0.000000 0.000000 1.826860 
# 
# From -- ./inp_files/26704.got.cif
#   From: 2010.03.12/outbox.cif.g09.slc.cpg/sg54_14_cif.got.tgz:26704.got - 2010.04.16 15:00:50.
