data_PCOD8223270
_publ_section_title
;
Structure prediction by ZEFSAII (Michael W. Deem and Ramdas Pophale) SiO2 
 PCOD8223270
Probable space group: P C C A
;
_chemical_formula_sum "Si O2"
_cell_formula_units_Z 40
_cell_length_a 16.865379
_cell_length_b 12.355828
_cell_length_c 8.977296
_cell_angle_alpha 90.000000
_cell_angle_beta 90.000000
_cell_angle_gamma 90.000000
_cell_volume 1870.740309
_symmetry_space_group_name_H-M "P C C A"
_symmetry_group_IT_number 54
_symmetry_cell_setting 'orthorhombic'
loop_
_space_group_symop_operation_xyz
x,y,z
1/2-x,-y,z
1/2+x,-y,1/2-z
-x,y,1/2-z
-x,-y,-z
1/2+x,y,-z
1/2-x,y,1/2+z
x,-y,1/2+z
loop_
_atom_site_type_symbol
_atom_site_label
_atom_site_fract_x
_atom_site_fract_y
_atom_site_fract_z
Si Si1 0.085377 0.919806 0.823100
Si Si2 0.916947 0.128948 0.828639
Si Si3 0.182169 0.331471 0.586825
Si Si4 0.155809 0.698502 0.743975
Si Si5 0.941405 0.507411 0.864096
O O1 0.135966 0.825311 0.746304
O O2 0.000000 0.919513 0.750000
O O3 0.124327 0.034608 0.772022
O O4 0.074796 0.911166 0.000520
O O5 0.861671 0.233621 0.829488
O O6 0.000000 0.160514 0.750000
O O7 0.273092 0.328322 0.632828
O O8 0.179441 0.332550 0.409907
O O9 0.141047 0.443540 0.631654
O O10 0.080078 0.630555 0.684586
O O11 0.000000 0.450018 0.750000
O O12 0.000000 0.500000 0.000000
#
# Coordination Sequence:
#
# PCOD8223270 Si02
#       5
#     8   8   8   8   8
#     4  10  21  39  65  94 130 168 215 265 313 380
#     4  10  21  40  64  97 128 169 217 262 318 375
#     4  11  26  43  64  95 133 170 214 267 326 387
#     4  11  26  43  64  95 132 171 211 268 327 382
#     4  12  25  45  70  95 124 166 217 267 325 392
#
# _framework density 21.381910000000001
#
# number of rings (size 3 to 8) (size 9 to 14) (size 15 to 20)
#    0.000    1.200    2.000    4.200    5.600    5.600 
#    0.000    4.000    0.000    0.000    0.000    0.000 
#    0.000    0.000    0.000    0.000    0.000    0.000 
#
# Total GULP energy -495675.756986 kJ/mol
# GULP energy per Si atom -12391.893925 kJ/mol
# Density = 2.133324 g / cm^3
# Si number density = 21.381910 Si / 1000 Ang^3
#
#
#
# Elastic Constant Matrix: (Units=GPa)
#
#
# Indices 1 2 3 4 5 6 
#
# 1 83.9483 33.0103 36.3354 0.0000 0.0000 0.0000
# 2 33.0103 102.9934 38.8079 0.0000 0.0000 0.0000
# 3 36.3354 38.8079 118.0881 0.0000 0.0000 0.0000
# 4 0.0000 0.0000 0.0000 31.1990 0.0000 0.0000
# 5 0.0000 0.0000 0.0000 0.0000 40.1975 0.0000
# 6 0.0000 0.0000 0.0000 0.0000 0.0000 35.1491
#
#
#
# Elastic Compliance Matrix: (Units=1/GPa)
#
#
# Indices 1 2 3 4 5 6 
#
# 1 0.014739 -0.003441 -0.003404 0.000000 0.000000 0.000000
# 2 -0.003441 0.011885 -0.002847 0.000000 0.000000 0.000000
# 3 -0.003404 -0.002847 0.010451 0.000000 0.000000 0.000000
# 4 0.000000 0.000000 0.000000 0.032052 0.000000 0.000000
# 5 0.000000 0.000000 0.000000 0.000000 0.024877 0.000000
# 6 0.000000 0.000000 0.000000 0.000000 0.000000 0.028450
#
#
# Mechanical properties :
#
#
# Convention : Reuss Voigt Hill
#
# Bulk Modulus (GPa) = 56.52799 57.92633 57.22716
# Shear Modulus (GPa) = 33.84411 34.43420 34.13916
#
# Velocity S-wave (km/s) = 3.98281 4.01738 4.00013
# Velocity P-wave (km/s) = 6.90254 6.97633 6.93953
#
# Compressibility (1/GPa) = 0.01769035
#
# Stress axis : x y z
#
# Youngs Moduli (GPa) = 67.84876 84.13941 95.68162
#
# Poissons Ratio (x) = 0.28954 0.32572
# Poissons Ratio (y) = 0.23348 0.27240
# Poissons Ratio (z) = 0.23097 0.23954
#
# Static dielectric constant tensor:
#      x y z
#    x 3.727750 0.000000 0.000000 
#    y 0.000000 4.816360 0.000000 
#    z 0.000000 0.000000 3.996510 
# 
# 
# High freq. dielectric constant tensor:
#      x y z
#    x 1.832070 0.000000 0.000000 
#    y 0.000000 1.851950 0.000000 
#    z 0.000000 0.000000 1.855060 
# 
# From -- ./inp_files/3943.got.cif
#   From: 2010.03.12/outbox.cif.g09.slc.cpg/sg54_2_cif.got.tgz:3943.got - 2010.04.16 15:00:50.
