data_PCOD8223421
_publ_section_title
;
Structure prediction by ZEFSAII (Michael W. Deem and Ramdas Pophale) SiO2 
 PCOD8223421
Probable space group: P C C A
;
_chemical_formula_sum "Si O2"
_cell_formula_units_Z 48
_cell_length_a 21.469565
_cell_length_b 5.993990
_cell_length_c 18.545204
_cell_angle_alpha 90.000000
_cell_angle_beta 90.000000
_cell_angle_gamma 90.000000
_cell_volume 2386.551850
_symmetry_space_group_name_H-M "P C C A"
_symmetry_group_IT_number 54
_symmetry_cell_setting 'orthorhombic'
loop_
_space_group_symop_operation_xyz
x,y,z
1/2-x,-y,z
1/2+x,-y,1/2-z
-x,y,1/2-z
-x,-y,-z
1/2+x,y,-z
1/2-x,y,1/2+z
x,-y,1/2+z
loop_
_atom_site_type_symbol
_atom_site_label
_atom_site_fract_x
_atom_site_fract_y
_atom_site_fract_z
Si Si1 0.606426 0.210740 0.893908
Si Si2 0.938107 0.900005 0.037395
Si Si3 0.401867 0.826913 0.328235
Si Si4 0.178425 0.559095 0.726893
Si Si5 0.993975 0.529234 0.135374
Si Si6 0.584463 0.174371 0.286700
O O1 0.661630 0.341798 0.852760
O O2 0.543560 0.356649 0.896434
O O3 0.598802 0.972405 0.856708
O O4 0.616149 0.157455 0.978662
O O5 0.958914 0.671078 0.074562
O O6 0.902831 0.078263 0.090099
O O7 0.000000 0.000000 0.000000
O O8 0.337219 0.742214 0.290383
O O9 0.442975 0.607140 0.320452
O O10 0.432728 0.020706 0.280924
O O11 0.250000 0.500000 0.731164
O O12 0.142713 0.326545 0.736138
O O13 0.024192 0.683920 0.195193
#
# Coordination Sequence:
#
# PCOD8223421 Si02
#       6
#     8   8   8   8   8   8
#     4  10  22  37  62  90 122 168 200 251 323 382
#     4  12  22  37  57  93 134 165 192 249 322 406
#     4  11  24  35  60  91 125 164 199 257 321 383
#     4  10  24  44  65  84 113 165 225 273 304 362
#     4  11  21  36  59  93 133 161 196 244 317 404
#     4  10  22  40  59  91 122 156 208 257 312 381
#
# _framework density 20.1127
#
# number of rings (size 3 to 8) (size 9 to 14) (size 15 to 20)
#    0.000    1.333    3.333    1.500    0.000   18.667 
#    0.000    0.000    0.000   15.000    0.000    0.000 
#    0.000    0.000    0.000    0.000    0.000    0.000 
#
# Total GULP energy -594805.234908 kJ/mol
# GULP energy per Si atom -12391.775727 kJ/mol
# Density = 2.006692 g / cm^3
# Si number density = 20.112700 Si / 1000 Ang^3
#
#
#
# Elastic Constant Matrix: (Units=GPa)
#
#
# Indices 1 2 3 4 5 6 
#
# 1 72.8865 38.1507 72.8214 0.0000 0.0000 0.0000
# 2 38.1507 123.9797 65.6591 0.0000 0.0000 0.0000
# 3 72.8214 65.6591 142.4121 0.0000 0.0000 0.0000
# 4 0.0000 0.0000 0.0000 42.2760 0.0000 0.0000
# 5 0.0000 0.0000 0.0000 0.0000 9.8113 0.0000
# 6 0.0000 0.0000 0.0000 0.0000 0.0000 20.5224
#
#
#
# Elastic Compliance Matrix: (Units=1/GPa)
#
#
# Indices 1 2 3 4 5 6 
#
# 1 0.028228 -0.001379 -0.013798 0.000000 0.000000 0.000000
# 2 -0.001379 0.010739 -0.004246 0.000000 0.000000 0.000000
# 3 -0.013798 -0.004246 0.016035 0.000000 0.000000 0.000000
# 4 0.000000 0.000000 0.000000 0.023654 0.000000 0.000000
# 5 0.000000 0.000000 0.000000 0.000000 0.101923 0.000000
# 6 0.000000 0.000000 0.000000 0.000000 0.000000 0.048727
#
#
# Mechanical properties :
#
#
# Convention : Reuss Voigt Hill
#
# Bulk Modulus (GPa) = 61.89883 76.94896 69.42390
# Shear Modulus (GPa) = 18.27899 25.36507 21.82203
#
# Velocity S-wave (km/s) = 3.01795 3.55512 3.29749
# Velocity P-wave (km/s) = 6.55643 7.42925 7.00645
#
# Compressibility (1/GPa) = 0.01615539
#
# Stress axis : x y z
#
# Youngs Moduli (GPa) = 35.42630 93.12004 62.36237
#
# Poissons Ratio (x) = 0.12837 0.86050
# Poissons Ratio (y) = 0.04884 0.26480
# Poissons Ratio (z) = 0.48883 0.39541
#
# Static dielectric constant tensor:
#      x y z
#    x 3.150310 0.000000 0.000000 
#    y 0.000000 5.472910 0.000000 
#    z 0.000000 0.000000 3.937200 
# 
# 
# High freq. dielectric constant tensor:
#      x y z
#    x 1.727710 0.000000 0.000000 
#    y 0.000000 1.818680 0.000000 
#    z 0.000000 0.000000 1.796780 
# 
# From -- ./inp_files/22101.got.cif
#   From: 2010.03.12/outbox.cif.g09.slc.cpg/sg54_12_cif.got.tgz:22101.got - 2010.04.16 15:00:50.
