data_PCOD8223636
_publ_section_title
;
Structure prediction by ZEFSAII (Michael W. Deem and Ramdas Pophale) SiO2 
 PCOD8223636
Probable space group: P C C A
;
_chemical_formula_sum "Si O2"
_cell_formula_units_Z 56
_cell_length_a 14.155620
_cell_length_b 7.623599
_cell_length_c 21.099208
_cell_angle_alpha 90.000000
_cell_angle_beta 90.000000
_cell_angle_gamma 90.000000
_cell_volume 2276.958387
_symmetry_space_group_name_H-M "P C C A"
_symmetry_group_IT_number 54
_symmetry_cell_setting 'orthorhombic'
loop_
_space_group_symop_operation_xyz
x,y,z
1/2-x,-y,z
1/2+x,-y,1/2-z
-x,y,1/2-z
-x,-y,-z
1/2+x,y,-z
1/2-x,y,1/2+z
x,-y,1/2+z
loop_
_atom_site_type_symbol
_atom_site_label
_atom_site_fract_x
_atom_site_fract_y
_atom_site_fract_z
Si Si1 0.525659 0.056968 0.320131
Si Si2 0.645012 0.076679 0.615375
Si Si3 0.793084 0.191722 0.881646
Si Si4 0.602508 0.278849 0.496820
Si Si5 0.854611 0.563301 0.694894
Si Si6 0.471491 0.549559 0.911130
Si Si7 0.890063 0.328462 0.330588
O O1 0.500000 0.114565 0.250000
O O2 0.605280 0.191829 0.345740
O O3 0.427476 0.069549 0.358977
O O4 0.564864 0.861841 0.325397
O O5 0.607830 0.114792 0.544219
O O6 0.640676 0.248961 0.659731
O O7 0.750000 0.000000 0.614890
O O8 0.805045 0.269963 0.952307
O O9 0.722090 0.316257 0.843431
O O10 0.750000 0.000000 0.887029
O O11 0.597881 0.454815 0.538521
O O12 0.511378 0.279227 0.448443
O O13 0.750000 0.500000 0.703728
O O14 0.910693 0.417082 0.652699
O O15 0.904445 0.576488 0.763177
O O16 0.560803 0.429298 0.889012
#
# Coordination Sequence:
#
# PCOD8223636 Si02
#       7
#     8   8   8   8   8   8   8
#     4  11  21  42  68  95 135 175 221 284 346 401
#     4  11  24  43  72  99 135 186 229 282 350 412
#     4  10  25  40  64 100 130 171 224 278 337 407
#     4  10  22  45  62  98 131 175 229 273 339 401
#     4  11  24  41  67 105 134 174 230 287 339 411
#     4  10  22  44  68  92 131 183 221 276 344 406
#     4  11  21  44  69  96 133 177 225 275 352 412
#
# _framework density 24.594211999999999
#
# number of rings (size 3 to 8) (size 9 to 14) (size 15 to 20)
#    0.000    1.429    4.286    0.857    4.000    1.714 
#   18.000    0.000    0.000    0.000    0.000    0.000 
#    0.000    0.000    0.000    0.000    0.000    0.000 
#
# Total GULP energy -693948.515821 kJ/mol
# GULP energy per Si atom -12391.937783 kJ/mol
# Density = 2.453823 g / cm^3
# Si number density = 24.594212 Si / 1000 Ang^3
#
#
#
# Elastic Constant Matrix: (Units=GPa)
#
#
# Indices 1 2 3 4 5 6 
#
# 1 157.3240 17.2393 64.5069 0.0000 0.0000 0.0000
# 2 17.2393 28.5497 33.4161 0.0000 0.0000 0.0000
# 3 64.5069 33.4161 180.8413 0.0000 0.0000 0.0000
# 4 0.0000 0.0000 0.0000 18.1686 0.0000 0.0000
# 5 0.0000 0.0000 0.0000 0.0000 42.1193 0.0000
# 6 0.0000 0.0000 0.0000 0.0000 0.0000 19.0588
#
#
#
# Elastic Compliance Matrix: (Units=1/GPa)
#
#
# Indices 1 2 3 4 5 6 
#
# 1 0.007516 -0.001787 -0.002351 0.000000 0.000000 0.000000
# 2 -0.001787 0.045118 -0.007699 0.000000 0.000000 0.000000
# 3 -0.002351 -0.007699 0.007791 0.000000 0.000000 0.000000
# 4 0.000000 0.000000 0.000000 0.055040 0.000000 0.000000
# 5 0.000000 0.000000 0.000000 0.000000 0.023742 0.000000
# 6 0.000000 0.000000 0.000000 0.000000 0.000000 0.052469
#
#
# Mechanical properties :
#
#
# Convention : Reuss Voigt Hill
#
# Bulk Modulus (GPa) = 27.21080 66.33773 46.77426
# Shear Modulus (GPa) = 21.96834 32.63951 27.30393
#
# Velocity S-wave (km/s) = 2.99194 3.64692 3.33555
# Velocity P-wave (km/s) = 4.79828 6.69065 5.82187
#
# Compressibility (1/GPa) = 0.03675012
#
# Stress axis : x y z
#
# Youngs Moduli (GPa) = 133.04936 22.16432 128.35370
#
# Poissons Ratio (x) = 0.03961 0.30173
# Poissons Ratio (y) = 0.23775 0.98826
# Poissons Ratio (z) = 0.31277 0.17065
#
# Static dielectric constant tensor:
#      x y z
#    x 4.788300 0.000000 0.000000 
#    y 0.000000 4.259450 0.000000 
#    z 0.000000 0.000000 4.759370 
# 
# 
# High freq. dielectric constant tensor:
#      x y z
#    x 1.986210 0.000000 0.000000 
#    y 0.000000 1.958240 0.000000 
#    z 0.000000 0.000000 1.998870 
# 
# From -- ./inp_files/21600.got.cif
#   From: 2010.03.12/outbox.cif.g09.slc.cpg/sg54_11_cif.got.tgz:21600.got - 2010.04.16 15:00:50.
