data_PCOD8223518
_publ_section_title
;
Structure prediction by ZEFSAII (Michael W. Deem and Ramdas Pophale) SiO2 
 PCOD8223518
Probable space group: P C C A
;
_chemical_formula_sum "Si O2"
_cell_formula_units_Z 48
_cell_length_a 20.478272
_cell_length_b 6.324993
_cell_length_c 17.383434
_cell_angle_alpha 90.000000
_cell_angle_beta 90.000000
_cell_angle_gamma 90.000000
_cell_volume 2251.588021
_symmetry_space_group_name_H-M "P C C A"
_symmetry_group_IT_number 54
_symmetry_cell_setting 'orthorhombic'
loop_
_space_group_symop_operation_xyz
x,y,z
1/2-x,-y,z
1/2+x,-y,1/2-z
-x,y,1/2-z
-x,-y,-z
1/2+x,y,-z
1/2-x,y,1/2+z
x,-y,1/2+z
loop_
_atom_site_type_symbol
_atom_site_label
_atom_site_fract_x
_atom_site_fract_y
_atom_site_fract_z
Si Si1 0.314318 0.367598 0.426166
Si Si2 0.070461 0.512328 0.035343
Si Si3 0.914826 0.204035 0.327141
Si Si4 0.250000 0.000000 0.504448
Si Si5 0.500000 0.876659 0.750000
Si Si6 0.346465 0.174406 0.116380
Si Si7 0.377021 0.589455 0.763934
O O1 0.250000 0.500000 0.445519
O O2 0.375835 0.448489 0.473529
O O3 0.329672 0.390510 0.336190
O O4 0.300986 0.123928 0.449773
O O5 0.063956 0.354908 0.105689
O O6 0.089421 0.742040 0.069819
O O7 0.000000 0.500000 0.000000
O O8 0.897447 0.344301 0.251410
O O9 0.972464 0.033446 0.314980
O O10 0.852770 0.066719 0.354274
O O11 0.285512 0.825107 0.558260
O O12 0.441628 0.729208 0.781044
O O13 0.336147 0.327693 0.189820
#
# Coordination Sequence:
#
# PCOD8223518 Si02
#       7
#     8   8   8   4   4   8   8
#     4  12  27  46  68 104 144 183 233 303 356 424
#     4  11  25  42  71 103 140 182 235 288 356 420
#     4  10  22  42  67  99 138 185 226 292 343 421
#     4  12  24  46  70  96 144 184 234 288 358 426
#     4  10  22  40  68 100 138 176 234 286 346 426
#     4  10  23  45  68  99 130 190 232 279 349 431
#     4  10  25  42  67 102 138 181 234 288 355 416
#
# _framework density 21.318287000000002
#
# number of rings (size 3 to 8) (size 9 to 14) (size 15 to 20)
#    0.000    1.333    3.333    0.500    9.333    6.667 
#    0.000    0.000    0.000    0.000    0.000    0.000 
#    0.000    0.000    0.000    0.000    0.000    0.000 
#
# Total GULP energy -595010.370164 kJ/mol
# GULP energy per Si atom -12396.049378 kJ/mol
# Density = 2.126977 g / cm^3
# Si number density = 21.318287 Si / 1000 Ang^3
#
#
#
# Elastic Constant Matrix: (Units=GPa)
#
#
# Indices 1 2 3 4 5 6 
#
# 1 116.9310 44.3894 57.8007 0.0000 0.0000 0.0000
# 2 44.3894 123.9250 46.6964 0.0000 0.0000 0.0000
# 3 57.8007 46.6964 120.0958 0.0000 0.0000 0.0000
# 4 0.0000 0.0000 0.0000 64.9461 0.0000 0.0000
# 5 0.0000 0.0000 0.0000 0.0000 35.3957 0.0000
# 6 0.0000 0.0000 0.0000 0.0000 0.0000 24.2527
#
#
#
# Elastic Compliance Matrix: (Units=1/GPa)
#
#
# Indices 1 2 3 4 5 6 
#
# 1 0.011824 -0.002450 -0.004738 0.000000 0.000000 0.000000
# 2 -0.002450 0.009962 -0.002694 0.000000 0.000000 0.000000
# 3 -0.004738 -0.002694 0.011655 0.000000 0.000000 0.000000
# 4 0.000000 0.000000 0.000000 0.015397 0.000000 0.000000
# 5 0.000000 0.000000 0.000000 0.000000 0.028252 0.000000
# 6 0.000000 0.000000 0.000000 0.000000 0.000000 0.041232
#
#
# Mechanical properties :
#
#
# Convention : Reuss Voigt Hill
#
# Bulk Modulus (GPa) = 73.12078 73.19163 73.15620
# Shear Modulus (GPa) = 35.05145 39.05658 37.05402
#
# Velocity S-wave (km/s) = 4.05927 4.28491 4.17361
# Velocity P-wave (km/s) = 7.50628 7.67385 7.59053
#
# Compressibility (1/GPa) = 0.01367600
#
# Stress axis : x y z
#
# Youngs Moduli (GPa) = 84.57145 100.37871 85.80123
#
# Poissons Ratio (x) = 0.24593 0.40655
# Poissons Ratio (y) = 0.20720 0.23119
# Poissons Ratio (z) = 0.40072 0.27047
#
# Static dielectric constant tensor:
#      x y z
#    x 3.752500 0.000000 0.000000 
#    y 0.000000 4.134860 0.000000 
#    z 0.000000 0.000000 3.962400 
# 
# 
# High freq. dielectric constant tensor:
#      x y z
#    x 1.827050 0.000000 0.000000 
#    y 0.000000 1.847260 0.000000 
#    z 0.000000 0.000000 1.840340 
# 
# From -- ./inp_files/19085.got.cif
#   From: 2010.03.12/outbox.cif.g09.slc.cpg/sg54_10_cif.got.tgz:19085.got - 2010.04.16 15:00:50.
