data_PCOD8223576
_publ_section_title
;
Structure prediction by ZEFSAII (Michael W. Deem and Ramdas Pophale) SiO2 
 PCOD8223576
Probable space group: P C C A
;
_chemical_formula_sum "Si O2"
_cell_formula_units_Z 52
_cell_length_a 20.833483
_cell_length_b 8.856857
_cell_length_c 13.927746
_cell_angle_alpha 90.000000
_cell_angle_beta 90.000000
_cell_angle_gamma 90.000000
_cell_volume 2569.936268
_symmetry_space_group_name_H-M "P C C A"
_symmetry_group_IT_number 54
_symmetry_cell_setting 'orthorhombic'
loop_
_space_group_symop_operation_xyz
x,y,z
1/2-x,-y,z
1/2+x,-y,1/2-z
-x,y,1/2-z
-x,-y,-z
1/2+x,y,-z
1/2-x,y,1/2+z
x,-y,1/2+z
loop_
_atom_site_type_symbol
_atom_site_label
_atom_site_fract_x
_atom_site_fract_y
_atom_site_fract_z
Si Si1 0.000000 0.751604 0.250000
Si Si2 0.533956 0.510421 0.899535
Si Si3 0.678480 0.712112 0.161175
Si Si4 0.750000 0.000000 0.717853
Si Si5 0.839179 0.660699 0.444704
Si Si6 0.122050 0.921592 0.173991
Si Si7 0.563157 0.787350 0.287033
Si Si8 0.250000 0.500000 0.195398
O O1 0.003365 0.642162 0.342438
O O2 0.933365 0.847657 0.257285
O O3 0.608453 0.537883 0.917521
O O4 0.533921 0.353435 0.843608
O O5 0.500000 0.500000 0.000000
O O6 0.606240 0.747400 0.194263
O O7 0.700592 0.586286 0.236605
O O8 0.722300 0.862041 0.155137
O O9 0.680121 0.642840 0.055070
O O10 0.808307 0.072509 0.777211
O O11 0.868503 0.827151 0.423791
O O12 0.780488 0.627106 0.373335
O O13 0.101456 0.092764 0.146209
O O14 0.500000 0.874799 0.250000
#
# Coordination Sequence:
#
# PCOD8223576 Si02
#       8
#     4   8   8   4   8   8   8   4
#     4  10  22  42  64  92 134 164 212 282 322 392
#     4  11  23  41  65  95 128 170 219 270 330 399
#     4  11  24  43  66  95 130 173 221 274 338 398
#     4  10  22  44  68  88 134 178 214 276 334 402
#     4  11  24  41  64  98 127 171 224 271 332 406
#     4  10  22  42  65  96 132 172 218 270 336 392
#     4  11  21  42  67  93 131 174 215 272 333 396
#     4  12  22  46  66  92 136 170 220 284 332 396
#
# _framework density 20.233965000000001
#
# number of rings (size 3 to 8) (size 9 to 14) (size 15 to 20)
#    0.000    1.231    4.615    1.385    0.000    0.615 
#    8.308    2.308    0.000    0.000    0.000    0.000 
#    0.000    0.000    0.000    0.000    0.000    0.000 
#
# Total GULP energy -644471.544438 kJ/mol
# GULP energy per Si atom -12393.683547 kJ/mol
# Density = 2.018791 g / cm^3
# Si number density = 20.233965 Si / 1000 Ang^3
#
#
#
# Elastic Constant Matrix: (Units=GPa)
#
#
# Indices 1 2 3 4 5 6 
#
# 1 122.6160 32.8847 44.8284 0.0000 0.0000 0.0000
# 2 32.8847 88.8662 36.2075 0.0000 0.0000 0.0000
# 3 44.8284 36.2075 124.9546 0.0000 0.0000 0.0000
# 4 0.0000 0.0000 0.0000 20.1709 0.0000 0.0000
# 5 0.0000 0.0000 0.0000 0.0000 31.6952 0.0000
# 6 0.0000 0.0000 0.0000 0.0000 0.0000 31.5944
#
#
#
# Elastic Compliance Matrix: (Units=1/GPa)
#
#
# Indices 1 2 3 4 5 6 
#
# 1 0.009854 -0.002501 -0.002810 0.000000 0.000000 0.000000
# 2 -0.002501 0.013394 -0.002984 0.000000 0.000000 0.000000
# 3 -0.002810 -0.002984 0.009876 0.000000 0.000000 0.000000
# 4 0.000000 0.000000 0.000000 0.049576 0.000000 0.000000
# 5 0.000000 0.000000 0.000000 0.000000 0.031550 0.000000
# 6 0.000000 0.000000 0.000000 0.000000 0.000000 0.031651
#
#
# Mechanical properties :
#
#
# Convention : Reuss Voigt Hill
#
# Bulk Modulus (GPa) = 60.48575 62.69756 61.59165
# Shear Modulus (GPa) = 29.76126 31.52653 30.64390
#
# Velocity S-wave (km/s) = 3.83934 3.95156 3.89585
# Velocity P-wave (km/s) = 7.04358 7.20231 7.12339
#
# Compressibility (1/GPa) = 0.01653282
#
# Stress axis : x y z
#
# Youngs Moduli (GPa) = 101.48324 74.65916 101.25826
#
# Poissons Ratio (x) = 0.18675 0.28457
# Poissons Ratio (y) = 0.25384 0.30213
# Poissons Ratio (z) = 0.28520 0.22277
#
# Static dielectric constant tensor:
#      x y z
#    x 4.022310 0.000000 0.000000 
#    y 0.000000 3.908290 0.000000 
#    z 0.000000 0.000000 3.354910 
# 
# 
# High freq. dielectric constant tensor:
#      x y z
#    x 1.810690 0.000000 0.000000 
#    y 0.000000 1.804640 0.000000 
#    z 0.000000 0.000000 1.764570 
# 
# From -- ./inp_files/14644.got.cif
#   From: 2010.03.12/outbox.cif.g09.slc.cpg/sg54_8_cif.got.tgz:14644.got - 2010.04.16 15:00:50.
