data_PCOD8223285
_publ_section_title
;
Structure prediction by ZEFSAII (Michael W. Deem and Ramdas Pophale) SiO2 
 PCOD8223285
Probable space group: P C C A
;
_chemical_formula_sum "Si O2"
_cell_formula_units_Z 64
_cell_length_a 31.270132
_cell_length_b 10.245124
_cell_length_c 9.755485
_cell_angle_alpha 90.000000
_cell_angle_beta 90.000000
_cell_angle_gamma 90.000000
_cell_volume 3125.329413
_symmetry_space_group_name_H-M "P C C A"
_symmetry_group_IT_number 54
_symmetry_cell_setting 'orthorhombic'
loop_
_space_group_symop_operation_xyz
x,y,z
1/2-x,-y,z
1/2+x,-y,1/2-z
-x,y,1/2-z
-x,-y,-z
1/2+x,y,-z
1/2-x,y,1/2+z
x,-y,1/2+z
loop_
_atom_site_type_symbol
_atom_site_label
_atom_site_fract_x
_atom_site_fract_y
_atom_site_fract_z
Si Si1 0.608579 0.349222 0.652775
Si Si2 0.589557 0.954032 0.497213
Si Si3 0.800022 0.272672 0.818974
Si Si4 0.157710 0.763781 0.462855
Si Si5 0.832081 0.865076 0.576450
Si Si6 0.451209 0.884911 0.285082
Si Si7 0.140801 0.502126 0.096880
Si Si8 0.221273 0.119357 0.174504
O O1 0.650756 0.260126 0.662041
O O2 0.567041 0.257312 0.671340
O O3 0.608678 0.416263 0.501889
O O4 0.612338 0.456602 0.773461
O O5 0.607933 0.810259 0.533851
O O6 0.574122 0.949318 0.341277
O O7 0.628330 0.052026 0.523610
O O8 0.551383 0.006403 0.594143
O O9 0.826175 0.221141 0.690284
O O10 0.806387 0.174972 0.943944
O O11 0.817196 0.416818 0.855488
O O12 0.748862 0.253500 0.794313
O O13 0.160775 0.615842 0.511612
O O14 0.186094 0.857729 0.557771
O O15 0.801072 0.933191 0.685976
O O16 0.500000 0.859428 0.250000
O O17 0.250000 0.000000 0.122541
#
# Coordination Sequence:
#
# PCOD8223285 Si02
#       8
#     8   8   8   8   8   8   8   8
#     4  10  21  42  65  89 121 166 215 264 311 394
#     4  11  21  39  67  90 127 169 204 251 320 400
#     4  11  24  36  59  88 121 163 215 271 324 359
#     4  12  22  39  62  87 120 169 221 258 314 387
#     4  10  21  40  60  90 119 163 216 257 317 390
#     4  11  23  41  66 101 134 160 201 267 334 394
#     4  11  21  41  64  87 120 167 224 264 311 383
#     4  12  24  40  58  87 128 164 211 276 330 365
#
# _framework density 20.477841000000002
#
# number of rings (size 3 to 8) (size 9 to 14) (size 15 to 20)
#    0.000    1.000    3.750    4.125    0.000    1.500 
#    0.000    1.875    0.000    0.000    0.000    0.000 
#    0.000    0.000    0.000    0.000    0.000    0.000 
#
# Total GULP energy -793333.524423 kJ/mol
# GULP energy per Si atom -12395.836319 kJ/mol
# Density = 2.043123 g / cm^3
# Si number density = 20.477841 Si / 1000 Ang^3
#
#
#
# Elastic Constant Matrix: (Units=GPa)
#
#
# Indices 1 2 3 4 5 6 
#
# 1 80.6510 33.5678 29.9341 0.0000 0.0000 0.0000
# 2 33.5678 94.8089 50.3547 0.0000 0.0000 0.0000
# 3 29.9341 50.3547 105.5161 0.0000 0.0000 0.0000
# 4 0.0000 0.0000 0.0000 27.0122 0.0000 0.0000
# 5 0.0000 0.0000 0.0000 0.0000 27.2374 0.0000
# 6 0.0000 0.0000 0.0000 0.0000 0.0000 30.4941
#
#
#
# Elastic Compliance Matrix: (Units=1/GPa)
#
#
# Indices 1 2 3 4 5 6 
#
# 1 0.014946 -0.004072 -0.002297 0.000000 0.000000 0.000000
# 2 -0.004072 0.015238 -0.006117 0.000000 0.000000 0.000000
# 3 -0.002297 -0.006117 0.013048 0.000000 0.000000 0.000000
# 4 0.000000 0.000000 0.000000 0.037020 0.000000 0.000000
# 5 0.000000 0.000000 0.000000 0.000000 0.036714 0.000000
# 6 0.000000 0.000000 0.000000 0.000000 0.000000 0.032793
#
#
# Mechanical properties :
#
#
# Convention : Reuss Voigt Hill
#
# Bulk Modulus (GPa) = 54.76146 56.52103 55.64124
# Shear Modulus (GPa) = 27.65207 28.09002 27.87104
#
# Velocity S-wave (km/s) = 3.67869 3.70770 3.69322
# Velocity P-wave (km/s) = 6.69653 6.78162 6.73921
#
# Compressibility (1/GPa) = 0.01826102
#
# Stress axis : x y z
#
# Youngs Moduli (GPa) = 66.90570 65.62570 76.64073
#
# Poissons Ratio (x) = 0.26722 0.17604
# Poissons Ratio (y) = 0.27244 0.46879
# Poissons Ratio (z) = 0.15368 0.40141
#
# Static dielectric constant tensor:
#      x y z
#    x 3.572950 0.000000 0.000000 
#    y 0.000000 3.981030 0.000000 
#    z 0.000000 0.000000 3.938330 
# 
# 
# High freq. dielectric constant tensor:
#      x y z
#    x 1.771320 0.000000 0.000000 
#    y 0.000000 1.803630 0.000000 
#    z 0.000000 0.000000 1.823700 
# 
# From -- ./inp_files/5962.got.cif
#   From: 2010.03.12/outbox.cif.g09.slc.cpg/sg54_3_cif.got.tgz:5962.got - 2010.04.16 15:00:50.
