data_PCOD8223398
_publ_section_title
;
Structure prediction by ZEFSAII (Michael W. Deem and Ramdas Pophale) SiO2 
 PCOD8223398
Probable space group: P C C A
;
_chemical_formula_sum "Si O2"
_cell_formula_units_Z 64
_cell_length_a 9.416604
_cell_length_b 12.258603
_cell_length_c 31.065529
_cell_angle_alpha 90.000000
_cell_angle_beta 90.000000
_cell_angle_gamma 90.000000
_cell_volume 3586.031013
_symmetry_space_group_name_H-M "P C C A"
_symmetry_group_IT_number 54
_symmetry_cell_setting 'orthorhombic'
loop_
_space_group_symop_operation_xyz
x,y,z
1/2-x,-y,z
1/2+x,-y,1/2-z
-x,y,1/2-z
-x,-y,-z
1/2+x,y,-z
1/2-x,y,1/2+z
x,-y,1/2+z
loop_
_atom_site_type_symbol
_atom_site_label
_atom_site_fract_x
_atom_site_fract_y
_atom_site_fract_z
Si Si1 0.976907 0.693371 0.606998
Si Si2 0.168477 0.612121 0.245858
Si Si3 0.776456 0.630762 0.160579
Si Si4 0.517478 0.692481 0.897886
Si Si5 0.918274 0.498077 0.544086
Si Si6 0.414387 0.870214 0.043320
Si Si7 0.416229 0.876266 0.542522
Si Si8 0.263380 0.371504 0.656742
O O1 0.825566 0.702594 0.630443
O O2 0.975286 0.597926 0.572096
O O3 0.020010 0.805490 0.583771
O O4 0.076597 0.664230 0.647477
O O5 0.250000 0.500000 0.240682
O O6 0.230913 0.666557 0.289404
O O7 0.208843 0.679895 0.202543
O O8 0.000000 0.592885 0.250000
O O9 0.750000 0.500000 0.153914
O O10 0.931522 0.668318 0.145633
O O11 0.459980 0.614799 0.934694
O O12 0.512349 0.814363 0.917097
O O13 0.679338 0.671538 0.884768
O O14 0.750000 0.500000 0.536901
O O15 0.000000 0.500000 0.500000
O O16 0.248573 0.842364 0.036336
O O17 0.434314 0.997345 0.053487
O O18 0.501399 0.840277 0.000520
O O19 0.250000 0.500000 0.658821
#
# Coordination Sequence:
#
# PCOD8223398 Si02
#       8
#     8   8   8   8   8   8   8   8
#     4  12  22  37  57  81 112 149 184 231 278 329
#     4  10  22  34  53  82 117 153 186 223 278 330
#     4  11  21  38  56  81 121 152 181 230 274 334
#     4  12  20  37  57  80 111 152 182 225 280 329
#     4  12  26  37  51  77 116 150 183 224 278 334
#     4  10  23  41  57  82 110 146 192 242 282 325
#     4  10  23  40  59  80 111 146 192 241 283 326
#     4  11  21  34  56  84 114 148 186 224 272 344
#
# _framework density 17.84703
#
# number of rings (size 3 to 8) (size 9 to 14) (size 15 to 20)
#    0.000    1.000    6.250    0.750    8.750    2.000 
#    0.000    0.000    0.000    0.000    0.000    5.250 
#    0.000    0.000    0.000    0.000    0.000    0.000 
#
# Total GULP energy -793346.778423 kJ/mol
# GULP energy per Si atom -12396.043413 kJ/mol
# Density = 1.780641 g / cm^3
# Si number density = 17.847030 Si / 1000 Ang^3
#
#
#
# Elastic Constant Matrix: (Units=GPa)
#
#
# Indices 1 2 3 4 5 6 
#
# 1 76.6247 24.1450 43.6047 0.0000 0.0000 0.0000
# 2 24.1450 64.4990 44.0936 0.0000 0.0000 0.0000
# 3 43.6047 44.0936 130.5952 0.0000 0.0000 0.0000
# 4 0.0000 0.0000 0.0000 23.0960 0.0000 0.0000
# 5 0.0000 0.0000 0.0000 0.0000 33.3987 0.0000
# 6 0.0000 0.0000 0.0000 0.0000 0.0000 21.7262
#
#
#
# Elastic Compliance Matrix: (Units=1/GPa)
#
#
# Indices 1 2 3 4 5 6 
#
# 1 0.016590 -0.003151 -0.004476 0.000000 0.000000 0.000000
# 2 -0.003151 0.020755 -0.005956 0.000000 0.000000 0.000000
# 3 -0.004476 -0.005956 0.011162 0.000000 0.000000 0.000000
# 4 0.000000 0.000000 0.000000 0.043298 0.000000 0.000000
# 5 0.000000 0.000000 0.000000 0.000000 0.029941 0.000000
# 6 0.000000 0.000000 0.000000 0.000000 0.000000 0.046027
#
#
# Mechanical properties :
#
#
# Convention : Reuss Voigt Hill
#
# Bulk Modulus (GPa) = 46.85209 55.04508 50.94858
# Shear Modulus (GPa) = 24.74599 26.30254 25.52426
#
# Velocity S-wave (km/s) = 3.72769 3.84314 3.78586
# Velocity P-wave (km/s) = 6.69602 7.11356 6.90794
#
# Compressibility (1/GPa) = 0.02134377
#
# Stress axis : x y z
#
# Youngs Moduli (GPa) = 60.27588 48.18097 89.58637
#
# Poissons Ratio (x) = 0.15182 0.40095
# Poissons Ratio (y) = 0.18993 0.53354
# Poissons Ratio (z) = 0.26977 0.28695
#
# Static dielectric constant tensor:
#      x y z
#    x 3.472800 0.000000 0.000000 
#    y 0.000000 3.089470 0.000000 
#    z 0.000000 0.000000 3.630910 
# 
# 
# High freq. dielectric constant tensor:
#      x y z
#    x 1.711580 0.000000 0.000000 
#    y 0.000000 1.647110 0.000000 
#    z 0.000000 0.000000 1.703560 
# 
# From -- ./inp_files/27948.got.cif
#   From: 2010.03.12/outbox.cif.g09.slc.cpg/sg54_14_cif.got.tgz:27948.got - 2010.04.16 15:00:50.
