data_PCOD8223446
_publ_section_title
;
Structure prediction by ZEFSAII (Michael W. Deem and Ramdas Pophale) SiO2 
 PCOD8223446
Probable space group: P C C A
;
_chemical_formula_sum "Si O2"
_cell_formula_units_Z 52
_cell_length_a 14.074796
_cell_length_b 8.780492
_cell_length_c 19.521323
_cell_angle_alpha 90.000000
_cell_angle_beta 90.000000
_cell_angle_gamma 90.000000
_cell_volume 2412.516031
_symmetry_space_group_name_H-M "P C C A"
_symmetry_group_IT_number 54
_symmetry_cell_setting 'orthorhombic'
loop_
_space_group_symop_operation_xyz
x,y,z
1/2-x,-y,z
1/2+x,-y,1/2-z
-x,y,1/2-z
-x,-y,-z
1/2+x,y,-z
1/2-x,y,1/2+z
x,-y,1/2+z
loop_
_atom_site_type_symbol
_atom_site_label
_atom_site_fract_x
_atom_site_fract_y
_atom_site_fract_z
Si Si1 0.587353 0.845019 0.644510
Si Si2 0.500000 0.626163 0.750000
Si Si3 0.374091 0.622806 0.189889
Si Si4 0.354654 0.497348 0.041015
Si Si5 0.002931 0.263039 0.988161
Si Si6 0.773444 0.671004 0.680402
Si Si7 0.540110 0.820159 0.137645
O O1 0.519983 0.729697 0.684703
O O2 0.552414 0.847832 0.566159
O O3 0.696071 0.793727 0.655023
O O4 0.571659 0.018021 0.669363
O O5 0.590264 0.522161 0.766414
O O6 0.339815 0.566740 0.116535
O O7 0.287549 0.687440 0.236472
O O8 0.453983 0.753026 0.182700
O O9 0.250000 0.500000 0.006961
O O10 0.402005 0.328962 0.040313
O O11 0.423102 0.599555 0.995526
O O12 0.989698 0.169757 0.058130
O O13 0.750000 0.500000 0.657595
O O14 0.872203 0.704808 0.642296
#
# Coordination Sequence:
#
# PCOD8223446 Si02
#       7
#     8   4   8   8   8   8   8
#     4  12  26  42  66 101 133 178 224 276 344 400
#     4  12  22  40  66  92 130 172 220 268 328 402
#     4  11  21  43  66  96 131 176 218 278 334 395
#     4  10  22  38  68  99 128 174 234 280 323 402
#     4  10  24  42  66  96 135 182 223 274 344 396
#     4  12  24  40  69  99 131 169 225 275 329 403
#     4  11  25  44  67  94 140 175 218 282 345 399
#
# _framework density 21.554258999999998
#
# number of rings (size 3 to 8) (size 9 to 14) (size 15 to 20)
#    0.000    0.923    4.615    1.385    8.615    0.000 
#    0.000    0.000    0.000    0.000    0.000    0.000 
#    0.000    0.000    0.000    0.000    0.000    0.000 
#
# Total GULP energy -644840.248071 kJ/mol
# GULP energy per Si atom -12400.774001 kJ/mol
# Density = 2.150520 g / cm^3
# Si number density = 21.554259 Si / 1000 Ang^3
#
#
#
# Elastic Constant Matrix: (Units=GPa)
#
#
# Indices 1 2 3 4 5 6 
#
# 1 114.2710 40.5648 17.4963 0.0000 0.0000 0.0000
# 2 40.5648 119.0507 20.7593 0.0000 0.0000 0.0000
# 3 17.4963 20.7593 82.7207 0.0000 0.0000 0.0000
# 4 0.0000 0.0000 0.0000 19.9173 0.0000 0.0000
# 5 0.0000 0.0000 0.0000 0.0000 27.8315 0.0000
# 6 0.0000 0.0000 0.0000 0.0000 0.0000 24.6954
#
#
#
# Elastic Compliance Matrix: (Units=1/GPa)
#
#
# Indices 1 2 3 4 5 6 
#
# 1 0.010093 -0.003207 -0.001330 0.000000 0.000000 0.000000
# 2 -0.003207 0.009803 -0.001782 0.000000 0.000000 0.000000
# 3 -0.001330 -0.001782 0.012817 0.000000 0.000000 0.000000
# 4 0.000000 0.000000 0.000000 0.050208 0.000000 0.000000
# 5 0.000000 0.000000 0.000000 0.000000 0.035930 0.000000
# 6 0.000000 0.000000 0.000000 0.000000 0.000000 0.040493
#
#
# Mechanical properties :
#
#
# Convention : Reuss Voigt Hill
#
# Bulk Modulus (GPa) = 49.81108 52.63149 51.22128
# Shear Modulus (GPa) = 27.98369 30.30364 29.14366
#
# Velocity S-wave (km/s) = 3.60709 3.75363 3.68109
# Velocity P-wave (km/s) = 6.36458 6.57704 6.47168
#
# Compressibility (1/GPa) = 0.02007586
#
# Stress axis : x y z
#
# Youngs Moduli (GPa) = 99.07572 102.00643 78.01937
#
# Poissons Ratio (x) = 0.32716 0.10376
# Poissons Ratio (y) = 0.31776 0.13902
# Poissons Ratio (z) = 0.13177 0.18176
#
# Static dielectric constant tensor:
#      x y z
#    x 3.959660 0.000000 0.000000 
#    y 0.000000 3.700200 0.000000 
#    z 0.000000 0.000000 3.848560 
# 
# 
# High freq. dielectric constant tensor:
#      x y z
#    x 1.849500 0.000000 0.000000 
#    y 0.000000 1.832220 0.000000 
#    z 0.000000 0.000000 1.853610 
# 
# From -- ./inp_files/21537.got.cif
#   From: 2010.03.12/outbox.cif.g09.slc.cpg/sg54_11_cif.got.tgz:21537.got - 2010.04.16 15:00:50.
