data_PCOD8223156
_publ_section_title
;
Structure prediction by ZEFSAII (Michael W. Deem and Ramdas Pophale) SiO2 
 PCOD8223156
Probable space group: P C C A
;
_chemical_formula_sum "Si O2"
_cell_formula_units_Z 56
_cell_length_a 17.132007
_cell_length_b 31.073506
_cell_length_c 5.151961
_cell_angle_alpha 90.000000
_cell_angle_beta 90.000000
_cell_angle_gamma 90.000000
_cell_volume 2742.654281
_symmetry_space_group_name_H-M "P C C A"
_symmetry_group_IT_number 54
_symmetry_cell_setting 'orthorhombic'
loop_
_space_group_symop_operation_xyz
x,y,z
1/2-x,-y,z
1/2+x,-y,1/2-z
-x,y,1/2-z
-x,-y,-z
1/2+x,y,-z
1/2-x,y,1/2+z
x,-y,1/2+z
loop_
_atom_site_type_symbol
_atom_site_label
_atom_site_fract_x
_atom_site_fract_y
_atom_site_fract_z
Si Si1 0.434976 0.402328 0.556514
Si Si2 0.913895 0.276122 0.135124
Si Si3 0.908019 0.974203 0.747078
Si Si4 0.500000 0.529612 0.750000
Si Si5 0.200084 0.799192 0.836831
Si Si6 0.700966 0.102316 0.640920
Si Si7 0.500000 0.326215 0.250000
Si Si8 0.698048 0.651405 0.274991
O O1 0.500000 0.422771 0.750000
O O2 0.428358 0.436396 0.313583
O O3 0.466756 0.355627 0.478176
O O4 0.351717 0.393071 0.691146
O O5 0.876285 0.229208 0.111247
O O6 0.856488 0.306504 0.302972
O O7 0.000000 0.271137 0.250000
O O8 0.927592 0.297377 0.852021
O O9 0.872748 0.927348 0.700288
O O10 0.000000 0.968008 0.750000
O O11 0.879585 0.006338 0.520111
O O12 0.500000 0.500000 0.500000
O O13 0.236072 0.788675 0.556370
O O14 0.172178 0.848529 0.844805
O O15 0.732420 0.092666 0.353277
O O16 0.765043 0.651891 0.489979
#
# Coordination Sequence:
#
# PCOD8223156 Si02
#       8
#     8   8   8   4   8   8   4   8
#     4  11  22  42  68  95 137 167 212 273 316 373
#     4  12  24  38  62  91 127 167 216 267 312 376
#     4  10  21  36  58  88 121 151 191 255 319 374
#     4  11  24  40  72 106 124 166 218 266 310 371
#     4  10  24  43  60  85 124 168 209 259 317 376
#     4  10  21  39  61  84 117 158 205 252 303 377
#     4  11  20  38  64  92 130 162 212 268 322 351
#     4  12  25  39  62  95 130 170 210 257 323 380
#
# _framework density 20.418177
#
# number of rings (size 3 to 8) (size 9 to 14) (size 15 to 20)
#    0.000    1.143    3.571    2.571    4.000    2.286 
#    0.000    0.000    4.714    2.571    0.000    0.000 
#    0.000    0.000    0.000    0.000    0.000    0.000 
#
# Total GULP energy -694069.115234 kJ/mol
# GULP energy per Si atom -12394.091343 kJ/mol
# Density = 2.037170 g / cm^3
# Si number density = 20.418177 Si / 1000 Ang^3
#
#
#
# Elastic Constant Matrix: (Units=GPa)
#
#
# Indices 1 2 3 4 5 6 
#
# 1 84.2476 60.1527 27.5852 0.0000 0.0000 0.0000
# 2 60.1527 131.7695 43.7897 0.0000 0.0000 0.0000
# 3 27.5852 43.7897 103.9018 0.0000 0.0000 0.0000
# 4 0.0000 0.0000 0.0000 28.4053 0.0000 0.0000
# 5 0.0000 0.0000 0.0000 0.0000 38.3135 0.0000
# 6 0.0000 0.0000 0.0000 0.0000 0.0000 24.6346
#
#
#
# Elastic Compliance Matrix: (Units=1/GPa)
#
#
# Indices 1 2 3 4 5 6 
#
# 1 0.017812 -0.007628 -0.001514 0.000000 0.000000 0.000000
# 2 -0.007628 0.012092 -0.003071 0.000000 0.000000 0.000000
# 3 -0.001514 -0.003071 0.011321 0.000000 0.000000 0.000000
# 4 0.000000 0.000000 0.000000 0.035205 0.000000 0.000000
# 5 0.000000 0.000000 0.000000 0.000000 0.026100 0.000000
# 6 0.000000 0.000000 0.000000 0.000000 0.000000 0.040593
#
#
# Mechanical properties :
#
#
# Convention : Reuss Voigt Hill
#
# Bulk Modulus (GPa) = 59.52969 64.77489 62.15229
# Shear Modulus (GPa) = 28.87703 30.83012 29.85357
#
# Velocity S-wave (km/s) = 3.76477 3.89000 3.82790
# Velocity P-wave (km/s) = 6.93661 7.20896 7.07410
#
# Compressibility (1/GPa) = 0.01679834
#
# Stress axis : x y z
#
# Youngs Moduli (GPa) = 56.14234 82.70146 88.33376
#
# Poissons Ratio (x) = 0.63084 0.13375
# Poissons Ratio (y) = 0.42825 0.27126
# Poissons Ratio (z) = 0.08501 0.25397
#
# Static dielectric constant tensor:
#      x y z
#    x 3.668940 0.000000 0.000000 
#    y 0.000000 3.897270 0.000000 
#    z 0.000000 0.000000 4.215870 
# 
# 
# High freq. dielectric constant tensor:
#      x y z
#    x 1.774800 0.000000 0.000000 
#    y 0.000000 1.799760 0.000000 
#    z 0.000000 0.000000 1.818480 
# 
# From -- ./inp_files/772.got.cif
#   From: 2010.03.12/outbox.cif.g09.slc.cpg/sg54_1_cif.got.tgz:772.got - 2010.04.16 15:00:50.
