data_PCOD8223530
_publ_section_title
;
Structure prediction by ZEFSAII (Michael W. Deem and Ramdas Pophale) SiO2 
 PCOD8223530
Probable space group: P C C A
;
_chemical_formula_sum "Si O2"
_cell_formula_units_Z 48
_cell_length_a 13.131927
_cell_length_b 8.324648
_cell_length_c 22.382187
_cell_angle_alpha 90.000000
_cell_angle_beta 90.000000
_cell_angle_gamma 90.000000
_cell_volume 2446.790911
_symmetry_space_group_name_H-M "P C C A"
_symmetry_group_IT_number 54
_symmetry_cell_setting 'orthorhombic'
loop_
_space_group_symop_operation_xyz
x,y,z
1/2-x,-y,z
1/2+x,-y,1/2-z
-x,y,1/2-z
-x,-y,-z
1/2+x,y,-z
1/2-x,y,1/2+z
x,-y,1/2+z
loop_
_atom_site_type_symbol
_atom_site_label
_atom_site_fract_x
_atom_site_fract_y
_atom_site_fract_z
Si Si1 0.966449 0.876282 0.449190
Si Si2 0.765531 0.312334 0.981496
Si Si3 0.659665 0.112549 0.882263
Si Si4 0.663780 0.261777 0.103398
Si Si5 0.250000 0.500000 0.309258
Si Si6 0.750000 0.000000 0.187737
Si Si7 0.119491 0.242370 0.240884
O O1 0.878721 0.753256 0.469843
O O2 0.054156 0.757224 0.426808
O O3 0.933270 0.991449 0.394845
O O4 0.000000 0.000000 0.500000
O O5 0.750000 0.500000 0.965711
O O6 0.686129 0.210110 0.942345
O O7 0.746671 0.281553 0.051261
O O8 0.634082 0.237609 0.830329
O O9 0.750000 0.000000 0.859770
O O10 0.668344 0.412888 0.147871
O O11 0.687334 0.111428 0.144037
O O12 0.182174 0.390700 0.266659
O O13 0.664098 0.916979 0.228412
O O14 0.000000 0.262372 0.250000
#
# Coordination Sequence:
#
# PCOD8223530 Si02
#       7
#     8   8   8   8   4   4   8
#     4  11  22  39  67  98 121 170 213 256 320 391
#     4  11  24  39  61  95 133 164 199 267 329 378
#     4  10  22  42  63  93 127 159 214 265 315 376
#     4  11  21  43  62  92 131 160 215 260 316 380
#     4  10  26  44  60  92 130 170 210 268 314 388
#     4  10  22  40  70  92 120 170 212 274 300 380
#     4  11  23  44  66  91 124 170 217 260 324 375
#
# _framework density 19.617532000000001
#
# number of rings (size 3 to 8) (size 9 to 14) (size 15 to 20)
#    0.000    1.333    3.333    2.000    2.333    3.333 
#    3.000    1.667    0.000    0.000    0.000    0.000 
#    0.000    0.000    0.000    0.000    0.000    0.000 
#
# Total GULP energy -595093.995024 kJ/mol
# GULP energy per Si atom -12397.791563 kJ/mol
# Density = 1.957288 g / cm^3
# Si number density = 19.617532 Si / 1000 Ang^3
#
#
#
# Elastic Constant Matrix: (Units=GPa)
#
#
# Indices 1 2 3 4 5 6 
#
# 1 124.6249 55.9295 46.0718 0.0000 0.0000 0.0000
# 2 55.9295 122.6172 47.7275 0.0000 0.0000 0.0000
# 3 46.0718 47.7275 117.0876 0.0000 0.0000 0.0000
# 4 0.0000 0.0000 0.0000 45.3732 0.0000 0.0000
# 5 0.0000 0.0000 0.0000 0.0000 17.0109 0.0000
# 6 0.0000 0.0000 0.0000 0.0000 0.0000 25.8051
#
#
#
# Elastic Compliance Matrix: (Units=1/GPa)
#
#
# Indices 1 2 3 4 5 6 
#
# 1 0.010739 -0.003867 -0.002649 0.000000 0.000000 0.000000
# 2 -0.003867 0.011086 -0.002997 0.000000 0.000000 0.000000
# 3 -0.002649 -0.002997 0.010805 0.000000 0.000000 0.000000
# 4 0.000000 0.000000 0.000000 0.022039 0.000000 0.000000
# 5 0.000000 0.000000 0.000000 0.000000 0.058786 0.000000
# 6 0.000000 0.000000 0.000000 0.000000 0.000000 0.038752
#
#
# Mechanical properties :
#
#
# Convention : Reuss Voigt Hill
#
# Bulk Modulus (GPa) = 73.51610 73.75413 73.63512
# Shear Modulus (GPa) = 28.44645 31.94454 30.19549
#
# Velocity S-wave (km/s) = 3.81209 4.03968 3.92753
# Velocity P-wave (km/s) = 7.54533 7.70950 7.62786
#
# Compressibility (1/GPa) = 0.01360246
#
# Stress axis : x y z
#
# Youngs Moduli (GPa) = 93.11857 90.20334 92.55154
#
# Poissons Ratio (x) = 0.34883 0.24519
# Poissons Ratio (y) = 0.36011 0.27740
# Poissons Ratio (z) = 0.24669 0.27036
#
# Static dielectric constant tensor:
#      x y z
#    x 3.719080 0.000000 0.000000 
#    y 0.000000 4.072200 0.000000 
#    z 0.000000 0.000000 3.669110 
# 
# 
# High freq. dielectric constant tensor:
#      x y z
#    x 1.764200 0.000000 0.000000 
#    y 0.000000 1.768950 0.000000 
#    z 0.000000 0.000000 1.779010 
# 
# From -- ./inp_files/21485.got.cif
#   From: 2010.03.12/outbox.cif.g09.slc.cpg/sg54_11_cif.got.tgz:21485.got - 2010.04.16 15:00:50.
