data_PCOD8223055
_publ_section_title
;
Structure prediction by ZEFSAII (Michael W. Deem and Ramdas Pophale) SiO2 
 PCOD8223055
Probable space group: P C C A
;
_chemical_formula_sum "Si O2"
_cell_formula_units_Z 40
_cell_length_a 16.501985
_cell_length_b 9.170176
_cell_length_c 12.628305
_cell_angle_alpha 90.000000
_cell_angle_beta 90.000000
_cell_angle_gamma 90.000000
_cell_volume 1910.992231
_symmetry_space_group_name_H-M "P C C A"
_symmetry_group_IT_number 54
_symmetry_cell_setting 'orthorhombic'
loop_
_space_group_symop_operation_xyz
x,y,z
1/2-x,-y,z
1/2+x,-y,1/2-z
-x,y,1/2-z
-x,-y,-z
1/2+x,y,-z
1/2-x,y,1/2+z
x,-y,1/2+z
loop_
_atom_site_type_symbol
_atom_site_label
_atom_site_fract_x
_atom_site_fract_y
_atom_site_fract_z
Si Si1 0.914573 0.268931 0.212602
Si Si2 0.940724 0.237316 0.659337
Si Si3 0.341132 0.539635 0.702670
Si Si4 0.657287 0.964801 0.087226
Si Si5 0.086349 0.703129 0.019000
O O1 0.886756 0.384388 0.300091
O O2 0.852681 0.132806 0.195147
O O3 0.000000 0.202682 0.250000
O O4 0.921631 0.357458 0.100598
O O5 0.878557 0.353384 0.709050
O O6 0.000000 0.172372 0.750000
O O7 0.998426 0.311890 0.572452
O O8 0.890854 0.113787 0.599857
O O9 0.250000 0.500000 0.733279
O O10 0.348205 0.610383 0.586184
O O11 0.750000 0.000000 0.063924
O O12 0.618690 0.872087 0.989272
#
# Coordination Sequence:
#
# PCOD8223055 Si02
#       5
#     8   8   8   8   8
#     4  10  22  40  65  94 125 169 218 260 320 390
#     4  10  20  40  69  90 132 168 216 263 317 396
#     4  11  23  41  63  96 129 168 212 272 329 375
#     4  10  21  41  62  96 126 167 210 267 327 378
#     4   9  23  41  64  94 127 173 214 261 325 390
#
# _framework density 20.931536999999999
#
# number of rings (size 3 to 8) (size 9 to 14) (size 15 to 20)
#    1.200    0.800    0.000    4.200    0.000    4.000 
#    3.600    4.000    0.000    0.000    0.000    0.000 
#    0.000    0.000    0.000    0.000    0.000    0.000 
#
# Total GULP energy -495648.990507 kJ/mol
# GULP energy per Si atom -12391.224763 kJ/mol
# Density = 2.088390 g / cm^3
# Si number density = 20.931537 Si / 1000 Ang^3
#
#
#
# Elastic Constant Matrix: (Units=GPa)
#
#
# Indices 1 2 3 4 5 6 
#
# 1 137.5948 34.2682 32.4088 0.0000 0.0000 0.0000
# 2 34.2682 70.7379 8.7587 0.0000 0.0000 0.0000
# 3 32.4088 8.7587 55.6761 0.0000 0.0000 0.0000
# 4 0.0000 0.0000 0.0000 30.9386 0.0000 0.0000
# 5 0.0000 0.0000 0.0000 0.0000 28.1501 0.0000
# 6 0.0000 0.0000 0.0000 0.0000 0.0000 38.2969
#
#
#
# Elastic Compliance Matrix: (Units=1/GPa)
#
#
# Indices 1 2 3 4 5 6 
#
# 1 0.009393 -0.003950 -0.004846 0.000000 0.000000 0.000000
# 2 -0.003950 0.016079 -0.000230 0.000000 0.000000 0.000000
# 3 -0.004846 -0.000230 0.020818 0.000000 0.000000 0.000000
# 4 0.000000 0.000000 0.000000 0.032322 0.000000 0.000000
# 5 0.000000 0.000000 0.000000 0.000000 0.035524 0.000000
# 6 0.000000 0.000000 0.000000 0.000000 0.000000 0.026112
#
#
# Mechanical properties :
#
#
# Convention : Reuss Voigt Hill
#
# Bulk Modulus (GPa) = 35.41449 46.09781 40.75615
# Shear Modulus (GPa) = 29.81284 32.04866 30.93075
#
# Velocity S-wave (km/s) = 3.77809 3.91720 3.84827
# Velocity P-wave (km/s) = 5.99899 6.52152 6.26570
#
# Compressibility (1/GPa) = 0.02823703
#
# Stress axis : x y z
#
# Youngs Moduli (GPa) = 106.46225 62.19357 48.03502
#
# Poissons Ratio (x) = 0.24568 0.23279
# Poissons Ratio (y) = 0.42056 0.01105
# Poissons Ratio (z) = 0.51594 0.01431
#
# Static dielectric constant tensor:
#      x y z
#    x 3.703770 0.000000 0.000000 
#    y 0.000000 3.662660 0.000000 
#    z 0.000000 0.000000 3.652340 
# 
# 
# High freq. dielectric constant tensor:
#      x y z
#    x 1.819230 0.000000 0.000000 
#    y 0.000000 1.818090 0.000000 
#    z 0.000000 0.000000 1.803560 
# 
# From -- ./inp_files/13182.got.cif
#   From: 2010.03.12/outbox.cif.g09.slc.cpg/sg54_7_cif.got.tgz:13182.got - 2010.04.16 15:00:50.
