data_PCOD8223240
_publ_section_title
;
Structure prediction by ZEFSAII (Michael W. Deem and Ramdas Pophale) SiO2 
 PCOD8223240
Probable space group: P C C A
;
_chemical_formula_sum "Si O2"
_cell_formula_units_Z 56
_cell_length_a 14.518517
_cell_length_b 16.335893
_cell_length_c 11.033699
_cell_angle_alpha 90.000000
_cell_angle_beta 90.000000
_cell_angle_gamma 90.000000
_cell_volume 2616.894833
_symmetry_space_group_name_H-M "P C C A"
_symmetry_group_IT_number 54
_symmetry_cell_setting 'orthorhombic'
loop_
_space_group_symop_operation_xyz
x,y,z
1/2-x,-y,z
1/2+x,-y,1/2-z
-x,y,1/2-z
-x,-y,-z
1/2+x,y,-z
1/2-x,y,1/2+z
x,-y,1/2+z
loop_
_atom_site_type_symbol
_atom_site_label
_atom_site_fract_x
_atom_site_fract_y
_atom_site_fract_z
Si Si1 0.105724 0.879182 0.788088
Si Si2 0.968971 0.556604 0.387717
Si Si3 0.750000 0.000000 0.818953
Si Si4 0.399170 0.694015 0.898040
Si Si5 0.641192 0.859646 0.934848
Si Si6 0.500000 0.818156 0.750000
Si Si7 0.787011 0.413196 0.774178
Si Si8 0.298471 0.257196 0.630258
O O1 0.169683 0.958667 0.762238
O O2 0.149072 0.799300 0.726014
O O3 0.000000 0.895729 0.750000
O O4 0.106243 0.859939 0.929193
O O5 0.859068 0.566989 0.382633
O O6 0.000000 0.527929 0.250000
O O7 0.000000 0.500000 0.500000
O O8 0.005411 0.646941 0.421507
O O9 0.791892 0.065356 0.910233
O O10 0.415785 0.764742 0.800928
O O11 0.329504 0.626890 0.845963
O O12 0.363087 0.740326 0.014350
O O13 0.548725 0.871100 0.854241
O O14 0.697553 0.776707 0.904900
O O15 0.750000 0.500000 0.729211
O O16 0.709612 0.350499 0.821995
#
# Coordination Sequence:
#
# PCOD8223240 Si02
#       8
#     8   8   4   8   8   4   8   8
#     4  11  25  47  69 107 143 176 233 287 343 417
#     4  10  21  39  61  86 125 172 230 293 345 418
#     4  10  26  46  72 110 140 178 220 282 348 414
#     4  11  21  41  63  90 130 174 233 278 335 421
#     4  11  24  44  72 100 140 180 224 281 339 418
#     4  12  22  44  70  96 126 190 222 260 350 408
#     4  11  22  39  59  94 132 179 234 290 354 405
#     4  11  23  41  69  97 134 181 231 293 348 404
#
# _framework density 21.399408000000001
#
# number of rings (size 3 to 8) (size 9 to 14) (size 15 to 20)
#    0.000    1.143    3.571    3.000    3.000    3.429 
#    0.000   11.429    0.000    0.000    0.000    0.000 
#    0.000    0.000    0.000    0.000    0.000    0.000 
#
# Total GULP energy -694227.219464 kJ/mol
# GULP energy per Si atom -12396.914633 kJ/mol
# Density = 2.135070 g / cm^3
# Si number density = 21.399408 Si / 1000 Ang^3
#
#
#
# Elastic Constant Matrix: (Units=GPa)
#
#
# Indices 1 2 3 4 5 6 
#
# 1 115.8823 38.1398 53.7247 0.0000 0.0000 0.0000
# 2 38.1398 96.9537 40.5152 0.0000 0.0000 0.0000
# 3 53.7247 40.5152 150.1761 0.0000 0.0000 0.0000
# 4 0.0000 0.0000 0.0000 24.0998 0.0000 0.0000
# 5 0.0000 0.0000 0.0000 0.0000 34.6744 0.0000
# 6 0.0000 0.0000 0.0000 0.0000 0.0000 36.1250
#
#
#
# Elastic Compliance Matrix: (Units=1/GPa)
#
#
# Indices 1 2 3 4 5 6 
#
# 1 0.011091 -0.003049 -0.003145 0.000000 0.000000 0.000000
# 2 -0.003049 0.012463 -0.002272 0.000000 0.000000 0.000000
# 3 -0.003145 -0.002272 0.008397 0.000000 0.000000 0.000000
# 4 0.000000 0.000000 0.000000 0.041494 0.000000 0.000000
# 5 0.000000 0.000000 0.000000 0.000000 0.028840 0.000000
# 6 0.000000 0.000000 0.000000 0.000000 0.000000 0.027682
#
#
# Mechanical properties :
#
#
# Convention : Reuss Voigt Hill
#
# Bulk Modulus (GPa) = 66.57972 69.75239 68.16606
# Shear Modulus (GPa) = 32.91559 34.35535 33.63547
#
# Velocity S-wave (km/s) = 3.92619 4.01113 3.96889
# Velocity P-wave (km/s) = 7.19261 7.35653 7.27503
#
# Compressibility (1/GPa) = 0.01501959
#
# Stress axis : x y z
#
# Youngs Moduli (GPa) = 90.16297 80.23914 119.09157
#
# Poissons Ratio (x) = 0.24462 0.37458
# Poissons Ratio (y) = 0.27488 0.27053
# Poissons Ratio (z) = 0.28359 0.18227
#
# Static dielectric constant tensor:
#      x y z
#    x 3.971560 0.000000 0.000000 
#    y 0.000000 3.900860 0.000000 
#    z 0.000000 0.000000 3.752760 
# 
# 
# High freq. dielectric constant tensor:
#      x y z
#    x 1.845440 0.000000 0.000000 
#    y 0.000000 1.840780 0.000000 
#    z 0.000000 0.000000 1.839750 
# 
# From -- ./inp_files/8494.got.cif
#   From: 2010.03.12/outbox.cif.g09.slc.cpg/sg54_5_cif.got.tgz:8494.got - 2010.04.16 15:00:50.
