data_PCOD8223665
_publ_section_title
;
Structure prediction by ZEFSAII (Michael W. Deem and Ramdas Pophale) SiO2 
 PCOD8223665
Probable space group: P C C A
;
_chemical_formula_sum "Si O2"
_cell_formula_units_Z 40
_cell_length_a 12.108315
_cell_length_b 16.007053
_cell_length_c 9.025839
_cell_angle_alpha 90.000000
_cell_angle_beta 90.000000
_cell_angle_gamma 90.000000
_cell_volume 1749.374034
_symmetry_space_group_name_H-M "P C C A"
_symmetry_group_IT_number 54
_symmetry_cell_setting 'orthorhombic'
loop_
_space_group_symop_operation_xyz
x,y,z
1/2-x,-y,z
1/2+x,-y,1/2-z
-x,y,1/2-z
-x,-y,-z
1/2+x,y,-z
1/2-x,y,1/2+z
x,-y,1/2+z
loop_
_atom_site_type_symbol
_atom_site_label
_atom_site_fract_x
_atom_site_fract_y
_atom_site_fract_z
Si Si1 0.250000 0.500000 0.197983
Si Si2 0.500000 0.678590 0.250000
Si Si3 0.578205 0.030929 0.629115
Si Si4 0.291237 0.870288 0.841100
Si Si5 0.795057 0.242657 0.402129
Si Si6 0.157439 0.605778 0.956868
O O1 0.289262 0.575418 0.300951
O O2 0.154337 0.534637 0.085202
O O3 0.606976 0.730850 0.293432
O O4 0.533527 0.628189 0.098555
O O5 0.500000 0.074299 0.750000
O O6 0.634242 0.948954 0.701278
O O7 0.500000 0.000000 0.500000
O O8 0.672561 0.098555 0.592625
O O9 0.286538 0.813238 0.695987
O O10 0.347105 0.815447 0.970352
O O11 0.727904 0.317510 0.479380
#
# Coordination Sequence:
#
# PCOD8223665 Si02
#       6
#     4   4   8   8   8   8
#     4  10  22  46  76  98 150 176 218 300 342 398
#     4  12  26  42  74 102 138 188 236 272 356 420
#     4  11  24  42  65  99 133 181 237 280 353 412
#     4  11  25  41  68  97 139 182 228 299 339 405
#     4  12  24  45  68 102 143 180 233 287 342 413
#     4  11  23  46  69 107 139 181 230 286 338 419
#
# _framework density 22.865321999999999
#
# number of rings (size 3 to 8) (size 9 to 14) (size 15 to 20)
#    0.000    0.800    4.000    2.400    4.200    5.600 
#    0.000    2.000    0.000    0.000    0.000    0.000 
#    0.000    0.000    0.000    0.000    0.000    0.000 
#
# Total GULP energy -495695.034424 kJ/mol
# GULP energy per Si atom -12392.375861 kJ/mol
# Density = 2.281328 g / cm^3
# Si number density = 22.865322 Si / 1000 Ang^3
#
#
#
# Elastic Constant Matrix: (Units=GPa)
#
#
# Indices 1 2 3 4 5 6 
#
# 1 81.4709 28.9566 23.8456 0.0000 0.0000 0.0000
# 2 28.9566 106.1414 45.2338 0.0000 0.0000 0.0000
# 3 23.8456 45.2338 127.3335 0.0000 0.0000 0.0000
# 4 0.0000 0.0000 0.0000 53.0033 0.0000 0.0000
# 5 0.0000 0.0000 0.0000 0.0000 36.7935 0.0000
# 6 0.0000 0.0000 0.0000 0.0000 0.0000 22.9094
#
#
#
# Elastic Compliance Matrix: (Units=1/GPa)
#
#
# Indices 1 2 3 4 5 6 
#
# 1 0.013822 -0.003144 -0.001472 0.000000 0.000000 0.000000
# 2 -0.003144 0.011817 -0.003609 0.000000 0.000000 0.000000
# 3 -0.001472 -0.003609 0.009411 0.000000 0.000000 0.000000
# 4 0.000000 0.000000 0.000000 0.018867 0.000000 0.000000
# 5 0.000000 0.000000 0.000000 0.000000 0.027179 0.000000
# 6 0.000000 0.000000 0.000000 0.000000 0.000000 0.043650
#
#
# Mechanical properties :
#
#
# Convention : Reuss Voigt Hill
#
# Bulk Modulus (GPa) = 53.75933 56.77974 55.26953
# Shear Modulus (GPa) = 33.92220 37.00190 35.46205
#
# Velocity S-wave (km/s) = 3.85589 4.02712 3.94243
# Velocity P-wave (km/s) = 6.58682 6.81980 6.70432
#
# Compressibility (1/GPa) = 0.01860142
#
# Stress axis : x y z
#
# Youngs Moduli (GPa) = 72.34620 84.62285 106.25715
#
# Poissons Ratio (x) = 0.26603 0.15638
# Poissons Ratio (y) = 0.22744 0.38350
# Poissons Ratio (z) = 0.10647 0.30542
#
# Static dielectric constant tensor:
#      x y z
#    x 4.190370 0.000000 0.000000 
#    y 0.000000 4.350920 0.000000 
#    z 0.000000 0.000000 4.207570 
# 
# 
# High freq. dielectric constant tensor:
#      x y z
#    x 1.876960 0.000000 0.000000 
#    y 0.000000 1.917530 0.000000 
#    z 0.000000 0.000000 1.919950 
# 
# From -- ./inp_files/2962.got.cif
#   From: 2010.03.12/outbox.cif.g09.slc.cpg/sg54_2_cif.got.tgz:2962.got - 2010.04.16 15:00:50.
