data_PCOD8223092
_publ_section_title
;
Structure prediction by ZEFSAII (Michael W. Deem and Ramdas Pophale) SiO2 
 PCOD8223092
Probable space group: P C C A
;
_chemical_formula_sum "Si O2"
_cell_formula_units_Z 56
_cell_length_a 12.500977
_cell_length_b 13.617527
_cell_length_c 15.966221
_cell_angle_alpha 90.000000
_cell_angle_beta 90.000000
_cell_angle_gamma 90.000000
_cell_volume 2717.967989
_symmetry_space_group_name_H-M "P C C A"
_symmetry_group_IT_number 54
_symmetry_cell_setting 'orthorhombic'
loop_
_space_group_symop_operation_xyz
x,y,z
1/2-x,-y,z
1/2+x,-y,1/2-z
-x,y,1/2-z
-x,-y,-z
1/2+x,y,-z
1/2-x,y,1/2+z
x,-y,1/2+z
loop_
_atom_site_type_symbol
_atom_site_label
_atom_site_fract_x
_atom_site_fract_y
_atom_site_fract_z
Si Si1 0.301587 0.178766 0.524772
Si Si2 0.975187 0.957667 0.907231
Si Si3 0.000000 0.092002 0.750000
Si Si4 0.669646 0.250605 0.219224
Si Si5 0.703533 0.898079 0.140854
Si Si6 0.750000 0.500000 0.985141
Si Si7 0.097846 0.355291 0.938730
Si Si8 0.146046 0.321592 0.599220
O O1 0.368496 0.109170 0.587700
O O2 0.275373 0.118152 0.441741
O O3 0.374435 0.273341 0.507377
O O4 0.188419 0.217014 0.563059
O O5 0.078584 0.896697 0.878968
O O6 0.953012 0.032515 0.830068
O O7 0.000000 0.000000 0.000000
O O8 0.912825 0.161605 0.708358
O O9 0.782396 0.193453 0.205707
O O10 0.654432 0.330811 0.148125
O O11 0.654487 0.312694 0.301964
O O12 0.750000 0.000000 0.179635
O O13 0.721991 0.590864 0.927173
O O14 0.853298 0.537136 0.038704
O O15 0.970714 0.352613 0.931049
#
# Coordination Sequence:
#
# PCOD8223092 Si02
#       8
#     8   8   4   8   8   4   8   8
#     4  10  23  36  61  90 120 174 215 262 328 382
#     4  12  24  40  59  90 135 177 229 286 321 380
#     4  12  24  38  60  92 128 178 230 268 324 396
#     4  11  23  39  60  90 123 170 212 265 333 393
#     4  11  21  38  57  86 128 167 224 274 315 384
#     4  10  24  40  66 100 114 152 212 268 338 418
#     4  10  20  43  64  90 123 159 207 264 334 408
#     4  11  22  39  66  89 124 158 206 264 336 418
#
# _framework density 20.603628
#
# number of rings (size 3 to 8) (size 9 to 14) (size 15 to 20)
#    0.000    1.143    4.286    2.143    4.000    0.571 
#    0.000    0.000    0.000    0.000    0.000    0.000 
#    0.000    0.000    0.000    0.000    0.000    0.000 
#
# Total GULP energy -693974.247128 kJ/mol
# GULP energy per Si atom -12392.397270 kJ/mol
# Density = 2.055673 g / cm^3
# Si number density = 20.603628 Si / 1000 Ang^3
#
#
#
# Elastic Constant Matrix: (Units=GPa)
#
#
# Indices 1 2 3 4 5 6 
#
# 1 114.6948 39.5605 16.4756 0.0000 0.0000 0.0000
# 2 39.5605 93.1259 39.9003 0.0000 0.0000 0.0000
# 3 16.4756 39.9003 80.9544 0.0000 0.0000 0.0000
# 4 0.0000 0.0000 0.0000 32.8162 0.0000 0.0000
# 5 0.0000 0.0000 0.0000 0.0000 17.3585 0.0000
# 6 0.0000 0.0000 0.0000 0.0000 0.0000 37.2156
#
#
#
# Elastic Compliance Matrix: (Units=1/GPa)
#
#
# Indices 1 2 3 4 5 6 
#
# 1 0.010216 -0.004372 0.000076 0.000000 0.000000 0.000000
# 2 -0.004372 0.015484 -0.006742 0.000000 0.000000 0.000000
# 3 0.000076 -0.006742 0.015660 0.000000 0.000000 0.000000
# 4 0.000000 0.000000 0.000000 0.030473 0.000000 0.000000
# 5 0.000000 0.000000 0.000000 0.000000 0.057609 0.000000
# 6 0.000000 0.000000 0.000000 0.000000 0.000000 0.026870
#
#
# Mechanical properties :
#
#
# Convention : Reuss Voigt Hill
#
# Bulk Modulus (GPa) = 51.85767 53.40532 52.63149
# Shear Modulus (GPa) = 27.05385 30.33397 28.69391
#
# Velocity S-wave (km/s) = 3.62755 3.84117 3.73589
# Velocity P-wave (km/s) = 6.53983 6.75644 6.64901
#
# Compressibility (1/GPa) = 0.01928355
#
# Stress axis : x y z
#
# Youngs Moduli (GPa) = 97.88569 64.58217 63.85655
#
# Poissons Ratio (x) = 0.28237 -0.00485
# Poissons Ratio (y) = 0.42799 0.43051
# Poissons Ratio (z) = -0.00743 0.43541
#
# Static dielectric constant tensor:
#      x y z
#    x 4.050370 0.000000 0.000000 
#    y 0.000000 3.769210 0.000000 
#    z 0.000000 0.000000 3.777160 
# 
# 
# High freq. dielectric constant tensor:
#      x y z
#    x 1.810510 0.000000 0.000000 
#    y 0.000000 1.798220 0.000000 
#    z 0.000000 0.000000 1.804000 
# 
# From -- ./inp_files/12763.got.cif
#   From: 2010.03.12/outbox.cif.g09.slc.cpg/sg54_7_cif.got.tgz:12763.got - 2010.04.16 15:00:50.
