data_PCOD8223883
_publ_section_title
;
Structure prediction by ZEFSAII (Michael W. Deem and Ramdas Pophale) SiO2 
 PCOD8223883
Probable space group: P C C A
;
_chemical_formula_sum "Si O2"
_cell_formula_units_Z 32
_cell_length_a 8.263456
_cell_length_b 7.588397
_cell_length_c 21.784753
_cell_angle_alpha 90.000000
_cell_angle_beta 90.000000
_cell_angle_gamma 90.000000
_cell_volume 1366.043103
_symmetry_space_group_name_H-M "P C C A"
_symmetry_group_IT_number 54
_symmetry_cell_setting 'orthorhombic'
loop_
_space_group_symop_operation_xyz
x,y,z
1/2-x,-y,z
1/2+x,-y,1/2-z
-x,y,1/2-z
-x,-y,-z
1/2+x,y,-z
1/2-x,y,1/2+z
x,-y,1/2+z
loop_
_atom_site_type_symbol
_atom_site_label
_atom_site_fract_x
_atom_site_fract_y
_atom_site_fract_z
Si Si1 0.000000 0.297106 0.750000
Si Si2 0.754557 0.699931 0.966140
Si Si3 0.397947 0.801262 0.415861
Si Si4 0.250000 0.500000 0.830935
Si Si5 0.588686 0.108056 0.368165
O O1 0.115429 0.424036 0.786908
O O2 0.090924 0.172201 0.701688
O O3 0.750000 0.500000 0.988834
O O4 0.609236 0.729666 0.916056
O O5 0.928915 0.735406 0.938452
O O6 0.720018 0.822405 0.025563
O O7 0.321356 0.661105 0.369546
O O8 0.426864 0.992057 0.382792
O O9 0.750000 0.000000 0.380588
#
# Coordination Sequence:
#
# PCOD8223883 Si02
#       5
#     4   8   8   4   8
#     4  12  30  48  74 100 144 198 248 310 352 446
#     4  11  22  43  73 106 150 187 237 300 374 439
#     4  11  25  45  72 110 145 187 243 302 374 443
#     4  12  30  48  74 106 140 198 254 304 366 444
#     4  10  26  45  71 106 147 197 241 302 365 443
#
# _framework density 23.425324
#
# number of rings (size 3 to 8) (size 9 to 14) (size 15 to 20)
#    0.000    1.000    1.250    3.000   15.750    0.000 
#    0.000    0.000    0.000    0.000    0.000    0.000 
#    0.000    0.000    0.000    0.000    0.000    0.000 
#
# Total GULP energy -396800.836745 kJ/mol
# GULP energy per Si atom -12400.026148 kJ/mol
# Density = 2.337201 g / cm^3
# Si number density = 23.425324 Si / 1000 Ang^3
#
#
#
# Elastic Constant Matrix: (Units=GPa)
#
#
# Indices 1 2 3 4 5 6 
#
# 1 86.3377 22.0995 44.8254 0.0000 0.0000 0.0000
# 2 22.0995 88.5588 43.6463 0.0000 0.0000 0.0000
# 3 44.8254 43.6463 176.5082 0.0000 0.0000 0.0000
# 4 0.0000 0.0000 0.0000 235.9985 0.0000 0.0000
# 5 0.0000 0.0000 0.0000 0.0000 52.4731 0.0000
# 6 0.0000 0.0000 0.0000 0.0000 0.0000 27.1305
#
#
#
# Elastic Compliance Matrix: (Units=1/GPa)
#
#
# Indices 1 2 3 4 5 6 
#
# 1 0.013625 -0.001930 -0.002983 0.000000 0.000000 0.000000
# 2 -0.001930 0.013132 -0.002757 0.000000 0.000000 0.000000
# 3 -0.002983 -0.002757 0.007105 0.000000 0.000000 0.000000
# 4 0.000000 0.000000 0.000000 0.004237 0.000000 0.000000
# 5 0.000000 0.000000 0.000000 0.000000 0.019057 0.000000
# 6 0.000000 0.000000 0.000000 0.000000 0.000000 0.036859
#
#
# Mechanical properties :
#
#
# Convention : Reuss Voigt Hill
#
# Bulk Modulus (GPa) = 53.98949 63.61634 58.80292
# Shear Modulus (GPa) = 43.27869 79.17598 61.22734
#
# Velocity S-wave (km/s) = 4.30294 5.82002 5.11801
# Velocity P-wave (km/s) = 6.91264 8.50762 7.75126
#
# Compressibility (1/GPa) = 0.01852212
#
# Stress axis : x y z
#
# Youngs Moduli (GPa) = 73.39367 76.14736 140.74997
#
# Poissons Ratio (x) = 0.14696 0.41985
# Poissons Ratio (y) = 0.14165 0.38808
# Poissons Ratio (z) = 0.21893 0.20995
#
# Static dielectric constant tensor:
#      x y z
#    x 4.405590 0.000000 0.000000 
#    y 0.000000 4.266980 0.000000 
#    z 0.000000 0.000000 4.410690 
# 
# 
# High freq. dielectric constant tensor:
#      x y z
#    x 1.939550 0.000000 0.000000 
#    y 0.000000 1.937970 0.000000 
#    z 0.000000 0.000000 1.936630 
# 
# From -- ./inp_files/20070.got.cif
#   From: 2010.03.12/outbox.cif.g09.slc.cpg/sg54_11_cif.got.tgz:20070.got - 2010.04.16 15:00:50.
