data_PCOD8223066
_publ_section_title
;
Structure prediction by ZEFSAII (Michael W. Deem and Ramdas Pophale) SiO2 
 PCOD8223066
Probable space group: P C C A
;
_chemical_formula_sum "Si O2"
_cell_formula_units_Z 32
_cell_length_a 10.008435
_cell_length_b 7.778188
_cell_length_c 18.964697
_cell_angle_alpha 90.000000
_cell_angle_beta 90.000000
_cell_angle_gamma 90.000000
_cell_volume 1476.354041
_symmetry_space_group_name_H-M "P C C A"
_symmetry_group_IT_number 54
_symmetry_cell_setting 'orthorhombic'
loop_
_space_group_symop_operation_xyz
x,y,z
1/2-x,-y,z
1/2+x,-y,1/2-z
-x,y,1/2-z
-x,-y,-z
1/2+x,y,-z
1/2-x,y,1/2+z
x,-y,1/2+z
loop_
_atom_site_type_symbol
_atom_site_label
_atom_site_fract_x
_atom_site_fract_y
_atom_site_fract_z
Si Si1 0.122816 0.379072 0.495051
Si Si2 0.047483 0.799441 0.854495
Si Si3 0.795576 0.690787 0.777106
Si Si4 0.127897 0.113784 0.618650
O O1 0.250000 0.500000 0.503214
O O2 0.122962 0.274452 0.422306
O O3 0.100651 0.250833 0.559097
O O4 0.000000 0.500000 0.500000
O O5 0.154542 0.792943 0.791534
O O6 0.916067 0.686069 0.834667
O O7 0.003009 0.996934 0.867694
O O8 0.750000 0.500000 0.756694
O O9 0.669067 0.793300 0.808269
O O10 0.250000 0.000000 0.590280
#
# Coordination Sequence:
#
# PCOD8223066 Si02
#       4
#     8   8   8   8
#     4  12  24  42  68  99 132 174 221 271 329 394
#     4  10  22  39  62  95 126 168 224 267 321 398
#     4  10  20  41  64  89 130 173 215 273 332 385
#     4  10  21  42  65  91 131 174 213 275 337 382
#
# _framework density 21.675018000000001
#
# number of rings (size 3 to 8) (size 9 to 14) (size 15 to 20)
#    0.000    1.500    0.000    6.750    0.000    0.000 
#    0.000   48.750    0.000    0.000    0.000    0.000 
#    0.000    0.000    0.000    0.000    0.000    0.000 
#
# Total GULP energy -396824.874793 kJ/mol
# GULP energy per Si atom -12400.777337 kJ/mol
# Density = 2.162568 g / cm^3
# Si number density = 21.675018 Si / 1000 Ang^3
#
#
#
# Elastic Constant Matrix: (Units=GPa)
#
#
# Indices 1 2 3 4 5 6 
#
# 1 75.1308 68.7709 52.1927 0.0000 0.0000 0.0000
# 2 68.7709 169.2408 86.7094 0.0000 0.0000 0.0000
# 3 52.1927 86.7094 151.3363 0.0000 0.0000 0.0000
# 4 0.0000 0.0000 0.0000 -9.5806 0.0000 0.0000
# 5 0.0000 0.0000 0.0000 0.0000 34.7422 0.0000
# 6 0.0000 0.0000 0.0000 0.0000 0.0000 43.3216
#
#
#
# Elastic Compliance Matrix: (Units=1/GPa)
#
#
# Indices 1 2 3 4 5 6 
#
# 1 0.022474 -0.007306 -0.003565 0.000000 0.000000 0.000000
# 2 -0.007306 0.010739 -0.003633 0.000000 0.000000 0.000000
# 3 -0.003565 -0.003633 0.009919 0.000000 0.000000 0.000000
# 4 0.000000 0.000000 0.000000 -0.104377 0.000000 0.000000
# 5 0.000000 0.000000 0.000000 0.000000 0.028783 0.000000
# 6 0.000000 0.000000 0.000000 0.000000 0.000000 0.023083
#
#
# Mechanical properties :
#
#
# Convention : Reuss Voigt Hill
#
# Bulk Modulus (GPa) = 70.80223 90.11712 80.45968
# Shear Modulus (GPa) = 205.44643 26.23231 115.83937
#
# Velocity S-wave (km/s) = 9.74632 3.48265 7.31845
# Velocity P-wave (km/s) = 12.62500 7.60516 10.42183
#
# Compressibility (1/GPa) = 0.01412385
#
# Stress axis : x y z
#
# Youngs Moduli (GPa) = 44.49586 93.11845 100.81650
#
# Poissons Ratio (x) = 0.68031 0.35940
# Poissons Ratio (y) = 0.32508 0.36630
# Poissons Ratio (z) = 0.15862 0.33833
#
# Static dielectric constant tensor:
#      x y z
#    x 3.837760 0.000000 0.000000 
#    y 0.000000 4.086750 0.000000 
#    z 0.000000 0.000000 6.114750 
# 
# 
# High freq. dielectric constant tensor:
#      x y z
#    x 1.844270 0.000000 0.000000 
#    y 0.000000 1.862140 0.000000 
#    z 0.000000 0.000000 1.858890 
# 
# From -- ./inp_files/17001.got.cif
#   From: 2010.03.12/outbox.cif.g09.slc.cpg/sg54_9_cif.got.tgz:17001.got - 2010.04.16 15:00:50.
