data_PCOD8223692
_publ_section_title
;
Structure prediction by ZEFSAII (Michael W. Deem and Ramdas Pophale) SiO2 
 PCOD8223692
Probable space group: P C C A
;
_chemical_formula_sum "Si O2"
_cell_formula_units_Z 32
_cell_length_a 16.498463
_cell_length_b 10.714162
_cell_length_c 9.028315
_cell_angle_alpha 90.000000
_cell_angle_beta 90.000000
_cell_angle_gamma 90.000000
_cell_volume 1595.910011
_symmetry_space_group_name_H-M "P C C A"
_symmetry_group_IT_number 54
_symmetry_cell_setting 'orthorhombic'
loop_
_space_group_symop_operation_xyz
x,y,z
1/2-x,-y,z
1/2+x,-y,1/2-z
-x,y,1/2-z
-x,-y,-z
1/2+x,y,-z
1/2-x,y,1/2+z
x,-y,1/2+z
loop_
_atom_site_type_symbol
_atom_site_label
_atom_site_fract_x
_atom_site_fract_y
_atom_site_fract_z
Si Si1 0.826640 0.425467 0.081051
Si Si2 0.571771 0.463048 0.841893
Si Si3 0.661319 0.142455 0.623270
Si Si4 0.500000 0.222495 0.750000
Si Si5 0.250000 0.000000 0.124155
O O1 0.750000 0.500000 0.018765
O O2 0.844621 0.466087 0.248648
O O3 0.810232 0.278881 0.071248
O O4 0.909203 0.462647 0.991871
O O5 0.500000 0.532490 0.750000
O O6 0.547314 0.315987 0.864689
O O7 0.565018 0.138142 0.661163
O O8 0.679412 0.053828 0.482864
O O9 0.710901 0.104935 0.770558
#
# Coordination Sequence:
#
# PCOD8223692 Si02
#       5
#     8   8   8   4   4
#     4  11  22  35  62  95 120 156 194 251 310 371
#     4   9  20  36  55  91 128 149 188 237 313 368
#     4  10  23  41  65  83 127 154 214 247 305 349
#     4   8  20  38  62  90 122 158 186 262 296 378
#     4  10  24  44  60  90 114 172 206 260 282 352
#
# _framework density 20.051255999999999
#
# number of rings (size 3 to 8) (size 9 to 14) (size 15 to 20)
#    0.750    1.500    0.000    1.500   10.500    1.000 
#    0.000    0.000    2.750    0.000    0.000    0.000 
#    0.000    0.000    0.000    0.000    0.000    0.000 
#
# Total GULP energy -396450.518463 kJ/mol
# GULP energy per Si atom -12389.078702 kJ/mol
# Density = 2.000562 g / cm^3
# Si number density = 20.051256 Si / 1000 Ang^3
#
#
#
# Elastic Constant Matrix: (Units=GPa)
#
#
# Indices 1 2 3 4 5 6 
#
# 1 113.1352 44.0478 36.2355 0.0000 0.0000 0.0000
# 2 44.0478 95.8072 41.3782 0.0000 0.0000 0.0000
# 3 36.2355 41.3782 94.4910 0.0000 0.0000 0.0000
# 4 0.0000 0.0000 0.0000 21.3413 0.0000 0.0000
# 5 0.0000 0.0000 0.0000 0.0000 30.0835 0.0000
# 6 0.0000 0.0000 0.0000 0.0000 0.0000 34.8337
#
#
#
# Elastic Compliance Matrix: (Units=1/GPa)
#
#
# Indices 1 2 3 4 5 6 
#
# 1 0.011234 -0.004075 -0.002524 0.000000 0.000000 0.000000
# 2 -0.004075 0.014350 -0.004721 0.000000 0.000000 0.000000
# 3 -0.002524 -0.004721 0.013618 0.000000 0.000000 0.000000
# 4 0.000000 0.000000 0.000000 0.046858 0.000000 0.000000
# 5 0.000000 0.000000 0.000000 0.000000 0.033241 0.000000
# 6 0.000000 0.000000 0.000000 0.000000 0.000000 0.028708
#
#
# Mechanical properties :
#
#
# Convention : Reuss Voigt Hill
#
# Bulk Modulus (GPa) = 60.37694 60.75072 60.56383
# Shear Modulus (GPa) = 28.38185 29.36981 28.87583
#
# Velocity S-wave (km/s) = 3.76635 3.83134 3.79898
# Velocity P-wave (km/s) = 7.00646 7.06652 7.03656
#
# Compressibility (1/GPa) = 0.01656262
#
# Stress axis : x y z
#
# Youngs Moduli (GPa) = 89.01764 69.68536 73.43076
#
# Poissons Ratio (x) = 0.28396 0.18530
# Poissons Ratio (y) = 0.36274 0.34670
# Poissons Ratio (z) = 0.22464 0.32901
#
# Static dielectric constant tensor:
#      x y z
#    x 3.676740 0.000000 0.000000 
#    y 0.000000 3.376590 0.000000 
#    z 0.000000 0.000000 3.494980 
# 
# 
# High freq. dielectric constant tensor:
#      x y z
#    x 1.792390 0.000000 0.000000 
#    y 0.000000 1.755020 0.000000 
#    z 0.000000 0.000000 1.779520 
# 
# From -- ./inp_files/4501.got.cif
#   From: 2010.03.12/outbox.cif.g09.slc.cpg/sg54_3_cif.got.tgz:4501.got - 2010.04.16 15:00:50.
