data_PCOD8223508
_publ_section_title
;
Structure prediction by ZEFSAII (Michael W. Deem and Ramdas Pophale) SiO2 
 PCOD8223508
Probable space group: P C C A
;
_chemical_formula_sum "Si O2"
_cell_formula_units_Z 32
_cell_length_a 8.413091
_cell_length_b 5.349301
_cell_length_c 32.848721
_cell_angle_alpha 90.000000
_cell_angle_beta 90.000000
_cell_angle_gamma 90.000000
_cell_volume 1478.328968
_symmetry_space_group_name_H-M "P C C A"
_symmetry_group_IT_number 54
_symmetry_cell_setting 'orthorhombic'
loop_
_space_group_symop_operation_xyz
x,y,z
1/2-x,-y,z
1/2+x,-y,1/2-z
-x,y,1/2-z
-x,-y,-z
1/2+x,y,-z
1/2-x,y,1/2+z
x,-y,1/2+z
loop_
_atom_site_type_symbol
_atom_site_label
_atom_site_fract_x
_atom_site_fract_y
_atom_site_fract_z
Si Si1 0.250000 0.500000 0.213566
Si Si2 0.500000 0.838826 0.750000
Si Si3 0.574146 0.107671 0.827877
Si Si4 0.064207 0.002574 0.914119
Si Si5 0.437286 0.507100 0.045362
O O1 0.334741 0.307666 0.243872
O O2 0.390452 0.604053 0.183949
O O3 0.473661 0.000666 0.790346
O O4 0.750000 0.000000 0.833952
O O5 0.469694 0.056551 0.867194
O O6 0.000147 0.274186 0.927839
O O7 0.250000 0.000000 0.922360
O O8 0.986600 0.777289 0.938551
O O9 0.250000 0.500000 0.045745
O O10 0.500000 0.500000 0.000000
#
# Coordination Sequence:
#
# PCOD8223508 Si02
#       5
#     4   4   8   8   8
#     4  10  22  40  66  92 134 178 236 286 354 412
#     4  10  22  40  64  94 134 176 236 278 354 410
#     4  10  23  41  63  96 133 184 237 285 349 418
#     4  12  27  45  72 109 144 185 239 294 352 420
#     4  12  26  49  76 105 144 187 233 289 357 427
#
# _framework density 21.646059000000001
#
# number of rings (size 3 to 8) (size 9 to 14) (size 15 to 20)
#    0.000    1.000    0.000    6.000    8.750    5.000 
#    0.000    0.000    0.000    0.000    0.000    0.000 
#    0.000    0.000    0.000    0.000    0.000    0.000 
#
# Total GULP energy -396591.484146 kJ/mol
# GULP energy per Si atom -12393.483880 kJ/mol
# Density = 2.159679 g / cm^3
# Si number density = 21.646059 Si / 1000 Ang^3
#
#
#
# Elastic Constant Matrix: (Units=GPa)
#
#
# Indices 1 2 3 4 5 6 
#
# 1 132.8490 20.9419 23.1471 0.0000 0.0000 0.0000
# 2 20.9419 94.9152 20.0118 0.0000 0.0000 0.0000
# 3 23.1471 20.0118 126.4928 0.0000 0.0000 0.0000
# 4 0.0000 0.0000 0.0000 22.4779 0.0000 0.0000
# 5 0.0000 0.0000 0.0000 0.0000 50.2695 0.0000
# 6 0.0000 0.0000 0.0000 0.0000 0.0000 36.7962
#
#
#
# Elastic Compliance Matrix: (Units=1/GPa)
#
#
# Indices 1 2 3 4 5 6 
#
# 1 0.007977 -0.001502 -0.001222 0.000000 0.000000 0.000000
# 2 -0.001502 0.011182 -0.001494 0.000000 0.000000 0.000000
# 3 -0.001222 -0.001494 0.008366 0.000000 0.000000 0.000000
# 4 0.000000 0.000000 0.000000 0.044488 0.000000 0.000000
# 5 0.000000 0.000000 0.000000 0.000000 0.019893 0.000000
# 6 0.000000 0.000000 0.000000 0.000000 0.000000 0.027177
#
#
# Mechanical properties :
#
#
# Convention : Reuss Voigt Hill
#
# Bulk Modulus (GPa) = 52.38973 53.60651 52.99812
# Shear Modulus (GPa) = 37.34624 41.25248 39.29936
#
# Velocity S-wave (km/s) = 4.15820 4.37025 4.26554
# Velocity P-wave (km/s) = 6.87819 7.09114 6.98548
#
# Compressibility (1/GPa) = 0.01908771
#
# Stress axis : x y z
#
# Youngs Moduli (GPa) = 125.35882 89.42764 119.53717
#
# Poissons Ratio (x) = 0.13436 0.14608
# Poissons Ratio (y) = 0.18834 0.17861
# Poissons Ratio (z) = 0.15320 0.13362
#
# Static dielectric constant tensor:
#      x y z
#    x 3.959180 0.000000 0.000000 
#    y 0.000000 4.616310 0.000000 
#    z 0.000000 0.000000 4.234070 
# 
# 
# High freq. dielectric constant tensor:
#      x y z
#    x 1.858780 0.000000 0.000000 
#    y 0.000000 1.868620 0.000000 
#    z 0.000000 0.000000 1.859610 
# 
# From -- ./inp_files/27434.got.cif
#   From: 2010.03.12/outbox.cif.g09.slc.cpg/sg54_14_cif.got.tgz:27434.got - 2010.04.16 15:00:50.
