data_PCOD8223018
_publ_section_title
;
Structure prediction by ZEFSAII (Michael W. Deem and Ramdas Pophale) SiO2 
 PCOD8223018
Probable space group: P C C A
;
_chemical_formula_sum "Si O2"
_cell_formula_units_Z 64
_cell_length_a 26.645943
_cell_length_b 12.919344
_cell_length_c 9.176483
_cell_angle_alpha 90.000000
_cell_angle_beta 90.000000
_cell_angle_gamma 90.000000
_cell_volume 3158.986872
_symmetry_space_group_name_H-M "P C C A"
_symmetry_group_IT_number 54
_symmetry_cell_setting 'orthorhombic'
loop_
_space_group_symop_operation_xyz
x,y,z
1/2-x,-y,z
1/2+x,-y,1/2-z
-x,y,1/2-z
-x,-y,-z
1/2+x,y,-z
1/2-x,y,1/2+z
x,-y,1/2+z
loop_
_atom_site_type_symbol
_atom_site_label
_atom_site_fract_x
_atom_site_fract_y
_atom_site_fract_z
Si Si1 0.691316 0.300893 0.156826
Si Si2 0.928346 0.215743 0.036839
Si Si3 0.890097 0.416164 0.473011
Si Si4 0.626447 0.400787 0.649260
Si Si5 0.273621 0.385996 0.033503
Si Si6 0.943446 0.048595 0.254199
Si Si7 0.109916 0.843051 0.256116
Si Si8 0.543163 0.772967 0.488301
O O1 0.711396 0.345162 0.308463
O O2 0.665054 0.186516 0.178108
O O3 0.648695 0.374128 0.092195
O O4 0.735842 0.300814 0.037923
O O5 0.894397 0.220923 0.893018
O O6 0.902715 0.291788 0.153323
O O7 0.930298 0.099201 0.098814
O O8 0.984627 0.248626 0.000439
O O9 0.907939 0.522514 0.549791
O O10 0.865097 0.439116 0.315463
O O11 0.935263 0.338203 0.443767
O O12 0.680429 0.392374 0.576458
O O13 0.250000 0.500000 0.046774
O O14 0.941707 0.139059 0.373155
O O15 0.000000 0.999840 0.250000
O O16 0.899790 0.963981 0.280801
O O17 0.064361 0.809426 0.358290
#
# Coordination Sequence:
#
# PCOD8223018 Si02
#       8
#     8   8   8   8   8   8   8   8
#     4  11  24  40  64  97 125 160 208 270 328 376
#     4  11  22  39  63  94 132 171 213 259 318 375
#     4  11  24  40  59  94 132 167 209 257 318 383
#     4  12  24  40  64  92 128 166 212 266 321 385
#     4  12  23  40  66  93 121 164 211 267 324 386
#     4  10  20  39  66  94 127 173 221 262 309 371
#     4  11  22  38  62  99 125 163 216 271 318 374
#     4  10  22  39  61  93 134 174 212 260 306 383
#
# _framework density 20.259661000000001
#
# number of rings (size 3 to 8) (size 9 to 14) (size 15 to 20)
#    0.000    1.000    3.750    3.750    1.750    2.500 
#    0.000    0.000    0.000    0.750    0.000    0.000 
#    0.000    0.000    0.000    0.000    0.000    0.000 
#
# Total GULP energy -793318.562793 kJ/mol
# GULP energy per Si atom -12395.602544 kJ/mol
# Density = 2.021355 g / cm^3
# Si number density = 20.259661 Si / 1000 Ang^3
#
#
#
# Elastic Constant Matrix: (Units=GPa)
#
#
# Indices 1 2 3 4 5 6 
#
# 1 80.8906 63.9558 41.9284 0.0000 0.0000 0.0000
# 2 63.9558 95.6655 21.1946 0.0000 0.0000 0.0000
# 3 41.9284 21.1946 116.8604 0.0000 0.0000 0.0000
# 4 0.0000 0.0000 0.0000 23.5229 0.0000 0.0000
# 5 0.0000 0.0000 0.0000 0.0000 28.3939 0.0000
# 6 0.0000 0.0000 0.0000 0.0000 0.0000 37.2020
#
#
#
# Elastic Compliance Matrix: (Units=1/GPa)
#
#
# Indices 1 2 3 4 5 6 
#
# 1 0.031986 -0.019630 -0.007916 0.000000 0.000000 0.000000
# 2 -0.019630 0.022938 0.002883 0.000000 0.000000 0.000000
# 3 -0.007916 0.002883 0.010875 0.000000 0.000000 0.000000
# 4 0.000000 0.000000 0.000000 0.042512 0.000000 0.000000
# 5 0.000000 0.000000 0.000000 0.000000 0.035219 0.000000
# 6 0.000000 0.000000 0.000000 0.000000 0.000000 0.026880
#
#
# Mechanical properties :
#
#
# Convention : Reuss Voigt Hill
#
# Bulk Modulus (GPa) = 60.70895 60.84157 60.77526
# Shear Modulus (GPa) = 22.20003 28.91297 25.55650
#
# Velocity S-wave (km/s) = 3.31384 3.78182 3.55554
# Velocity P-wave (km/s) = 6.68375 7.01182 6.84975
#
# Compressibility (1/GPa) = 0.01647204
#
# Stress axis : x y z
#
# Youngs Moduli (GPa) = 31.26400 43.59657 91.95795
#
# Poissons Ratio (x) = 0.85579 0.72794
# Poissons Ratio (y) = 0.61371 -0.26510
# Poissons Ratio (z) = 0.24748 -0.12568
#
# Static dielectric constant tensor:
#      x y z
#    x 3.681690 0.000000 0.000000 
#    y 0.000000 3.792460 0.000000 
#    z 0.000000 0.000000 3.898520 
# 
# 
# High freq. dielectric constant tensor:
#      x y z
#    x 1.774050 0.000000 0.000000 
#    y 0.000000 1.778900 0.000000 
#    z 0.000000 0.000000 1.817510 
# 
# From -- ./inp_files/5982.got.cif
#   From: 2010.03.12/outbox.cif.g09.slc.cpg/sg54_3_cif.got.tgz:5982.got - 2010.04.16 15:00:50.
