data_PCOD8223435
_publ_section_title
;
Structure prediction by ZEFSAII (Michael W. Deem and Ramdas Pophale) SiO2 
 PCOD8223435
Probable space group: P C C A
;
_chemical_formula_sum "Si O2"
_cell_formula_units_Z 40
_cell_length_a 5.554457
_cell_length_b 11.811074
_cell_length_c 28.303076
_cell_angle_alpha 90.000000
_cell_angle_beta 90.000000
_cell_angle_gamma 90.000000
_cell_volume 1856.797903
_symmetry_space_group_name_H-M "P C C A"
_symmetry_group_IT_number 54
_symmetry_cell_setting 'orthorhombic'
loop_
_space_group_symop_operation_xyz
x,y,z
1/2-x,-y,z
1/2+x,-y,1/2-z
-x,y,1/2-z
-x,-y,-z
1/2+x,y,-z
1/2-x,y,1/2+z
x,-y,1/2+z
loop_
_atom_site_type_symbol
_atom_site_label
_atom_site_fract_x
_atom_site_fract_y
_atom_site_fract_z
Si Si1 0.095914 0.179626 0.379788
Si Si2 0.312115 0.372418 0.655939
Si Si3 0.250000 0.000000 0.648993
Si Si4 0.523537 0.198779 0.194643
Si Si5 0.500000 0.566448 0.250000
Si Si6 0.233102 0.133533 0.977228
O O1 0.217063 0.171350 0.327804
O O2 0.284521 0.175369 0.422736
O O3 0.942234 0.296447 0.384045
O O4 0.934719 0.065710 0.385413
O O5 0.250000 0.500000 0.638724
O O6 0.492616 0.363368 0.701415
O O7 0.060268 0.314217 0.669196
O O8 0.144609 0.092984 0.683978
O O9 0.500000 0.221871 0.250000
O O10 0.750000 0.500000 0.250611
O O11 0.250000 0.000000 0.981977
O O12 0.487227 0.181613 0.998865
#
# Coordination Sequence:
#
# PCOD8223435 Si02
#       6
#     8   8   4   8   4   8
#     4  11  24  41  64  94 133 172 220 274 331 404
#     4  10  24  38  62  91 125 171 223 274 328 380
#     4  10  24  38  58  90 136 170 218 254 332 392
#     4  11  24  38  62  90 128 179 219 264 324 388
#     4  10  22  38  62  88 128 168 222 280 316 370
#     4  10  23  40  70  99 130 167 217 277 343 397
#
# _framework density 21.542463999999999
#
# number of rings (size 3 to 8) (size 9 to 14) (size 15 to 20)
#    0.000    1.600    0.000    3.000   23.800    1.600 
#    0.000    0.000    0.000    1.200    0.000    0.000 
#    0.000    0.000    0.000    0.000    0.000    0.000 
#
# Total GULP energy -495654.791337 kJ/mol
# GULP energy per Si atom -12391.369783 kJ/mol
# Density = 2.149343 g / cm^3
# Si number density = 21.542464 Si / 1000 Ang^3
#
#
#
# Elastic Constant Matrix: (Units=GPa)
#
#
# Indices 1 2 3 4 5 6 
#
# 1 120.1542 31.7049 37.2498 0.0000 0.0000 0.0000
# 2 31.7049 111.0636 16.8475 0.0000 0.0000 0.0000
# 3 37.2498 16.8475 77.7863 0.0000 0.0000 0.0000
# 4 0.0000 0.0000 0.0000 13.4736 0.0000 0.0000
# 5 0.0000 0.0000 0.0000 0.0000 33.6389 0.0000
# 6 0.0000 0.0000 0.0000 0.0000 0.0000 6.8143
#
#
#
# Elastic Compliance Matrix: (Units=1/GPa)
#
#
# Indices 1 2 3 4 5 6 
#
# 1 0.010297 -0.002266 -0.004440 0.000000 0.000000 0.000000
# 2 -0.002266 0.009808 -0.001039 0.000000 0.000000 0.000000
# 3 -0.004440 -0.001039 0.015207 0.000000 0.000000 0.000000
# 4 0.000000 0.000000 0.000000 0.074219 0.000000 0.000000
# 5 0.000000 0.000000 0.000000 0.000000 0.029727 0.000000
# 6 0.000000 0.000000 0.000000 0.000000 0.000000 0.146751
#
#
# Mechanical properties :
#
#
# Convention : Reuss Voigt Hill
#
# Bulk Modulus (GPa) = 50.44968 53.40092 51.92530
# Shear Modulus (GPa) = 16.22808 25.66550 20.94679
#
# Velocity S-wave (km/s) = 2.74762 3.45540 3.12163
# Velocity P-wave (km/s) = 5.79098 6.38453 6.09498
#
# Compressibility (1/GPa) = 0.01982173
#
# Stress axis : x y z
#
# Youngs Moduli (GPa) = 97.11488 101.95407 65.75859
#
# Poissons Ratio (x) = 0.23102 0.29198
# Poissons Ratio (y) = 0.22005 0.06834
# Poissons Ratio (z) = 0.43121 0.10596
#
# Static dielectric constant tensor:
#      x y z
#    x 4.269100 0.000000 0.000000 
#    y 0.000000 3.897340 0.000000 
#    z 0.000000 0.000000 3.806990 
# 
# 
# High freq. dielectric constant tensor:
#      x y z
#    x 1.861830 0.000000 0.000000 
#    y 0.000000 1.832820 0.000000 
#    z 0.000000 0.000000 1.816970 
# 
# From -- ./inp_files/25176.got.cif
#   From: 2010.03.12/outbox.cif.g09.slc.cpg/sg54_13_cif.got.tgz:25176.got - 2010.04.16 15:00:50.
