data_PCOD8223306
_publ_section_title
;
Structure prediction by ZEFSAII (Michael W. Deem and Ramdas Pophale) SiO2 
 PCOD8223306
Probable space group: P C C A
;
_chemical_formula_sum "Si O2"
_cell_formula_units_Z 44
_cell_length_a 8.921606
_cell_length_b 8.278621
_cell_length_c 29.202626
_cell_angle_alpha 90.000000
_cell_angle_beta 90.000000
_cell_angle_gamma 90.000000
_cell_volume 2156.864920
_symmetry_space_group_name_H-M "P C C A"
_symmetry_group_IT_number 54
_symmetry_cell_setting 'orthorhombic'
loop_
_space_group_symop_operation_xyz
x,y,z
1/2-x,-y,z
1/2+x,-y,1/2-z
-x,y,1/2-z
-x,-y,-z
1/2+x,y,-z
1/2-x,y,1/2+z
x,-y,1/2+z
loop_
_atom_site_type_symbol
_atom_site_label
_atom_site_fract_x
_atom_site_fract_y
_atom_site_fract_z
Si Si1 0.250000 0.500000 0.593328
Si Si2 0.824157 0.742423 0.645350
Si Si3 0.324121 0.830069 0.456191
Si Si4 0.250000 0.000000 0.786264
Si Si5 0.514037 0.585603 0.658486
Si Si6 0.091322 0.658223 0.512469
Si Si7 0.000000 0.773625 0.250000
O O1 0.372629 0.592316 0.624459
O O2 0.173815 0.635110 0.561232
O O3 0.872038 0.807176 0.596132
O O4 0.850848 0.885123 0.681598
O O5 0.649360 0.695671 0.640123
O O6 0.928363 0.597587 0.662875
O O7 0.209322 0.690465 0.472144
O O8 0.478225 0.809899 0.484347
O O9 0.250000 0.000000 0.467098
O O10 0.144401 0.112113 0.755359
O O11 0.465707 0.655632 0.707561
O O12 0.000000 0.500000 0.500000
#
# Coordination Sequence:
#
# PCOD8223306 Si02
#       7
#     4   8   8   4   8   8   4
#     4  12  22  38  64  96 122 166 226 274 320 362
#     4  10  21  40  65  90 126 175 210 258 322 399
#     4  12  24  41  63  96 133 172 216 272 322 384
#     4  10  22  44  66  94 130 170 208 262 348 392
#     4  10  23  39  66  94 123 164 223 268 318 397
#     4  12  24  41  64  94 130 178 224 270 314 387
#     4  10  24  44  64  98 124 166 210 278 330 398
#
# _framework density 20.399979999999999
#
# number of rings (size 3 to 8) (size 9 to 14) (size 15 to 20)
#    0.000    1.091    4.545    1.636    2.545    5.091 
#    0.000    0.000    0.000    0.000    0.000    0.000 
#    0.000    0.000    0.000    0.000    0.000    0.000 
#
# Total GULP energy -545629.758878 kJ/mol
# GULP energy per Si atom -12400.676338 kJ/mol
# Density = 2.035355 g / cm^3
# Si number density = 20.399980 Si / 1000 Ang^3
#
#
#
# Elastic Constant Matrix: (Units=GPa)
#
#
# Indices 1 2 3 4 5 6 
#
# 1 103.7314 44.1079 48.3361 0.0000 0.0000 0.0000
# 2 44.1079 97.2017 36.2884 0.0000 0.0000 0.0000
# 3 48.3361 36.2884 112.1956 0.0000 0.0000 0.0000
# 4 0.0000 0.0000 0.0000 17.2569 0.0000 0.0000
# 5 0.0000 0.0000 0.0000 0.0000 27.7926 0.0000
# 6 0.0000 0.0000 0.0000 0.0000 0.0000 41.1011
#
#
#
# Elastic Compliance Matrix: (Units=1/GPa)
#
#
# Indices 1 2 3 4 5 6 
#
# 1 0.013620 -0.004538 -0.004400 0.000000 0.000000 0.000000
# 2 -0.004538 0.013213 -0.002318 0.000000 0.000000 0.000000
# 3 -0.004400 -0.002318 0.011559 0.000000 0.000000 0.000000
# 4 0.000000 0.000000 0.000000 0.057948 0.000000 0.000000
# 5 0.000000 0.000000 0.000000 0.000000 0.035981 0.000000
# 6 0.000000 0.000000 0.000000 0.000000 0.000000 0.024330
#
#
# Mechanical properties :
#
#
# Convention : Reuss Voigt Hill
#
# Bulk Modulus (GPa) = 62.97838 63.39926 63.18882
# Shear Modulus (GPa) = 27.10674 29.52321 28.31498
#
# Velocity S-wave (km/s) = 3.64918 3.80836 3.72962
# Velocity P-wave (km/s) = 6.97812 7.10519 7.04194
#
# Compressibility (1/GPa) = 0.01587846
#
# Stress axis : x y z
#
# Youngs Moduli (GPa) = 73.42059 75.68537 86.51599
#
# Poissons Ratio (x) = 0.34345 0.38068
# Poissons Ratio (y) = 0.33317 0.20059
# Poissons Ratio (z) = 0.32306 0.17548
#
# Static dielectric constant tensor:
#      x y z
#    x 3.917010 0.000000 0.000000 
#    y 0.000000 3.749590 0.000000 
#    z 0.000000 0.000000 3.724770 
# 
# 
# High freq. dielectric constant tensor:
#      x y z
#    x 1.800590 0.000000 0.000000 
#    y 0.000000 1.796820 0.000000 
#    z 0.000000 0.000000 1.799030 
# 
# From -- ./inp_files/27651.got.cif
#   From: 2010.03.12/outbox.cif.g09.slc.cpg/sg54_14_cif.got.tgz:27651.got - 2010.04.16 15:00:50.
