data_PCOD8223952
_publ_section_title
;
Structure prediction by ZEFSAII (Michael W. Deem and Ramdas Pophale) SiO2 
 PCOD8223952
Probable space group: P C C A
;
_chemical_formula_sum "Si O2"
_cell_formula_units_Z 56
_cell_length_a 8.507737
_cell_length_b 23.653082
_cell_length_c 14.261401
_cell_angle_alpha 90.000000
_cell_angle_beta 90.000000
_cell_angle_gamma 90.000000
_cell_volume 2869.881634
_symmetry_space_group_name_H-M "P C C A"
_symmetry_group_IT_number 54
_symmetry_cell_setting 'orthorhombic'
loop_
_space_group_symop_operation_xyz
x,y,z
1/2-x,-y,z
1/2+x,-y,1/2-z
-x,y,1/2-z
-x,-y,-z
1/2+x,y,-z
1/2-x,y,1/2+z
x,-y,1/2+z
loop_
_atom_site_type_symbol
_atom_site_label
_atom_site_fract_x
_atom_site_fract_y
_atom_site_fract_z
Si Si1 0.136422 0.650197 0.919372
Si Si2 0.225416 0.648650 0.621307
Si Si3 0.319358 0.741026 0.269705
Si Si4 0.183388 0.561850 0.771101
Si Si5 0.688716 0.941299 0.379723
Si Si6 0.820954 0.940981 0.580858
Si Si7 0.318780 0.137782 0.270781
O O1 0.195106 0.707102 0.867687
O O2 0.215167 0.596358 0.867364
O O3 0.951803 0.644666 0.911381
O O4 0.167987 0.651576 0.029670
O O5 0.250543 0.704177 0.684495
O O6 0.268754 0.593629 0.684125
O O7 0.500000 0.757194 0.250000
O O8 0.212496 0.795918 0.277406
O O9 0.250000 0.500000 0.784398
O O10 0.000000 0.559611 0.750000
O O11 0.793152 0.931470 0.471412
O O12 0.505719 0.943198 0.402177
O O13 0.713688 0.889256 0.310690
O O14 0.750000 0.000000 0.332875
O O15 0.733378 0.889764 0.631749
O O16 0.750000 0.000000 0.616604
O O17 0.500000 0.125906 0.250000
#
# Coordination Sequence:
#
# PCOD8223952 Si02
#       7
#     8   8   8   8   8   8   8
#     4   9  19  36  57  78 106 142 181 221 270 321
#     4   9  19  36  57  78 106 142 181 221 270 321
#     4   9  20  39  56  75 106 143 180 226 275 323
#     4   9  19  35  53  79 112 145 177 218 264 315
#     4  11  22  39  60  84 113 146 183 227 277 332
#     4  11  22  39  60  84 113 146 183 227 277 332
#     4  12  24  38  57  84 113 146 186 228 276 332
#
# _framework density 19.513000000000002
#
# number of rings (size 3 to 8) (size 9 to 14) (size 15 to 20)
#    0.000    2.000    0.000    6.857    0.000    4.000 
#    0.000    8.571    0.000    0.000    0.000    0.000 
#    0.000    0.000    0.000    0.000    0.000    0.000 
#
# Total GULP energy -694426.545609 kJ/mol
# GULP energy per Si atom -12400.474029 kJ/mol
# Density = 1.946859 g / cm^3
# Si number density = 19.513000 Si / 1000 Ang^3
#
#
#
# Elastic Constant Matrix: (Units=GPa)
#
#
# Indices 1 2 3 4 5 6 
#
# 1 47.2133 12.7951 -9.1829 0.0000 0.0000 0.0000
# 2 12.7951 115.9116 24.7212 0.0000 0.0000 0.0000
# 3 -9.1829 24.7212 59.8669 0.0000 0.0000 0.0000
# 4 0.0000 0.0000 0.0000 14.9882 0.0000 0.0000
# 5 0.0000 0.0000 0.0000 0.0000 32.7352 0.0000
# 6 0.0000 0.0000 0.0000 0.0000 0.0000 32.0739
#
#
#
# Elastic Compliance Matrix: (Units=1/GPa)
#
#
# Indices 1 2 3 4 5 6 
#
# 1 0.023147 -0.003632 0.005050 0.000000 0.000000 0.000000
# 2 -0.003632 0.010030 -0.004699 0.000000 0.000000 0.000000
# 3 0.005050 -0.004699 0.019419 0.000000 0.000000 0.000000
# 4 0.000000 0.000000 0.000000 0.066719 0.000000 0.000000
# 5 0.000000 0.000000 0.000000 0.000000 0.030548 0.000000
# 6 0.000000 0.000000 0.000000 0.000000 0.000000 0.031178
#
#
# Mechanical properties :
#
#
# Convention : Reuss Voigt Hill
#
# Bulk Modulus (GPa) = 21.72284 31.07319 26.39802
# Shear Modulus (GPa) = 24.63683 28.93669 26.78676
#
# Velocity S-wave (km/s) = 3.55714 3.85508 3.70910
# Velocity P-wave (km/s) = 5.29412 5.98117 5.64810
#
# Compressibility (1/GPa) = 0.04603449
#
# Stress axis : x y z
#
# Youngs Moduli (GPa) = 43.20186 99.69676 51.49646
#
# Poissons Ratio (x) = 0.36213 -0.26008
# Poissons Ratio (y) = 0.15692 0.24199
# Poissons Ratio (z) = -0.21819 0.46848
#
# Static dielectric constant tensor:
#      x y z
#    x 3.432180 0.000000 0.000000 
#    y 0.000000 3.941900 0.000000 
#    z 0.000000 0.000000 4.043650 
# 
# 
# High freq. dielectric constant tensor:
#      x y z
#    x 1.759680 0.000000 0.000000 
#    y 0.000000 1.760010 0.000000 
#    z 0.000000 0.000000 1.765670 
# 
# From -- ./inp_files/11877.got.cif
#   From: 2010.03.12/outbox.cif.g09.slc.cpg/sg54_6_cif.got.tgz:11877.got - 2010.04.16 15:00:50.
