data_PCOD8223974
_publ_section_title
;
Structure prediction by ZEFSAII (Michael W. Deem and Ramdas Pophale) SiO2 
 PCOD8223974
Probable space group: P C C A
;
_chemical_formula_sum "Si O2"
_cell_formula_units_Z 56
_cell_length_a 22.285188
_cell_length_b 6.591909
_cell_length_c 18.742150
_cell_angle_alpha 90.000000
_cell_angle_beta 90.000000
_cell_angle_gamma 90.000000
_cell_volume 2753.258033
_symmetry_space_group_name_H-M "P C C A"
_symmetry_group_IT_number 54
_symmetry_cell_setting 'orthorhombic'
loop_
_space_group_symop_operation_xyz
x,y,z
1/2-x,-y,z
1/2+x,-y,1/2-z
-x,y,1/2-z
-x,-y,-z
1/2+x,y,-z
1/2-x,y,1/2+z
x,-y,1/2+z
loop_
_atom_site_type_symbol
_atom_site_label
_atom_site_fract_x
_atom_site_fract_y
_atom_site_fract_z
Si Si1 0.621437 0.693632 0.847699
Si Si2 0.373853 0.370377 0.542774
Si Si3 0.493572 0.204067 0.331889
Si Si4 0.401994 0.516258 0.394643
Si Si5 0.999935 0.157003 0.065741
Si Si6 0.685822 0.902392 0.352960
Si Si7 0.317416 0.431219 0.767215
O O1 0.644808 0.578747 0.917633
O O2 0.550450 0.661281 0.853408
O O3 0.649664 0.610003 0.775020
O O4 0.634264 0.930893 0.849040
O O5 0.366794 0.402394 0.458488
O O6 0.440025 0.290413 0.563843
O O7 0.324624 0.214053 0.572668
O O8 0.500000 0.155355 0.250000
O O9 0.437005 0.340983 0.352298
O O10 0.493113 0.980128 0.364853
O O11 0.443879 0.686535 0.432059
O O12 0.353583 0.614285 0.340472
O O13 0.000000 0.000000 0.000000
O O14 0.681549 0.767346 0.282017
O O15 0.750000 0.000000 0.357774
O O16 0.250000 0.500000 0.785886
#
# Coordination Sequence:
#
# PCOD8223974 Si02
#       7
#     8   8   8   8   8   8   8
#     4  11  22  42  69  96 130 173 226 271 326 401
#     4  11  24  41  68  99 134 179 221 275 337 402
#     4  12  24  38  68 101 137 170 221 274 333 406
#     4  12  26  43  66  99 143 178 214 279 348 398
#     4  12  24  41  66  97 138 182 219 270 340 404
#     4  11  24  45  73  94 127 178 235 277 329 404
#     4  11  25  46  68  95 132 179 223 279 338 399
#
# _framework density 20.339541000000001
#
# number of rings (size 3 to 8) (size 9 to 14) (size 15 to 20)
#    0.000    0.571    7.143    1.286    2.000    0.571 
#    2.571    0.000    0.000    0.000    0.000    0.000 
#    0.000    0.000    0.000    0.000    0.000    0.000 
#
# Total GULP energy -694237.219846 kJ/mol
# GULP energy per Si atom -12397.093212 kJ/mol
# Density = 2.029325 g / cm^3
# Si number density = 20.339541 Si / 1000 Ang^3
#
#
#
# Elastic Constant Matrix: (Units=GPa)
#
#
# Indices 1 2 3 4 5 6 
#
# 1 87.6518 36.5818 46.2362 0.0000 0.0000 0.0000
# 2 36.5818 111.3832 67.0071 0.0000 0.0000 0.0000
# 3 46.2362 67.0071 161.7968 0.0000 0.0000 0.0000
# 4 0.0000 0.0000 0.0000 40.4108 0.0000 0.0000
# 5 0.0000 0.0000 0.0000 0.0000 27.5791 0.0000
# 6 0.0000 0.0000 0.0000 0.0000 0.0000 38.0325
#
#
#
# Elastic Compliance Matrix: (Units=1/GPa)
#
#
# Indices 1 2 3 4 5 6 
#
# 1 0.014123 -0.002944 -0.002817 0.000000 0.000000 0.000000
# 2 -0.002944 0.012571 -0.004365 0.000000 0.000000 0.000000
# 3 -0.002817 -0.004365 0.008793 0.000000 0.000000 0.000000
# 4 0.000000 0.000000 0.000000 0.024746 0.000000 0.000000
# 5 0.000000 0.000000 0.000000 0.000000 0.036259 0.000000
# 6 0.000000 0.000000 0.000000 0.000000 0.000000 0.026293
#
#
# Mechanical properties :
#
#
# Convention : Reuss Voigt Hill
#
# Bulk Modulus (GPa) = 65.63345 73.38690 69.51018
# Shear Modulus (GPa) = 33.75742 35.27157 34.51449
#
# Velocity S-wave (km/s) = 4.07835 4.16882 4.12383
# Velocity P-wave (km/s) = 7.38351 7.70268 7.54478
#
# Compressibility (1/GPa) = 0.01523613
#
# Stress axis : x y z
#
# Youngs Moduli (GPa) = 70.80502 79.54978 113.72460
#
# Poissons Ratio (x) = 0.23420 0.32033
# Poissons Ratio (y) = 0.20845 0.49638
# Poissons Ratio (z) = 0.19944 0.34722
#
# Static dielectric constant tensor:
#      x y z
#    x 3.676840 0.000000 0.000000 
#    y 0.000000 3.930040 0.000000 
#    z 0.000000 0.000000 3.719480 
# 
# 
# High freq. dielectric constant tensor:
#      x y z
#    x 1.789430 0.000000 0.000000 
#    y 0.000000 1.806300 0.000000 
#    z 0.000000 0.000000 1.797610 
# 
# From -- ./inp_files/22306.got.cif
#   From: 2010.03.12/outbox.cif.g09.slc.cpg/sg54_12_cif.got.tgz:22306.got - 2010.04.16 15:00:50.
