data_PCOD8223746
_publ_section_title
;
Structure prediction by ZEFSAII (Michael W. Deem and Ramdas Pophale) SiO2 
 PCOD8223746
Probable space group: P C C A
;
_chemical_formula_sum "Si O2"
_cell_formula_units_Z 56
_cell_length_a 15.734416
_cell_length_b 8.621124
_cell_length_c 19.197311
_cell_angle_alpha 90.000000
_cell_angle_beta 90.000000
_cell_angle_gamma 90.000000
_cell_volume 2604.083589
_symmetry_space_group_name_H-M "P C C A"
_symmetry_group_IT_number 54
_symmetry_cell_setting 'orthorhombic'
loop_
_space_group_symop_operation_xyz
x,y,z
1/2-x,-y,z
1/2+x,-y,1/2-z
-x,y,1/2-z
-x,-y,-z
1/2+x,y,-z
1/2-x,y,1/2+z
x,-y,1/2+z
loop_
_atom_site_type_symbol
_atom_site_label
_atom_site_fract_x
_atom_site_fract_y
_atom_site_fract_z
Si Si1 0.764069 0.820611 0.741564
Si Si2 0.473607 0.727529 0.057030
Si Si3 0.937495 0.115729 0.185351
Si Si4 0.034246 0.629126 0.084732
Si Si5 0.699615 0.159339 0.991321
Si Si6 0.373209 0.215920 0.361260
Si Si7 0.283902 0.667042 0.623208
O O1 0.856955 0.783667 0.711302
O O2 0.689330 0.727627 0.700728
O O3 0.759478 0.785995 0.823235
O O4 0.750000 0.000000 0.727737
O O5 0.524819 0.786358 0.122588
O O6 0.446188 0.550298 0.069430
O O7 0.392513 0.840039 0.046263
O O8 0.530190 0.729081 0.986750
O O9 0.000000 0.096761 0.250000
O O10 0.917117 0.946719 0.155847
O O11 0.114404 0.686347 0.129642
O O12 0.946650 0.655322 0.127409
O O13 0.755691 0.293454 0.955375
O O14 0.750000 0.000000 0.980890
O O15 0.687849 0.199224 0.071960
O O16 0.250000 0.500000 0.645108
#
# Coordination Sequence:
#
# PCOD8223746 Si02
#       7
#     8   8   8   8   8   8   8
#     4  10  24  45  63  95 133 171 223 279 341 409
#     4  10  23  45  62  99 133 173 217 275 342 396
#     4  11  24  41  69  94 135 173 218 277 341 406
#     4  10  24  42  67  94 134 169 227 280 326 412
#     4  11  23  41  68  99 132 167 218 277 331 400
#     4  10  25  44  67  98 128 175 225 275 338 404
#     4  12  25  41  67  96 132 176 224 275 344 400
#
# _framework density 21.504684999999998
#
# number of rings (size 3 to 8) (size 9 to 14) (size 15 to 20)
#    0.000    1.429    1.429    2.571   10.000    2.286 
#    0.000    0.714    0.000    0.000    0.000    0.000 
#    0.000    0.000    0.000    0.000    0.000    0.000 
#
# Total GULP energy -694426.101604 kJ/mol
# GULP energy per Si atom -12400.466100 kJ/mol
# Density = 2.145574 g / cm^3
# Si number density = 21.504685 Si / 1000 Ang^3
#
#
#
# Elastic Constant Matrix: (Units=GPa)
#
#
# Indices 1 2 3 4 5 6 
#
# 1 132.3662 38.0818 57.5743 0.0000 0.0000 0.0000
# 2 38.0818 48.1892 27.6207 0.0000 0.0000 0.0000
# 3 57.5743 27.6207 105.5590 0.0000 0.0000 0.0000
# 4 0.0000 0.0000 0.0000 16.1389 0.0000 0.0000
# 5 0.0000 0.0000 0.0000 0.0000 44.4655 0.0000
# 6 0.0000 0.0000 0.0000 0.0000 0.0000 23.6928
#
#
#
# Elastic Compliance Matrix: (Units=1/GPa)
#
#
# Indices 1 2 3 4 5 6 
#
# 1 0.011360 -0.006383 -0.004526 0.000000 0.000000 0.000000
# 2 -0.006383 0.028000 -0.003845 0.000000 0.000000 0.000000
# 3 -0.004526 -0.003845 0.012948 0.000000 0.000000 0.000000
# 4 0.000000 0.000000 0.000000 0.061962 0.000000 0.000000
# 5 0.000000 0.000000 0.000000 0.000000 0.022489 0.000000
# 6 0.000000 0.000000 0.000000 0.000000 0.000000 0.042207
#
#
# Mechanical properties :
#
#
# Convention : Reuss Voigt Hill
#
# Bulk Modulus (GPa) = 43.86000 59.18534 51.52267
# Shear Modulus (GPa) = 23.14034 27.71527 25.42781
#
# Velocity S-wave (km/s) = 3.28389 3.59388 3.44238
# Velocity P-wave (km/s) = 5.90072 6.69352 6.30958
#
# Compressibility (1/GPa) = 0.02279982
#
# Stress axis : x y z
#
# Youngs Moduli (GPa) = 88.03054 35.71479 77.23305
#
# Poissons Ratio (x) = 0.22797 0.34953
# Poissons Ratio (y) = 0.56191 0.29696
# Poissons Ratio (z) = 0.39839 0.13732
#
# Static dielectric constant tensor:
#      x y z
#    x 4.189590 0.000000 0.000000 
#    y 0.000000 3.627540 0.000000 
#    z 0.000000 0.000000 3.925230 
# 
# 
# High freq. dielectric constant tensor:
#      x y z
#    x 1.861250 0.000000 0.000000 
#    y 0.000000 1.824540 0.000000 
#    z 0.000000 0.000000 1.853030 
# 
# From -- ./inp_files/21639.got.cif
#   From: 2010.03.12/outbox.cif.g09.slc.cpg/sg54_11_cif.got.tgz:21639.got - 2010.04.16 15:00:50.
