data_PCOD8223257
_publ_section_title
;
Structure prediction by ZEFSAII (Michael W. Deem and Ramdas Pophale) SiO2 
 PCOD8223257
Probable space group: P C C A
;
_chemical_formula_sum "Si O2"
_cell_formula_units_Z 64
_cell_length_a 26.100025
_cell_length_b 9.440182
_cell_length_c 11.466810
_cell_angle_alpha 90.000000
_cell_angle_beta 90.000000
_cell_angle_gamma 90.000000
_cell_volume 2825.295691
_symmetry_space_group_name_H-M "P C C A"
_symmetry_group_IT_number 54
_symmetry_cell_setting 'orthorhombic'
loop_
_space_group_symop_operation_xyz
x,y,z
1/2-x,-y,z
1/2+x,-y,1/2-z
-x,y,1/2-z
-x,-y,-z
1/2+x,y,-z
1/2-x,y,1/2+z
x,-y,1/2+z
loop_
_atom_site_type_symbol
_atom_site_label
_atom_site_fract_x
_atom_site_fract_y
_atom_site_fract_z
Si Si1 0.574692 0.615111 0.421079
Si Si2 0.945680 0.655263 0.297643
Si Si3 0.925168 0.904208 0.454153
Si Si4 0.856324 0.430268 0.632844
Si Si5 0.489295 0.854676 0.122627
Si Si6 0.282762 0.779310 0.993093
Si Si7 0.318186 0.908631 0.439744
Si Si8 0.837897 0.282384 0.270710
O O1 0.544363 0.500720 0.346453
O O2 0.609961 0.537271 0.517018
O O3 0.531940 0.728594 0.463726
O O4 0.608014 0.713721 0.334870
O O5 0.929797 0.748866 0.405198
O O6 0.897028 0.657090 0.210411
O O7 0.000000 0.711119 0.250000
O O8 0.865761 0.926327 0.475153
O O9 0.957928 0.916854 0.572817
O O10 0.946951 0.021371 0.365495
O O11 0.807526 0.334646 0.595924
O O12 0.833600 0.570291 0.695909
O O13 0.500000 0.791383 0.250000
O O14 0.295482 0.739002 0.127151
O O15 0.220864 0.786471 0.986948
O O16 0.296941 0.932604 0.940512
O O17 0.335149 0.855540 0.311427
#
# Coordination Sequence:
#
# PCOD8223257 Si02
#       8
#     8   8   8   8   8   8   8   8
#     4  10  21  39  63  92 126 169 218 260 315 390
#     4  11  23  37  60  92 127 165 208 261 320 387
#     4  11  24  39  59  92 125 164 217 264 322 398
#     4  10  22  42  65  93 131 172 216 272 329 388
#     4  11  23  39  61  90 132 176 211 264 332 398
#     4  10  25  45  68  98 127 169 224 274 335 401
#     4  11  24  43  68  94 127 167 216 274 326 388
#     4  10  22  43  66  94 132 170 215 275 336 389
#
# _framework density 22.652495999999999
#
# number of rings (size 3 to 8) (size 9 to 14) (size 15 to 20)
#    0.000    1.500    0.000    4.500    0.000   12.500 
#    0.000    3.750    0.000    0.000    0.000    0.000 
#    0.000    0.000    0.000    0.000    0.000    0.000 
#
# Total GULP energy -793021.123146 kJ/mol
# GULP energy per Si atom -12390.955049 kJ/mol
# Density = 2.260094 g / cm^3
# Si number density = 22.652496 Si / 1000 Ang^3
#
#
#
# Elastic Constant Matrix: (Units=GPa)
#
#
# Indices 1 2 3 4 5 6 
#
# 1 102.6078 30.7118 24.6365 0.0000 0.0000 0.0000
# 2 30.7118 65.3392 47.9567 0.0000 0.0000 0.0000
# 3 24.6365 47.9567 96.7595 0.0000 0.0000 0.0000
# 4 0.0000 0.0000 0.0000 39.0363 0.0000 0.0000
# 5 0.0000 0.0000 0.0000 0.0000 19.7285 0.0000
# 6 0.0000 0.0000 0.0000 0.0000 0.0000 30.9861
#
#
#
# Elastic Compliance Matrix: (Units=1/GPa)
#
#
# Indices 1 2 3 4 5 6 
#
# 1 0.011351 -0.005052 -0.000386 0.000000 0.000000 0.000000
# 2 -0.005052 0.026304 -0.011751 0.000000 0.000000 0.000000
# 3 -0.000386 -0.011751 0.016257 0.000000 0.000000 0.000000
# 4 0.000000 0.000000 0.000000 0.025617 0.000000 0.000000
# 5 0.000000 0.000000 0.000000 0.000000 0.050688 0.000000
# 6 0.000000 0.000000 0.000000 0.000000 0.000000 0.032273
#
#
# Mechanical properties :
#
#
# Convention : Reuss Voigt Hill
#
# Bulk Modulus (GPa) = 51.19180 52.36849 51.78014
# Shear Modulus (GPa) = 24.58474 28.71028 26.64751
#
# Velocity S-wave (km/s) = 3.29796 3.56395 3.43353
# Velocity P-wave (km/s) = 6.09507 6.33277 6.21506
#
# Compressibility (1/GPa) = 0.01953438
#
# Stress axis : x y z
#
# Youngs Moduli (GPa) = 88.10084 38.01733 61.51119
#
# Poissons Ratio (x) = 0.19205 0.02376
# Poissons Ratio (y) = 0.44506 0.72280
# Poissons Ratio (z) = 0.03403 0.44673
#
# Static dielectric constant tensor:
#      x y z
#    x 4.342180 0.000000 0.000000 
#    y 0.000000 4.001200 0.000000 
#    z 0.000000 0.000000 4.018000 
# 
# 
# High freq. dielectric constant tensor:
#      x y z
#    x 1.901450 0.000000 0.000000 
#    y 0.000000 1.897200 0.000000 
#    z 0.000000 0.000000 1.887400 
# 
# From -- ./inp_files/10556.got.cif
#   From: 2010.03.12/outbox.cif.g09.slc.cpg/sg54_6_cif.got.tgz:10556.got - 2010.04.16 15:00:50.
