data_PCOD8223711
_publ_section_title
;
Structure prediction by ZEFSAII (Michael W. Deem and Ramdas Pophale) SiO2 
 PCOD8223711
Probable space group: P C C A
;
_chemical_formula_sum "Si O2"
_cell_formula_units_Z 28
_cell_length_a 5.123013
_cell_length_b 17.439678
_cell_length_c 13.469672
_cell_angle_alpha 90.000000
_cell_angle_beta 90.000000
_cell_angle_gamma 90.000000
_cell_volume 1203.430295
_symmetry_space_group_name_H-M "P C C A"
_symmetry_group_IT_number 54
_symmetry_cell_setting 'orthorhombic'
loop_
_space_group_symop_operation_xyz
x,y,z
1/2-x,-y,z
1/2+x,-y,1/2-z
-x,y,1/2-z
-x,-y,-z
1/2+x,y,-z
1/2-x,y,1/2+z
x,-y,1/2+z
loop_
_atom_site_type_symbol
_atom_site_label
_atom_site_fract_x
_atom_site_fract_y
_atom_site_fract_z
Si Si1 0.000000 0.857639 0.750000
Si Si2 0.521089 0.914441 0.042550
Si Si3 0.640333 0.349887 0.067167
Si Si4 0.500000 0.757662 0.750000
Si Si5 0.750000 0.500000 0.185080
O O1 0.935459 0.914555 0.659729
O O2 0.250623 0.808045 0.719665
O O3 0.760180 0.869738 0.990353
O O4 0.500000 0.000000 0.000000
O O5 0.593038 0.291205 0.156261
O O6 0.635318 0.433916 0.115131
O O7 0.920986 0.337940 0.016498
O O8 0.500000 0.528998 0.250000
#
# Coordination Sequence:
#
# PCOD8223711 Si02
#       5
#     4   8   8   4   4
#     4  12  26  44  70 100 140 186 230 284 370 416
#     4  10  23  42  69 101 134 172 226 285 347 419
#     4  12  26  46  72 103 141 190 242 296 356 419
#     4  12  28  46  68 102 144 190 234 294 348 444
#     4  12  24  44  76 104 146 184 244 304 362 414
#
# _framework density 23.266822999999999
#
# number of rings (size 3 to 8) (size 9 to 14) (size 15 to 20)
#    0.000    0.571    1.429    6.000    2.000   11.429 
#    0.000    0.000    0.000    0.000    0.000    0.000 
#    0.000    0.000    0.000    0.000    0.000    0.000 
#
# Total GULP energy -347112.636672 kJ/mol
# GULP energy per Si atom -12396.879881 kJ/mol
# Density = 2.321387 g / cm^3
# Si number density = 23.266823 Si / 1000 Ang^3
#
#
#
# Elastic Constant Matrix: (Units=GPa)
#
#
# Indices 1 2 3 4 5 6 
#
# 1 191.5522 23.4615 49.0814 0.0000 0.0000 0.0000
# 2 23.4615 84.2926 52.6130 0.0000 0.0000 0.0000
# 3 49.0814 52.6130 174.9168 0.0000 0.0000 0.0000
# 4 0.0000 0.0000 0.0000 -17.9659 0.0000 0.0000
# 5 0.0000 0.0000 0.0000 0.0000 52.7278 0.0000
# 6 0.0000 0.0000 0.0000 0.0000 0.0000 -17.8320
#
#
#
# Elastic Compliance Matrix: (Units=1/GPa)
#
#
# Indices 1 2 3 4 5 6 
#
# 1 0.005660 -0.000719 -0.001372 0.000000 0.000000 0.000000
# 2 -0.000719 0.014697 -0.004219 0.000000 0.000000 0.000000
# 3 -0.001372 -0.004219 0.007371 0.000000 0.000000 0.000000
# 4 0.000000 0.000000 0.000000 -0.055661 0.000000 0.000000
# 5 0.000000 0.000000 0.000000 0.000000 0.018965 0.000000
# 6 0.000000 0.000000 0.000000 0.000000 0.000000 -0.056079
#
#
# Mechanical properties :
#
#
# Convention : Reuss Voigt Hill
#
# Bulk Modulus (GPa) = 66.18939 77.89706 72.04323
# Shear Modulus (GPa) = -105.50536 25.09303 -40.20617
#
# Velocity S-wave (km/s) = -6.74124 3.28760 -4.16149
# Velocity P-wave (km/s) = 5.66415 6.92558 2.81789
#
# Compressibility (1/GPa) = 0.01510816
#
# Stress axis : x y z
#
# Youngs Moduli (GPa) = 176.67494 68.04166 135.66764
#
# Poissons Ratio (x) = 0.04893 0.18613
# Poissons Ratio (y) = 0.12704 0.57237
# Poissons Ratio (z) = 0.24239 0.28706
#
# Static dielectric constant tensor:
#      x y z
#    x 5.491390 0.000000 0.000000 
#    y 0.000000 3.810090 0.000000 
#    z 0.000000 0.000000 4.216400 
# 
# 
# High freq. dielectric constant tensor:
#      x y z
#    x 1.955390 0.000000 0.000000 
#    y 0.000000 1.901380 0.000000 
#    z 0.000000 0.000000 1.939450 
# 
# From -- ./inp_files/6248.got.cif
#   From: 2010.03.12/outbox.cif.g09.slc.cpg/sg54_4_cif.got.tgz:6248.got - 2010.04.16 15:00:50.
