data_PCOD8223260
_publ_section_title
;
Structure prediction by ZEFSAII (Michael W. Deem and Ramdas Pophale) SiO2 
 PCOD8223260
Probable space group: P C C A
;
_chemical_formula_sum "Si O2"
_cell_formula_units_Z 48
_cell_length_a 9.579096
_cell_length_b 8.238243
_cell_length_c 31.555782
_cell_angle_alpha 90.000000
_cell_angle_beta 90.000000
_cell_angle_gamma 90.000000
_cell_volume 2490.222030
_symmetry_space_group_name_H-M "P C C A"
_symmetry_group_IT_number 54
_symmetry_cell_setting 'orthorhombic'
loop_
_space_group_symop_operation_xyz
x,y,z
1/2-x,-y,z
1/2+x,-y,1/2-z
-x,y,1/2-z
-x,-y,-z
1/2+x,y,-z
1/2-x,y,1/2+z
x,-y,1/2+z
loop_
_atom_site_type_symbol
_atom_site_label
_atom_site_fract_x
_atom_site_fract_y
_atom_site_fract_z
Si Si1 0.702088 0.174180 0.850228
Si Si2 0.469055 0.626251 0.630074
Si Si3 0.899191 0.566798 0.789179
Si Si4 0.979827 0.697957 0.917632
Si Si5 0.872768 0.883369 0.994500
Si Si6 0.715372 0.815216 0.587248
O O1 0.831938 0.265188 0.871553
O O2 0.633578 0.260146 0.809893
O O3 0.584800 0.165670 0.886530
O O4 0.750000 0.000000 0.834265
O O5 0.478599 0.549950 0.677248
O O6 0.441647 0.484885 0.595727
O O7 0.605845 0.733670 0.619827
O O8 0.750000 0.500000 0.773613
O O9 0.000000 0.593390 0.750000
O O10 0.145666 0.709016 0.913758
O O11 0.915461 0.735525 0.963735
O O12 0.750000 0.000000 0.976867
O O13 0.841784 0.805230 0.039759
O O14 0.000000 0.000000 0.000000
O O15 0.750000 0.000000 0.601097
#
# Coordination Sequence:
#
# PCOD8223260 Si02
#       6
#     8   8   8   8   8   8
#     4  10  21  39  64  90 118 156 201 247 297 360
#     4  10  23  40  60  90 118 157 202 245 302 365
#     4   9  20  40  64  91 122 155 191 239 304 363
#     4  11  21  37  58  85 120 159 204 247 301 353
#     4  11  22  38  56  87 122 166 205 251 307 347
#     4  11  22  37  58  86 121 158 207 249 297 354
#
# _framework density 19.275389000000001
#
# number of rings (size 3 to 8) (size 9 to 14) (size 15 to 20)
#    0.000    1.667    3.333    3.500    2.333    3.333 
#    0.000    5.000    0.000    5.000    0.000    0.000 
#    0.000    0.000    0.000    0.000    0.000    0.000 
#
# Total GULP energy -595088.904299 kJ/mol
# GULP energy per Si atom -12397.685506 kJ/mol
# Density = 1.923152 g / cm^3
# Si number density = 19.275389 Si / 1000 Ang^3
#
#
#
# Elastic Constant Matrix: (Units=GPa)
#
#
# Indices 1 2 3 4 5 6 
#
# 1 147.3283 55.6673 80.5464 0.0000 0.0000 0.0000
# 2 55.6673 116.6098 61.0558 0.0000 0.0000 0.0000
# 3 80.5464 61.0558 110.9382 0.0000 0.0000 0.0000
# 4 0.0000 0.0000 0.0000 18.1419 0.0000 0.0000
# 5 0.0000 0.0000 0.0000 0.0000 43.7672 0.0000
# 6 0.0000 0.0000 0.0000 0.0000 0.0000 37.5004
#
#
#
# Elastic Compliance Matrix: (Units=1/GPa)
#
#
# Indices 1 2 3 4 5 6 
#
# 1 0.011455 -0.001565 -0.007456 0.000000 0.000000 0.000000
# 2 -0.001565 0.012261 -0.005612 0.000000 0.000000 0.000000
# 3 -0.007456 -0.005612 0.017516 0.000000 0.000000 0.000000
# 4 0.000000 0.000000 0.000000 0.055121 0.000000 0.000000
# 5 0.000000 0.000000 0.000000 0.000000 0.022848 0.000000
# 6 0.000000 0.000000 0.000000 0.000000 0.000000 0.026666
#
#
# Mechanical properties :
#
#
# Convention : Reuss Voigt Hill
#
# Bulk Modulus (GPa) = 83.56226 85.49058 84.52642
# Shear Modulus (GPa) = 27.91418 31.72235 29.81826
#
# Velocity S-wave (km/s) = 3.80962 4.06118 3.93741
# Velocity P-wave (km/s) = 7.92445 8.15103 8.03854
#
# Compressibility (1/GPa) = 0.01196713
#
# Stress axis : x y z
#
# Youngs Moduli (GPa) = 87.29915 81.56039 57.09145
#
# Poissons Ratio (x) = 0.12761 0.42566
# Poissons Ratio (y) = 0.13659 0.32039
# Poissons Ratio (z) = 0.65087 0.45771
#
# Static dielectric constant tensor:
#      x y z
#    x 3.688480 0.000000 0.000000 
#    y 0.000000 3.486700 0.000000 
#    z 0.000000 0.000000 3.216970 
# 
# 
# High freq. dielectric constant tensor:
#      x y z
#    x 1.770140 0.000000 0.000000 
#    y 0.000000 1.748090 0.000000 
#    z 0.000000 0.000000 1.733130 
# 
# From -- ./inp_files/27732.got.cif
#   From: 2010.03.12/outbox.cif.g09.slc.cpg/sg54_14_cif.got.tgz:27732.got - 2010.04.16 15:00:50.
