data_PCOD8223876
_publ_section_title
;
Structure prediction by ZEFSAII (Michael W. Deem and Ramdas Pophale) SiO2 
 PCOD8223876
Probable space group: P C C A
;
_chemical_formula_sum "Si O2"
_cell_formula_units_Z 32
_cell_length_a 11.311340
_cell_length_b 13.028677
_cell_length_c 9.334420
_cell_angle_alpha 90.000000
_cell_angle_beta 90.000000
_cell_angle_gamma 90.000000
_cell_volume 1375.630233
_symmetry_space_group_name_H-M "P C C A"
_symmetry_group_IT_number 54
_symmetry_cell_setting 'orthorhombic'
loop_
_space_group_symop_operation_xyz
x,y,z
1/2-x,-y,z
1/2+x,-y,1/2-z
-x,y,1/2-z
-x,-y,-z
1/2+x,y,-z
1/2-x,y,1/2+z
x,-y,1/2+z
loop_
_atom_site_type_symbol
_atom_site_label
_atom_site_fract_x
_atom_site_fract_y
_atom_site_fract_z
Si Si1 0.500000 0.029280 0.250000
Si Si2 0.685906 0.309513 0.563160
Si Si3 0.000000 0.408887 0.250000
Si Si4 0.350455 0.081425 0.988867
Si Si5 0.871601 0.606900 0.271829
O O1 0.577623 0.098172 0.360959
O O2 0.574401 0.956240 0.145975
O O3 0.555405 0.337508 0.626011
O O4 0.706414 0.187635 0.564793
O O5 0.697223 0.343753 0.401326
O O6 0.792953 0.370420 0.634271
O O7 0.891990 0.484020 0.300860
O O8 0.250000 0.000000 0.026055
O O9 0.000000 0.659477 0.250000
#
# Coordination Sequence:
#
# PCOD8223876 Si02
#       5
#     4   8   4   8   8
#     4  10  25  47  72 104 150 188 247 319 362 444
#     4  12  26  46  78 108 152 202 251 312 393 451
#     4  10  25  49  78 104 152 194 257 315 382 448
#     4  11  26  45  76 107 151 192 255 306 383 445
#     4  10  28  45  74 110 150 194 259 311 379 457
#
# _framework density 23.262066999999998
#
# number of rings (size 3 to 8) (size 9 to 14) (size 15 to 20)
#    0.750    0.500    0.000    3.000   12.250    4.000 
#    0.000    0.000    0.000    0.000    0.000    0.000 
#    0.000    0.000    0.000    0.000    0.000    0.000 
#
# Total GULP energy -396637.535244 kJ/mol
# GULP energy per Si atom -12394.922976 kJ/mol
# Density = 2.320912 g / cm^3
# Si number density = 23.262067 Si / 1000 Ang^3
#
#
#
# Elastic Constant Matrix: (Units=GPa)
#
#
# Indices 1 2 3 4 5 6 
#
# 1 107.7071 44.4336 53.0707 0.0000 0.0000 0.0000
# 2 44.4336 128.3880 14.9958 0.0000 0.0000 0.0000
# 3 53.0707 14.9958 123.1999 0.0000 0.0000 0.0000
# 4 0.0000 0.0000 0.0000 9.1400 0.0000 0.0000
# 5 0.0000 0.0000 0.0000 0.0000 36.5303 0.0000
# 6 0.0000 0.0000 0.0000 0.0000 0.0000 33.3521
#
#
#
# Elastic Compliance Matrix: (Units=1/GPa)
#
#
# Indices 1 2 3 4 5 6 
#
# 1 0.013614 -0.004085 -0.005367 0.000000 0.000000 0.000000
# 2 -0.004085 0.009127 0.000649 0.000000 0.000000 0.000000
# 3 -0.005367 0.000649 0.010350 0.000000 0.000000 0.000000
# 4 0.000000 0.000000 0.000000 0.109410 0.000000 0.000000
# 5 0.000000 0.000000 0.000000 0.000000 0.027375 0.000000
# 6 0.000000 0.000000 0.000000 0.000000 0.000000 0.029983
#
#
# Mechanical properties :
#
#
# Convention : Reuss Voigt Hill
#
# Bulk Modulus (GPa) = 64.58240 64.92169 64.75204
# Shear Modulus (GPa) = 22.45910 32.25747 27.35829
#
# Velocity S-wave (km/s) = 3.11059 3.72788 3.43314
# Velocity P-wave (km/s) = 6.38156 6.81901 6.60391
#
# Compressibility (1/GPa) = 0.01548410
#
# Stress axis : x y z
#
# Youngs Moduli (GPa) = 73.45222 109.56709 96.61790
#
# Poissons Ratio (x) = 0.44756 0.51859
# Poissons Ratio (y) = 0.30004 -0.06268
# Poissons Ratio (z) = 0.39425 -0.07108
#
# Static dielectric constant tensor:
#      x y z
#    x 4.380220 0.000000 0.000000 
#    y 0.000000 4.020930 0.000000 
#    z 0.000000 0.000000 4.204470 
# 
# 
# High freq. dielectric constant tensor:
#      x y z
#    x 1.926080 0.000000 0.000000 
#    y 0.000000 1.911820 0.000000 
#    z 0.000000 0.000000 1.928080 
# 
# From -- ./inp_files/2868.got.cif
#   From: 2010.03.12/outbox.cif.g09.slc.cpg/sg54_2_cif.got.tgz:2868.got - 2010.04.16 15:00:50.
