data_PCOD8223995
_publ_section_title
;
Structure prediction by ZEFSAII (Michael W. Deem and Ramdas Pophale) SiO2 
 PCOD8223995
Probable space group: P C C A
;
_chemical_formula_sum "Si O2"
_cell_formula_units_Z 24
_cell_length_a 16.370388
_cell_length_b 4.939947
_cell_length_c 13.736321
_cell_angle_alpha 90.000000
_cell_angle_beta 90.000000
_cell_angle_gamma 90.000000
_cell_volume 1110.840470
_symmetry_space_group_name_H-M "P C C A"
_symmetry_group_IT_number 54
_symmetry_cell_setting 'orthorhombic'
loop_
_space_group_symop_operation_xyz
x,y,z
1/2-x,-y,z
1/2+x,-y,1/2-z
-x,y,1/2-z
-x,-y,-z
1/2+x,y,-z
1/2-x,y,1/2+z
x,-y,1/2+z
loop_
_atom_site_type_symbol
_atom_site_label
_atom_site_fract_x
_atom_site_fract_y
_atom_site_fract_z
Si Si1 0.839193 0.110449 0.858039
Si Si2 0.305715 0.756254 0.428253
Si Si3 0.092728 0.622227 0.743960
O O1 0.850959 0.390784 0.801876
O O2 0.750000 0.000000 0.831372
O O3 0.904958 0.889337 0.823177
O O4 0.850605 0.151601 0.973081
O O5 0.250000 0.500000 0.453221
O O6 0.375466 0.686677 0.351620
O O7 0.250000 0.000000 0.386847
O O8 0.000000 0.519549 0.750000
#
# Coordination Sequence:
#
# PCOD8223995 Si02
#       3
#     8   8   8
#     4  11  23  42  65  89 121 164 212 254 298 363
#     4  11  23  40  65  91 118 163 215 255 298 361
#     4  12  25  40  63  95 130 162 197 255 318 367
#
# _framework density 21.605263000000001
#
# number of rings (size 3 to 8) (size 9 to 14) (size 15 to 20)
#    0.000    0.667    0.000   11.000    0.000    2.667 
#    0.000    0.000    0.000    0.000    0.000    0.000 
#    0.000    0.000    0.000    0.000    0.000    0.000 
#
# Total GULP energy -297827.593204 kJ/mol
# GULP energy per Si atom -12409.483050 kJ/mol
# Density = 2.155609 g / cm^3
# Si number density = 21.605263 Si / 1000 Ang^3
#
#
#
# Elastic Constant Matrix: (Units=GPa)
#
#
# Indices 1 2 3 4 5 6 
#
# 1 92.8754 18.4533 64.1922 0.0000 0.0000 0.0000
# 2 18.4533 124.1742 51.5554 0.0000 0.0000 0.0000
# 3 64.1922 51.5554 161.3051 0.0000 0.0000 0.0000
# 4 0.0000 0.0000 0.0000 29.3765 0.0000 0.0000
# 5 0.0000 0.0000 0.0000 0.0000 8.8388 0.0000
# 6 0.0000 0.0000 0.0000 0.0000 0.0000 34.1399
#
#
#
# Elastic Compliance Matrix: (Units=1/GPa)
#
#
# Indices 1 2 3 4 5 6 
#
# 1 0.014861 0.000285 -0.006005 0.000000 0.000000 0.000000
# 2 0.000285 0.009291 -0.003083 0.000000 0.000000 0.000000
# 3 -0.006005 -0.003083 0.009574 0.000000 0.000000 0.000000
# 4 0.000000 0.000000 0.000000 0.034041 0.000000 0.000000
# 5 0.000000 0.000000 0.000000 0.000000 0.113138 0.000000
# 6 0.000000 0.000000 0.000000 0.000000 0.000000 0.029291
#
#
# Mechanical properties :
#
#
# Convention : Reuss Voigt Hill
#
# Bulk Modulus (GPa) = 62.03422 71.86184 66.94803
# Shear Modulus (GPa) = 21.44308 30.74795 26.09552
#
# Velocity S-wave (km/s) = 3.15380 3.77658 3.47916
# Velocity P-wave (km/s) = 6.48358 7.23535 6.86976
#
# Compressibility (1/GPa) = 0.01612013
#
# Stress axis : x y z
#
# Youngs Moduli (GPa) = 67.29024 107.63313 104.44444
#
# Poissons Ratio (x) = -0.03065 0.62719
# Poissons Ratio (y) = -0.01916 0.32198
# Poissons Ratio (z) = 0.40408 0.33181
#
# Static dielectric constant tensor:
#      x y z
#    x 3.597490 0.000000 0.000000 
#    y 0.000000 4.190870 0.000000 
#    z 0.000000 0.000000 3.935520 
# 
# 
# High freq. dielectric constant tensor:
#      x y z
#    x 1.826100 0.000000 0.000000 
#    y 0.000000 1.872210 0.000000 
#    z 0.000000 0.000000 1.864560 
# 
# From -- ./inp_files/8590.got.cif
#   From: 2010.03.12/outbox.cif.g09.slc.cpg/sg54_5_cif.got.tgz:8590.got - 2010.04.16 15:00:50.
