data_PCOD8223606
_publ_section_title
;
Structure prediction by ZEFSAII (Michael W. Deem and Ramdas Pophale) SiO2 
 PCOD8223606
Probable space group: P C C A
;
_chemical_formula_sum "Si O2"
_cell_formula_units_Z 32
_cell_length_a 5.171700
_cell_length_b 13.856195
_cell_length_c 19.540209
_cell_angle_alpha 90.000000
_cell_angle_beta 90.000000
_cell_angle_gamma 90.000000
_cell_volume 1400.253012
_symmetry_space_group_name_H-M "P C C A"
_symmetry_group_IT_number 54
_symmetry_cell_setting 'orthorhombic'
loop_
_space_group_symop_operation_xyz
x,y,z
1/2-x,-y,z
1/2+x,-y,1/2-z
-x,y,1/2-z
-x,-y,-z
1/2+x,y,-z
1/2-x,y,1/2+z
x,-y,1/2+z
loop_
_atom_site_type_symbol
_atom_site_label
_atom_site_fract_x
_atom_site_fract_y
_atom_site_fract_z
Si Si1 0.750000 0.000000 0.176255
Si Si2 0.000000 0.840790 0.250000
Si Si3 0.625041 0.794538 0.462027
Si Si4 0.750000 0.500000 0.295035
Si Si5 0.344153 0.707945 0.178449
Si Si6 0.250000 0.000000 0.584366
O O1 0.753549 0.905858 0.225678
O O2 0.494553 0.018744 0.132562
O O3 0.084463 0.770441 0.188140
O O4 0.405699 0.756357 0.514278
O O5 0.527032 0.755911 0.388248
O O6 0.664679 0.910517 0.462894
O O7 0.500000 0.478226 0.250000
O O8 0.790349 0.404035 0.340531
O O9 0.500000 0.714018 0.250000
#
# Coordination Sequence:
#
# PCOD8223606 Si02
#       6
#     4   4   8   4   8   4
#     4  12  25  37  64 102 136 180 228 286 340 410
#     4  12  24  40  66 102 144 176 230 292 352 404
#     4  12  27  45  66  98 140 184 229 282 347 412
#     4  10  22  42  72 108 134 170 234 294 352 408
#     4  11  25  45  75 102 138 182 235 293 349 412
#     4  12  23  45  62  90 138 186 238 272 334 418
#
# _framework density 22.853012
#
# number of rings (size 3 to 8) (size 9 to 14) (size 15 to 20)
#    0.000    0.500    3.750    4.500    5.250    0.000 
#    0.000    1.250    0.000    0.000    0.000    0.000 
#    0.000    0.000    0.000    0.000    0.000    0.000 
#
# Total GULP energy -396493.736976 kJ/mol
# GULP energy per Si atom -12390.429280 kJ/mol
# Density = 2.280100 g / cm^3
# Si number density = 22.853012 Si / 1000 Ang^3
#
#
#
# Elastic Constant Matrix: (Units=GPa)
#
#
# Indices 1 2 3 4 5 6 
#
# 1 116.2108 17.2831 36.2360 0.0000 0.0000 0.0000
# 2 17.2831 127.6895 26.0237 0.0000 0.0000 0.0000
# 3 36.2360 26.0237 104.3828 0.0000 0.0000 0.0000
# 4 0.0000 0.0000 0.0000 21.4787 0.0000 0.0000
# 5 0.0000 0.0000 0.0000 0.0000 12.3939 0.0000
# 6 0.0000 0.0000 0.0000 0.0000 0.0000 20.5898
#
#
#
# Elastic Compliance Matrix: (Units=1/GPa)
#
#
# Indices 1 2 3 4 5 6 
#
# 1 0.009702 -0.000660 -0.003203 0.000000 0.000000 0.000000
# 2 -0.000660 0.008296 -0.001839 0.000000 0.000000 0.000000
# 3 -0.003203 -0.001839 0.011151 0.000000 0.000000 0.000000
# 4 0.000000 0.000000 0.000000 0.046558 0.000000 0.000000
# 5 0.000000 0.000000 0.000000 0.000000 0.080685 0.000000
# 6 0.000000 0.000000 0.000000 0.000000 0.000000 0.048568
#
#
# Mechanical properties :
#
#
# Convention : Reuss Voigt Hill
#
# Bulk Modulus (GPa) = 56.36025 56.37431 56.36728
# Shear Modulus (GPa) = 22.49432 28.80852 25.65142
#
# Velocity S-wave (km/s) = 3.14077 3.55435 3.35394
# Velocity P-wave (km/s) = 6.15371 6.44719 6.30216
#
# Compressibility (1/GPa) = 0.01774300
#
# Stress axis : x y z
#
# Youngs Moduli (GPa) = 103.07019 120.54494 89.68090
#
# Poissons Ratio (x) = 0.07960 0.28729
# Poissons Ratio (y) = 0.06806 0.16492
# Poissons Ratio (z) = 0.33018 0.22168
#
# Static dielectric constant tensor:
#      x y z
#    x 4.081780 0.000000 0.000000 
#    y 0.000000 4.134920 0.000000 
#    z 0.000000 0.000000 4.081440 
# 
# 
# High freq. dielectric constant tensor:
#      x y z
#    x 1.909870 0.000000 0.000000 
#    y 0.000000 1.894280 0.000000 
#    z 0.000000 0.000000 1.886800 
# 
# From -- ./inp_files/15700.got.cif
#   From: 2010.03.12/outbox.cif.g09.slc.cpg/sg54_8_cif.got.tgz:15700.got - 2010.04.16 15:00:50.
