data_PCOD8223017
_publ_section_title
;
Structure prediction by ZEFSAII (Michael W. Deem and Ramdas Pophale) SiO2 
 PCOD8223017
Probable space group: P C C A
;
_chemical_formula_sum "Si O2"
_cell_formula_units_Z 48
_cell_length_a 18.158482
_cell_length_b 8.395064
_cell_length_c 15.074040
_cell_angle_alpha 90.000000
_cell_angle_beta 90.000000
_cell_angle_gamma 90.000000
_cell_volume 2297.911055
_symmetry_space_group_name_H-M "P C C A"
_symmetry_group_IT_number 54
_symmetry_cell_setting 'orthorhombic'
loop_
_space_group_symop_operation_xyz
x,y,z
1/2-x,-y,z
1/2+x,-y,1/2-z
-x,y,1/2-z
-x,-y,-z
1/2+x,y,-z
1/2-x,y,1/2+z
x,-y,1/2+z
loop_
_atom_site_type_symbol
_atom_site_label
_atom_site_fract_x
_atom_site_fract_y
_atom_site_fract_z
Si Si1 0.751786 0.328396 0.617867
Si Si2 0.407617 0.748387 0.886700
Si Si3 0.000000 0.578915 0.250000
Si Si4 0.469705 0.058381 0.841117
Si Si5 0.750000 0.000000 0.510022
Si Si6 0.113466 0.154994 0.072145
Si Si7 0.380246 0.325935 0.752711
O O1 0.750000 0.500000 0.563838
O O2 0.833603 0.313938 0.660237
O O3 0.696171 0.355881 0.698717
O O4 0.735011 0.165548 0.564025
O O5 0.480523 0.679573 0.839194
O O6 0.408326 0.941156 0.880824
O O7 0.399704 0.715514 0.992726
O O8 0.926444 0.481883 0.272879
O O9 0.500000 0.981664 0.750000
O O10 0.535345 0.070150 0.911983
O O11 0.433267 0.228027 0.819562
O O12 0.677256 0.972669 0.450863
O O13 0.139530 0.238929 0.161854
#
# Coordination Sequence:
#
# PCOD8223017 Si02
#       7
#     8   8   4   8   4   8   8
#     4  11  23  43  70  90 129 180 223 269 330 405
#     4  11  23  40  65  94 130 168 220 272 334 394
#     4  12  22  40  64  94 132 170 216 268 338 406
#     4  10  20  39  66  91 125 172 217 265 328 400
#     4  10  24  44  68 100 136 180 226 274 344 394
#     4  10  22  41  65  98 131 168 224 279 328 396
#     4  11  22  42  66  90 130 176 220 268 333 397
#
# _framework density 20.888538
#
# number of rings (size 3 to 8) (size 9 to 14) (size 15 to 20)
#    0.000    1.333    5.000    2.500    0.000    4.000 
#    0.000    6.667    0.000    0.000    0.000    0.000 
#    0.000    0.000    0.000    0.000    0.000    0.000 
#
# Total GULP energy -594627.951658 kJ/mol
# GULP energy per Si atom -12388.082326 kJ/mol
# Density = 2.084099 g / cm^3
# Si number density = 20.888538 Si / 1000 Ang^3
#
#
#
# Elastic Constant Matrix: (Units=GPa)
#
#
# Indices 1 2 3 4 5 6 
#
# 1 150.1356 51.1210 66.3943 0.0000 0.0000 0.0000
# 2 51.1210 124.7766 48.9132 0.0000 0.0000 0.0000
# 3 66.3943 48.9132 97.4269 0.0000 0.0000 0.0000
# 4 0.0000 0.0000 0.0000 15.6147 0.0000 0.0000
# 5 0.0000 0.0000 0.0000 0.0000 42.5269 0.0000
# 6 0.0000 0.0000 0.0000 0.0000 0.0000 37.8108
#
#
#
# Elastic Compliance Matrix: (Units=1/GPa)
#
#
# Indices 1 2 3 4 5 6 
#
# 1 0.009830 -0.001745 -0.005823 0.000000 0.000000 0.000000
# 2 -0.001745 0.010288 -0.003976 0.000000 0.000000 0.000000
# 3 -0.005823 -0.003976 0.016228 0.000000 0.000000 0.000000
# 4 0.000000 0.000000 0.000000 0.064042 0.000000 0.000000
# 5 0.000000 0.000000 0.000000 0.000000 0.023515 0.000000
# 6 0.000000 0.000000 0.000000 0.000000 0.000000 0.026447
#
#
# Mechanical properties :
#
#
# Convention : Reuss Voigt Hill
#
# Bulk Modulus (GPa) = 75.42137 78.35512 76.88824
# Shear Modulus (GPa) = 28.11250 32.91786 30.51518
#
# Velocity S-wave (km/s) = 3.67254 3.97404 3.82626
# Velocity P-wave (km/s) = 7.35992 7.65832 7.51060
#
# Compressibility (1/GPa) = 0.01325884
#
# Stress axis : x y z
#
# Youngs Moduli (GPa) = 101.73226 97.20319 61.62037
#
# Poissons Ratio (x) = 0.16959 0.35881
# Poissons Ratio (y) = 0.17749 0.24500
# Poissons Ratio (z) = 0.59237 0.38648
#
# Static dielectric constant tensor:
#      x y z
#    x 3.986450 0.000000 0.000000 
#    y 0.000000 3.884340 0.000000 
#    z 0.000000 0.000000 3.711490 
# 
# 
# High freq. dielectric constant tensor:
#      x y z
#    x 1.832970 0.000000 0.000000 
#    y 0.000000 1.818730 0.000000 
#    z 0.000000 0.000000 1.800510 
# 
# From -- ./inp_files/14186.got.cif
#   From: 2010.03.12/outbox.cif.g09.slc.cpg/sg54_8_cif.got.tgz:14186.got - 2010.04.16 15:00:50.
