data_PCOD8223912
_publ_section_title
;
Structure prediction by ZEFSAII (Michael W. Deem and Ramdas Pophale) SiO2 
 PCOD8223912
Probable space group: P C C A
;
_chemical_formula_sum "Si O2"
_cell_formula_units_Z 56
_cell_length_a 19.703988
_cell_length_b 10.396550
_cell_length_c 12.788944
_cell_angle_alpha 90.000000
_cell_angle_beta 90.000000
_cell_angle_gamma 90.000000
_cell_volume 2619.859894
_symmetry_space_group_name_H-M "P C C A"
_symmetry_group_IT_number 54
_symmetry_cell_setting 'orthorhombic'
loop_
_space_group_symop_operation_xyz
x,y,z
1/2-x,-y,z
1/2+x,-y,1/2-z
-x,y,1/2-z
-x,-y,-z
1/2+x,y,-z
1/2-x,y,1/2+z
x,-y,1/2+z
loop_
_atom_site_type_symbol
_atom_site_label
_atom_site_fract_x
_atom_site_fract_y
_atom_site_fract_z
Si Si1 0.166185 0.867863 0.719448
Si Si2 0.431654 0.697584 0.685895
Si Si3 0.498353 0.146681 0.021466
Si Si4 0.581070 0.509700 0.995611
Si Si5 0.313401 0.158461 0.288258
Si Si6 0.860826 0.231649 0.506232
Si Si7 0.943681 0.695329 0.667067
O O1 0.241606 0.812503 0.735037
O O2 0.150389 0.851839 0.597493
O O3 0.111868 0.785709 0.781897
O O4 0.161794 0.014597 0.759654
O O5 0.500000 0.658848 0.750000
O O6 0.444871 0.820646 0.611476
O O7 0.404387 0.583016 0.612447
O O8 0.368389 0.734566 0.756884
O O9 0.571195 0.186769 0.065311
O O10 0.486742 0.222972 0.914967
O O11 0.500000 0.000000 0.000000
O O12 0.597489 0.583102 0.105198
O O13 0.500000 0.500000 0.000000
O O14 0.628960 0.384352 0.987619
O O15 0.302393 0.186319 0.412636
O O16 0.000000 0.642185 0.750000
#
# Coordination Sequence:
#
# PCOD8223912 Si02
#       7
#     8   8   8   8   8   8   8
#     4  11  26  45  68  96 134 176 217 273 336 395
#     4  11  22  39  65  97 131 174 223 268 330 387
#     4  11  21  35  63  96 131 162 215 281 321 384
#     4  11  22  41  63 100 136 174 216 277 327 388
#     4  11  26  45  68  96 134 176 217 273 336 395
#     4  12  23  44  66  97 131 171 223 267 328 393
#     4  11  22  39  65  97 131 174 223 268 330 387
#
# _framework density 21.375188999999999
#
# number of rings (size 3 to 8) (size 9 to 14) (size 15 to 20)
#    0.000    0.857    5.714    1.714    0.000    9.714 
#    0.000    4.286    0.000    0.000    0.000    0.000 
#    0.000    0.000    0.000    0.000    0.000    0.000 
#
# Total GULP energy -694001.283972 kJ/mol
# GULP energy per Si atom -12392.880071 kJ/mol
# Density = 2.132654 g / cm^3
# Si number density = 21.375189 Si / 1000 Ang^3
#
#
#
# Elastic Constant Matrix: (Units=GPa)
#
#
# Indices 1 2 3 4 5 6 
#
# 1 81.1905 13.2663 15.8008 0.0000 0.0000 0.0000
# 2 13.2663 114.1581 37.4756 0.0000 0.0000 0.0000
# 3 15.8008 37.4756 116.5832 0.0000 0.0000 0.0000
# 4 0.0000 0.0000 0.0000 28.8909 0.0000 0.0000
# 5 0.0000 0.0000 0.0000 0.0000 19.2694 0.0000
# 6 0.0000 0.0000 0.0000 0.0000 0.0000 15.5255
#
#
#
# Elastic Compliance Matrix: (Units=1/GPa)
#
#
# Indices 1 2 3 4 5 6 
#
# 1 0.012756 -0.001023 -0.001400 0.000000 0.000000 0.000000
# 2 -0.001023 0.009875 -0.003036 0.000000 0.000000 0.000000
# 3 -0.001400 -0.003036 0.009743 0.000000 0.000000 0.000000
# 4 0.000000 0.000000 0.000000 0.034613 0.000000 0.000000
# 5 0.000000 0.000000 0.000000 0.000000 0.051896 0.000000
# 6 0.000000 0.000000 0.000000 0.000000 0.000000 0.064410
#
#
# Mechanical properties :
#
#
# Convention : Reuss Voigt Hill
#
# Bulk Modulus (GPa) = 46.60403 49.44636 48.02520
# Shear Modulus (GPa) = 24.83074 29.09644 26.96359
#
# Velocity S-wave (km/s) = 3.41201 3.69348 3.55553
# Velocity P-wave (km/s) = 6.11332 6.43210 6.27473
#
# Compressibility (1/GPa) = 0.02145737
#
# Stress axis : x y z
#
# Youngs Moduli (GPa) = 78.39259 101.26360 102.63601
#
# Poissons Ratio (x) = 0.10357 0.14370
# Poissons Ratio (y) = 0.08018 0.31158
# Poissons Ratio (z) = 0.10976 0.30741
#
# Static dielectric constant tensor:
#      x y z
#    x 3.727970 0.000000 0.000000 
#    y 0.000000 4.688600 0.000000 
#    z 0.000000 0.000000 4.204300 
# 
# 
# High freq. dielectric constant tensor:
#      x y z
#    x 1.814630 0.000000 0.000000 
#    y 0.000000 1.841870 0.000000 
#    z 0.000000 0.000000 1.864050 
# 
# From -- ./inp_files/9567.got.cif
#   From: 2010.03.12/outbox.cif.g09.slc.cpg/sg54_5_cif.got.tgz:9567.got - 2010.04.16 15:00:50.
