data_PCOD8223936
_publ_section_title
;
Structure prediction by ZEFSAII (Michael W. Deem and Ramdas Pophale) SiO2 
 PCOD8223936
Probable space group: P C C A
;
_chemical_formula_sum "Si O2"
_cell_formula_units_Z 32
_cell_length_a 14.368186
_cell_length_b 10.711454
_cell_length_c 7.441446
_cell_angle_alpha 90.000000
_cell_angle_beta 90.000000
_cell_angle_gamma 90.000000
_cell_volume 1145.269521
_symmetry_space_group_name_H-M "P C C A"
_symmetry_group_IT_number 54
_symmetry_cell_setting 'orthorhombic'
loop_
_space_group_symop_operation_xyz
x,y,z
1/2-x,-y,z
1/2+x,-y,1/2-z
-x,y,1/2-z
-x,-y,-z
1/2+x,y,-z
1/2-x,y,1/2+z
x,-y,1/2+z
loop_
_atom_site_type_symbol
_atom_site_label
_atom_site_fract_x
_atom_site_fract_y
_atom_site_fract_z
Si Si1 0.222383 0.357648 0.179863
Si Si2 0.913944 0.793866 0.035039
Si Si3 0.144596 0.981105 0.761817
Si Si4 0.378257 0.761555 0.506551
O O1 0.250000 0.500000 0.157263
O O2 0.165334 0.311062 0.000725
O O3 0.158352 0.331658 0.350913
O O4 0.318354 0.276637 0.183567
O O5 0.913138 0.892483 0.870186
O O6 0.014150 0.728335 0.041519
O O7 0.901312 0.880778 0.215265
O O8 0.141467 0.907387 0.955869
O O9 0.250000 0.000000 0.699112
#
# Coordination Sequence:
#
# PCOD8223936 Si02
#       4
#     8   8   8   8
#     4  11  24  46  71  99 136 186 234 285 333 403
#     4  11  25  45  69 105 141 182 226 286 346 417
#     4  11  21  41  71 100 143 176 222 283 354 412
#     4  11  25  45  69 101 140 181 229 285 349 406
#
# _framework density 27.941020000000002
#
# number of rings (size 3 to 8) (size 9 to 14) (size 15 to 20)
#    0.000    1.000    2.500    5.250    3.500    1.000 
#    0.000    3.750    0.000    0.000    0.000    0.000 
#    0.000    0.000    0.000    0.000    0.000    0.000 
#
# Total GULP energy -396972.074357 kJ/mol
# GULP energy per Si atom -12405.377324 kJ/mol
# Density = 2.787743 g / cm^3
# Si number density = 27.941020 Si / 1000 Ang^3
#
#
#
# Elastic Constant Matrix: (Units=GPa)
#
#
# Indices 1 2 3 4 5 6 
#
# 1 218.7686 76.7621 19.1713 0.0000 0.0000 0.0000
# 2 76.7621 197.1245 26.1119 0.0000 0.0000 0.0000
# 3 19.1713 26.1119 84.3997 0.0000 0.0000 0.0000
# 4 0.0000 0.0000 0.0000 39.8559 0.0000 0.0000
# 5 0.0000 0.0000 0.0000 0.0000 36.2018 0.0000
# 6 0.0000 0.0000 0.0000 0.0000 0.0000 27.2955
#
#
#
# Elastic Compliance Matrix: (Units=1/GPa)
#
#
# Indices 1 2 3 4 5 6 
#
# 1 0.005323 -0.001994 -0.000592 0.000000 0.000000 0.000000
# 2 -0.001994 0.006037 -0.001415 0.000000 0.000000 0.000000
# 3 -0.000592 -0.001415 0.012421 0.000000 0.000000 0.000000
# 4 0.000000 0.000000 0.000000 0.025090 0.000000 0.000000
# 5 0.000000 0.000000 0.000000 0.000000 0.027623 0.000000
# 6 0.000000 0.000000 0.000000 0.000000 0.000000 0.036636
#
#
# Mechanical properties :
#
#
# Convention : Reuss Voigt Hill
#
# Bulk Modulus (GPa) = 63.37913 82.70927 73.04420
# Shear Modulus (GPa) = 39.55976 45.88713 42.72344
#
# Velocity S-wave (km/s) = 3.76683 4.05691 3.91456
# Velocity P-wave (km/s) = 6.45377 7.18403 6.82867
#
# Compressibility (1/GPa) = 0.01577807
#
# Stress axis : x y z
#
# Youngs Moduli (GPa) = 187.87531 165.64718 80.51164
#
# Poissons Ratio (x) = 0.33035 0.04767
# Poissons Ratio (y) = 0.37468 0.11390
# Poissons Ratio (z) = 0.11123 0.23435
#
# Static dielectric constant tensor:
#      x y z
#    x 4.964450 0.000000 0.000000 
#    y 0.000000 4.837500 0.000000 
#    z 0.000000 0.000000 5.868050 
# 
# 
# High freq. dielectric constant tensor:
#      x y z
#    x 2.132840 0.000000 0.000000 
#    y 0.000000 2.108600 0.000000 
#    z 0.000000 0.000000 2.185450 
# 
# From -- ./inp_files/3327.got.cif
#   From: 2010.03.12/outbox.cif.g09.slc.cpg/sg54_2_cif.got.tgz:3327.got - 2010.04.16 15:00:50.
