data_PCOD8223521
_publ_section_title
;
Structure prediction by ZEFSAII (Michael W. Deem and Ramdas Pophale) SiO2 
 PCOD8223521
Probable space group: P C C A
;
_chemical_formula_sum "Si O2"
_cell_formula_units_Z 52
_cell_length_a 13.322205
_cell_length_b 8.946955
_cell_length_c 19.656713
_cell_angle_alpha 90.000000
_cell_angle_beta 90.000000
_cell_angle_gamma 90.000000
_cell_volume 2342.945907
_symmetry_space_group_name_H-M "P C C A"
_symmetry_group_IT_number 54
_symmetry_cell_setting 'orthorhombic'
loop_
_space_group_symop_operation_xyz
x,y,z
1/2-x,-y,z
1/2+x,-y,1/2-z
-x,y,1/2-z
-x,-y,-z
1/2+x,y,-z
1/2-x,y,1/2+z
x,-y,1/2+z
loop_
_atom_site_type_symbol
_atom_site_label
_atom_site_fract_x
_atom_site_fract_y
_atom_site_fract_z
Si Si1 0.148986 0.905550 0.792448
Si Si2 0.626329 0.734438 0.833577
Si Si3 0.750000 0.500000 0.909038
Si Si4 0.938252 0.672337 0.952600
Si Si5 0.061452 0.943398 0.647989
Si Si6 0.947622 0.407859 0.598817
Si Si7 0.217651 0.345971 0.800013
O O1 0.115859 0.879634 0.714597
O O2 0.180608 0.741815 0.819170
O O3 0.057523 0.968901 0.837742
O O4 0.250000 0.000000 0.801271
O O5 0.718978 0.645680 0.865898
O O6 0.525189 0.641048 0.842861
O O7 0.648951 0.751575 0.752640
O O8 0.613168 0.897442 0.868170
O O9 0.842392 0.560466 0.953463
O O10 0.921896 0.829937 0.914651
O O11 0.031081 0.581843 0.919078
O O12 0.960542 0.699062 0.032414
O O13 0.837906 0.386700 0.629976
O O14 0.250000 0.500000 0.763215
#
# Coordination Sequence:
#
# PCOD8223521 Si02
#       7
#     8   8   4   8   8   8   8
#     4  11  23  40  65 100 134 171 217 280 343 407
#     4  11  22  41  66  98 130 176 219 285 342 410
#     4  10  22  40  68  92 134 172 230 276 338 406
#     4  10  23  45  64  98 131 184 227 273 334 416
#     4  11  24  41  70  94 137 179 219 277 350 406
#     4  10  24  42  68  93 137 175 224 279 339 403
#     4  12  23  38  67 102 131 167 223 281 339 403
#
# _framework density 22.194281
#
# number of rings (size 3 to 8) (size 9 to 14) (size 15 to 20)
#    0.000    1.231    2.308    3.231    5.385    0.615 
#    2.769    0.000    3.385    0.000    0.000    0.000 
#    0.000    0.000    0.000    0.000    0.000    0.000 
#
# Total GULP energy -644660.859803 kJ/mol
# GULP energy per Si atom -12397.324227 kJ/mol
# Density = 2.214377 g / cm^3
# Si number density = 22.194281 Si / 1000 Ang^3
#
#
#
# Elastic Constant Matrix: (Units=GPa)
#
#
# Indices 1 2 3 4 5 6 
#
# 1 108.2518 42.7024 28.0765 0.0000 0.0000 0.0000
# 2 42.7024 140.3218 38.3337 0.0000 0.0000 0.0000
# 3 28.0765 38.3337 75.3610 0.0000 0.0000 0.0000
# 4 0.0000 0.0000 0.0000 23.6122 0.0000 0.0000
# 5 0.0000 0.0000 0.0000 0.0000 22.1400 0.0000
# 6 0.0000 0.0000 0.0000 0.0000 0.0000 43.5442
#
#
#
# Elastic Compliance Matrix: (Units=1/GPa)
#
#
# Indices 1 2 3 4 5 6 
#
# 1 0.010976 -0.002582 -0.002776 0.000000 0.000000 0.000000
# 2 -0.002582 0.008884 -0.003557 0.000000 0.000000 0.000000
# 3 -0.002776 -0.003557 0.016113 0.000000 0.000000 0.000000
# 4 0.000000 0.000000 0.000000 0.042351 0.000000 0.000000
# 5 0.000000 0.000000 0.000000 0.000000 0.045167 0.000000
# 6 0.000000 0.000000 0.000000 0.000000 0.000000 0.022965
#
#
# Mechanical properties :
#
#
# Convention : Reuss Voigt Hill
#
# Bulk Modulus (GPa) = 55.11669 60.23997 57.67833
# Shear Modulus (GPa) = 29.35410 32.18076 30.76743
#
# Velocity S-wave (km/s) = 3.64070 3.81196 3.72731
# Velocity P-wave (km/s) = 6.52385 6.82464 6.67594
#
# Compressibility (1/GPa) = 0.01814332
#
# Stress axis : x y z
#
# Youngs Moduli (GPa) = 91.10629 112.56288 62.06158
#
# Poissons Ratio (x) = 0.29063 0.17228
# Poissons Ratio (y) = 0.23523 0.22076
# Poissons Ratio (z) = 0.25291 0.40039
#
# Static dielectric constant tensor:
#      x y z
#    x 4.180690 0.000000 0.000000 
#    y 0.000000 4.104310 0.000000 
#    z 0.000000 0.000000 3.712200 
# 
# 
# High freq. dielectric constant tensor:
#      x y z
#    x 1.884210 0.000000 0.000000 
#    y 0.000000 1.877000 0.000000 
#    z 0.000000 0.000000 1.847020 
# 
# From -- ./inp_files/21555.got.cif
#   From: 2010.03.12/outbox.cif.g09.slc.cpg/sg54_11_cif.got.tgz:21555.got - 2010.04.16 15:00:50.
