data_PCOD8223566
_publ_section_title
;
Structure prediction by ZEFSAII (Michael W. Deem and Ramdas Pophale) SiO2 
 PCOD8223566
Probable space group: P C C A
;
_chemical_formula_sum "Si O2"
_cell_formula_units_Z 64
_cell_length_a 21.666799
_cell_length_b 15.262262
_cell_length_c 9.527075
_cell_angle_alpha 90.000000
_cell_angle_beta 90.000000
_cell_angle_gamma 90.000000
_cell_volume 3150.454728
_symmetry_space_group_name_H-M "P C C A"
_symmetry_group_IT_number 54
_symmetry_cell_setting 'orthorhombic'
loop_
_space_group_symop_operation_xyz
x,y,z
1/2-x,-y,z
1/2+x,-y,1/2-z
-x,y,1/2-z
-x,-y,-z
1/2+x,y,-z
1/2-x,y,1/2+z
x,-y,1/2+z
loop_
_atom_site_type_symbol
_atom_site_label
_atom_site_fract_x
_atom_site_fract_y
_atom_site_fract_z
Si Si1 0.931665 0.468205 0.267292
Si Si2 0.945522 0.722055 0.853389
Si Si3 0.612732 0.605507 0.975479
Si Si4 0.784662 0.263697 0.003206
Si Si5 0.631795 0.893731 0.927849
Si Si6 0.024158 0.234550 0.595332
Si Si7 0.318451 0.973560 0.292749
Si Si8 0.186667 0.787509 0.696026
O O1 0.937912 0.382595 0.365747
O O2 0.889639 0.539503 0.344847
O O3 0.000000 0.509023 0.250000
O O4 0.901173 0.445876 0.118686
O O5 0.884182 0.761938 0.787813
O O6 0.000000 0.748557 0.750000
O O7 0.961802 0.766420 0.002099
O O8 0.682260 0.643097 0.979179
O O9 0.564690 0.684561 0.960450
O O10 0.821891 0.187718 0.923569
O O11 0.716103 0.261752 0.937569
O O12 0.776906 0.244759 0.166921
O O13 0.561907 0.856548 0.918783
O O14 0.645481 0.950798 0.789929
O O15 0.641020 0.948653 0.071015
O O16 0.000000 0.250507 0.750000
O O17 0.310309 0.892482 0.185100
O O18 0.250000 0.000000 0.343693
#
# Coordination Sequence:
#
# PCOD8223566 Si02
#       8
#     8   8   8   8   8   8   8   8
#     4  11  21  37  66  97 126 161 221 265 318 375
#     4  11  21  43  66  93 130 173 213 262 322 394
#     4  11  22  40  64  95 129 162 213 274 316 383
#     4  10  22  42  61  92 129 166 209 266 329 387
#     4  10  23  41  62  97 130 160 215 274 320 385
#     4  11  24  42  63  95 134 173 213 262 329 395
#     4  11  21  38  67  97 123 161 218 273 320 372
#     4  11  23  40  68  93 126 171 216 266 326 390
#
# _framework density 20.314529
#
# number of rings (size 3 to 8) (size 9 to 14) (size 15 to 20)
#    0.000    1.250    5.000    2.625    3.500    3.000 
#    0.000    3.750    0.000    0.000    0.000    0.000 
#    0.000    0.000    0.000    0.000    0.000    0.000 
#
# Total GULP energy -793771.759998 kJ/mol
# GULP energy per Si atom -12402.683750 kJ/mol
# Density = 2.026829 g / cm^3
# Si number density = 20.314529 Si / 1000 Ang^3
#
#
#
# Elastic Constant Matrix: (Units=GPa)
#
#
# Indices 1 2 3 4 5 6 
#
# 1 74.2215 30.6519 35.4317 0.0000 0.0000 0.0000
# 2 30.6519 86.3049 47.8807 0.0000 0.0000 0.0000
# 3 35.4317 47.8807 122.8603 0.0000 0.0000 0.0000
# 4 0.0000 0.0000 0.0000 26.3325 0.0000 0.0000
# 5 0.0000 0.0000 0.0000 0.0000 23.8959 0.0000
# 6 0.0000 0.0000 0.0000 0.0000 0.0000 22.0927
#
#
#
# Elastic Compliance Matrix: (Units=1/GPa)
#
#
# Indices 1 2 3 4 5 6 
#
# 1 0.016720 -0.004163 -0.003199 0.000000 0.000000 0.000000
# 2 -0.004163 0.015820 -0.004965 0.000000 0.000000 0.000000
# 3 -0.003199 -0.004965 0.010997 0.000000 0.000000 0.000000
# 4 0.000000 0.000000 0.000000 0.037976 0.000000 0.000000
# 5 0.000000 0.000000 0.000000 0.000000 0.041848 0.000000
# 6 0.000000 0.000000 0.000000 0.000000 0.000000 0.045264
#
#
# Mechanical properties :
#
#
# Convention : Reuss Voigt Hill
#
# Bulk Modulus (GPa) = 52.96052 56.81280 54.88666
# Shear Modulus (GPa) = 25.05357 25.75906 25.40632
#
# Velocity S-wave (km/s) = 3.51562 3.56478 3.54029
# Velocity P-wave (km/s) = 6.52735 6.70603 6.61729
#
# Compressibility (1/GPa) = 0.01888199
#
# Stress axis : x y z
#
# Youngs Moduli (GPa) = 59.80935 63.21233 90.93588
#
# Poissons Ratio (x) = 0.26317 0.29094
# Poissons Ratio (y) = 0.24900 0.45146
# Poissons Ratio (z) = 0.19135 0.31382
#
# Static dielectric constant tensor:
#      x y z
#    x 3.665290 0.000000 0.000000 
#    y 0.000000 3.736890 0.000000 
#    z 0.000000 0.000000 3.672160 
# 
# 
# High freq. dielectric constant tensor:
#      x y z
#    x 1.779260 0.000000 0.000000 
#    y 0.000000 1.788210 0.000000 
#    z 0.000000 0.000000 1.800170 
# 
# From -- ./inp_files/5317.got.cif
#   From: 2010.03.12/outbox.cif.g09.slc.cpg/sg54_3_cif.got.tgz:5317.got - 2010.04.16 15:00:50.
