data_PCOD8223024
_publ_section_title
;
Structure prediction by ZEFSAII (Michael W. Deem and Ramdas Pophale) SiO2 
 PCOD8223024
Probable space group: P C C A
;
_chemical_formula_sum "Si O2"
_cell_formula_units_Z 56
_cell_length_a 19.487042
_cell_length_b 16.167909
_cell_length_c 8.968619
_cell_angle_alpha 90.000000
_cell_angle_beta 90.000000
_cell_angle_gamma 90.000000
_cell_volume 2825.695450
_symmetry_space_group_name_H-M "P C C A"
_symmetry_group_IT_number 54
_symmetry_cell_setting 'orthorhombic'
loop_
_space_group_symop_operation_xyz
x,y,z
1/2-x,-y,z
1/2+x,-y,1/2-z
-x,y,1/2-z
-x,-y,-z
1/2+x,y,-z
1/2-x,y,1/2+z
x,-y,1/2+z
loop_
_atom_site_type_symbol
_atom_site_label
_atom_site_fract_x
_atom_site_fract_y
_atom_site_fract_z
Si Si1 0.601255 0.670503 0.470394
Si Si2 0.500000 0.389041 0.750000
Si Si3 0.250000 0.000000 0.484402
Si Si4 0.221479 0.715589 0.753736
Si Si5 0.660319 0.344360 0.434423
Si Si6 0.800736 0.113481 0.762980
Si Si7 0.579219 0.492125 0.549906
Si Si8 0.421536 0.225484 0.245705
O O1 0.527558 0.667406 0.384948
O O2 0.659543 0.698628 0.357539
O O3 0.614095 0.582015 0.553482
O O4 0.600086 0.738404 0.595799
O O5 0.567777 0.445588 0.709260
O O6 0.291993 0.937066 0.585621
O O7 0.200791 0.946121 0.379348
O O8 0.285521 0.658434 0.702289
O O9 0.245326 0.811563 0.749823
O O10 0.198751 0.690320 0.919373
O O11 0.630138 0.436244 0.450827
O O12 0.594994 0.287701 0.390842
O O13 0.878374 0.143187 0.775902
O O14 0.500000 0.500000 0.500000
O O15 0.500000 0.200894 0.250000
#
# Coordination Sequence:
#
# PCOD8223024 Si02
#       8
#     8   4   4   8   8   8   8   8
#     4  11  23  36  62  87 125 170 221 262 322 356
#     4  10  20  40  56  88 118 174 228 272 298 378
#     4  10  20  40  72  92 116 162 190 252 300 396
#     4  11  22  41  64  93 127 161 204 276 315 381
#     4  11  23  41  61  89 127 169 220 266 325 364
#     4  10  21  40  65  95 123 152 205 240 316 378
#     4  10  22  37  59  82 121 167 226 266 308 363
#     4  11  23  38  62  94 129 168 202 261 309 376
#
# _framework density 19.818131000000001
#
# number of rings (size 3 to 8) (size 9 to 14) (size 15 to 20)
#    0.000    1.429    1.429    6.000    5.000    0.571 
#    0.000    3.571    0.000    0.000    0.000    0.000 
#    0.000    0.000    0.000    0.000    0.000    0.000 
#
# Total GULP energy -694054.402724 kJ/mol
# GULP energy per Si atom -12393.828620 kJ/mol
# Density = 1.977302 g / cm^3
# Si number density = 19.818131 Si / 1000 Ang^3
#
#
#
# Elastic Constant Matrix: (Units=GPa)
#
#
# Indices 1 2 3 4 5 6 
#
# 1 104.7422 38.1604 29.4031 0.0000 0.0000 0.0000
# 2 38.1604 76.7097 13.1370 0.0000 0.0000 0.0000
# 3 29.4031 13.1370 74.6600 0.0000 0.0000 0.0000
# 4 0.0000 0.0000 0.0000 72.8926 0.0000 0.0000
# 5 0.0000 0.0000 0.0000 0.0000 40.1179 0.0000
# 6 0.0000 0.0000 0.0000 0.0000 0.0000 18.4930
#
#
#
# Elastic Compliance Matrix: (Units=1/GPa)
#
#
# Indices 1 2 3 4 5 6 
#
# 1 0.012733 -0.005646 -0.004021 0.000000 0.000000 0.000000
# 2 -0.005646 0.015944 -0.000582 0.000000 0.000000 0.000000
# 3 -0.004021 -0.000582 0.015080 0.000000 0.000000 0.000000
# 4 0.000000 0.000000 0.000000 0.013719 0.000000 0.000000
# 5 0.000000 0.000000 0.000000 0.000000 0.024927 0.000000
# 6 0.000000 0.000000 0.000000 0.000000 0.000000 0.054074
#
#
# Mechanical properties :
#
#
# Convention : Reuss Voigt Hill
#
# Bulk Modulus (GPa) = 42.99301 46.39034 44.69167
# Shear Modulus (GPa) = 30.35306 37.99479 34.17393
#
# Velocity S-wave (km/s) = 3.91779 4.38330 4.15707
# Velocity P-wave (km/s) = 6.49664 7.00547 6.75585
#
# Compressibility (1/GPa) = 0.02325960
#
# Stress axis : x y z
#
# Youngs Moduli (GPa) = 78.53678 62.71832 66.31241
#
# Poissons Ratio (x) = 0.35408 0.26665
# Poissons Ratio (y) = 0.44338 0.03860
# Poissons Ratio (z) = 0.31581 0.03651
#
# Static dielectric constant tensor:
#      x y z
#    x 3.713970 0.000000 0.000000 
#    y 0.000000 3.652960 0.000000 
#    z 0.000000 0.000000 4.111650 
# 
# 
# High freq. dielectric constant tensor:
#      x y z
#    x 1.768120 0.000000 0.000000 
#    y 0.000000 1.757100 0.000000 
#    z 0.000000 0.000000 1.795190 
# 
# From -- ./inp_files/4844.got.cif
#   From: 2010.03.12/outbox.cif.g09.slc.cpg/sg54_3_cif.got.tgz:4844.got - 2010.04.16 15:00:50.
