data_PCOD8223022
_publ_section_title
;
Structure prediction by ZEFSAII (Michael W. Deem and Ramdas Pophale) SiO2 
 PCOD8223022
Probable space group: P C C A
;
_chemical_formula_sum "Si O2"
_cell_formula_units_Z 24
_cell_length_a 5.268211
_cell_length_b 7.613226
_cell_length_c 25.050510
_cell_angle_alpha 90.000000
_cell_angle_beta 90.000000
_cell_angle_gamma 90.000000
_cell_volume 1004.727883
_symmetry_space_group_name_H-M "P C C A"
_symmetry_group_IT_number 54
_symmetry_cell_setting 'orthorhombic'
loop_
_space_group_symop_operation_xyz
x,y,z
1/2-x,-y,z
1/2+x,-y,1/2-z
-x,y,1/2-z
-x,-y,-z
1/2+x,y,-z
1/2-x,y,1/2+z
x,-y,1/2+z
loop_
_atom_site_type_symbol
_atom_site_label
_atom_site_fract_x
_atom_site_fract_y
_atom_site_fract_z
Si Si1 0.900848 0.181068 0.353486
Si Si2 0.750000 0.500000 0.286164
Si Si3 0.250000 0.000000 0.283542
Si Si4 0.512968 0.198410 0.977271
O O1 0.738798 0.333092 0.325735
O O2 0.969082 0.216910 0.414222
O O3 0.166306 0.163340 0.320836
O O4 0.750000 0.000000 0.348631
O O5 0.500000 0.502761 0.250000
O O6 0.500000 0.058226 0.250000
O O7 0.256112 0.294711 0.996483
O O8 0.500000 0.000000 0.000000
#
# Coordination Sequence:
#
# PCOD8223022 Si02
#       4
#     8   4   4   8
#     4  12  27  47  79 104 149 201 246 305 386 442
#     4  12  34  50  68 112 156 194 260 316 364 454
#     4  12  26  40  74 108 134 198 264 296 368 450
#     4  10  20  39  69 108 139 178 241 305 359 449
#
# _framework density 23.887066999999998
#
# number of rings (size 3 to 8) (size 9 to 14) (size 15 to 20)
#    0.000    0.667    5.000    3.000    9.333    0.000 
#    0.000    1.667    0.000    0.000    0.000    0.000 
#    0.000    0.000    0.000    0.000    0.000    0.000 
#
# Total GULP energy -297391.240856 kJ/mol
# GULP energy per Si atom -12391.301702 kJ/mol
# Density = 2.383270 g / cm^3
# Si number density = 23.887067 Si / 1000 Ang^3
#
#
#
# Elastic Constant Matrix: (Units=GPa)
#
#
# Indices 1 2 3 4 5 6 
#
# 1 225.7335 34.4202 105.4629 0.0000 0.0000 0.0000
# 2 34.4202 90.0649 53.0360 0.0000 0.0000 0.0000
# 3 105.4629 53.0360 252.5129 0.0000 0.0000 0.0000
# 4 0.0000 0.0000 0.0000 867.2677 0.0000 0.0000
# 5 0.0000 0.0000 0.0000 0.0000 -34.1500 0.0000
# 6 0.0000 0.0000 0.0000 0.0000 0.0000 21.3367
#
#
#
# Elastic Compliance Matrix: (Units=1/GPa)
#
#
# Indices 1 2 3 4 5 6 
#
# 1 0.005562 -0.000865 -0.002142 0.000000 0.000000 0.000000
# 2 -0.000865 0.012805 -0.002328 0.000000 0.000000 0.000000
# 3 -0.002142 -0.002328 0.005344 0.000000 0.000000 0.000000
# 4 0.000000 0.000000 0.000000 0.001153 0.000000 0.000000
# 5 0.000000 0.000000 0.000000 0.000000 -0.029283 0.000000
# 6 0.000000 0.000000 0.000000 0.000000 0.000000 0.046868
#
#
# Mechanical properties :
#
#
# Convention : Reuss Voigt Hill
#
# Bulk Modulus (GPa) = 76.67754 106.01662 91.34708
# Shear Modulus (GPa) = 87.00971 195.91702 141.46336
#
# Velocity S-wave (km/s) = 6.04190 9.06621 7.70391
# Velocity P-wave (km/s) = 8.99124 12.41264 10.83780
#
# Compressibility (1/GPa) = 0.01304163
#
# Stress axis : x y z
#
# Youngs Moduli (GPa) = 179.77915 78.09707 187.13924
#
# Poissons Ratio (x) = 0.06753 0.40076
# Poissons Ratio (y) = 0.15546 0.43570
# Poissons Ratio (z) = 0.38500 0.18183
#
# Static dielectric constant tensor:
#      x y z
#    x 2.746240 0.000000 0.000000 
#    y 0.000000 3.850080 0.000000 
#    z 0.000000 0.000000 4.858750 
# 
# 
# High freq. dielectric constant tensor:
#      x y z
#    x 1.975330 0.000000 0.000000 
#    y 0.000000 1.902910 0.000000 
#    z 0.000000 0.000000 1.970900 
# 
# From -- ./inp_files/25000.got.cif
#   From: 2010.03.12/outbox.cif.g09.slc.cpg/sg54_13_cif.got.tgz:25000.got - 2010.04.16 15:00:50.
