data_PCOD8223373
_publ_section_title
;
Structure prediction by ZEFSAII (Michael W. Deem and Ramdas Pophale) SiO2 
 PCOD8223373
Probable space group: P C C A
;
_chemical_formula_sum "Si O2"
_cell_formula_units_Z 36
_cell_length_a 5.060609
_cell_length_b 24.025475
_cell_length_c 12.289425
_cell_angle_alpha 90.000000
_cell_angle_beta 90.000000
_cell_angle_gamma 90.000000
_cell_volume 1494.191735
_symmetry_space_group_name_H-M "P C C A"
_symmetry_group_IT_number 54
_symmetry_cell_setting 'orthorhombic'
loop_
_space_group_symop_operation_xyz
x,y,z
1/2-x,-y,z
1/2+x,-y,1/2-z
-x,y,1/2-z
-x,-y,-z
1/2+x,y,-z
1/2-x,y,1/2+z
x,-y,1/2+z
loop_
_atom_site_type_symbol
_atom_site_label
_atom_site_fract_x
_atom_site_fract_y
_atom_site_fract_z
Si Si1 0.500000 0.258033 0.750000
Si Si2 0.696879 0.058234 0.430038
Si Si3 0.250288 0.437870 0.824842
Si Si4 0.317181 0.176807 0.576087
Si Si5 0.248010 0.326257 0.433166
O O1 0.310241 0.220529 0.674293
O O2 0.698202 0.297182 0.682219
O O3 0.389572 0.058358 0.463706
O O4 0.774340 0.115455 0.368005
O O5 0.750000 0.000000 0.364023
O O6 0.250000 0.500000 0.876188
O O7 0.500000 0.428530 0.750000
O O8 0.256610 0.393255 0.921839
O O9 0.000000 0.426898 0.750000
O O10 0.595146 0.185458 0.515188
O O11 0.528989 0.306834 0.479558
#
# Coordination Sequence:
#
# PCOD8223373 Si02
#       5
#     4   8   8   8   8
#     4  12  26  44  66  90 136 176 214 282 316 378
#     4   8  14  28  54  84 116 152 195 252 311 369
#     4  10  21  42  70  98 132 171 212 269 333 390
#     4  10  22  40  62  92 123 166 216 257 321 387
#     4  12  27  43  67  99 129 174 226 267 328 394
#
# _framework density 24.093292000000002
#
# number of rings (size 3 to 8) (size 9 to 14) (size 15 to 20)
#    0.000    1.778    1.111    2.667    0.000    3.556 
#    0.000    0.000    0.000   13.333    0.000    0.000 
#    0.000    0.000    0.000    0.000    0.000    0.000 
#
# Total GULP energy -446232.966090 kJ/mol
# GULP energy per Si atom -12395.360169 kJ/mol
# Density = 2.403845 g / cm^3
# Si number density = 24.093292 Si / 1000 Ang^3
#
#
#
# Elastic Constant Matrix: (Units=GPa)
#
#
# Indices 1 2 3 4 5 6 
#
# 1 122.9640 16.7379 17.5321 0.0000 0.0000 0.0000
# 2 16.7379 167.4220 55.4239 0.0000 0.0000 0.0000
# 3 17.5321 55.4239 72.3878 0.0000 0.0000 0.0000
# 4 0.0000 0.0000 0.0000 25.3419 0.0000 0.0000
# 5 0.0000 0.0000 0.0000 0.0000 14.0528 0.0000
# 6 0.0000 0.0000 0.0000 0.0000 0.0000 25.5786
#
#
#
# Elastic Compliance Matrix: (Units=1/GPa)
#
#
# Indices 1 2 3 4 5 6 
#
# 1 0.008430 -0.000224 -0.001870 0.000000 0.000000 0.000000
# 2 -0.000224 0.008007 -0.006076 0.000000 0.000000 0.000000
# 3 -0.001870 -0.006076 0.018920 0.000000 0.000000 0.000000
# 4 0.000000 0.000000 0.000000 0.039460 0.000000 0.000000
# 5 0.000000 0.000000 0.000000 0.000000 0.071160 0.000000
# 6 0.000000 0.000000 0.000000 0.000000 0.000000 0.039095
#
#
# Mechanical properties :
#
#
# Convention : Reuss Voigt Hill
#
# Bulk Modulus (GPa) = 52.58832 60.24018 56.41425
# Shear Modulus (GPa) = 24.06724 31.19997 27.63361
#
# Velocity S-wave (km/s) = 3.16400 3.60247 3.39033
# Velocity P-wave (km/s) = 5.93483 6.50852 6.22828
#
# Compressibility (1/GPa) = 0.01901563
#
# Stress axis : x y z
#
# Youngs Moduli (GPa) = 118.62984 124.89398 52.85461
#
# Poissons Ratio (x) = 0.02792 0.09886
# Poissons Ratio (y) = 0.02652 0.32116
# Poissons Ratio (z) = 0.22189 0.75889
#
# Static dielectric constant tensor:
#      x y z
#    x 4.322600 0.000000 0.000000 
#    y 0.000000 5.795230 0.000000 
#    z 0.000000 0.000000 3.687610 
# 
# 
# High freq. dielectric constant tensor:
#      x y z
#    x 1.970680 0.000000 0.000000 
#    y 0.000000 1.996580 0.000000 
#    z 0.000000 0.000000 1.894820 
# 
# From -- ./inp_files/6372.got.cif
#   From: 2010.03.12/outbox.cif.g09.slc.cpg/sg54_4_cif.got.tgz:6372.got - 2010.04.16 15:00:50.
