data_PCOD8223950
_publ_section_title
;
Structure prediction by ZEFSAII (Michael W. Deem and Ramdas Pophale) SiO2 
 PCOD8223950
Probable space group: P C C A
;
_chemical_formula_sum "Si O2"
_cell_formula_units_Z 32
_cell_length_a 16.473886
_cell_length_b 9.261690
_cell_length_c 10.107166
_cell_angle_alpha 90.000000
_cell_angle_beta 90.000000
_cell_angle_gamma 90.000000
_cell_volume 1542.111215
_symmetry_space_group_name_H-M "P C C A"
_symmetry_group_IT_number 54
_symmetry_cell_setting 'orthorhombic'
loop_
_space_group_symop_operation_xyz
x,y,z
1/2-x,-y,z
1/2+x,-y,1/2-z
-x,y,1/2-z
-x,-y,-z
1/2+x,y,-z
1/2-x,y,1/2+z
x,-y,1/2+z
loop_
_atom_site_type_symbol
_atom_site_label
_atom_site_fract_x
_atom_site_fract_y
_atom_site_fract_z
Si Si1 0.838567 0.062860 0.723852
Si Si2 0.423048 0.912149 0.047365
Si Si3 0.418465 0.581516 0.026804
Si Si4 0.598560 0.631028 0.754550
O O1 0.855809 0.062381 0.566925
O O2 0.853288 0.221773 0.787279
O O3 0.750000 0.000000 0.749123
O O4 0.897923 0.960926 0.806885
O O5 0.441219 0.743658 0.067484
O O6 0.500000 0.000000 0.000000
O O7 0.373070 0.492655 0.142601
O O8 0.500000 0.500000 0.000000
O O9 0.368787 0.579896 0.889365
O O10 0.500000 0.657742 0.750000
#
# Coordination Sequence:
#
# PCOD8223950 Si02
#       4
#     8   8   8   8
#     4  11  23  39  58  86 122 156 193 244 298 351
#     4  11  22  38  62  90 116 155 203 244 291 354
#     4   9  18  32  55  85 113 144 192 247 290 337
#     4   9  18  35  57  85 115 149 194 243 290 348
#
# _framework density 20.750775000000001
#
# number of rings (size 3 to 8) (size 9 to 14) (size 15 to 20)
#    0.000    2.000    0.000    6.000    0.000    8.000 
#    0.000    1.250    0.000    9.000    0.000    0.000 
#    0.000    0.000    0.000    0.000    0.000    0.000 
#
# Total GULP energy -396503.924098 kJ/mol
# GULP energy per Si atom -12390.747628 kJ/mol
# Density = 2.070355 g / cm^3
# Si number density = 20.750775 Si / 1000 Ang^3
#
#
#
# Elastic Constant Matrix: (Units=GPa)
#
#
# Indices 1 2 3 4 5 6 
#
# 1 67.8558 41.6055 5.0071 0.0000 0.0000 0.0000
# 2 41.6055 196.0772 75.9767 0.0000 0.0000 0.0000
# 3 5.0071 75.9767 94.0124 0.0000 0.0000 0.0000
# 4 0.0000 0.0000 0.0000 45.8702 0.0000 0.0000
# 5 0.0000 0.0000 0.0000 0.0000 22.5170 0.0000
# 6 0.0000 0.0000 0.0000 0.0000 0.0000 22.1085
#
#
#
# Elastic Compliance Matrix: (Units=1/GPa)
#
#
# Indices 1 2 3 4 5 6 
#
# 1 0.017509 -0.004883 0.003014 0.000000 0.000000 0.000000
# 2 -0.004883 0.008787 -0.006841 0.000000 0.000000 0.000000
# 3 0.003014 -0.006841 0.016005 0.000000 0.000000 0.000000
# 4 0.000000 0.000000 0.000000 0.021801 0.000000 0.000000
# 5 0.000000 0.000000 0.000000 0.000000 0.044411 0.000000
# 6 0.000000 0.000000 0.000000 0.000000 0.000000 0.045232
#
#
# Mechanical properties :
#
#
# Convention : Reuss Voigt Hill
#
# Bulk Modulus (GPa) = 40.19310 67.01378 53.60344
# Shear Modulus (GPa) = 27.86168 33.78956 30.82562
#
# Velocity S-wave (km/s) = 3.66824 4.03966 3.85842
# Velocity P-wave (km/s) = 6.11169 7.35685 6.76299
#
# Compressibility (1/GPa) = 0.02487989
#
# Stress axis : x y z
#
# Youngs Moduli (GPa) = 57.11458 113.80476 62.47989
#
# Poissons Ratio (x) = 0.55569 -0.18829
# Poissons Ratio (y) = 0.27888 0.42744
# Poissons Ratio (z) = -0.17212 0.77856
#
# Static dielectric constant tensor:
#      x y z
#    x 2.877850 0.000000 0.000000 
#    y 0.000000 4.416020 0.000000 
#    z 0.000000 0.000000 5.271340 
# 
# 
# High freq. dielectric constant tensor:
#      x y z
#    x 1.761570 0.000000 0.000000 
#    y 0.000000 1.828810 0.000000 
#    z 0.000000 0.000000 1.833890 
# 
# From -- ./inp_files/7911.got.cif
#   From: 2010.03.12/outbox.cif.g09.slc.cpg/sg54_4_cif.got.tgz:7911.got - 2010.04.16 15:00:50.
