data_PCOD8223167
_publ_section_title
;
Structure prediction by ZEFSAII (Michael W. Deem and Ramdas Pophale) SiO2 
 PCOD8223167
Probable space group: P C C A
;
_chemical_formula_sum "Si O2"
_cell_formula_units_Z 32
_cell_length_a 39.476810
_cell_length_b 7.616240
_cell_length_c 5.179801
_cell_angle_alpha 90.000000
_cell_angle_beta 90.000000
_cell_angle_gamma 90.000000
_cell_volume 1557.384139
_symmetry_space_group_name_H-M "P C C A"
_symmetry_group_IT_number 54
_symmetry_cell_setting 'orthorhombic'
loop_
_space_group_symop_operation_xyz
x,y,z
1/2-x,-y,z
1/2+x,-y,1/2-z
-x,y,1/2-z
-x,-y,-z
1/2+x,y,-z
1/2-x,y,1/2+z
x,-y,1/2+z
loop_
_atom_site_type_symbol
_atom_site_label
_atom_site_fract_x
_atom_site_fract_y
_atom_site_fract_z
Si Si1 0.235291 0.197558 0.695004
Si Si2 0.537464 0.109763 0.283938
Si Si3 0.169556 0.615609 0.268249
Si Si4 0.593939 0.390620 0.284274
O O1 0.245725 0.294965 0.430652
O O2 0.194829 0.217548 0.734019
O O3 0.250000 0.000000 0.664347
O O4 0.500000 0.194015 0.250000
O O5 0.565871 0.249362 0.217057
O O6 0.541835 0.046799 0.577996
O O7 0.175757 0.529358 0.547307
O O8 0.131467 0.691943 0.249252
O O9 0.589281 0.453393 0.578038
#
# Coordination Sequence:
#
# PCOD8223167 Si02
#       4
#     8   8   8   8
#     4  10  21  37  53  78 110 138 181 234 271 335
#     4  10  21  38  58  87 122 155 193 235 282 337
#     4  10  21  37  57  81 110 145 183 231 282 332
#     4  10  21  38  59  86 118 150 195 238 284 342
#
# _framework density 20.547274999999999
#
# number of rings (size 3 to 8) (size 9 to 14) (size 15 to 20)
#    0.000    2.000    0.000    3.000    0.000    4.000 
#    9.000    0.000    0.000    0.000    0.000    0.000 
#    0.000    0.000    0.000    0.000    0.000    0.000 
#
# Total GULP energy -396598.436629 kJ/mol
# GULP energy per Si atom -12393.701145 kJ/mol
# Density = 2.050051 g / cm^3
# Si number density = 20.547275 Si / 1000 Ang^3
#
#
#
# Elastic Constant Matrix: (Units=GPa)
#
#
# Indices 1 2 3 4 5 6 
#
# 1 163.7121 57.4309 12.9436 0.0000 0.0000 0.0000
# 2 57.4309 43.2515 -6.2221 0.0000 0.0000 0.0000
# 3 12.9436 -6.2221 125.7953 0.0000 0.0000 0.0000
# 4 0.0000 0.0000 0.0000 8.5995 0.0000 0.0000
# 5 0.0000 0.0000 0.0000 0.0000 28.9277 0.0000
# 6 0.0000 0.0000 0.0000 0.0000 0.0000 42.9014
#
#
#
# Elastic Compliance Matrix: (Units=1/GPa)
#
#
# Indices 1 2 3 4 5 6 
#
# 1 0.011926 -0.016127 -0.002025 0.000000 0.000000 0.000000
# 2 -0.016127 0.045094 0.003890 0.000000 0.000000 0.000000
# 3 -0.002025 0.003890 0.008350 0.000000 0.000000 0.000000
# 4 0.000000 0.000000 0.000000 0.116286 0.000000 0.000000
# 5 0.000000 0.000000 0.000000 0.000000 0.034569 0.000000
# 6 0.000000 0.000000 0.000000 0.000000 0.000000 0.023309
#
#
# Mechanical properties :
#
#
# Convention : Reuss Voigt Hill
#
# Bulk Modulus (GPa) = 27.13975 51.22930 39.18453
# Shear Modulus (GPa) = 17.83554 33.99281 25.91418
#
# Velocity S-wave (km/s) = 2.94942 4.07181 3.55519
# Velocity P-wave (km/s) = 4.98356 6.86241 5.99702
#
# Compressibility (1/GPa) = 0.03684633
#
# Stress axis : x y z
#
# Youngs Moduli (GPa) = 83.85285 22.17606 119.75830
#
# Poissons Ratio (x) = 0.35762 0.24248
# Poissons Ratio (y) = 1.35226 -0.46583
# Poissons Ratio (z) = 0.16978 -0.08626
#
# Static dielectric constant tensor:
#      x y z
#    x 4.012670 0.000000 0.000000 
#    y 0.000000 3.100480 0.000000 
#    z 0.000000 0.000000 4.702530 
# 
# 
# High freq. dielectric constant tensor:
#      x y z
#    x 1.818820 0.000000 0.000000 
#    y 0.000000 1.750110 0.000000 
#    z 0.000000 0.000000 1.841360 
# 
# From -- ./inp_files/2062.got.cif
#   From: 2010.03.12/outbox.cif.g09.slc.cpg/sg54_2_cif.got.tgz:2062.got - 2010.04.16 15:00:50.
