data_PCOD8223542
_publ_section_title
;
Structure prediction by ZEFSAII (Michael W. Deem and Ramdas Pophale) SiO2 
 PCOD8223542
Probable space group: P C C A
;
_chemical_formula_sum "Si O2"
_cell_formula_units_Z 48
_cell_length_a 26.983042
_cell_length_b 5.196188
_cell_length_c 14.026986
_cell_angle_alpha 90.000000
_cell_angle_beta 90.000000
_cell_angle_gamma 90.000000
_cell_volume 1966.709106
_symmetry_space_group_name_H-M "P C C A"
_symmetry_group_IT_number 54
_symmetry_cell_setting 'orthorhombic'
loop_
_space_group_symop_operation_xyz
x,y,z
1/2-x,-y,z
1/2+x,-y,1/2-z
-x,y,1/2-z
-x,-y,-z
1/2+x,y,-z
1/2-x,y,1/2+z
x,-y,1/2+z
loop_
_atom_site_type_symbol
_atom_site_label
_atom_site_fract_x
_atom_site_fract_y
_atom_site_fract_z
Si Si1 0.143177 0.687221 0.411883
Si Si2 0.352996 0.464307 0.725893
Si Si3 0.034403 0.066376 0.120013
Si Si4 0.783061 0.751824 0.920374
Si Si5 0.914408 0.590459 0.440692
Si Si6 0.572074 0.089888 0.680306
O O1 0.172693 0.618582 0.313595
O O2 0.181699 0.795651 0.488855
O O3 0.113644 0.439691 0.457538
O O4 0.104423 0.907848 0.386096
O O5 0.314518 0.267904 0.677673
O O6 0.373465 0.651993 0.642019
O O7 0.398888 0.339434 0.782944
O O8 0.045195 0.818919 0.051563
O O9 0.052677 0.957584 0.222272
O O10 0.977229 0.154510 0.119426
O O11 0.064458 0.310502 0.083598
O O12 0.750000 0.500000 0.936266
O O13 0.750000 0.000000 0.907389
#
# Coordination Sequence:
#
# PCOD8223542 Si02
#       6
#     8   8   8   8   8   8
#     4  11  25  43  74 102 140 180 238 286 353 431
#     4  10  24  46  71  99 142 185 229 287 368 413
#     4  10  22  41  63  98 148 189 238 275 328 404
#     4  11  29  53  75 105 140 175 232 309 373 437
#     4  10  23  41  65  98 146 188 225 286 335 396
#     4  10  23  39  69  98 139 192 235 278 337 414
#
# _framework density 24.406251999999999
#
# number of rings (size 3 to 8) (size 9 to 14) (size 15 to 20)
#    0.000    1.667    1.667    0.000    9.333    6.000 
#    0.000    0.000    0.000    0.000    0.000    0.000 
#    0.000    0.000    0.000    0.000    0.000    0.000 
#
# Total GULP energy -594881.229534 kJ/mol
# GULP energy per Si atom -12393.358949 kJ/mol
# Density = 2.435070 g / cm^3
# Si number density = 24.406252 Si / 1000 Ang^3
#
#
#
# Elastic Constant Matrix: (Units=GPa)
#
#
# Indices 1 2 3 4 5 6 
#
# 1 100.8333 8.9566 35.7463 0.0000 0.0000 0.0000
# 2 8.9566 64.7014 7.8685 0.0000 0.0000 0.0000
# 3 35.7463 7.8685 165.4320 0.0000 0.0000 0.0000
# 4 0.0000 0.0000 0.0000 5.1571 0.0000 0.0000
# 5 0.0000 0.0000 0.0000 0.0000 23.6275 0.0000
# 6 0.0000 0.0000 0.0000 0.0000 0.0000 27.6752
#
#
#
# Elastic Compliance Matrix: (Units=1/GPa)
#
#
# Indices 1 2 3 4 5 6 
#
# 1 0.010835 -0.001222 -0.002283 0.000000 0.000000 0.000000
# 2 -0.001222 0.015683 -0.000482 0.000000 0.000000 0.000000
# 3 -0.002283 -0.000482 0.006561 0.000000 0.000000 0.000000
# 4 0.000000 0.000000 0.000000 0.193908 0.000000 0.000000
# 5 0.000000 0.000000 0.000000 0.000000 0.042324 0.000000
# 6 0.000000 0.000000 0.000000 0.000000 0.000000 0.036133
#
#
# Mechanical properties :
#
#
# Convention : Reuss Voigt Hill
#
# Bulk Modulus (GPa) = 39.83232 48.45662 44.14447
# Shear Modulus (GPa) = 15.53820 29.85164 22.69492
#
# Velocity S-wave (km/s) = 2.52593 3.50110 3.05270
# Velocity P-wave (km/s) = 4.98629 6.02004 5.52738
#
# Compressibility (1/GPa) = 0.02510524
#
# Stress axis : x y z
#
# Youngs Moduli (GPa) = 92.29076 63.76163 152.41498
#
# Poissons Ratio (x) = 0.07793 0.34799
# Poissons Ratio (y) = 0.11280 0.07344
# Poissons Ratio (z) = 0.21071 0.03072
#
# Static dielectric constant tensor:
#      x y z
#    x 4.428920 0.000000 0.000000 
#    y 0.000000 3.803920 0.000000 
#    z 0.000000 0.000000 5.067100 
# 
# 
# High freq. dielectric constant tensor:
#      x y z
#    x 1.954910 0.000000 0.000000 
#    y 0.000000 1.950910 0.000000 
#    z 0.000000 0.000000 2.009620 
# 
# From -- ./inp_files/15133.got.cif
#   From: 2010.03.12/outbox.cif.g09.slc.cpg/sg54_8_cif.got.tgz:15133.got - 2010.04.16 15:00:50.
