data_PCOD8223166
_publ_section_title
;
Structure prediction by ZEFSAII (Michael W. Deem and Ramdas Pophale) SiO2 
 PCOD8223166
Probable space group: P C C A
;
_chemical_formula_sum "Si O2"
_cell_formula_units_Z 56
_cell_length_a 30.304676
_cell_length_b 6.261830
_cell_length_c 14.614373
_cell_angle_alpha 90.000000
_cell_angle_beta 90.000000
_cell_angle_gamma 90.000000
_cell_volume 2773.263308
_symmetry_space_group_name_H-M "P C C A"
_symmetry_group_IT_number 54
_symmetry_cell_setting 'orthorhombic'
loop_
_space_group_symop_operation_xyz
x,y,z
1/2-x,-y,z
1/2+x,-y,1/2-z
-x,y,1/2-z
-x,-y,-z
1/2+x,y,-z
1/2-x,y,1/2+z
x,-y,1/2+z
loop_
_atom_site_type_symbol
_atom_site_label
_atom_site_fract_x
_atom_site_fract_y
_atom_site_fract_z
Si Si1 0.825118 0.265600 0.918796
Si Si2 0.750000 0.000000 0.486787
Si Si3 0.072681 0.269708 0.210426
Si Si4 0.358452 0.599560 0.771492
Si Si5 0.000000 0.411561 0.750000
Si Si6 0.393719 0.063305 0.526809
Si Si7 0.935388 0.107374 0.660630
Si Si8 0.685324 0.343790 0.044533
O O1 0.829722 0.340009 0.815679
O O2 0.788038 0.083848 0.919841
O O3 0.805879 0.453394 0.981163
O O4 0.871688 0.169303 0.955798
O O5 0.772227 0.186164 0.549045
O O6 0.116827 0.377645 0.250781
O O7 0.035536 0.449108 0.194007
O O8 0.053867 0.109000 0.285908
O O9 0.081737 0.145768 0.116875
O O10 0.391403 0.791749 0.795860
O O11 0.324276 0.567609 0.854175
O O12 0.023639 0.268303 0.827525
O O13 0.429663 0.047726 0.445913
O O14 0.357288 0.232034 0.497510
#
# Coordination Sequence:
#
# PCOD8223166 Si02
#       8
#     8   4   8   8   4   8   8   8
#     4  11  20  40  61  91 119 155 198 253 295 362
#     4  10  24  38  58  86 130 158 192 242 304 356
#     4  11  20  40  61  90 120 159 203 253 299 366
#     4  10  21  36  66  87 115 156 204 245 298 349
#     4  10  24  38  58  86 130 160 198 250 306 358
#     4  10  21  36  66  88 116 158 203 247 302 352
#     4  10  21  40  58  90 121 157 199 251 297 362
#     4  10  21  40  58  89 121 157 197 245 292 363
#
# _framework density 20.192817000000002
#
# number of rings (size 3 to 8) (size 9 to 14) (size 15 to 20)
#    0.000    1.714    2.857    1.714    0.000    1.143 
#    0.000    5.714    0.000    0.000    0.000    0.000 
#    0.000    0.000    0.000    0.000    0.000    0.000 
#
# Total GULP energy -694519.050274 kJ/mol
# GULP energy per Si atom -12402.125898 kJ/mol
# Density = 2.014686 g / cm^3
# Si number density = 20.192817 Si / 1000 Ang^3
#
#
#
# Elastic Constant Matrix: (Units=GPa)
#
#
# Indices 1 2 3 4 5 6 
#
# 1 86.1317 37.3214 48.2537 0.0000 0.0000 0.0000
# 2 37.3214 98.2058 57.2111 0.0000 0.0000 0.0000
# 3 48.2537 57.2111 146.2675 0.0000 0.0000 0.0000
# 4 0.0000 0.0000 0.0000 24.2104 0.0000 0.0000
# 5 0.0000 0.0000 0.0000 0.0000 13.9757 0.0000
# 6 0.0000 0.0000 0.0000 0.0000 0.0000 34.0821
#
#
#
# Elastic Compliance Matrix: (Units=1/GPa)
#
#
# Indices 1 2 3 4 5 6 
#
# 1 0.015215 -0.003701 -0.003572 0.000000 0.000000 0.000000
# 2 -0.003701 0.014088 -0.004289 0.000000 0.000000 0.000000
# 3 -0.003572 -0.004289 0.009693 0.000000 0.000000 0.000000
# 4 0.000000 0.000000 0.000000 0.041305 0.000000 0.000000
# 5 0.000000 0.000000 0.000000 0.000000 0.071553 0.000000
# 6 0.000000 0.000000 0.000000 0.000000 0.000000 0.029341
#
#
# Mechanical properties :
#
#
# Convention : Reuss Voigt Hill
#
# Bulk Modulus (GPa) = 63.00778 68.46417 65.73598
# Shear Modulus (GPa) = 23.85387 26.97488 25.41437
#
# Velocity S-wave (km/s) = 3.44074 3.65891 3.55150
# Velocity P-wave (km/s) = 6.85972 7.19924 7.03153
#
# Compressibility (1/GPa) = 0.01587106
#
# Stress axis : x y z
#
# Youngs Moduli (GPa) = 65.72485 70.98135 103.16936
#
# Poissons Ratio (x) = 0.26274 0.36848
# Poissons Ratio (y) = 0.24328 0.44253
# Poissons Ratio (z) = 0.23474 0.30446
#
# Static dielectric constant tensor:
#      x y z
#    x 3.631700 0.000000 0.000000 
#    y 0.000000 3.799860 0.000000 
#    z 0.000000 0.000000 3.598390 
# 
# 
# High freq. dielectric constant tensor:
#      x y z
#    x 1.783340 0.000000 0.000000 
#    y 0.000000 1.799360 0.000000 
#    z 0.000000 0.000000 1.778260 
# 
# From -- ./inp_files/15374.got.cif
#   From: 2010.03.12/outbox.cif.g09.slc.cpg/sg54_8_cif.got.tgz:15374.got - 2010.04.16 15:00:50.
