data_PCOD8223854
_publ_section_title
;
Structure prediction by ZEFSAII (Michael W. Deem and Ramdas Pophale) SiO2 
 PCOD8223854
Probable space group: P C C A
;
_chemical_formula_sum "Si O2"
_cell_formula_units_Z 32
_cell_length_a 15.129145
_cell_length_b 11.263450
_cell_length_c 7.802977
_cell_angle_alpha 90.000000
_cell_angle_beta 90.000000
_cell_angle_gamma 90.000000
_cell_volume 1329.676972
_symmetry_space_group_name_H-M "P C C A"
_symmetry_group_IT_number 54
_symmetry_cell_setting 'orthorhombic'
loop_
_space_group_symop_operation_xyz
x,y,z
1/2-x,-y,z
1/2+x,-y,1/2-z
-x,y,1/2-z
-x,-y,-z
1/2+x,y,-z
1/2-x,y,1/2+z
x,-y,1/2+z
loop_
_atom_site_type_symbol
_atom_site_label
_atom_site_fract_x
_atom_site_fract_y
_atom_site_fract_z
Si Si1 0.860367 0.867019 0.014070
Si Si2 0.000000 0.797221 0.250000
Si Si3 0.163548 0.631338 0.682703
Si Si4 0.863070 0.380295 0.921381
Si Si5 0.250000 0.000000 0.238935
O O1 0.779559 0.885073 0.150356
O O2 0.954568 0.884294 0.109143
O O3 0.867836 0.737093 0.937246
O O4 0.837920 0.963859 0.867866
O O5 0.074770 0.713934 0.169738
O O6 0.268612 0.624176 0.670975
O O7 0.109606 0.517750 0.607891
O O8 0.138229 0.652043 0.879301
#
# Coordination Sequence:
#
# PCOD8223854 Si02
#       5
#     8   4   8   8   4
#     4  11  24  43  69  95 129 172 221 275 324 377
#     4  12  26  42  66 104 138 164 210 280 336 376
#     4  11  22  43  68  93 132 181 215 254 323 409
#     4  11  23  39  67 102 134 169 216 260 324 407
#     4  10  24  48  70  90 124 180 234 262 314 398
#
# _framework density 24.065995000000001
#
# number of rings (size 3 to 8) (size 9 to 14) (size 15 to 20)
#    0.000    1.000    0.000    9.000    0.000    8.000 
#    0.000    0.000    0.000    0.000    0.000    0.000 
#    0.000    0.000    0.000    0.000    0.000    0.000 
#
# Total GULP energy -396618.323308 kJ/mol
# GULP energy per Si atom -12394.322603 kJ/mol
# Density = 2.401122 g / cm^3
# Si number density = 24.065995 Si / 1000 Ang^3
#
#
#
# Elastic Constant Matrix: (Units=GPa)
#
#
# Indices 1 2 3 4 5 6 
#
# 1 53.4739 -2.8610 32.2929 0.0000 0.0000 0.0000
# 2 -2.8610 60.4388 32.6153 0.0000 0.0000 0.0000
# 3 32.2929 32.6153 150.5058 0.0000 0.0000 0.0000
# 4 0.0000 0.0000 0.0000 14.9760 0.0000 0.0000
# 5 0.0000 0.0000 0.0000 0.0000 46.1398 0.0000
# 6 0.0000 0.0000 0.0000 0.0000 0.0000 37.3511
#
#
#
# Elastic Compliance Matrix: (Units=1/GPa)
#
#
# Indices 1 2 3 4 5 6 
#
# 1 0.022359 0.004130 -0.005693 0.000000 0.000000 0.000000
# 2 0.004130 0.019500 -0.005112 0.000000 0.000000 0.000000
# 3 -0.005693 -0.005112 0.008973 0.000000 0.000000 0.000000
# 4 0.000000 0.000000 0.000000 0.066774 0.000000 0.000000
# 5 0.000000 0.000000 0.000000 0.000000 0.021673 0.000000
# 6 0.000000 0.000000 0.000000 0.000000 0.000000 0.026773
#
#
# Mechanical properties :
#
#
# Convention : Reuss Voigt Hill
#
# Bulk Modulus (GPa) = 26.67772 43.16809 34.92290
# Shear Modulus (GPa) = 26.05586 33.18481 29.62034
#
# Velocity S-wave (km/s) = 3.29399 3.71739 3.51208
# Velocity P-wave (km/s) = 5.05731 6.03338 5.56678
#
# Compressibility (1/GPa) = 0.03748447
#
# Stress axis : x y z
#
# Youngs Moduli (GPa) = 44.72382 51.28267 111.43989
#
# Poissons Ratio (x) = -0.21182 0.63438
# Poissons Ratio (y) = -0.18473 0.56967
# Poissons Ratio (z) = 0.25459 0.26215
#
# Static dielectric constant tensor:
#      x y z
#    x 4.082200 0.000000 0.000000 
#    y 0.000000 4.544380 0.000000 
#    z 0.000000 0.000000 4.638630 
# 
# 
# High freq. dielectric constant tensor:
#      x y z
#    x 1.931350 0.000000 0.000000 
#    y 0.000000 1.954800 0.000000 
#    z 0.000000 0.000000 1.979160 
# 
# From -- ./inp_files/3290.got.cif
#   From: 2010.03.12/outbox.cif.g09.slc.cpg/sg54_2_cif.got.tgz:3290.got - 2010.04.16 15:00:50.
