data_PCOD8223688
_publ_section_title
;
Structure prediction by ZEFSAII (Michael W. Deem and Ramdas Pophale) SiO2 
 PCOD8223688
Probable space group: P C C A
;
_chemical_formula_sum "Si O2"
_cell_formula_units_Z 64
_cell_length_a 14.825032
_cell_length_b 22.654683
_cell_length_c 9.164093
_cell_angle_alpha 90.000000
_cell_angle_beta 90.000000
_cell_angle_gamma 90.000000
_cell_volume 3077.819288
_symmetry_space_group_name_H-M "P C C A"
_symmetry_group_IT_number 54
_symmetry_cell_setting 'orthorhombic'
loop_
_space_group_symop_operation_xyz
x,y,z
1/2-x,-y,z
1/2+x,-y,1/2-z
-x,y,1/2-z
-x,-y,-z
1/2+x,y,-z
1/2-x,y,1/2+z
x,-y,1/2+z
loop_
_atom_site_type_symbol
_atom_site_label
_atom_site_fract_x
_atom_site_fract_y
_atom_site_fract_z
Si Si1 0.904897 0.947712 0.168086
Si Si2 0.399324 0.436304 0.572730
Si Si3 0.247428 0.648872 0.464454
Si Si4 0.905120 0.182664 0.670693
Si Si5 0.244388 0.268091 0.713264
Si Si6 0.595376 0.945208 0.329275
Si Si7 0.094670 0.814344 0.669101
Si Si8 0.607049 0.555999 0.088391
O O1 0.860893 0.882953 0.187824
O O2 0.000000 0.945543 0.250000
O O3 0.849283 0.001695 0.246610
O O4 0.916284 0.962475 0.997964
O O5 0.347661 0.379369 0.511695
O O6 0.370043 0.492568 0.478479
O O7 0.374052 0.448322 0.739952
O O8 0.505390 0.423908 0.554019
O O9 0.264563 0.710927 0.546696
O O10 0.244814 0.669358 0.297245
O O11 0.328155 0.602958 0.489084
O O12 0.840469 0.228813 0.746959
O O13 0.919932 0.198418 0.501684
O O14 0.000000 0.186608 0.750000
O O15 0.336188 0.231888 0.738875
O O16 0.500000 0.940977 0.250000
O O17 0.638142 0.880040 0.310775
O O18 0.000000 0.806462 0.750000
#
# Coordination Sequence:
#
# PCOD8223688 Si02
#       8
#     8   8   8   8   8   8   8   8
#     4   9  16  30  53  83 115 148 196 252 309 372
#     4  10  23  43  67  97 128 159 203 247 304 362
#     4  12  25  42  66  90 125 170 206 256 298 359
#     4  10  23  41  62  89 122 162 208 260 313 370
#     4  12  26  44  60  90 127 165 217 253 302 364
#     4   9  16  30  53  84 113 149 197 249 312 373
#     4  10  23  41  63  87 122 165 206 258 317 370
#     4  10  23  43  68  96 127 162 198 251 305 357
#
# _framework density 20.793945000000001
#
# number of rings (size 3 to 8) (size 9 to 14) (size 15 to 20)
#    0.000    1.750    2.500    1.875    3.500    4.000 
#    0.000    0.625    0.000    3.000    0.000    0.000 
#    0.000    0.000    0.000    0.000    0.000    0.000 
#
# Total GULP energy -793364.506922 kJ/mol
# GULP energy per Si atom -12396.320421 kJ/mol
# Density = 2.074662 g / cm^3
# Si number density = 20.793945 Si / 1000 Ang^3
#
#
#
# Elastic Constant Matrix: (Units=GPa)
#
#
# Indices 1 2 3 4 5 6 
#
# 1 78.8386 51.7835 34.3448 0.0000 0.0000 0.0000
# 2 51.7835 122.6076 47.1738 0.0000 0.0000 0.0000
# 3 34.3448 47.1738 95.5263 0.0000 0.0000 0.0000
# 4 0.0000 0.0000 0.0000 47.6964 0.0000 0.0000
# 5 0.0000 0.0000 0.0000 0.0000 23.0254 0.0000
# 6 0.0000 0.0000 0.0000 0.0000 0.0000 2705.0184
#
#
#
# Elastic Compliance Matrix: (Units=1/GPa)
#
#
# Indices 1 2 3 4 5 6 
#
# 1 0.018423 -0.006460 -0.003434 0.000000 0.000000 0.000000
# 2 -0.006460 0.012334 -0.003769 0.000000 0.000000 0.000000
# 3 -0.003434 -0.003769 0.013564 0.000000 0.000000 0.000000
# 4 0.000000 0.000000 0.000000 0.020966 0.000000 0.000000
# 5 0.000000 0.000000 0.000000 0.000000 0.043430 0.000000
# 6 0.000000 0.000000 0.000000 0.000000 0.000000 0.000370
#
#
# Mechanical properties :
#
#
# Convention : Reuss Voigt Hill
#
# Bulk Modulus (GPa) = 58.83333 62.61963 60.72648
# Shear Modulus (GPa) = 35.19220 566.05938 300.62579
#
# Velocity S-wave (km/s) = 4.11837 16.51709 12.03693
# Velocity P-wave (km/s) = 7.13930 19.84772 14.91478
#
# Compressibility (1/GPa) = 0.01699717
#
# Stress axis : x y z
#
# Youngs Moduli (GPa) = 54.28007 81.07399 73.72541
#
# Poissons Ratio (x) = 0.52373 0.25314
# Poissons Ratio (y) = 0.35064 0.27784
# Poissons Ratio (z) = 0.18637 0.30553
#
# Static dielectric constant tensor:
#      x y z
#    x 3.432210 0.000000 0.000000 
#    y 0.000000 4.329310 0.000000 
#    z 0.000000 0.000000 3.882050 
# 
# 
# High freq. dielectric constant tensor:
#      x y z
#    x 1.787050 0.000000 0.000000 
#    y 0.000000 1.832170 0.000000 
#    z 0.000000 0.000000 1.826870 
# 
# From -- ./inp_files/3743.got.cif
#   From: 2010.03.12/outbox.cif.g09.slc.cpg/sg54_2_cif.got.tgz:3743.got - 2010.04.16 15:00:50.
