data_PCOD8223815
_publ_section_title
;
Structure prediction by ZEFSAII (Michael W. Deem and Ramdas Pophale) SiO2 
 PCOD8223815
Probable space group: P C C A
;
_chemical_formula_sum "Si O2"
_cell_formula_units_Z 56
_cell_length_a 20.360222
_cell_length_b 9.343759
_cell_length_c 14.229963
_cell_angle_alpha 90.000000
_cell_angle_beta 90.000000
_cell_angle_gamma 90.000000
_cell_volume 2707.122499
_symmetry_space_group_name_H-M "P C C A"
_symmetry_group_IT_number 54
_symmetry_cell_setting 'orthorhombic'
loop_
_space_group_symop_operation_xyz
x,y,z
1/2-x,-y,z
1/2+x,-y,1/2-z
-x,y,1/2-z
-x,-y,-z
1/2+x,y,-z
1/2-x,y,1/2+z
x,-y,1/2+z
loop_
_atom_site_type_symbol
_atom_site_label
_atom_site_fract_x
_atom_site_fract_y
_atom_site_fract_z
Si Si1 0.431729 0.211249 0.800908
Si Si2 0.002862 0.595483 0.093645
Si Si3 0.448788 0.872963 0.505467
Si Si4 0.300835 0.121433 0.016281
Si Si5 0.221981 0.350347 0.672652
Si Si6 0.705586 0.867054 0.201554
Si Si7 0.904595 0.527390 0.240620
O O1 0.500000 0.174211 0.750000
O O2 0.372327 0.098427 0.778640
O O3 0.395990 0.360436 0.780179
O O4 0.449339 0.213928 0.909423
O O5 0.027191 0.757858 0.081305
O O6 0.050474 0.519620 0.167142
O O7 0.933126 0.603880 0.147114
O O8 0.000000 0.500000 0.000000
O O9 0.375946 0.934616 0.527564
O O10 0.500000 0.000000 0.500000
O O11 0.294518 0.261801 0.079571
O O12 0.250000 0.000000 0.051487
O O13 0.284312 0.164057 0.909151
O O14 0.250000 0.500000 0.635167
O O15 0.273678 0.270266 0.738655
O O16 0.159921 0.382942 0.737933
O O17 0.750000 0.000000 0.234616
#
# Coordination Sequence:
#
# PCOD8223815 Si02
#       7
#     8   8   8   8   8   8   8
#     4  11  21  42  68  96 130 171 222 277 335 397
#     4  11  21  42  68  95 139 171 215 279 329 393
#     4  11  24  43  66  99 133 178 225 269 339 408
#     4  10  24  47  65  93 137 178 225 279 330 401
#     4  12  24  42  68  99 131 173 228 275 334 402
#     4  10  24  44  67  94 134 177 220 275 338 404
#     4  11  22  39  67 101 130 168 224 272 332 391
#
# _framework density 20.686171000000002
#
# number of rings (size 3 to 8) (size 9 to 14) (size 15 to 20)
#    0.000    1.143    5.714    0.429    0.000    6.286 
#    7.714    0.000    0.000    0.000    0.000    0.000 
#    0.000    0.000    0.000    0.000    0.000    0.000 
#
# Total GULP energy -694147.860912 kJ/mol
# GULP energy per Si atom -12395.497516 kJ/mol
# Density = 2.063909 g / cm^3
# Si number density = 20.686171 Si / 1000 Ang^3
#
#
#
# Elastic Constant Matrix: (Units=GPa)
#
#
# Indices 1 2 3 4 5 6 
#
# 1 155.6969 55.3564 48.9017 0.0000 0.0000 0.0000
# 2 55.3564 112.5690 42.0068 0.0000 0.0000 0.0000
# 3 48.9017 42.0068 97.1804 0.0000 0.0000 0.0000
# 4 0.0000 0.0000 0.0000 32.2704 0.0000 0.0000
# 5 0.0000 0.0000 0.0000 0.0000 23.4462 0.0000
# 6 0.0000 0.0000 0.0000 0.0000 0.0000 37.0380
#
#
#
# Elastic Compliance Matrix: (Units=1/GPa)
#
#
# Indices 1 2 3 4 5 6 
#
# 1 0.008426 -0.003054 -0.002920 0.000000 0.000000 0.000000
# 2 -0.003054 0.011699 -0.003520 0.000000 0.000000 0.000000
# 3 -0.002920 -0.003520 0.013281 0.000000 0.000000 0.000000
# 4 0.000000 0.000000 0.000000 0.030988 0.000000 0.000000
# 5 0.000000 0.000000 0.000000 0.000000 0.042651 0.000000
# 6 0.000000 0.000000 0.000000 0.000000 0.000000 0.026999
#
#
# Mechanical properties :
#
#
# Convention : Reuss Voigt Hill
#
# Bulk Modulus (GPa) = 69.35840 73.10847 71.23344
# Shear Modulus (GPa) = 31.67826 33.16301 32.42064
#
# Velocity S-wave (km/s) = 3.91752 4.00828 3.96316
# Velocity P-wave (km/s) = 7.35284 7.53924 7.44663
#
# Compressibility (1/GPa) = 0.01441786
#
# Stress axis : x y z
#
# Youngs Moduli (GPa) = 118.68727 85.47929 75.29551
#
# Poissons Ratio (x) = 0.26103 0.21985
# Poissons Ratio (y) = 0.36244 0.26505
# Poissons Ratio (z) = 0.34654 0.30090
#
# Static dielectric constant tensor:
#      x y z
#    x 5.670740 0.000000 0.000000 
#    y 0.000000 3.686530 0.000000 
#    z 0.000000 0.000000 3.777400 
# 
# 
# High freq. dielectric constant tensor:
#      x y z
#    x 1.824400 0.000000 0.000000 
#    y 0.000000 1.799180 0.000000 
#    z 0.000000 0.000000 1.817700 
# 
# From -- ./inp_files/14698.got.cif
#   From: 2010.03.12/outbox.cif.g09.slc.cpg/sg54_8_cif.got.tgz:14698.got - 2010.04.16 15:00:50.
