data_PCOD8223826
_publ_section_title
;
Structure prediction by ZEFSAII (Michael W. Deem and Ramdas Pophale) SiO2 
 PCOD8223826
Probable space group: P C C A
;
_chemical_formula_sum "Si O2"
_cell_formula_units_Z 40
_cell_length_a 13.916637
_cell_length_b 13.439511
_cell_length_c 9.059110
_cell_angle_alpha 90.000000
_cell_angle_beta 90.000000
_cell_angle_gamma 90.000000
_cell_volume 1694.350673
_symmetry_space_group_name_H-M "P C C A"
_symmetry_group_IT_number 54
_symmetry_cell_setting 'orthorhombic'
loop_
_space_group_symop_operation_xyz
x,y,z
1/2-x,-y,z
1/2+x,-y,1/2-z
-x,y,1/2-z
-x,-y,-z
1/2+x,y,-z
1/2-x,y,1/2+z
x,-y,1/2+z
loop_
_atom_site_type_symbol
_atom_site_label
_atom_site_fract_x
_atom_site_fract_y
_atom_site_fract_z
Si Si1 0.250000 0.000000 0.037317
Si Si2 0.570098 0.774827 0.613056
Si Si3 0.908561 0.894635 0.840097
Si Si4 0.427412 0.631161 0.500559
Si Si5 0.714286 0.789026 0.119164
Si Si6 0.000000 0.497307 0.750000
O O1 0.160927 0.010873 0.149756
O O2 0.272566 0.100899 0.949201
O O3 0.500000 0.792475 0.750000
O O4 0.564360 0.871197 0.508953
O O5 0.530001 0.686677 0.509947
O O6 0.679497 0.749632 0.662057
O O7 0.852655 0.801197 0.764217
O O8 0.000000 0.928884 0.750000
O O9 0.338615 0.709412 0.488663
O O10 0.423786 0.568462 0.654121
O O11 0.431553 0.561624 0.356846
#
# Coordination Sequence:
#
# PCOD8223826 Si02
#       6
#     4   8   8   8   8   4
#     4  10  26  44  66 116 152 194 258 312 368 472
#     4  11  25  44  75 107 146 193 251 309 384 453
#     4  11  23  45  70 103 149 197 250 314 369 455
#     4  11  22  47  73 105 145 195 237 323 375 451
#     4  11  25  47  73 108 152 204 252 305 394 456
#     4  10  24  44  74 110 150 178 268 314 376 454
#
# _framework density 23.607862999999998
#
# number of rings (size 3 to 8) (size 9 to 14) (size 15 to 20)
#    0.000    1.200    3.000    1.800    5.600    0.800 
#    5.400    6.000    0.000    1.200    0.000    0.000 
#    0.000    0.000    0.000    0.000    0.000    0.000 
#
# Total GULP energy -495698.189408 kJ/mol
# GULP energy per Si atom -12392.454735 kJ/mol
# Density = 2.355413 g / cm^3
# Si number density = 23.607863 Si / 1000 Ang^3
#
#
#
# Elastic Constant Matrix: (Units=GPa)
#
#
# Indices 1 2 3 4 5 6 
#
# 1 189.4856 71.7632 79.6931 0.0000 0.0000 0.0000
# 2 71.7632 120.7283 56.0036 0.0000 0.0000 0.0000
# 3 79.6931 56.0036 142.9928 0.0000 0.0000 0.0000
# 4 0.0000 0.0000 0.0000 29.3105 0.0000 0.0000
# 5 0.0000 0.0000 0.0000 0.0000 37.6361 0.0000
# 6 0.0000 0.0000 0.0000 0.0000 0.0000 44.6349
#
#
#
# Elastic Compliance Matrix: (Units=1/GPa)
#
#
# Indices 1 2 3 4 5 6 
#
# 1 0.007787 -0.003196 -0.003088 0.000000 0.000000 0.000000
# 2 -0.003196 0.011434 -0.002697 0.000000 0.000000 0.000000
# 3 -0.003088 -0.002697 0.009771 0.000000 0.000000 0.000000
# 4 0.000000 0.000000 0.000000 0.034117 0.000000 0.000000
# 5 0.000000 0.000000 0.000000 0.000000 0.026570 0.000000
# 6 0.000000 0.000000 0.000000 0.000000 0.000000 0.022404
#
#
# Mechanical properties :
#
#
# Convention : Reuss Voigt Hill
#
# Bulk Modulus (GPa) = 90.66720 96.45852 93.56286
# Shear Modulus (GPa) = 37.39134 38.69942 38.04538
#
# Velocity S-wave (km/s) = 3.98408 4.05317 4.01877
# Velocity P-wave (km/s) = 7.72352 7.92790 7.82638
#
# Compressibility (1/GPa) = 0.01102935
#
# Stress axis : x y z
#
# Youngs Moduli (GPa) = 128.42614 87.45921 102.34844
#
# Poissons Ratio (x) = 0.27953 0.31604
# Poissons Ratio (y) = 0.41046 0.27602
# Poissons Ratio (z) = 0.39656 0.23587
#
# Static dielectric constant tensor:
#      x y z
#    x 4.575030 0.000000 0.000000 
#    y 0.000000 4.327270 0.000000 
#    z 0.000000 0.000000 4.461710 
# 
# 
# High freq. dielectric constant tensor:
#      x y z
#    x 1.930930 0.000000 0.000000 
#    y 0.000000 1.925930 0.000000 
#    z 0.000000 0.000000 1.950220 
# 
# From -- ./inp_files/3480.got.cif
#   From: 2010.03.12/outbox.cif.g09.slc.cpg/sg54_2_cif.got.tgz:3480.got - 2010.04.16 15:00:50.
