data_PCOD8223464
_publ_section_title
;
Structure prediction by ZEFSAII (Michael W. Deem and Ramdas Pophale) SiO2 
 PCOD8223464
Probable space group: P C C A
;
_chemical_formula_sum "Si O2"
_cell_formula_units_Z 36
_cell_length_a 12.247485
_cell_length_b 5.324231
_cell_length_c 21.708574
_cell_angle_alpha 90.000000
_cell_angle_beta 90.000000
_cell_angle_gamma 90.000000
_cell_volume 1415.582230
_symmetry_space_group_name_H-M "P C C A"
_symmetry_group_IT_number 54
_symmetry_cell_setting 'orthorhombic'
loop_
_space_group_symop_operation_xyz
x,y,z
1/2-x,-y,z
1/2+x,-y,1/2-z
-x,y,1/2-z
-x,-y,-z
1/2+x,y,-z
1/2-x,y,1/2+z
x,-y,1/2+z
loop_
_atom_site_type_symbol
_atom_site_label
_atom_site_fract_x
_atom_site_fract_y
_atom_site_fract_z
Si Si1 0.629848 0.848027 0.680404
Si Si2 0.870543 0.345420 0.112172
Si Si3 0.870543 0.345420 0.387828
Si Si4 0.370152 0.151973 0.180404
Si Si5 0.250000 0.500000 0.000000
O O1 0.670549 0.616623 0.637986
O O2 0.670972 0.809611 0.750000
O O3 0.500000 0.852407 0.678361
O O4 0.674421 0.118243 0.655251
O O5 0.826456 0.321964 0.042405
O O6 1.000000 0.330031 0.111059
O O7 0.829451 0.616623 0.362014
O O8 0.826455 0.321964 0.457595
O O9 0.825579 0.118243 0.344749
#
# Coordination Sequence:
#
# PCOD8223464 Si02
#       5
#     8   8   8   8   4
#     4   9  18  37  64  90 116 148 189 241 299 348
#     4  10  22  39  61  87 117 154 193 238 288 342
#     4  10  22  39  61  87 117 154 193 238 288 342
#     4   9  18  37  64  90 116 148 189 241 299 348
#     4  12  26  42  58  84 120 162 202 236 276 340
#
# _framework density 25.431229999999999
#
# number of rings (size 3 to 8) (size 9 to 14) (size 15 to 20)
#    0.000    2.222    0.000    2.000    0.000   10.667 
#    0.000   13.333    0.000    0.000    0.000    0.000 
#    0.000    0.000    0.000    0.000    0.000    0.000 
#
# Total GULP energy -446727.491976 kJ/mol
# GULP energy per Si atom -12409.096999 kJ/mol
# Density = 2.537335 g / cm^3
# Si number density = 25.431230 Si / 1000 Ang^3
#
#
#
# Elastic Constant Matrix: (Units=GPa)
#
#
# Indices 1 2 3 4 5 6 
#
# 1 81.2644 78.1142 42.8954 0.0000 0.0000 0.0000
# 2 78.1142 185.5161 105.8777 0.0000 0.0000 0.0000
# 3 42.8954 105.8777 226.4179 0.0000 0.0000 0.0000
# 4 0.0000 0.0000 0.0000 35.9471 0.0000 0.0000
# 5 0.0000 0.0000 0.0000 0.0000 51.1161 0.0000
# 6 0.0000 0.0000 0.0000 0.0000 0.0000 60.2692
#
#
#
# Elastic Compliance Matrix: (Units=1/GPa)
#
#
# Indices 1 2 3 4 5 6 
#
# 1 0.020680 -0.008827 0.000210 0.000000 0.000000 0.000000
# 2 -0.008827 0.011121 -0.003528 0.000000 0.000000 0.000000
# 3 0.000210 -0.003528 0.006027 0.000000 0.000000 0.000000
# 4 0.000000 0.000000 0.000000 0.027819 0.000000 0.000000
# 5 0.000000 0.000000 0.000000 0.000000 0.019563 0.000000
# 6 0.000000 0.000000 0.000000 0.000000 0.000000 0.016592
#
#
# Mechanical properties :
#
#
# Convention : Reuss Voigt Hill
#
# Bulk Modulus (GPa) = 73.87407 105.21922 89.54664
# Shear Modulus (GPa) = 38.28363 47.22054 42.75208
#
# Velocity S-wave (km/s) = 3.88413 4.31373 4.10455
# Velocity P-wave (km/s) = 7.01619 8.14094 7.59940
#
# Compressibility (1/GPa) = 0.01353655
#
# Stress axis : x y z
#
# Youngs Moduli (GPa) = 48.35620 89.92226 165.93270
#
# Poissons Ratio (x) = 0.79378 -0.03485
# Poissons Ratio (y) = 0.42686 0.58539
# Poissons Ratio (z) = -0.01016 0.31724
#
# Static dielectric constant tensor:
#      x y z
#    x 5.085630 0.000000 0.000000 
#    y 0.000000 4.758810 0.000000 
#    z 0.000000 0.000000 4.418450 
# 
# 
# High freq. dielectric constant tensor:
#      x y z
#    x 2.107110 0.000000 0.000000 
#    y 0.000000 2.017830 0.000000 
#    z 0.000000 0.000000 2.002390 
# 
# From -- ./inp_files/14474.got.cif
#   From: 2010.03.12/outbox.cif.g09.slc.cpg/sg54_8_cif.got.tgz:14474.got - 2010.04.16 15:00:50.
