data_PCOD8223550
_publ_section_title
;
Structure prediction by ZEFSAII (Michael W. Deem and Ramdas Pophale) SiO2 
 PCOD8223550
Probable space group: P C C A
;
_chemical_formula_sum "Si O2"
_cell_formula_units_Z 32
_cell_length_a 18.197826
_cell_length_b 4.891462
_cell_length_c 15.364957
_cell_angle_alpha 90.000000
_cell_angle_beta 90.000000
_cell_angle_gamma 90.000000
_cell_volume 1367.695888
_symmetry_space_group_name_H-M "P C C A"
_symmetry_group_IT_number 54
_symmetry_cell_setting 'orthorhombic'
loop_
_space_group_symop_operation_xyz
x,y,z
1/2-x,-y,z
1/2+x,-y,1/2-z
-x,y,1/2-z
-x,-y,-z
1/2+x,y,-z
1/2-x,y,1/2+z
x,-y,1/2+z
loop_
_atom_site_type_symbol
_atom_site_label
_atom_site_fract_x
_atom_site_fract_y
_atom_site_fract_z
Si Si1 0.948305 0.304606 0.557162
Si Si2 0.699442 0.263749 0.952274
Si Si3 0.299183 0.255574 0.741867
Si Si4 0.052855 0.800126 0.830590
O O1 0.872427 0.239721 0.510431
O O2 0.942192 0.481622 0.644704
O O3 0.000000 0.500000 0.500000
O O4 0.975304 0.002497 0.590410
O O5 0.750000 0.500000 0.991717
O O6 0.672182 0.343683 0.854460
O O7 0.750000 0.000000 0.958340
O O8 0.250000 0.500000 0.783659
O O9 0.363558 0.140815 0.803017
O O10 0.250000 0.000000 0.723002
O O11 0.000000 0.844698 0.750000
#
# Coordination Sequence:
#
# PCOD8223550 Si02
#       4
#     8   8   8   8
#     4  12  26  43  66  95 132 173 218 272 327 391
#     4  10  22  41  66  95 130 172 219 273 334 397
#     4  10  22  41  65  93 128 169 213 266 327 389
#     4  12  26  43  66  95 131 172 219 271 325 391
#
# _framework density 23.397013000000001
#
# number of rings (size 3 to 8) (size 9 to 14) (size 15 to 20)
#    0.000    1.000    0.000    6.000    0.000   12.000 
#    0.000    0.000    0.000    0.000    0.000    0.000 
#    0.000    0.000    0.000    0.000    0.000    0.000 
#
# Total GULP energy -396536.478174 kJ/mol
# GULP energy per Si atom -12391.764943 kJ/mol
# Density = 2.334376 g / cm^3
# Si number density = 23.397013 Si / 1000 Ang^3
#
#
#
# Elastic Constant Matrix: (Units=GPa)
#
#
# Indices 1 2 3 4 5 6 
#
# 1 96.6439 22.8255 21.9284 0.0000 0.0000 0.0000
# 2 22.8255 127.1342 3.1140 0.0000 0.0000 0.0000
# 3 21.9284 3.1140 46.3770 0.0000 0.0000 0.0000
# 4 0.0000 0.0000 0.0000 42.1772 0.0000 0.0000
# 5 0.0000 0.0000 0.0000 0.0000 52.1299 0.0000
# 6 0.0000 0.0000 0.0000 0.0000 0.0000 25.8509
#
#
#
# Elastic Compliance Matrix: (Units=1/GPa)
#
#
# Indices 1 2 3 4 5 6 
#
# 1 0.012094 -0.002035 -0.005582 0.000000 0.000000 0.000000
# 2 -0.002035 0.008221 0.000410 0.000000 0.000000 0.000000
# 3 -0.005582 0.000410 0.024174 0.000000 0.000000 0.000000
# 4 0.000000 0.000000 0.000000 0.023710 0.000000 0.000000
# 5 0.000000 0.000000 0.000000 0.000000 0.019183 0.000000
# 6 0.000000 0.000000 0.000000 0.000000 0.000000 0.038683
#
#
# Mechanical properties :
#
#
# Convention : Reuss Voigt Hill
#
# Bulk Modulus (GPa) = 33.24872 40.65455 36.95164
# Shear Modulus (GPa) = 33.22175 38.85074 36.03625
#
# Velocity S-wave (km/s) = 3.77226 4.07934 3.92880
# Velocity P-wave (km/s) = 5.76323 6.29299 6.03393
#
# Compressibility (1/GPa) = 0.03007635
#
# Stress axis : x y z
#
# Youngs Moduli (GPa) = 82.68317 121.64018 41.36646
#
# Poissons Ratio (x) = 0.24750 0.23091
# Poissons Ratio (y) = 0.16823 -0.01696
# Poissons Ratio (z) = 0.46153 -0.04988
#
# Static dielectric constant tensor:
#      x y z
#    x 4.019940 0.000000 0.000000 
#    y 0.000000 4.918160 0.000000 
#    z 0.000000 0.000000 4.518110 
# 
# 
# High freq. dielectric constant tensor:
#      x y z
#    x 1.920480 0.000000 0.000000 
#    y 0.000000 1.944550 0.000000 
#    z 0.000000 0.000000 1.932850 
# 
# From -- ./inp_files/13788.got.cif
#   From: 2010.03.12/outbox.cif.g09.slc.cpg/sg54_7_cif.got.tgz:13788.got - 2010.04.16 15:00:50.
