data_PCOD8223380
_publ_section_title
;
Structure prediction by ZEFSAII (Michael W. Deem and Ramdas Pophale) SiO2 
 PCOD8223380
Probable space group: P C C A
;
_chemical_formula_sum "Si O2"
_cell_formula_units_Z 64
_cell_length_a 19.258178
_cell_length_b 9.143533
_cell_length_c 17.559822
_cell_angle_alpha 90.000000
_cell_angle_beta 90.000000
_cell_angle_gamma 90.000000
_cell_volume 3092.070180
_symmetry_space_group_name_H-M "P C C A"
_symmetry_group_IT_number 54
_symmetry_cell_setting 'orthorhombic'
loop_
_space_group_symop_operation_xyz
x,y,z
1/2-x,-y,z
1/2+x,-y,1/2-z
-x,y,1/2-z
-x,-y,-z
1/2+x,y,-z
1/2-x,y,1/2+z
x,-y,1/2+z
loop_
_atom_site_type_symbol
_atom_site_label
_atom_site_fract_x
_atom_site_fract_y
_atom_site_fract_z
Si Si1 0.149671 0.869593 0.788221
Si Si2 0.619952 0.158721 0.540737
Si Si3 0.733867 0.332942 0.461079
Si Si4 0.561263 0.344419 0.807085
Si Si5 0.693030 0.185121 0.193038
Si Si6 0.644263 0.172115 0.023094
Si Si7 0.179654 0.579562 0.195753
Si Si8 0.987246 0.667146 0.976882
O O1 0.111020 0.849967 0.868701
O O2 0.101000 0.798860 0.723998
O O3 0.225446 0.797104 0.789488
O O4 0.159438 0.040322 0.770775
O O5 0.686224 0.259180 0.524455
O O6 0.554030 0.235970 0.502589
O O7 0.629474 0.997487 0.504266
O O8 0.750000 0.500000 0.484439
O O9 0.805867 0.241058 0.458001
O O10 0.695864 0.325518 0.379712
O O11 0.500000 0.393340 0.750000
O O12 0.616334 0.472496 0.819506
O O13 0.528345 0.310481 0.888250
O O14 0.683163 0.188351 0.103063
O O15 0.654926 0.318256 0.234954
O O16 0.574485 0.266871 0.027387
O O17 0.250000 0.500000 0.220561
O O18 0.000000 0.500000 0.000000
#
# Coordination Sequence:
#
# PCOD8223380 Si02
#       8
#     8   8   8   8   8   8   8   8
#     4  10  21  43  66  98 125 171 220 273 338 404
#     4  11  22  44  66  95 133 171 220 268 334 407
#     4  11  23  41  64  95 132 167 219 277 328 393
#     4  12  25  43  67  96 137 180 222 276 350 404
#     4  10  22  41  70  94 129 165 224 278 331 409
#     4  11  24  41  68  98 128 174 219 279 336 398
#     4  11  23  41  61  94 129 169 220 274 330 396
#     4  12  26  44  67  98 135 177 226 277 336 410
#
# _framework density 20.698107
#
# number of rings (size 3 to 8) (size 9 to 14) (size 15 to 20)
#    0.000    1.000    3.750    3.750    1.750    2.500 
#    2.250    1.875    0.000    0.000    0.000    0.000 
#    0.000    0.000    0.000    0.000    0.000    0.000 
#
# Total GULP energy -793751.241616 kJ/mol
# GULP energy per Si atom -12402.363150 kJ/mol
# Density = 2.065100 g / cm^3
# Si number density = 20.698107 Si / 1000 Ang^3
#
#
#
# Elastic Constant Matrix: (Units=GPa)
#
#
# Indices 1 2 3 4 5 6 
#
# 1 120.2073 58.1485 21.3611 0.0000 0.0000 0.0000
# 2 58.1485 124.4378 42.9567 0.0000 0.0000 0.0000
# 3 21.3611 42.9567 67.6682 0.0000 0.0000 0.0000
# 4 0.0000 0.0000 0.0000 32.1158 0.0000 0.0000
# 5 0.0000 0.0000 0.0000 0.0000 30.3484 0.0000
# 6 0.0000 0.0000 0.0000 0.0000 0.0000 42.0945
#
#
#
# Elastic Compliance Matrix: (Units=1/GPa)
#
#
# Indices 1 2 3 4 5 6 
#
# 1 0.010752 -0.004934 -0.000262 0.000000 0.000000 0.000000
# 2 -0.004934 0.012555 -0.006413 0.000000 0.000000 0.000000
# 3 -0.000262 -0.006413 0.018932 0.000000 0.000000 0.000000
# 4 0.000000 0.000000 0.000000 0.031137 0.000000 0.000000
# 5 0.000000 0.000000 0.000000 0.000000 0.032951 0.000000
# 6 0.000000 0.000000 0.000000 0.000000 0.000000 0.023756
#
#
# Mechanical properties :
#
#
# Convention : Reuss Voigt Hill
#
# Bulk Modulus (GPa) = 52.57165 61.91620 57.24392
# Shear Modulus (GPa) = 31.32010 33.56820 32.44415
#
# Velocity S-wave (km/s) = 3.89419 4.03153 3.96345
# Velocity P-wave (km/s) = 6.75826 7.18678 6.97581
#
# Compressibility (1/GPa) = 0.01902166
#
# Stress axis : x y z
#
# Youngs Moduli (GPa) = 93.00377 79.64648 52.82151
#
# Poissons Ratio (x) = 0.39297 0.01384
# Poissons Ratio (y) = 0.45888 0.33874
# Poissons Ratio (z) = 0.02437 0.51076
#
# Static dielectric constant tensor:
#      x y z
#    x 3.892610 0.000000 0.000000 
#    y 0.000000 3.833990 0.000000 
#    z 0.000000 0.000000 3.573210 
# 
# 
# High freq. dielectric constant tensor:
#      x y z
#    x 1.818830 0.000000 0.000000 
#    y 0.000000 1.816650 0.000000 
#    z 0.000000 0.000000 1.802220 
# 
# From -- ./inp_files/18937.got.cif
#   From: 2010.03.12/outbox.cif.g09.slc.cpg/sg54_10_cif.got.tgz:18937.got - 2010.04.16 15:00:50.
