data_PCOD8223991
_publ_section_title
;
Structure prediction by ZEFSAII (Michael W. Deem and Ramdas Pophale) SiO2 
 PCOD8223991
Probable space group: P C C A
;
_chemical_formula_sum "Si O2"
_cell_formula_units_Z 32
_cell_length_a 13.351049
_cell_length_b 8.796466
_cell_length_c 12.103874
_cell_angle_alpha 90.000000
_cell_angle_beta 90.000000
_cell_angle_gamma 90.000000
_cell_volume 1421.503758
_symmetry_space_group_name_H-M "P C C A"
_symmetry_group_IT_number 54
_symmetry_cell_setting 'orthorhombic'
loop_
_space_group_symop_operation_xyz
x,y,z
1/2-x,-y,z
1/2+x,-y,1/2-z
-x,y,1/2-z
-x,-y,-z
1/2+x,y,-z
1/2-x,y,1/2+z
x,-y,1/2+z
loop_
_atom_site_type_symbol
_atom_site_label
_atom_site_fract_x
_atom_site_fract_y
_atom_site_fract_z
Si Si1 0.892170 0.179010 0.303935
Si Si2 0.286365 0.663905 0.783692
Si Si3 0.072809 0.147065 0.648676
Si Si4 0.937490 0.345057 0.512737
O O1 0.808770 0.219258 0.209832
O O2 0.884390 0.308469 0.397526
O O3 0.000000 0.189113 0.250000
O O4 0.872498 0.016205 0.364543
O O5 0.250000 0.500000 0.749024
O O6 0.350748 0.720307 0.679955
O O7 0.350143 0.649559 0.895704
O O8 0.000000 0.120202 0.750000
O O9 0.013199 0.205079 0.540992
O O10 0.000000 0.500000 0.500000
#
# Coordination Sequence:
#
# PCOD8223991 Si02
#       4
#     8   8   8   8
#     4  11  23  41  65  93 128 169 214 269 329 396
#     4  11  23  40  62  92 127 167 214 267 327 395
#     4   9  21  42  65  91 125 166 215 268 323 387
#     4  11  23  41  66  96 130 170 215 270 332 394
#
# _framework density 22.511372000000001
#
# number of rings (size 3 to 8) (size 9 to 14) (size 15 to 20)
#    0.000    1.500    0.000    4.500    0.000    7.000 
#    0.000   10.000    0.000    0.000    0.000    0.000 
#    0.000    0.000    0.000    0.000    0.000    0.000 
#
# Total GULP energy -396606.823341 kJ/mol
# GULP energy per Si atom -12393.963229 kJ/mol
# Density = 2.246013 g / cm^3
# Si number density = 22.511372 Si / 1000 Ang^3
#
#
#
# Elastic Constant Matrix: (Units=GPa)
#
#
# Indices 1 2 3 4 5 6 
#
# 1 131.0743 56.4623 43.7814 0.0000 0.0000 0.0000
# 2 56.4623 167.8728 42.1932 0.0000 0.0000 0.0000
# 3 43.7814 42.1932 84.8816 0.0000 0.0000 0.0000
# 4 0.0000 0.0000 0.0000 17.5581 0.0000 0.0000
# 5 0.0000 0.0000 0.0000 0.0000 40.8040 0.0000
# 6 0.0000 0.0000 0.0000 0.0000 0.0000 35.5841
#
#
#
# Elastic Compliance Matrix: (Units=1/GPa)
#
#
# Indices 1 2 3 4 5 6 
#
# 1 0.009971 -0.002355 -0.003972 0.000000 0.000000 0.000000
# 2 -0.002355 0.007364 -0.002446 0.000000 0.000000 0.000000
# 3 -0.003972 -0.002446 0.015046 0.000000 0.000000 0.000000
# 4 0.000000 0.000000 0.000000 0.056954 0.000000 0.000000
# 5 0.000000 0.000000 0.000000 0.000000 0.024507 0.000000
# 6 0.000000 0.000000 0.000000 0.000000 0.000000 0.028102
#
#
# Mechanical properties :
#
#
# Convention : Reuss Voigt Hill
#
# Bulk Modulus (GPa) = 67.41181 74.30027 70.85604
# Shear Modulus (GPa) = 30.40744 34.88205 32.64474
#
# Velocity S-wave (km/s) = 3.67925 3.94068 3.81221
# Velocity P-wave (km/s) = 6.93252 7.33366 7.13591
#
# Compressibility (1/GPa) = 0.01483420
#
# Stress axis : x y z
#
# Youngs Moduli (GPa) = 100.29579 135.80132 66.46494
#
# Poissons Ratio (x) = 0.31983 0.26400
# Poissons Ratio (y) = 0.23621 0.16255
# Poissons Ratio (z) = 0.39838 0.33212
#
# Static dielectric constant tensor:
#      x y z
#    x 5.003200 0.000000 0.000000 
#    y 0.000000 4.386720 0.000000 
#    z 0.000000 0.000000 3.727270 
# 
# 
# High freq. dielectric constant tensor:
#      x y z
#    x 1.896980 0.000000 0.000000 
#    y 0.000000 1.904400 0.000000 
#    z 0.000000 0.000000 1.864320 
# 
# From -- ./inp_files/7904.got.cif
#   From: 2010.03.12/outbox.cif.g09.slc.cpg/sg54_4_cif.got.tgz:7904.got - 2010.04.16 15:00:50.
