data_PCOD8223784
_publ_section_title
;
Structure prediction by ZEFSAII (Michael W. Deem and Ramdas Pophale) SiO2 
 PCOD8223784
Probable space group: P C C A
;
_chemical_formula_sum "Si O2"
_cell_formula_units_Z 48
_cell_length_a 15.336041
_cell_length_b 16.136631
_cell_length_c 8.749239
_cell_angle_alpha 90.000000
_cell_angle_beta 90.000000
_cell_angle_gamma 90.000000
_cell_volume 2165.191977
_symmetry_space_group_name_H-M "P C C A"
_symmetry_group_IT_number 54
_symmetry_cell_setting 'orthorhombic'
loop_
_space_group_symop_operation_xyz
x,y,z
1/2-x,-y,z
1/2+x,-y,1/2-z
-x,y,1/2-z
-x,-y,-z
1/2+x,y,-z
1/2-x,y,1/2+z
x,-y,1/2+z
loop_
_atom_site_type_symbol
_atom_site_label
_atom_site_fract_x
_atom_site_fract_y
_atom_site_fract_z
Si Si1 0.750000 0.500000 0.119212
Si Si2 0.842713 0.915396 0.386591
Si Si3 0.035792 0.310939 0.984089
Si Si4 0.663480 0.904599 0.248073
Si Si5 0.500000 0.183372 0.250000
Si Si6 0.500000 0.451055 0.250000
Si Si7 0.146913 0.571091 0.643567
Si Si8 0.500000 0.790126 0.250000
O O1 0.774019 0.422972 0.234131
O O2 0.670152 0.471912 0.016144
O O3 0.757628 0.872164 0.309559
O O4 0.830757 0.916298 0.567420
O O5 0.932556 0.869437 0.347579
O O6 0.854909 0.008235 0.328212
O O7 0.059756 0.242623 0.857295
O O8 0.000470 0.394359 0.903590
O O9 0.115016 0.337281 0.097440
O O10 0.970207 0.266708 0.104620
O O11 0.584294 0.844578 0.296619
O O12 0.581170 0.511558 0.265704
#
# Coordination Sequence:
#
# PCOD8223784 Si02
#       8
#     4   8   8   8   4   4   8   4
#     4  10  24  40  70  98 132 162 236 294 334 396
#     4  11  24  45  72 103 136 185 240 285 337 416
#     4  11  25  42  66 100 133 180 228 282 352 414
#     4  11  25  43  74 101 137 187 236 284 340 408
#     4  11  25  46  67 101 150 180 230 287 355 416
#     4  11  23  44  75  89 130 186 228 281 327 424
#     4  11  22  46  67  99 127 178 231 281 337 408
#     4  12  26  44  66 104 142 184 230 280 356 416
#
# _framework density 22.168935000000001
#
# number of rings (size 3 to 8) (size 9 to 14) (size 15 to 20)
#    0.000    1.000    3.333    3.500    7.000    1.333 
#    3.000    0.000    0.000    0.000    0.000    0.000 
#    0.000    0.000    0.000    0.000    0.000    0.000 
#
# Total GULP energy -594709.424995 kJ/mol
# GULP energy per Si atom -12389.779687 kJ/mol
# Density = 2.211848 g / cm^3
# Si number density = 22.168935 Si / 1000 Ang^3
#
#
#
# Elastic Constant Matrix: (Units=GPa)
#
#
# Indices 1 2 3 4 5 6 
#
# 1 101.6238 44.7467 40.0929 0.0000 0.0000 0.0000
# 2 44.7467 83.9071 40.6903 0.0000 0.0000 0.0000
# 3 40.0929 40.6903 157.8945 0.0000 0.0000 0.0000
# 4 0.0000 0.0000 0.0000 21.0490 0.0000 0.0000
# 5 0.0000 0.0000 0.0000 0.0000 31.8028 0.0000
# 6 0.0000 0.0000 0.0000 0.0000 0.0000 19.3371
#
#
#
# Elastic Compliance Matrix: (Units=1/GPa)
#
#
# Indices 1 2 3 4 5 6 
#
# 1 0.013278 -0.006224 -0.001768 0.000000 0.000000 0.000000
# 2 -0.006224 0.016537 -0.002681 0.000000 0.000000 0.000000
# 3 -0.001768 -0.002681 0.007473 0.000000 0.000000 0.000000
# 4 0.000000 0.000000 0.000000 0.047508 0.000000 0.000000
# 5 0.000000 0.000000 0.000000 0.000000 0.031444 0.000000
# 6 0.000000 0.000000 0.000000 0.000000 0.000000 0.051714
#
#
# Mechanical properties :
#
#
# Convention : Reuss Voigt Hill
#
# Bulk Modulus (GPa) = 62.72410 66.05391 64.38900
# Shear Modulus (GPa) = 25.69181 28.96416 27.32798
#
# Velocity S-wave (km/s) = 3.40797 3.61850 3.51481
# Velocity P-wave (km/s) = 6.62124 6.87884 6.75127
#
# Compressibility (1/GPa) = 0.01594284
#
# Stress axis : x y z
#
# Youngs Moduli (GPa) = 75.31227 60.46913 133.81124
#
# Poissons Ratio (x) = 0.37635 0.23654
# Poissons Ratio (y) = 0.46873 0.35880
# Poissons Ratio (z) = 0.13313 0.16214
#
# Static dielectric constant tensor:
#      x y z
#    x 4.002020 0.000000 0.000000 
#    y 0.000000 4.030410 0.000000 
#    z 0.000000 0.000000 4.349780 
# 
# 
# High freq. dielectric constant tensor:
#      x y z
#    x 1.856570 0.000000 0.000000 
#    y 0.000000 1.859990 0.000000 
#    z 0.000000 0.000000 1.908700 
# 
# From -- ./inp_files/3640.got.cif
#   From: 2010.03.12/outbox.cif.g09.slc.cpg/sg54_2_cif.got.tgz:3640.got - 2010.04.16 15:00:50.
