data_PCOD8223736
_publ_section_title
;
Structure prediction by ZEFSAII (Michael W. Deem and Ramdas Pophale) SiO2 
 PCOD8223736
Probable space group: P C C A
;
_chemical_formula_sum "Si O2"
_cell_formula_units_Z 36
_cell_length_a 12.752124
_cell_length_b 9.961000
_cell_length_c 12.737597
_cell_angle_alpha 90.000000
_cell_angle_beta 90.000000
_cell_angle_gamma 90.000000
_cell_volume 1617.979339
_symmetry_space_group_name_H-M "P C C A"
_symmetry_group_IT_number 54
_symmetry_cell_setting 'orthorhombic'
loop_
_space_group_symop_operation_xyz
x,y,z
1/2-x,-y,z
1/2+x,-y,1/2-z
-x,y,1/2-z
-x,-y,-z
1/2+x,y,-z
1/2-x,y,1/2+z
x,-y,1/2+z
loop_
_atom_site_type_symbol
_atom_site_label
_atom_site_fract_x
_atom_site_fract_y
_atom_site_fract_z
Si Si1 0.016898 0.335013 0.582218
Si Si2 0.265975 0.772376 0.631165
Si Si3 0.250000 0.000000 0.966400
Si Si4 0.049683 0.364210 0.142426
Si Si5 0.600525 0.101146 0.194361
O O1 0.139539 0.316860 0.593062
O O2 0.003985 0.486644 0.621774
O O3 0.987057 0.291969 0.463763
O O4 0.944264 0.242885 0.654308
O O5 0.236961 0.868372 0.535312
O O6 0.173322 0.667017 0.656494
O O7 0.301527 0.864315 0.729608
O O8 0.355335 0.999067 0.894492
O O9 0.000000 0.308267 0.250000
O O10 0.500000 0.027552 0.250000
#
# Coordination Sequence:
#
# PCOD8223736 Si02
#       5
#     8   8   4   8   8
#     4  10  23  44  66  96 137 172 214 285 336 401
#     4  11  24  43  66  98 131 177 224 276 335 401
#     4  12  24  44  66 100 132 184 228 280 326 408
#     4  11  23  41  69 102 129 170 225 273 345 402
#     4  10  23  45  66  95 139 180 227 280 339 396
#
# _framework density 22.249974000000002
#
# number of rings (size 3 to 8) (size 9 to 14) (size 15 to 20)
#    0.000    1.333    2.222    3.333    3.111    3.556 
#    4.000    2.222    0.000    0.000    0.000    0.000 
#    0.000    0.000    0.000    0.000    0.000    0.000 
#
# Total GULP energy -445988.859992 kJ/mol
# GULP energy per Si atom -12388.579444 kJ/mol
# Density = 2.219933 g / cm^3
# Si number density = 22.249974 Si / 1000 Ang^3
#
#
#
# Elastic Constant Matrix: (Units=GPa)
#
#
# Indices 1 2 3 4 5 6 
#
# 1 130.8202 20.9934 58.1822 0.0000 0.0000 0.0000
# 2 20.9934 42.8800 16.2769 0.0000 0.0000 0.0000
# 3 58.1822 16.2769 136.3316 0.0000 0.0000 0.0000
# 4 0.0000 0.0000 0.0000 12.2100 0.0000 0.0000
# 5 0.0000 0.0000 0.0000 0.0000 72.3695 0.0000
# 6 0.0000 0.0000 0.0000 0.0000 0.0000 5.4400
#
#
#
# Elastic Compliance Matrix: (Units=1/GPa)
#
#
# Indices 1 2 3 4 5 6 
#
# 1 0.009884 -0.003392 -0.003813 0.000000 0.000000 0.000000
# 2 -0.003392 0.025592 -0.001608 0.000000 0.000000 0.000000
# 3 -0.003813 -0.001608 0.009154 0.000000 0.000000 0.000000
# 4 0.000000 0.000000 0.000000 0.081900 0.000000 0.000000
# 5 0.000000 0.000000 0.000000 0.000000 0.013818 0.000000
# 6 0.000000 0.000000 0.000000 0.000000 0.000000 0.183824
#
#
# Mechanical properties :
#
#
# Convention : Reuss Voigt Hill
#
# Bulk Modulus (GPa) = 37.03088 55.65964 46.34526
# Shear Modulus (GPa) = 14.25310 32.30918 23.28114
#
# Velocity S-wave (km/s) = 2.53373 3.81478 3.23823
# Velocity P-wave (km/s) = 5.02384 6.66883 5.90391
#
# Compressibility (1/GPa) = 0.02700449
#
# Stress axis : x y z
#
# Youngs Moduli (GPa) = 101.16974 39.07499 109.23604
#
# Poissons Ratio (x) = 0.13253 0.41656
# Poissons Ratio (y) = 0.34314 0.17565
# Poissons Ratio (z) = 0.38580 0.06283
#
# Static dielectric constant tensor:
#      x y z
#    x 4.454690 0.000000 0.000000 
#    y 0.000000 3.931040 0.000000 
#    z 0.000000 0.000000 4.530370 
# 
# 
# High freq. dielectric constant tensor:
#      x y z
#    x 1.880260 0.000000 0.000000 
#    y 0.000000 1.857860 0.000000 
#    z 0.000000 0.000000 1.899940 
# 
# From -- ./inp_files/7380.got.cif
#   From: 2010.03.12/outbox.cif.g09.slc.cpg/sg54_4_cif.got.tgz:7380.got - 2010.04.16 15:00:50.
