data_PCOD8223537
_publ_section_title
;
Structure prediction by ZEFSAII (Michael W. Deem and Ramdas Pophale) SiO2 
 PCOD8223537
Probable space group: P C C A
;
_chemical_formula_sum "Si O2"
_cell_formula_units_Z 64
_cell_length_a 8.869430
_cell_length_b 18.763507
_cell_length_c 18.090160
_cell_angle_alpha 90.000000
_cell_angle_beta 90.000000
_cell_angle_gamma 90.000000
_cell_volume 3010.593587
_symmetry_space_group_name_H-M "P C C A"
_symmetry_group_IT_number 54
_symmetry_cell_setting 'orthorhombic'
loop_
_space_group_symop_operation_xyz
x,y,z
1/2-x,-y,z
1/2+x,-y,1/2-z
-x,y,1/2-z
-x,-y,-z
1/2+x,y,-z
1/2-x,y,1/2+z
x,-y,1/2+z
loop_
_atom_site_type_symbol
_atom_site_label
_atom_site_fract_x
_atom_site_fract_y
_atom_site_fract_z
Si Si1 0.296210 0.921631 0.945408
Si Si2 0.152651 0.724109 0.433404
Si Si3 0.006991 0.388040 0.662135
Si Si4 0.815619 0.334786 0.406086
Si Si5 0.925045 0.482164 0.422996
Si Si6 0.908943 0.845895 0.442318
Si Si7 0.659544 0.170333 0.660203
Si Si8 0.172289 0.807536 0.672743
O O1 0.476676 0.912797 0.947293
O O2 0.241233 0.904054 0.862158
O O3 0.250000 0.000000 0.971665
O O4 0.216228 0.859612 0.994845
O O5 0.213148 0.694737 0.511327
O O6 0.287359 0.767642 0.395326
O O7 0.120171 0.658728 0.377962
O O8 0.002838 0.772381 0.448249
O O9 0.163372 0.363751 0.628146
O O10 0.991231 0.471978 0.641154
O O11 0.000000 0.377579 0.750000
O O12 0.941332 0.397593 0.405980
O O13 0.868696 0.271959 0.352922
O O14 0.750000 0.500000 0.429387
O O15 0.000000 0.500000 0.500000
O O16 0.815863 0.843465 0.366107
O O17 0.482399 0.151057 0.655043
O O18 0.711401 0.192829 0.741302
#
# Coordination Sequence:
#
# PCOD8223537 Si02
#       8
#     8   8   8   8   8   8   8   8
#     4  11  23  42  64  93 130 170 215 268 335 417
#     4  11  22  36  69  95 125 172 217 282 331 407
#     4  11  23  41  64  94 132 170 221 280 338 407
#     4  11  22  38  68  91 128 170 223 270 341 400
#     4  10  22  41  60  90 127 168 215 269 324 411
#     4  11  23  38  67  96 128 165 219 276 329 399
#     4  10  24  40  61  94 133 166 223 276 338 395
#     4  11  22  41  61  93 133 169 218 286 329 399
#
# _framework density 21.258267
#
# number of rings (size 3 to 8) (size 9 to 14) (size 15 to 20)
#    0.000    1.250    2.500    4.125    1.750    1.500 
#    2.250    5.000    0.000    0.000    0.000    0.000 
#    0.000    0.000    0.000    0.000    0.000    0.000 
#
# Total GULP energy -793280.013284 kJ/mol
# GULP energy per Si atom -12395.000208 kJ/mol
# Density = 2.120988 g / cm^3
# Si number density = 21.258267 Si / 1000 Ang^3
#
#
#
# Elastic Constant Matrix: (Units=GPa)
#
#
# Indices 1 2 3 4 5 6 
#
# 1 95.4337 25.0015 46.0284 0.0000 0.0000 0.0000
# 2 25.0015 85.6179 44.3128 0.0000 0.0000 0.0000
# 3 46.0284 44.3128 157.7679 0.0000 0.0000 0.0000
# 4 0.0000 0.0000 0.0000 18.6231 0.0000 0.0000
# 5 0.0000 0.0000 0.0000 0.0000 34.7395 0.0000
# 6 0.0000 0.0000 0.0000 0.0000 0.0000 27.9835
#
#
#
# Elastic Compliance Matrix: (Units=1/GPa)
#
#
# Indices 1 2 3 4 5 6 
#
# 1 0.012498 -0.002062 -0.003067 0.000000 0.000000 0.000000
# 2 -0.002062 0.014007 -0.003332 0.000000 0.000000 0.000000
# 3 -0.003067 -0.003332 0.008169 0.000000 0.000000 0.000000
# 4 0.000000 0.000000 0.000000 0.053697 0.000000 0.000000
# 5 0.000000 0.000000 0.000000 0.000000 0.028786 0.000000
# 6 0.000000 0.000000 0.000000 0.000000 0.000000 0.035735
#
#
# Mechanical properties :
#
#
# Convention : Reuss Voigt Hill
#
# Bulk Modulus (GPa) = 56.33625 63.27830 59.80728
# Shear Modulus (GPa) = 28.45240 31.16766 29.81003
#
# Velocity S-wave (km/s) = 3.66241 3.83318 3.74876
# Velocity P-wave (km/s) = 6.66653 7.03008 6.85072
#
# Compressibility (1/GPa) = 0.01775056
#
# Stress axis : x y z
#
# Youngs Moduli (GPa) = 80.01294 71.39408 122.41050
#
# Poissons Ratio (x) = 0.14723 0.37544
# Poissons Ratio (y) = 0.16500 0.40793
# Poissons Ratio (z) = 0.24540 0.23792
#
# Static dielectric constant tensor:
#      x y z
#    x 3.899870 0.000000 0.000000 
#    y 0.000000 4.179390 0.000000 
#    z 0.000000 0.000000 3.920860 
# 
# 
# High freq. dielectric constant tensor:
#      x y z
#    x 1.836890 0.000000 0.000000 
#    y 0.000000 1.829030 0.000000 
#    z 0.000000 0.000000 1.833640 
# 
# From -- ./inp_files/16868.got.cif
#   From: 2010.03.12/outbox.cif.g09.slc.cpg/sg54_9_cif.got.tgz:16868.got - 2010.04.16 15:00:50.
