data_PCOD8223429
_publ_section_title
;
Structure prediction by ZEFSAII (Michael W. Deem and Ramdas Pophale) SiO2 
 PCOD8223429
Probable space group: P C C A
;
_chemical_formula_sum "Si O2"
_cell_formula_units_Z 28
_cell_length_a 13.592986
_cell_length_b 8.285231
_cell_length_c 12.135488
_cell_angle_alpha 90.000000
_cell_angle_beta 90.000000
_cell_angle_gamma 90.000000
_cell_volume 1366.711146
_symmetry_space_group_name_H-M "P C C A"
_symmetry_group_IT_number 54
_symmetry_cell_setting 'orthorhombic'
loop_
_space_group_symop_operation_xyz
x,y,z
1/2-x,-y,z
1/2+x,-y,1/2-z
-x,y,1/2-z
-x,-y,-z
1/2+x,y,-z
1/2-x,y,1/2+z
x,-y,1/2+z
loop_
_atom_site_type_symbol
_atom_site_label
_atom_site_fract_x
_atom_site_fract_y
_atom_site_fract_z
Si Si1 0.500000 0.084190 0.750000
Si Si2 0.434380 0.208181 0.382956
Si Si3 0.346694 0.716740 0.111675
Si Si4 0.132245 0.343435 0.659828
O O1 0.582934 0.194222 0.803533
O O2 0.558317 0.974918 0.661193
O O3 0.366557 0.219535 0.489099
O O4 0.545614 0.262991 0.412161
O O5 0.390491 0.327480 0.289888
O O6 0.362961 0.527157 0.122903
O O7 0.232669 0.753945 0.136183
#
# Coordination Sequence:
#
# PCOD8223429 Si02
#       4
#     4   8   8   8
#     4  10  22  38  58  90 118 152 196 232 288 360
#     4  10  22  40  56  84 124 154 190 244 292 342
#     4  11  21  38  63  86 115 157 195 242 292 337
#     4   9  22  38  59  87 114 151 202 240 286 350
#
# _framework density 20.487137000000001
#
# number of rings (size 3 to 8) (size 9 to 14) (size 15 to 20)
#    0.000    2.286    0.000    3.429    0.000   11.429 
#    0.000    5.714    0.000    0.000    0.000    0.000 
#    0.000    0.000    0.000    0.000    0.000    0.000 
#
# Total GULP energy -347191.281060 kJ/mol
# GULP energy per Si atom -12399.688609 kJ/mol
# Density = 2.044051 g / cm^3
# Si number density = 20.487137 Si / 1000 Ang^3
#
#
#
# Elastic Constant Matrix: (Units=GPa)
#
#
# Indices 1 2 3 4 5 6 
#
# 1 146.3282 33.9008 83.1971 0.0000 0.0000 0.0000
# 2 33.9008 75.3710 43.9050 0.0000 0.0000 0.0000
# 3 83.1971 43.9050 101.4352 0.0000 0.0000 0.0000
# 4 0.0000 0.0000 0.0000 34.3833 0.0000 0.0000
# 5 0.0000 0.0000 0.0000 0.0000 30.5014 0.0000
# 6 0.0000 0.0000 0.0000 0.0000 0.0000 41.9403
#
#
#
# Elastic Compliance Matrix: (Units=1/GPa)
#
#
# Indices 1 2 3 4 5 6 
#
# 1 0.012819 0.000480 -0.010722 0.000000 0.000000 0.000000
# 2 0.000480 0.017759 -0.008080 0.000000 0.000000 0.000000
# 3 -0.010722 -0.008080 0.022150 0.000000 0.000000 0.000000
# 4 0.000000 0.000000 0.000000 0.029084 0.000000 0.000000
# 5 0.000000 0.000000 0.000000 0.000000 0.032785 0.000000
# 6 0.000000 0.000000 0.000000 0.000000 0.000000 0.023843
#
#
# Mechanical properties :
#
#
# Convention : Reuss Voigt Hill
#
# Bulk Modulus (GPa) = 62.17634 71.68226 66.92930
# Shear Modulus (GPa) = 27.70926 32.17375 29.94151
#
# Velocity S-wave (km/s) = 3.68165 3.96717 3.82708
# Velocity P-wave (km/s) = 6.96330 7.48662 7.22970
#
# Compressibility (1/GPa) = 0.01608329
#
# Stress axis : x y z
#
# Youngs Moduli (GPa) = 78.01095 56.31029 45.14715
#
# Poissons Ratio (x) = -0.02702 0.48405
# Poissons Ratio (y) = -0.03743 0.36480
# Poissons Ratio (z) = 0.83640 0.45500
#
# Static dielectric constant tensor:
#      x y z
#    x 4.092950 0.000000 0.000000 
#    y 0.000000 3.676950 0.000000 
#    z 0.000000 0.000000 3.575960 
# 
# 
# High freq. dielectric constant tensor:
#      x y z
#    x 1.816180 0.000000 0.000000 
#    y 0.000000 1.804810 0.000000 
#    z 0.000000 0.000000 1.791750 
# 
# From -- ./inp_files/7836.got.cif
#   From: 2010.03.12/outbox.cif.g09.slc.cpg/sg54_4_cif.got.tgz:7836.got - 2010.04.16 15:00:50.
