data_PCOD8223973
_publ_section_title
;
Structure prediction by ZEFSAII (Michael W. Deem and Ramdas Pophale) SiO2 
 PCOD8223973
Probable space group: P C C A
;
_chemical_formula_sum "Si O2"
_cell_formula_units_Z 44
_cell_length_a 13.764760
_cell_length_b 11.313176
_cell_length_c 12.869694
_cell_angle_alpha 90.000000
_cell_angle_beta 90.000000
_cell_angle_gamma 90.000000
_cell_volume 2004.109321
_symmetry_space_group_name_H-M "P C C A"
_symmetry_group_IT_number 54
_symmetry_cell_setting 'orthorhombic'
loop_
_space_group_symop_operation_xyz
x,y,z
1/2-x,-y,z
1/2+x,-y,1/2-z
-x,y,1/2-z
-x,-y,-z
1/2+x,y,-z
1/2-x,y,1/2+z
x,-y,1/2+z
loop_
_atom_site_type_symbol
_atom_site_label
_atom_site_fract_x
_atom_site_fract_y
_atom_site_fract_z
Si Si1 0.585983 0.662087 0.043336
Si Si2 0.308770 0.664118 0.915882
Si Si3 0.750000 0.500000 0.251145
Si Si4 0.349555 0.071442 0.465130
Si Si5 0.492610 0.896581 0.372264
Si Si6 0.913402 0.535528 0.900494
O O1 0.697342 0.634341 0.060502
O O2 0.560706 0.799398 0.054716
O O3 0.517607 0.593483 0.128313
O O4 0.569583 0.603795 0.928044
O O5 0.316306 0.599092 0.805155
O O6 0.326447 0.803664 0.911679
O O7 0.382465 0.604479 0.994645
O O8 0.669496 0.567410 0.319155
O O9 0.399966 0.083857 0.579135
O O10 0.250000 0.000000 0.480280
O O11 0.424692 0.011087 0.384931
O O12 0.500000 0.863524 0.250000
#
# Coordination Sequence:
#
# PCOD8223973 Si02
#       6
#     8   8   4   8   8   8
#     4  11  22  42  69  91 139 173 218 283 330 402
#     4  12  23  44  66 102 135 178 228 272 343 414
#     4  12  24  42  68 100 142 176 224 276 348 420
#     4  11  25  48  69  94 143 180 227 297 336 403
#     4  11  26  46  70 104 133 184 238 280 351 415
#     4  11  24  43  64 103 139 175 221 279 345 408
#
# _framework density 21.954889999999999
#
# number of rings (size 3 to 8) (size 9 to 14) (size 15 to 20)
#    0.000    0.727    7.273    0.000    2.545    0.727 
#    9.818    0.000    0.000    0.000    0.000    0.000 
#    0.000    0.000    0.000    0.000    0.000    0.000 
#
# Total GULP energy -545104.253561 kJ/mol
# GULP energy per Si atom -12388.733035 kJ/mol
# Density = 2.190492 g / cm^3
# Si number density = 21.954890 Si / 1000 Ang^3
#
#
#
# Elastic Constant Matrix: (Units=GPa)
#
#
# Indices 1 2 3 4 5 6 
#
# 1 108.5769 22.0587 15.1614 0.0000 0.0000 0.0000
# 2 22.0587 120.3838 37.7876 0.0000 0.0000 0.0000
# 3 15.1614 37.7876 71.8491 0.0000 0.0000 0.0000
# 4 0.0000 0.0000 0.0000 -254.7081 0.0000 0.0000
# 5 0.0000 0.0000 0.0000 0.0000 21.6089 0.0000
# 6 0.0000 0.0000 0.0000 0.0000 0.0000 47.2433
#
#
#
# Elastic Compliance Matrix: (Units=1/GPa)
#
#
# Indices 1 2 3 4 5 6 
#
# 1 0.009671 -0.001355 -0.001328 0.000000 0.000000 0.000000
# 2 -0.001355 0.010139 -0.005047 0.000000 0.000000 0.000000
# 3 -0.001328 -0.005047 0.016852 0.000000 0.000000 0.000000
# 4 0.000000 0.000000 0.000000 -0.003926 0.000000 0.000000
# 5 0.000000 0.000000 0.000000 0.000000 0.046277 0.000000
# 6 0.000000 0.000000 0.000000 0.000000 0.000000 0.021167
#
#
# Mechanical properties :
#
#
# Convention : Reuss Voigt Hill
#
# Bulk Modulus (GPa) = 47.16315 50.09169 48.62742
# Shear Modulus (GPa) = 40.74730 -22.11769 9.31481
#
# Velocity S-wave (km/s) = 4.31275 -3.17742 2.06202
# Velocity P-wave (km/s) = 6.80649 3.06658 5.27883
#
# Compressibility (1/GPa) = 0.02120300
#
# Stress axis : x y z
#
# Youngs Moduli (GPa) = 103.40379 98.62764 59.33879
#
# Poissons Ratio (x) = 0.13366 0.07880
# Poissons Ratio (y) = 0.14013 0.29945
# Poissons Ratio (z) = 0.13732 0.49772
#
# Static dielectric constant tensor:
#      x y z
#    x 4.297440 0.000000 0.000000 
#    y 0.000000 4.222080 0.000000 
#    z 0.000000 0.000000 3.856610 
# 
# 
# High freq. dielectric constant tensor:
#      x y z
#    x 1.895260 0.000000 0.000000 
#    y 0.000000 1.869420 0.000000 
#    z 0.000000 0.000000 1.828220 
# 
# From -- ./inp_files/13367.got.cif
#   From: 2010.03.12/outbox.cif.g09.slc.cpg/sg54_7_cif.got.tgz:13367.got - 2010.04.16 15:00:50.
