data_PCOD8223359
_publ_section_title
;
Structure prediction by ZEFSAII (Michael W. Deem and Ramdas Pophale) SiO2 
 PCOD8223359
Probable space group: P C C A
;
_chemical_formula_sum "Si O2"
_cell_formula_units_Z 40
_cell_length_a 5.099181
_cell_length_b 26.054067
_cell_length_c 12.816851
_cell_angle_alpha 90.000000
_cell_angle_beta 90.000000
_cell_angle_gamma 90.000000
_cell_volume 1702.775093
_symmetry_space_group_name_H-M "P C C A"
_symmetry_group_IT_number 54
_symmetry_cell_setting 'orthorhombic'
loop_
_space_group_symop_operation_xyz
x,y,z
1/2-x,-y,z
1/2+x,-y,1/2-z
-x,y,1/2-z
-x,-y,-z
1/2+x,y,-z
1/2-x,y,1/2+z
x,-y,1/2+z
loop_
_atom_site_type_symbol
_atom_site_label
_atom_site_fract_x
_atom_site_fract_y
_atom_site_fract_z
Si Si1 0.249294 0.557896 0.179321
Si Si2 0.146915 0.211155 0.929011
Si Si3 0.750000 0.000000 0.189627
Si Si4 0.723585 0.657969 0.933558
Si Si5 0.222586 0.902191 0.437626
Si Si6 0.500000 0.281663 0.250000
O O1 0.250000 0.500000 0.134351
O O2 0.500000 0.569316 0.250000
O O3 0.238646 0.596413 0.081293
O O4 0.000000 0.568115 0.250000
O O5 0.164030 0.152854 0.884583
O O6 0.175391 0.247024 0.827656
O O7 0.368752 0.222010 0.015248
O O8 0.636943 0.048757 0.128378
O O9 0.500000 0.978143 0.250000
O O10 0.696955 0.683359 0.818945
O O11 0.484186 0.675961 0.007042
O O12 0.531691 0.905368 0.461952
#
# Coordination Sequence:
#
# PCOD8223359 Si02
#       6
#     8   8   4   8   8   4
#     4  10  21  42  70  99 135 180 225 275 340 402
#     4  10  24  45  68  99 129 174 229 273 335 406
#     4  12  24  36  62 100 130 164 216 262 324 398
#     4  12  27  43  69 104 136 178 231 275 338 410
#     4  10  21  42  65  89 128 170 212 266 326 390
#     4  12  26  46  72  96 142 180 220 292 338 378
#
# _framework density 23.491067000000001
#
# number of rings (size 3 to 8) (size 9 to 14) (size 15 to 20)
#    0.000    1.200    1.000    4.200    1.400    3.200 
#    0.000    0.000    0.000    0.000    0.000    0.000 
#    0.000    0.000    0.000    0.000    0.000    0.000 
#
# Total GULP energy -496030.397356 kJ/mol
# GULP energy per Si atom -12400.759934 kJ/mol
# Density = 2.343760 g / cm^3
# Si number density = 23.491067 Si / 1000 Ang^3
#
#
#
# Elastic Constant Matrix: (Units=GPa)
#
#
# Indices 1 2 3 4 5 6 
#
# 1 136.8125 29.4563 27.2674 0.0000 0.0000 0.0000
# 2 29.4563 141.5952 69.1502 0.0000 0.0000 0.0000
# 3 27.2674 69.1502 95.6628 0.0000 0.0000 0.0000
# 4 0.0000 0.0000 0.0000 40.0748 0.0000 0.0000
# 5 0.0000 0.0000 0.0000 0.0000 20.4193 0.0000
# 6 0.0000 0.0000 0.0000 0.0000 0.0000 30.5828
#
#
#
# Elastic Compliance Matrix: (Units=1/GPa)
#
#
# Indices 1 2 3 4 5 6 
#
# 1 0.007812 -0.000831 -0.001626 0.000000 0.000000 0.000000
# 2 -0.000831 0.011004 -0.007718 0.000000 0.000000 0.000000
# 3 -0.001626 -0.007718 0.016496 0.000000 0.000000 0.000000
# 4 0.000000 0.000000 0.000000 0.024953 0.000000 0.000000
# 5 0.000000 0.000000 0.000000 0.000000 0.048973 0.000000
# 6 0.000000 0.000000 0.000000 0.000000 0.000000 0.032698
#
#
# Mechanical properties :
#
#
# Convention : Reuss Voigt Hill
#
# Bulk Modulus (GPa) = 66.83294 69.53536 68.18415
# Shear Modulus (GPa) = 29.89108 34.76180 32.32644
#
# Velocity S-wave (km/s) = 3.57100 3.85097 3.71363
# Velocity P-wave (km/s) = 6.74647 7.03124 6.89033
#
# Compressibility (1/GPa) = 0.01496268
#
# Stress axis : x y z
#
# Youngs Moduli (GPa) = 128.00348 90.87367 60.62245
#
# Poissons Ratio (x) = 0.07553 0.09857
# Poissons Ratio (y) = 0.10639 0.46786
# Poissons Ratio (z) = 0.20814 0.70133
#
# Static dielectric constant tensor:
#      x y z
#    x 3.018020 0.000000 0.000000 
#    y 0.000000 4.752800 0.000000 
#    z 0.000000 0.000000 3.875610 
# 
# 
# High freq. dielectric constant tensor:
#      x y z
#    x 1.938190 0.000000 0.000000 
#    y 0.000000 1.963290 0.000000 
#    z 0.000000 0.000000 1.899700 
# 
# From -- ./inp_files/6459.got.cif
#   From: 2010.03.12/outbox.cif.g09.slc.cpg/sg54_4_cif.got.tgz:6459.got - 2010.04.16 15:00:50.
