data_PCOD8223200
_publ_section_title
;
Structure prediction by ZEFSAII (Michael W. Deem and Ramdas Pophale) SiO2 
 PCOD8223200
Probable space group: P C C A
;
_chemical_formula_sum "Si O2"
_cell_formula_units_Z 40
_cell_length_a 11.524482
_cell_length_b 12.661536
_cell_length_c 13.129557
_cell_angle_alpha 90.000000
_cell_angle_beta 90.000000
_cell_angle_gamma 90.000000
_cell_volume 1915.834021
_symmetry_space_group_name_H-M "P C C A"
_symmetry_group_IT_number 54
_symmetry_cell_setting 'orthorhombic'
loop_
_space_group_symop_operation_xyz
x,y,z
1/2-x,-y,z
1/2+x,-y,1/2-z
-x,y,1/2-z
-x,-y,-z
1/2+x,y,-z
1/2-x,y,1/2+z
x,-y,1/2+z
loop_
_atom_site_type_symbol
_atom_site_label
_atom_site_fract_x
_atom_site_fract_y
_atom_site_fract_z
Si Si1 0.047252 0.242931 0.146078
Si Si2 0.212534 0.880632 0.505173
Si Si3 0.759876 0.618159 0.311260
Si Si4 0.598000 0.289428 0.470549
Si Si5 0.905666 0.777683 0.173537
O O1 0.132137 0.338199 0.172439
O O2 0.000000 0.190597 0.250000
O O3 0.104848 0.149184 0.079325
O O4 0.937728 0.299178 0.088700
O O5 0.323624 0.815025 0.541704
O O6 0.176717 0.860726 0.386377
O O7 0.250000 0.000000 0.519725
O O8 0.750000 0.500000 0.267745
O O9 0.827194 0.615285 0.421258
O O10 0.828788 0.693208 0.233819
O O11 0.476005 0.284671 0.412145
O O12 0.000000 0.832739 0.250000
#
# Coordination Sequence:
#
# PCOD8223200 Si02
#       5
#     8   8   8   8   8
#     4  10  21  38  58  85 121 156 201 251 293 351
#     4  10  21  40  62  86 120 159 199 244 298 356
#     4  10  21  38  61  88 117 157 201 242 296 358
#     4   9  20  39  57  82 121 155 192 245 296 349
#     4   9  19  38  59  85 121 154 193 244 293 351
#
# _framework density 20.878636
#
# number of rings (size 3 to 8) (size 9 to 14) (size 15 to 20)
#    0.000    2.400    0.000    1.200    0.000    6.400 
#    0.000   38.000    0.000    0.000    0.000    0.000 
#    0.000    0.000    0.000    0.000    0.000    0.000 
#
# Total GULP energy -495632.567926 kJ/mol
# GULP energy per Si atom -12390.814198 kJ/mol
# Density = 2.083112 g / cm^3
# Si number density = 20.878636 Si / 1000 Ang^3
#
#
#
# Elastic Constant Matrix: (Units=GPa)
#
#
# Indices 1 2 3 4 5 6 
#
# 1 91.0307 33.7204 46.2665 0.0000 0.0000 0.0000
# 2 33.7204 100.1762 37.4288 0.0000 0.0000 0.0000
# 3 46.2665 37.4288 136.5534 0.0000 0.0000 0.0000
# 4 0.0000 0.0000 0.0000 17.8369 0.0000 0.0000
# 5 0.0000 0.0000 0.0000 0.0000 50.5323 0.0000
# 6 0.0000 0.0000 0.0000 0.0000 0.0000 12.8481
#
#
#
# Elastic Compliance Matrix: (Units=1/GPa)
#
#
# Indices 1 2 3 4 5 6 
#
# 1 0.014198 -0.003322 -0.003900 0.000000 0.000000 0.000000
# 2 -0.003322 0.011899 -0.002136 0.000000 0.000000 0.000000
# 3 -0.003900 -0.002136 0.009230 0.000000 0.000000 0.000000
# 4 0.000000 0.000000 0.000000 0.056064 0.000000 0.000000
# 5 0.000000 0.000000 0.000000 0.000000 0.019789 0.000000
# 6 0.000000 0.000000 0.000000 0.000000 0.000000 0.077833
#
#
# Mechanical properties :
#
#
# Convention : Reuss Voigt Hill
#
# Bulk Modulus (GPa) = 60.20126 62.51021 61.35573
# Shear Modulus (GPa) = 23.44501 30.26641 26.85571
#
# Velocity S-wave (km/s) = 3.35463 3.81154 3.59036
# Velocity P-wave (km/s) = 6.62580 7.02675 6.82922
#
# Compressibility (1/GPa) = 0.01661095
#
# Stress axis : x y z
#
# Youngs Moduli (GPa) = 70.43217 84.04306 108.34318
#
# Poissons Ratio (x) = 0.27920 0.42253
# Poissons Ratio (y) = 0.23398 0.23140
# Poissons Ratio (z) = 0.27468 0.17950
#
# Static dielectric constant tensor:
#      x y z
#    x 4.115380 0.000000 0.000000 
#    y 0.000000 3.197610 0.000000 
#    z 0.000000 0.000000 4.248500 
# 
# 
# High freq. dielectric constant tensor:
#      x y z
#    x 1.842290 0.000000 0.000000 
#    y 0.000000 1.761330 0.000000 
#    z 0.000000 0.000000 1.833420 
# 
# From -- ./inp_files/12480.got.cif
#   From: 2010.03.12/outbox.cif.g09.slc.cpg/sg54_7_cif.got.tgz:12480.got - 2010.04.16 15:00:50.
