data_PCOD8223806
_publ_section_title
;
Structure prediction by ZEFSAII (Michael W. Deem and Ramdas Pophale) SiO2 
 PCOD8223806
Probable space group: P C C A
;
_chemical_formula_sum "Si O2"
_cell_formula_units_Z 28
_cell_length_a 8.340760
_cell_length_b 5.631699
_cell_length_c 25.209502
_cell_angle_alpha 90.000000
_cell_angle_beta 90.000000
_cell_angle_gamma 90.000000
_cell_volume 1184.157108
_symmetry_space_group_name_H-M "P C C A"
_symmetry_group_IT_number 54
_symmetry_cell_setting 'orthorhombic'
loop_
_space_group_symop_operation_xyz
x,y,z
1/2-x,-y,z
1/2+x,-y,1/2-z
-x,y,1/2-z
-x,-y,-z
1/2+x,y,-z
1/2-x,y,1/2+z
x,-y,1/2+z
loop_
_atom_site_type_symbol
_atom_site_label
_atom_site_fract_x
_atom_site_fract_y
_atom_site_fract_z
Si Si1 0.250000 0.500000 0.402598
Si Si2 0.750000 0.500000 0.801387
Si Si3 0.925712 0.900084 0.553481
Si Si4 0.009985 0.832699 0.348861
Si Si5 0.000000 0.160733 0.250000
O O1 0.107705 0.384271 0.439844
O O2 0.170684 0.689952 0.363319
O O3 0.636639 0.654866 0.839142
O O4 0.849152 0.674658 0.763599
O O5 0.750000 0.000000 0.558357
O O6 0.035702 0.994535 0.601913
O O7 0.000000 0.000000 0.500000
O O8 0.049325 0.992433 0.298271
#
# Coordination Sequence:
#
# PCOD8223806 Si02
#       5
#     4   4   8   8   4
#     4  10  24  46  70  98 138 181 226 287 342 400
#     4  12  28  44  68  98 140 181 224 289 344 404
#     4  10  24  43  68 100 136 179 230 281 338 408
#     4  11  26  45  69 101 136 180 231 280 341 409
#     4  12  28  46  68 102 136 180 230 280 342 412
#
# _framework density 23.645510999999999
#
# number of rings (size 3 to 8) (size 9 to 14) (size 15 to 20)
#    0.000    1.143    0.000    3.429    0.000   32.000 
#    0.000    0.000    0.000    0.000    0.000    0.000 
#    0.000    0.000    0.000    0.000    0.000    0.000 
#
# Total GULP energy -347048.066589 kJ/mol
# GULP energy per Si atom -12394.573807 kJ/mol
# Density = 2.359169 g / cm^3
# Si number density = 23.645511 Si / 1000 Ang^3
#
#
#
# Elastic Constant Matrix: (Units=GPa)
#
#
# Indices 1 2 3 4 5 6 
#
# 1 101.2905 63.1645 62.7585 0.0000 0.0000 0.0000
# 2 63.1645 175.2283 102.4524 0.0000 0.0000 0.0000
# 3 62.7585 102.4524 214.9030 0.0000 0.0000 0.0000
# 4 0.0000 0.0000 0.0000 25.3345 0.0000 0.0000
# 5 0.0000 0.0000 0.0000 0.0000 32.0939 0.0000
# 6 0.0000 0.0000 0.0000 0.0000 0.0000 27.6311
#
#
#
# Elastic Compliance Matrix: (Units=1/GPa)
#
#
# Indices 1 2 3 4 5 6 
#
# 1 0.013474 -0.003544 -0.002245 0.000000 0.000000 0.000000
# 2 -0.003544 0.008845 -0.003182 0.000000 0.000000 0.000000
# 3 -0.002245 -0.003182 0.006826 0.000000 0.000000 0.000000
# 4 0.000000 0.000000 0.000000 0.039472 0.000000 0.000000
# 5 0.000000 0.000000 0.000000 0.000000 0.031159 0.000000
# 6 0.000000 0.000000 0.000000 0.000000 0.000000 0.036191
#
#
# Mechanical properties :
#
#
# Convention : Reuss Voigt Hill
#
# Bulk Modulus (GPa) = 89.26709 105.35252 97.30981
# Shear Modulus (GPa) = 31.71753 34.54832 33.13292
#
# Velocity S-wave (km/s) = 3.66645 3.82657 3.74737
# Velocity P-wave (km/s) = 7.46713 8.01095 7.74381
#
# Compressibility (1/GPa) = 0.01120234
#
# Stress axis : x y z
#
# Youngs Moduli (GPa) = 74.21799 113.06333 146.50592
#
# Poissons Ratio (x) = 0.40072 0.32892
# Poissons Ratio (y) = 0.26305 0.46611
# Poissons Ratio (z) = 0.16663 0.35971
#
# Static dielectric constant tensor:
#      x y z
#    x 4.725900 0.000000 0.000000 
#    y 0.000000 11.131770 0.000000 
#    z 0.000000 0.000000 4.130230 
# 
# 
# High freq. dielectric constant tensor:
#      x y z
#    x 1.929150 0.000000 0.000000 
#    y 0.000000 1.962970 0.000000 
#    z 0.000000 0.000000 1.937630 
# 
# From -- ./inp_files/25618.got.cif
#   From: 2010.03.12/outbox.cif.g09.slc.cpg/sg54_13_cif.got.tgz:25618.got - 2010.04.16 15:00:50.
