data_PCOD8223131
_publ_section_title
;
Structure prediction by ZEFSAII (Michael W. Deem and Ramdas Pophale) SiO2 
 PCOD8223131
Probable space group: P C C A
;
_chemical_formula_sum "Si O2"
_cell_formula_units_Z 40
_cell_length_a 16.013850
_cell_length_b 22.362980
_cell_length_c 5.172880
_cell_angle_alpha 90.000000
_cell_angle_beta 90.000000
_cell_angle_gamma 90.000000
_cell_volume 1852.498374
_symmetry_space_group_name_H-M "P C C A"
_symmetry_group_IT_number 54
_symmetry_cell_setting 'orthorhombic'
loop_
_space_group_symop_operation_xyz
x,y,z
1/2-x,-y,z
1/2+x,-y,1/2-z
-x,y,1/2-z
-x,-y,-z
1/2+x,y,-z
1/2-x,y,1/2+z
x,-y,1/2+z
loop_
_atom_site_type_symbol
_atom_site_label
_atom_site_fract_x
_atom_site_fract_y
_atom_site_fract_z
Si Si1 0.598555 0.533027 0.734722
Si Si2 0.301510 0.355126 0.388381
Si Si3 0.303773 0.218371 0.373253
Si Si4 0.054212 0.125920 0.998030
Si Si5 0.286656 0.066296 0.612705
O O1 0.500000 0.529114 0.750000
O O2 0.635469 0.491113 0.505565
O O3 0.622126 0.601506 0.679475
O O4 0.271162 0.367507 0.679584
O O5 0.333213 0.287146 0.370664
O O6 0.238691 0.203276 0.600491
O O7 0.388472 0.181518 0.418874
O O8 0.113661 0.069082 0.072901
O O9 0.000000 0.142384 0.250000
O O10 0.000000 0.106835 0.750000
O O11 0.240636 0.100337 0.375346
O O12 0.250000 0.000000 0.653959
#
# Coordination Sequence:
#
# PCOD8223131 Si02
#       5
#     8   8   8   8   8
#     4  10  21  36  53  77 112 152 187 229 293 354
#     4  10  21  36  57  84 109 143 195 243 281 336
#     4  10  21  40  62  84 117 159 196 237 300 368
#     4  12  24  39  62  95 123 150 198 253 294 340
#     4  10  21  41  64  86 118 165 200 227 287 356
#
# _framework density 21.592462999999999
#
# number of rings (size 3 to 8) (size 9 to 14) (size 15 to 20)
#    0.000    1.600    0.000    4.800    0.000    3.200 
#    0.000   15.000    0.000    0.000    0.000    0.000 
#    0.000    0.000    0.000    0.000    0.000    0.000 
#
# Total GULP energy -495890.808275 kJ/mol
# GULP energy per Si atom -12397.270207 kJ/mol
# Density = 2.154332 g / cm^3
# Si number density = 21.592463 Si / 1000 Ang^3
#
#
#
# Elastic Constant Matrix: (Units=GPa)
#
#
# Indices 1 2 3 4 5 6 
#
# 1 93.9142 38.8795 46.8865 0.0000 0.0000 0.0000
# 2 38.8795 100.4066 34.5052 0.0000 0.0000 0.0000
# 3 46.8865 34.5052 167.3108 0.0000 0.0000 0.0000
# 4 0.0000 0.0000 0.0000 24.9860 0.0000 0.0000
# 5 0.0000 0.0000 0.0000 0.0000 40.7755 0.0000
# 6 0.0000 0.0000 0.0000 0.0000 0.0000 31.2241
#
#
#
# Elastic Compliance Matrix: (Units=1/GPa)
#
#
# Indices 1 2 3 4 5 6 
#
# 1 0.013961 -0.004371 -0.003011 0.000000 0.000000 0.000000
# 2 -0.004371 0.012088 -0.001268 0.000000 0.000000 0.000000
# 3 -0.003011 -0.001268 0.007082 0.000000 0.000000 0.000000
# 4 0.000000 0.000000 0.000000 0.040022 0.000000 0.000000
# 5 0.000000 0.000000 0.000000 0.000000 0.024525 0.000000
# 6 0.000000 0.000000 0.000000 0.000000 0.000000 0.032027
#
#
# Mechanical properties :
#
#
# Convention : Reuss Voigt Hill
#
# Bulk Modulus (GPa) = 63.16801 66.90823 65.03812
# Shear Modulus (GPa) = 32.83398 35.48782 34.16090
#
# Velocity S-wave (km/s) = 3.90375 4.05844 3.98185
# Velocity P-wave (km/s) = 7.04536 7.28117 7.16424
#
# Compressibility (1/GPa) = 0.01583080
#
# Stress axis : x y z
#
# Youngs Moduli (GPa) = 71.62912 82.72747 141.20035
#
# Poissons Ratio (x) = 0.36162 0.42513
# Poissons Ratio (y) = 0.31311 0.17904
# Poissons Ratio (z) = 0.21566 0.10490
#
# Static dielectric constant tensor:
#      x y z
#    x 3.672810 0.000000 0.000000 
#    y 0.000000 4.128650 0.000000 
#    z 0.000000 0.000000 4.959280 
# 
# 
# High freq. dielectric constant tensor:
#      x y z
#    x 1.823950 0.000000 0.000000 
#    y 0.000000 1.855020 0.000000 
#    z 0.000000 0.000000 1.884890 
# 
# From -- ./inp_files/524.got.cif
#   From: 2010.03.12/outbox.cif.g09.slc.cpg/sg54_1_cif.got.tgz:524.got - 2010.04.16 15:00:50.
