data_PCOD8223183
_publ_section_title
;
Structure prediction by ZEFSAII (Michael W. Deem and Ramdas Pophale) SiO2 
 PCOD8223183
Probable space group: P C C A
;
_chemical_formula_sum "Si O2"
_cell_formula_units_Z 24
_cell_length_a 7.859231
_cell_length_b 4.984919
_cell_length_c 27.005180
_cell_angle_alpha 90.000000
_cell_angle_beta 90.000000
_cell_angle_gamma 90.000000
_cell_volume 1057.998948
_symmetry_space_group_name_H-M "P C C A"
_symmetry_group_IT_number 54
_symmetry_cell_setting 'orthorhombic'
loop_
_space_group_symop_operation_xyz
x,y,z
1/2-x,-y,z
1/2+x,-y,1/2-z
-x,y,1/2-z
-x,-y,-z
1/2+x,y,-z
1/2-x,y,1/2+z
x,-y,1/2+z
loop_
_atom_site_type_symbol
_atom_site_label
_atom_site_fract_x
_atom_site_fract_y
_atom_site_fract_z
Si Si1 0.547518 0.498089 0.617128
Si Si2 0.051254 0.989538 0.443511
Si Si3 0.859738 0.737517 0.288635
O O1 0.750000 0.500000 0.627932
O O2 0.480928 0.217472 0.594101
O O3 0.447362 0.581718 0.665986
O O4 0.488285 0.705010 0.575368
O O5 0.250000 0.000000 0.439999
O O6 0.000000 0.000000 0.500000
O O7 0.750000 0.500000 0.262838
O O8 0.000000 0.843234 0.250000
O O9 0.750000 0.000000 0.304203
#
# Coordination Sequence:
#
# PCOD8223183 Si02
#       3
#     8   8   8
#     4  10  22  41  63  90 127 168 213 266 322 381
#     4  10  21  37  60  90 125 166 210 263 321 378
#     4  12  26  44  68  98 130 172 219 273 332 395
#
# _framework density 22.684332000000001
#
# number of rings (size 3 to 8) (size 9 to 14) (size 15 to 20)
#    0.000    1.333    0.000    5.000    0.000    8.000 
#    0.000    0.000    0.000    0.000    0.000    0.000 
#    0.000    0.000    0.000    0.000    0.000    0.000 
#
# Total GULP energy -297413.772384 kJ/mol
# GULP energy per Si atom -12392.240516 kJ/mol
# Density = 2.263270 g / cm^3
# Si number density = 22.684332 Si / 1000 Ang^3
#
#
#
# Elastic Constant Matrix: (Units=GPa)
#
#
# Indices 1 2 3 4 5 6 
#
# 1 66.5338 56.0797 49.1375 0.0000 0.0000 0.0000
# 2 56.0797 146.9245 36.4543 0.0000 0.0000 0.0000
# 3 49.1375 36.4543 130.5303 0.0000 0.0000 0.0000
# 4 0.0000 0.0000 0.0000 25.7609 0.0000 0.0000
# 5 0.0000 0.0000 0.0000 0.0000 29.1130 0.0000
# 6 0.0000 0.0000 0.0000 0.0000 0.0000 28.4633
#
#
#
# Elastic Compliance Matrix: (Units=1/GPa)
#
#
# Indices 1 2 3 4 5 6 
#
# 1 0.028640 -0.008871 -0.008304 0.000000 0.000000 0.000000
# 2 -0.008871 0.010061 0.000530 0.000000 0.000000 0.000000
# 3 -0.008304 0.000530 0.010639 0.000000 0.000000 0.000000
# 4 0.000000 0.000000 0.000000 0.038819 0.000000 0.000000
# 5 0.000000 0.000000 0.000000 0.000000 0.034349 0.000000
# 6 0.000000 0.000000 0.000000 0.000000 0.000000 0.035133
#
#
# Mechanical properties :
#
#
# Convention : Reuss Voigt Hill
#
# Bulk Modulus (GPa) = 62.30844 69.70353 66.00599
# Shear Modulus (GPa) = 25.47370 30.15524 27.81447
#
# Velocity S-wave (km/s) = 3.35470 3.64997 3.50545
# Velocity P-wave (km/s) = 6.52170 6.96831 6.74870
#
# Compressibility (1/GPa) = 0.01604919
#
# Stress axis : x y z
#
# Youngs Moduli (GPa) = 34.91616 99.39493 93.99342
#
# Poissons Ratio (x) = 0.88176 0.78051
# Poissons Ratio (y) = 0.30975 -0.04980
# Poissons Ratio (z) = 0.28994 -0.05266
#
# Static dielectric constant tensor:
#      x y z
#    x 4.367970 0.000000 0.000000 
#    y 0.000000 0.047730 0.000000 
#    z 0.000000 0.000000 3.771970 
# 
# 
# High freq. dielectric constant tensor:
#      x y z
#    x 1.894810 0.000000 0.000000 
#    y 0.000000 1.915820 0.000000 
#    z 0.000000 0.000000 1.896990 
# 
# From -- ./inp_files/23081.got.cif
#   From: 2010.03.12/outbox.cif.g09.slc.cpg/sg54_12_cif.got.tgz:23081.got - 2010.04.16 15:00:50.
