data_PCOD8223330
_publ_section_title
;
Structure prediction by ZEFSAII (Michael W. Deem and Ramdas Pophale) SiO2 
 PCOD8223330
Probable space group: P C C A
;
_chemical_formula_sum "Si O2"
_cell_formula_units_Z 32
_cell_length_a 5.106600
_cell_length_b 20.525984
_cell_length_c 14.471531
_cell_angle_alpha 90.000000
_cell_angle_beta 90.000000
_cell_angle_gamma 90.000000
_cell_volume 1516.876790
_symmetry_space_group_name_H-M "P C C A"
_symmetry_group_IT_number 54
_symmetry_cell_setting 'orthorhombic'
loop_
_space_group_symop_operation_xyz
x,y,z
1/2-x,-y,z
1/2+x,-y,1/2-z
-x,y,1/2-z
-x,-y,-z
1/2+x,y,-z
1/2-x,y,1/2+z
x,-y,1/2+z
loop_
_atom_site_type_symbol
_atom_site_label
_atom_site_fract_x
_atom_site_fract_y
_atom_site_fract_z
Si Si1 0.088064 0.882166 0.560324
Si Si2 0.413135 0.730037 0.056731
Si Si3 0.758635 0.378755 0.308636
Si Si4 0.750000 0.500000 0.938023
Si Si5 0.000000 0.042725 0.250000
O O1 0.348544 0.903347 0.505476
O O2 0.098897 0.805712 0.581682
O O3 0.073500 0.915002 0.660351
O O4 0.346117 0.689681 0.147576
O O5 0.703184 0.711571 0.022507
O O6 0.500000 0.365423 0.250000
O O7 0.707723 0.434664 0.381394
O O8 0.000000 0.405691 0.250000
O O9 0.500000 0.500000 0.000000
O O10 0.250000 0.000000 0.277075
#
# Coordination Sequence:
#
# PCOD8223330 Si02
#       5
#     8   8   8   4   4
#     4  10  23  43  66  94 131 171 214 270 318 383
#     4  10  21  41  63  89 123 164 210 251 314 380
#     4  12  24  39  61  95 125 160 206 266 316 372
#     4  12  24  42  64  84 124 172 210 256 312 380
#     4  12  26  42  66 100 130 172 220 264 326 400
#
# _framework density 21.095977000000001
#
# number of rings (size 3 to 8) (size 9 to 14) (size 15 to 20)
#    0.000    1.000    0.000    6.750    1.750    3.000 
#    2.250    0.000    0.000    0.000    0.000    0.000 
#    0.000    0.000    0.000    0.000    0.000    0.000 
#
# Total GULP energy -396903.207382 kJ/mol
# GULP energy per Si atom -12403.225231 kJ/mol
# Density = 2.104796 g / cm^3
# Si number density = 21.095977 Si / 1000 Ang^3
#
#
#
# Elastic Constant Matrix: (Units=GPa)
#
#
# Indices 1 2 3 4 5 6 
#
# 1 159.7621 45.7507 63.6434 0.0000 0.0000 0.0000
# 2 45.7507 89.0766 69.0304 0.0000 0.0000 0.0000
# 3 63.6434 69.0304 147.8190 0.0000 0.0000 0.0000
# 4 0.0000 0.0000 0.0000 -92.0324 0.0000 0.0000
# 5 0.0000 0.0000 0.0000 0.0000 21.7341 0.0000
# 6 0.0000 0.0000 0.0000 0.0000 0.0000 32.5427
#
#
#
# Elastic Compliance Matrix: (Units=1/GPa)
#
#
# Indices 1 2 3 4 5 6 
#
# 1 0.007822 -0.002206 -0.002338 0.000000 0.000000 0.000000
# 2 -0.002206 0.018215 -0.007557 0.000000 0.000000 0.000000
# 3 -0.002338 -0.007557 0.011300 0.000000 0.000000 0.000000
# 4 0.000000 0.000000 0.000000 -0.010866 0.000000 0.000000
# 5 0.000000 0.000000 0.000000 0.000000 0.046011 0.000000
# 6 0.000000 0.000000 0.000000 0.000000 0.000000 0.030729
#
#
# Mechanical properties :
#
#
# Convention : Reuss Voigt Hill
#
# Bulk Modulus (GPa) = 76.11860 83.72296 79.92078
# Shear Modulus (GPa) = 37.93864 6.99777 22.46820
#
# Velocity S-wave (km/s) = 4.24533 1.82327 3.26705
# Velocity P-wave (km/s) = 7.75828 6.64870 7.22482
#
# Compressibility (1/GPa) = 0.01313739
#
# Stress axis : x y z
#
# Youngs Moduli (GPa) = 127.83986 54.89859 88.49216
#
# Poissons Ratio (x) = 0.12111 0.20687
# Poissons Ratio (y) = 0.28201 0.66871
# Poissons Ratio (z) = 0.29885 0.41485
#
# Static dielectric constant tensor:
#      x y z
#    x 4.137820 0.000000 0.000000 
#    y 0.000000 3.992250 0.000000 
#    z 0.000000 0.000000 3.814130 
# 
# 
# High freq. dielectric constant tensor:
#      x y z
#    x 1.852850 0.000000 0.000000 
#    y 0.000000 1.835770 0.000000 
#    z 0.000000 0.000000 1.833100 
# 
# From -- ./inp_files/6276.got.cif
#   From: 2010.03.12/outbox.cif.g09.slc.cpg/sg54_4_cif.got.tgz:6276.got - 2010.04.16 15:00:50.
