data_PCOD8223925
_publ_section_title
;
Structure prediction by ZEFSAII (Michael W. Deem and Ramdas Pophale) SiO2 
 PCOD8223925
Probable space group: P C C A
;
_chemical_formula_sum "Si O2"
_cell_formula_units_Z 40
_cell_length_a 14.701494
_cell_length_b 13.274801
_cell_length_c 9.047681
_cell_angle_alpha 90.000000
_cell_angle_beta 90.000000
_cell_angle_gamma 90.000000
_cell_volume 1765.740061
_symmetry_space_group_name_H-M "P C C A"
_symmetry_group_IT_number 54
_symmetry_cell_setting 'orthorhombic'
loop_
_space_group_symop_operation_xyz
x,y,z
1/2-x,-y,z
1/2+x,-y,1/2-z
-x,y,1/2-z
-x,-y,-z
1/2+x,y,-z
1/2-x,y,1/2+z
x,-y,1/2+z
loop_
_atom_site_type_symbol
_atom_site_label
_atom_site_fract_x
_atom_site_fract_y
_atom_site_fract_z
Si Si1 0.651752 0.203734 0.508206
Si Si2 0.786165 0.888474 0.805357
Si Si3 0.167327 0.432800 0.407308
Si Si4 0.541710 0.784073 0.411502
Si Si5 0.075310 0.563904 0.624501
O O1 0.691248 0.129676 0.634518
O O2 0.702682 0.182747 0.354759
O O3 0.674823 0.316503 0.554139
O O4 0.543215 0.182738 0.484663
O O5 0.875348 0.864366 0.908416
O O6 0.750000 0.000000 0.831722
O O7 0.250000 0.500000 0.467415
O O8 0.078636 0.476626 0.497850
O O9 0.164424 0.442635 0.229957
O O10 0.500000 0.770978 0.250000
O O11 0.574978 0.672561 0.457830
O O12 0.000000 0.548259 0.750000
#
# Coordination Sequence:
#
# PCOD8223925 Si02
#       5
#     8   8   8   8   8
#     4  11  24  44  66  93 134 171 211 276 332 385
#     4  11  23  43  69  95 121 165 224 272 330 399
#     4  12  24  37  63  96 130 172 216 262 316 384
#     4   9  19  42  65  87 133 178 200 263 343 378
#     4  11  21  40  62  91 130 178 212 251 318 394
#
# _framework density 22.653393000000001
#
# number of rings (size 3 to 8) (size 9 to 14) (size 15 to 20)
#    0.000    1.200    6.000    3.000    2.800    0.800 
#    0.000    3.000    0.000    0.000    0.000    0.000 
#    0.000    0.000    0.000    0.000    0.000    0.000 
#
# Total GULP energy -495726.317115 kJ/mol
# GULP energy per Si atom -12393.157928 kJ/mol
# Density = 2.260183 g / cm^3
# Si number density = 22.653393 Si / 1000 Ang^3
#
#
#
# Elastic Constant Matrix: (Units=GPa)
#
#
# Indices 1 2 3 4 5 6 
#
# 1 113.1758 46.8913 14.4856 0.0000 0.0000 0.0000
# 2 46.8913 124.7154 28.0715 0.0000 0.0000 0.0000
# 3 14.4856 28.0715 59.7754 0.0000 0.0000 0.0000
# 4 0.0000 0.0000 0.0000 13.0344 0.0000 0.0000
# 5 0.0000 0.0000 0.0000 0.0000 22.7831 0.0000
# 6 0.0000 0.0000 0.0000 0.0000 0.0000 35.8258
#
#
#
# Elastic Compliance Matrix: (Units=1/GPa)
#
#
# Indices 1 2 3 4 5 6 
#
# 1 0.010498 -0.003773 -0.000772 0.000000 0.000000 0.000000
# 2 -0.003773 0.010322 -0.003933 0.000000 0.000000 0.000000
# 3 -0.000772 -0.003933 0.018763 0.000000 0.000000 0.000000
# 4 0.000000 0.000000 0.000000 0.076720 0.000000 0.000000
# 5 0.000000 0.000000 0.000000 0.000000 0.043892 0.000000
# 6 0.000000 0.000000 0.000000 0.000000 0.000000 0.027913
#
#
# Mechanical properties :
#
#
# Convention : Reuss Voigt Hill
#
# Bulk Modulus (GPa) = 44.19535 52.95149 48.57342
# Shear Modulus (GPa) = 23.51748 28.20987 25.86367
#
# Velocity S-wave (km/s) = 3.22552 3.53268 3.38259
# Velocity P-wave (km/s) = 5.78132 6.32971 6.06172
#
# Compressibility (1/GPa) = 0.02262682
#
# Stress axis : x y z
#
# Youngs Moduli (GPa) = 95.25626 96.87801 53.29516
#
# Poissons Ratio (x) = 0.36555 0.04114
# Poissons Ratio (y) = 0.35943 0.20962
# Poissons Ratio (z) = 0.07354 0.38103
#
# Static dielectric constant tensor:
#      x y z
#    x 4.960730 0.000000 0.000000 
#    y 0.000000 3.823090 0.000000 
#    z 0.000000 0.000000 4.187690 
# 
# 
# High freq. dielectric constant tensor:
#      x y z
#    x 1.916280 0.000000 0.000000 
#    y 0.000000 1.881340 0.000000 
#    z 0.000000 0.000000 1.871090 
# 
# From -- ./inp_files/8194.got.cif
#   From: 2010.03.12/outbox.cif.g09.slc.cpg/sg54_5_cif.got.tgz:8194.got - 2010.04.16 15:00:50.
