data_PCOD8223350
_publ_section_title
;
Structure prediction by ZEFSAII (Michael W. Deem and Ramdas Pophale) SiO2 
 PCOD8223350
Probable space group: P C C A
;
_chemical_formula_sum "Si O2"
_cell_formula_units_Z 48
_cell_length_a 27.049747
_cell_length_b 8.671152
_cell_length_c 10.512856
_cell_angle_alpha 90.000000
_cell_angle_beta 90.000000
_cell_angle_gamma 90.000000
_cell_volume 2465.816318
_symmetry_space_group_name_H-M "P C C A"
_symmetry_group_IT_number 54
_symmetry_cell_setting 'orthorhombic'
loop_
_space_group_symop_operation_xyz
x,y,z
1/2-x,-y,z
1/2+x,-y,1/2-z
-x,y,1/2-z
-x,-y,-z
1/2+x,y,-z
1/2-x,y,1/2+z
x,-y,1/2+z
loop_
_atom_site_type_symbol
_atom_site_label
_atom_site_fract_x
_atom_site_fract_y
_atom_site_fract_z
Si Si1 0.400236 0.097575 0.211680
Si Si2 0.837877 0.177097 0.246450
Si Si3 0.500000 0.231367 0.250000
Si Si4 0.750000 0.000000 0.359027
Si Si5 0.087175 0.617484 0.355249
Si Si6 0.176730 0.232642 0.534602
Si Si7 0.866105 0.465942 0.381735
O O1 0.458832 0.121658 0.181729
O O2 0.384179 0.220608 0.322789
O O3 0.388463 0.923730 0.256055
O O4 0.369607 0.132031 0.083583
O O5 0.792923 0.060962 0.268391
O O6 0.830067 0.263047 0.114111
O O7 0.839088 0.303913 0.357892
O O8 0.471715 0.342009 0.351976
O O9 0.728078 0.141452 0.442249
O O10 0.098901 0.499820 0.239287
O O11 0.101173 0.546235 0.490427
O O12 0.175548 0.401400 0.600765
#
# Coordination Sequence:
#
# PCOD8223350 Si02
#       7
#     8   8   4   4   8   8   8
#     4   8  20  37  62  85 124 161 205 258 299 365
#     4  11  22  40  65  90 120 164 205 253 321 367
#     4   8  18  38  60  90 128 160 212 258 304 366
#     4  10  24  40  64  92 116 158 204 258 304 382
#     4   9  20  38  60  88 128 162 207 252 307 362
#     4  10  21  42  60  89 123 158 204 251 312 376
#     4  11  21  39  63  90 122 169 195 258 314 366
#
# _framework density 19.466172
#
# number of rings (size 3 to 8) (size 9 to 14) (size 15 to 20)
#    1.000    1.333    1.667    0.500    4.667    1.333 
#    3.000    5.833    0.000    0.000    0.000    0.000 
#    0.000    0.000    0.000    0.000    0.000    0.000 
#
# Total GULP energy -594695.866385 kJ/mol
# GULP energy per Si atom -12389.497216 kJ/mol
# Density = 1.942187 g / cm^3
# Si number density = 19.466172 Si / 1000 Ang^3
#
#
#
# Elastic Constant Matrix: (Units=GPa)
#
#
# Indices 1 2 3 4 5 6 
#
# 1 102.5332 38.6326 28.6203 0.0000 0.0000 0.0000
# 2 38.6326 111.8669 28.3449 0.0000 0.0000 0.0000
# 3 28.6203 28.3449 106.7992 0.0000 0.0000 0.0000
# 4 0.0000 0.0000 0.0000 24.7631 0.0000 0.0000
# 5 0.0000 0.0000 0.0000 0.0000 16.9634 0.0000
# 6 0.0000 0.0000 0.0000 0.0000 0.0000 22.6769
#
#
#
# Elastic Compliance Matrix: (Units=1/GPa)
#
#
# Indices 1 2 3 4 5 6 
#
# 1 0.011678 -0.003474 -0.002208 0.000000 0.000000 0.000000
# 2 -0.003474 0.010617 -0.001887 0.000000 0.000000 0.000000
# 3 -0.002208 -0.001887 0.010456 0.000000 0.000000 0.000000
# 4 0.000000 0.000000 0.000000 0.040383 0.000000 0.000000
# 5 0.000000 0.000000 0.000000 0.000000 0.058951 0.000000
# 6 0.000000 0.000000 0.000000 0.000000 0.000000 0.044098
#
#
# Mechanical properties :
#
#
# Convention : Reuss Voigt Hill
#
# Bulk Modulus (GPa) = 56.77153 56.93278 56.85215
# Shear Modulus (GPa) = 25.35637 27.92077 26.63857
#
# Velocity S-wave (km/s) = 3.61305 3.79135 3.70328
# Velocity P-wave (km/s) = 6.82884 6.96250 6.89599
#
# Compressibility (1/GPa) = 0.01761446
#
# Stress axis : x y z
#
# Youngs Moduli (GPa) = 85.63178 94.18975 95.64110
#
# Poissons Ratio (x) = 0.32717 0.21114
# Poissons Ratio (y) = 0.29745 0.18047
# Poissons Ratio (z) = 0.18904 0.17773
#
# Static dielectric constant tensor:
#      x y z
#    x 3.387560 0.000000 0.000000 
#    y 0.000000 3.627700 0.000000 
#    z 0.000000 0.000000 3.292080 
# 
# 
# High freq. dielectric constant tensor:
#      x y z
#    x 1.736770 0.000000 0.000000 
#    y 0.000000 1.763140 0.000000 
#    z 0.000000 0.000000 1.743410 
# 
# From -- ./inp_files/10481.got.cif
#   From: 2010.03.12/outbox.cif.g09.slc.cpg/sg54_6_cif.got.tgz:10481.got - 2010.04.16 15:00:50.
