data_PCOD8223607
_publ_section_title
;
Structure prediction by ZEFSAII (Michael W. Deem and Ramdas Pophale) SiO2 
 PCOD8223607
Probable space group: P C C A
;
_chemical_formula_sum "Si O2"
_cell_formula_units_Z 48
_cell_length_a 15.187464
_cell_length_b 11.002343
_cell_length_c 12.174377
_cell_angle_alpha 90.000000
_cell_angle_beta 90.000000
_cell_angle_gamma 90.000000
_cell_volume 2034.310252
_symmetry_space_group_name_H-M "P C C A"
_symmetry_group_IT_number 54
_symmetry_cell_setting 'orthorhombic'
loop_
_space_group_symop_operation_xyz
x,y,z
1/2-x,-y,z
1/2+x,-y,1/2-z
-x,y,1/2-z
-x,-y,-z
1/2+x,y,-z
1/2-x,y,1/2+z
x,-y,1/2+z
loop_
_atom_site_type_symbol
_atom_site_label
_atom_site_fract_x
_atom_site_fract_y
_atom_site_fract_z
Si Si1 0.365279 0.133862 0.661011
Si Si2 0.307906 0.673771 0.546682
Si Si3 0.750000 0.500000 0.779485
Si Si4 0.095719 0.493011 0.391795
Si Si5 0.500000 0.680980 0.250000
Si Si6 0.138575 0.752036 0.432311
Si Si7 0.657105 0.867800 0.800256
O O1 0.415798 0.230625 0.737471
O O2 0.388787 0.163965 0.534492
O O3 0.262601 0.132077 0.689287
O O4 0.393895 0.994681 0.681983
O O5 0.249146 0.621589 0.646872
O O6 0.367594 0.565967 0.502398
O O7 0.241664 0.716242 0.450023
O O8 0.370836 0.778738 0.598598
O O9 0.836908 0.505915 0.708190
O O10 0.075382 0.632822 0.423157
O O11 0.013155 0.410223 0.353935
O O12 0.128064 0.824545 0.319649
#
# Coordination Sequence:
#
# PCOD8223607 Si02
#       7
#     8   8   4   8   4   8   8
#     4  10  25  43  64  97 136 183 225 282 341 412
#     4  11  19  35  68 102 135 168 228 290 336 385
#     4  12  18  38  68 108 132 172 230 280 336 408
#     4  12  23  38  66 100 138 181 218 284 350 417
#     4  12  28  46  64 100 152 178 216 284 368 410
#     4  11  20  39  67  99 129 172 233 281 335 408
#     4  10  22  42  72  97 127 177 245 285 320 407
#
# _framework density 23.595222
#
# number of rings (size 3 to 8) (size 9 to 14) (size 15 to 20)
#    0.000    1.000    5.000    3.000    0.000    7.333 
#    0.000    4.167    0.000    0.000    0.000    0.000 
#    0.000    0.000    0.000    0.000    0.000    0.000 
#
# Total GULP energy -594939.835867 kJ/mol
# GULP energy per Si atom -12394.579914 kJ/mol
# Density = 2.354152 g / cm^3
# Si number density = 23.595222 Si / 1000 Ang^3
#
#
#
# Elastic Constant Matrix: (Units=GPa)
#
#
# Indices 1 2 3 4 5 6 
#
# 1 37.1612 25.2718 17.3437 0.0000 0.0000 0.0000
# 2 25.2718 202.2542 78.8020 0.0000 0.0000 0.0000
# 3 17.3437 78.8020 111.5147 0.0000 0.0000 0.0000
# 4 0.0000 0.0000 0.0000 50.5217 0.0000 0.0000
# 5 0.0000 0.0000 0.0000 0.0000 20.2292 0.0000
# 6 0.0000 0.0000 0.0000 0.0000 0.0000 30.0121
#
#
#
# Elastic Compliance Matrix: (Units=1/GPa)
#
#
# Indices 1 2 3 4 5 6 
#
# 1 0.030023 -0.002666 -0.002785 0.000000 0.000000 0.000000
# 2 -0.002666 0.007060 -0.004574 0.000000 0.000000 0.000000
# 3 -0.002785 -0.004574 0.012633 0.000000 0.000000 0.000000
# 4 0.000000 0.000000 0.000000 0.019793 0.000000 0.000000
# 5 0.000000 0.000000 0.000000 0.000000 0.049434 0.000000
# 6 0.000000 0.000000 0.000000 0.000000 0.000000 0.033320
#
#
# Mechanical properties :
#
#
# Convention : Reuss Voigt Hill
#
# Bulk Modulus (GPa) = 33.71053 65.97389 49.84221
# Shear Modulus (GPa) = 27.44219 35.45344 31.44782
#
# Velocity S-wave (km/s) = 3.41404 3.88050 3.65472
# Velocity P-wave (km/s) = 5.46433 6.93535 6.24332
#
# Compressibility (1/GPa) = 0.02966432
#
# Stress axis : x y z
#
# Youngs Moduli (GPa) = 33.30786 141.65298 79.15898
#
# Poissons Ratio (x) = 0.37767 0.22049
# Poissons Ratio (y) = 0.08880 0.36207
# Poissons Ratio (z) = 0.09277 0.64791
#
# Static dielectric constant tensor:
#      x y z
#    x 3.831340 0.000000 0.000000 
#    y 0.000000 5.391840 0.000000 
#    z 0.000000 0.000000 4.249610 
# 
# 
# High freq. dielectric constant tensor:
#      x y z
#    x 1.890130 0.000000 0.000000 
#    y 0.000000 1.954270 0.000000 
#    z 0.000000 0.000000 1.944470 
# 
# From -- ./inp_files/8987.got.cif
#   From: 2010.03.12/outbox.cif.g09.slc.cpg/sg54_5_cif.got.tgz:8987.got - 2010.04.16 15:00:50.
