data_PCOD8223844
_publ_section_title
;
Structure prediction by ZEFSAII (Michael W. Deem and Ramdas Pophale) SiO2 
 PCOD8223844
Probable space group: P C C A
;
_chemical_formula_sum "Si O2"
_cell_formula_units_Z 40
_cell_length_a 14.977467
_cell_length_b 12.540315
_cell_length_c 8.553707
_cell_angle_alpha 90.000000
_cell_angle_beta 90.000000
_cell_angle_gamma 90.000000
_cell_volume 1606.575674
_symmetry_space_group_name_H-M "P C C A"
_symmetry_group_IT_number 54
_symmetry_cell_setting 'orthorhombic'
loop_
_space_group_symop_operation_xyz
x,y,z
1/2-x,-y,z
1/2+x,-y,1/2-z
-x,y,1/2-z
-x,-y,-z
1/2+x,y,-z
1/2-x,y,1/2+z
x,-y,1/2+z
loop_
_atom_site_type_symbol
_atom_site_label
_atom_site_fract_x
_atom_site_fract_y
_atom_site_fract_z
Si Si1 0.517053 0.749884 0.021689
Si Si2 0.344943 0.397076 0.117240
Si Si3 0.130125 0.088729 0.326346
Si Si4 0.750000 0.000000 0.923555
Si Si5 0.500000 0.908200 0.750000
Si Si6 0.161108 0.367888 0.989563
O O1 0.565892 0.643251 0.966974
O O2 0.536162 0.836114 0.888439
O O3 0.565303 0.806351 0.171982
O O4 0.413151 0.717923 0.048034
O O5 0.261370 0.333203 0.039079
O O6 0.348711 0.522133 0.083403
O O7 0.346140 0.380302 0.303316
O O8 0.192073 0.083066 0.477733
O O9 0.191360 0.085342 0.173161
O O10 0.075573 0.979255 0.327467
#
# Coordination Sequence:
#
# PCOD8223844 Si02
#       6
#     8   8   8   4   4   8
#     4  12  25  45  76 104 148 193 245 301 374 443
#     4  11  24  47  73 106 146 186 241 304 370 450
#     4  11  25  47  70 102 144 194 247 311 362 437
#     4  10  24  46  72  98 142 198 254 306 368 426
#     4  12  24  50  64 104 150 192 246 312 364 436
#     4  11  24  48  73 107 147 186 238 309 372 445
#
# _framework density 24.897675
#
# number of rings (size 3 to 8) (size 9 to 14) (size 15 to 20)
#    0.000    0.800    4.000    3.600    0.000    4.800 
#    7.200    0.000    0.000    0.000    0.000    0.000 
#    0.000    0.000    0.000    0.000    0.000    0.000 
#
# Total GULP energy -495820.157281 kJ/mol
# GULP energy per Si atom -12395.503932 kJ/mol
# Density = 2.484101 g / cm^3
# Si number density = 24.897675 Si / 1000 Ang^3
#
#
#
# Elastic Constant Matrix: (Units=GPa)
#
#
# Indices 1 2 3 4 5 6 
#
# 1 126.7900 32.4544 39.0825 0.0000 0.0000 0.0000
# 2 32.4544 70.5282 19.2356 0.0000 0.0000 0.0000
# 3 39.0825 19.2356 101.7498 0.0000 0.0000 0.0000
# 4 0.0000 0.0000 0.0000 42.6090 0.0000 0.0000
# 5 0.0000 0.0000 0.0000 0.0000 50.4301 0.0000
# 6 0.0000 0.0000 0.0000 0.0000 0.0000 64.6216
#
#
#
# Elastic Compliance Matrix: (Units=1/GPa)
#
#
# Indices 1 2 3 4 5 6 
#
# 1 0.009767 -0.003660 -0.003060 0.000000 0.000000 0.000000
# 2 -0.003660 0.016321 -0.001680 0.000000 0.000000 0.000000
# 3 -0.003060 -0.001680 0.011321 0.000000 0.000000 0.000000
# 4 0.000000 0.000000 0.000000 0.023469 0.000000 0.000000
# 5 0.000000 0.000000 0.000000 0.000000 0.019829 0.000000
# 6 0.000000 0.000000 0.000000 0.000000 0.000000 0.015475
#
#
# Mechanical properties :
#
#
# Convention : Reuss Voigt Hill
#
# Bulk Modulus (GPa) = 48.51938 53.40143 50.96041
# Shear Modulus (GPa) = 41.71857 45.41851 43.56854
#
# Velocity S-wave (km/s) = 4.09785 4.27571 4.18772
# Velocity P-wave (km/s) = 6.47454 6.77278 6.62534
#
# Compressibility (1/GPa) = 0.02061032
#
# Stress axis : x y z
#
# Youngs Moduli (GPa) = 102.38545 61.27085 88.33304
#
# Poissons Ratio (x) = 0.22425 0.27027
# Poissons Ratio (y) = 0.37472 0.14837
# Poissons Ratio (z) = 0.31326 0.10291
#
# Static dielectric constant tensor:
#      x y z
#    x 5.079260 0.000000 0.000000 
#    y 0.000000 4.241500 0.000000 
#    z 0.000000 0.000000 4.788780 
# 
# 
# High freq. dielectric constant tensor:
#      x y z
#    x 2.012870 0.000000 0.000000 
#    y 0.000000 1.979480 0.000000 
#    z 0.000000 0.000000 2.004660 
# 
# From -- ./inp_files/3998.got.cif
#   From: 2010.03.12/outbox.cif.g09.slc.cpg/sg54_2_cif.got.tgz:3998.got - 2010.04.16 15:00:50.
