data_PCOD8223101
_publ_section_title
;
Structure prediction by ZEFSAII (Michael W. Deem and Ramdas Pophale) SiO2 
 PCOD8223101
Probable space group: P C C A
;
_chemical_formula_sum "Si O2"
_cell_formula_units_Z 48
_cell_length_a 9.561936
_cell_length_b 16.781414
_cell_length_c 14.372538
_cell_angle_alpha 90.000000
_cell_angle_beta 90.000000
_cell_angle_gamma 90.000000
_cell_volume 2306.257786
_symmetry_space_group_name_H-M "P C C A"
_symmetry_group_IT_number 54
_symmetry_cell_setting 'orthorhombic'
loop_
_space_group_symop_operation_xyz
x,y,z
1/2-x,-y,z
1/2+x,-y,1/2-z
-x,y,1/2-z
-x,-y,-z
1/2+x,y,-z
1/2-x,y,1/2+z
x,-y,1/2+z
loop_
_atom_site_type_symbol
_atom_site_label
_atom_site_fract_x
_atom_site_fract_y
_atom_site_fract_z
Si Si1 0.345368 0.072217 0.356552
Si Si2 0.626035 0.551473 0.968290
Si Si3 0.994257 0.700513 0.561933
Si Si4 0.165651 0.075951 0.645190
Si Si5 0.751215 0.201176 0.505578
Si Si6 0.750000 0.500000 0.789837
Si Si7 0.000000 0.393768 0.250000
O O1 0.506282 0.047446 0.361615
O O2 0.297153 0.095827 0.252377
O O3 0.334707 0.146991 0.423437
O O4 0.250000 0.000000 0.394106
O O5 0.750000 0.500000 0.016859
O O6 0.651948 0.554787 0.856757
O O7 0.500000 0.500000 0.000000
O O8 0.595722 0.641043 0.997861
O O9 0.145134 0.725522 0.520861
O O10 0.024641 0.661835 0.661518
O O11 0.887984 0.774531 0.563298
O O12 0.205147 0.154332 0.587104
O O13 0.250000 0.000000 0.607551
O O14 0.640769 0.446432 0.730299
#
# Coordination Sequence:
#
# PCOD8223101 Si02
#       7
#     8   8   8   8   8   4   4
#     4  10  23  44  69  98 126 178 225 275 329 392
#     4  10  20  44  68  92 126 175 227 271 339 405
#     4  12  26  42  66  97 137 178 219 278 344 409
#     4  10  23  44  69  96 133 171 229 276 324 401
#     4  12  25  43  65  96 140 183 214 273 344 411
#     4  10  24  42  72  98 128 174 232 294 334 402
#     4  12  26  44  66 108 132 172 234 282 348 400
#
# _framework density 20.812939
#
# number of rings (size 3 to 8) (size 9 to 14) (size 15 to 20)
#    0.500    0.667    3.333    2.500    5.833    2.667 
#    0.000    0.000    0.000    0.000    0.000    0.000 
#    0.000    0.000    0.000    0.000    0.000    0.000 
#
# Total GULP energy -594842.749402 kJ/mol
# GULP energy per Si atom -12392.557279 kJ/mol
# Density = 2.076557 g / cm^3
# Si number density = 20.812939 Si / 1000 Ang^3
#
#
#
# Elastic Constant Matrix: (Units=GPa)
#
#
# Indices 1 2 3 4 5 6 
#
# 1 135.3886 42.3785 28.8323 0.0000 0.0000 0.0000
# 2 42.3785 87.8387 35.8718 0.0000 0.0000 0.0000
# 3 28.8323 35.8718 70.3964 0.0000 0.0000 0.0000
# 4 0.0000 0.0000 0.0000 35.0690 0.0000 0.0000
# 5 0.0000 0.0000 0.0000 0.0000 33.4590 0.0000
# 6 0.0000 0.0000 0.0000 0.0000 0.0000 48.3177
#
#
#
# Elastic Compliance Matrix: (Units=1/GPa)
#
#
# Indices 1 2 3 4 5 6 
#
# 1 0.008884 -0.003536 -0.001837 0.000000 0.000000 0.000000
# 2 -0.003536 0.015784 -0.006595 0.000000 0.000000 0.000000
# 3 -0.001837 -0.006595 0.018318 0.000000 0.000000 0.000000
# 4 0.000000 0.000000 0.000000 0.028515 0.000000 0.000000
# 5 0.000000 0.000000 0.000000 0.000000 0.029887 0.000000
# 6 0.000000 0.000000 0.000000 0.000000 0.000000 0.020696
#
#
# Mechanical properties :
#
#
# Convention : Reuss Voigt Hill
#
# Bulk Modulus (GPa) = 52.49121 56.42098 54.45610
# Shear Modulus (GPa) = 32.81489 35.80520 34.31004
#
# Velocity S-wave (km/s) = 3.97502 4.15219 4.06457
# Velocity P-wave (km/s) = 6.80757 7.08202 6.94615
#
# Compressibility (1/GPa) = 0.01905081
#
# Stress axis : x y z
#
# Youngs Moduli (GPa) = 112.55984 63.35674 54.59127
#
# Poissons Ratio (x) = 0.22404 0.10027
# Poissons Ratio (y) = 0.39803 0.36000
# Poissons Ratio (z) = 0.20675 0.41781
#
# Static dielectric constant tensor:
#      x y z
#    x 3.928420 0.000000 0.000000 
#    y 0.000000 3.449740 0.000000 
#    z 0.000000 0.000000 3.670010 
# 
# 
# High freq. dielectric constant tensor:
#      x y z
#    x 1.835980 0.000000 0.000000 
#    y 0.000000 1.809000 0.000000 
#    z 0.000000 0.000000 1.808330 
# 
# From -- ./inp_files/11783.got.cif
#   From: 2010.03.12/outbox.cif.g09.slc.cpg/sg54_6_cif.got.tgz:11783.got - 2010.04.16 15:00:50.
