data_PCOD8223916
_publ_section_title
;
Structure prediction by ZEFSAII (Michael W. Deem and Ramdas Pophale) SiO2 
 PCOD8223916
Probable space group: P C C A
;
_chemical_formula_sum "Si O2"
_cell_formula_units_Z 60
_cell_length_a 18.214078
_cell_length_b 10.346556
_cell_length_c 15.154291
_cell_angle_alpha 90.000000
_cell_angle_beta 90.000000
_cell_angle_gamma 90.000000
_cell_volume 2855.871269
_symmetry_space_group_name_H-M "P C C A"
_symmetry_group_IT_number 54
_symmetry_cell_setting 'orthorhombic'
loop_
_space_group_symop_operation_xyz
x,y,z
1/2-x,-y,z
1/2+x,-y,1/2-z
-x,y,1/2-z
-x,-y,-z
1/2+x,y,-z
1/2-x,y,1/2+z
x,-y,1/2+z
loop_
_atom_site_type_symbol
_atom_site_label
_atom_site_fract_x
_atom_site_fract_y
_atom_site_fract_z
Si Si1 0.500000 0.884731 0.250000
Si Si2 0.181214 0.420005 0.191106
Si Si3 0.831824 0.188200 0.981807
Si Si4 0.435868 0.965712 0.071099
Si Si5 0.330115 0.742845 0.023865
Si Si6 0.919449 0.436026 0.575440
Si Si7 0.576989 0.582882 0.899780
Si Si8 0.884312 0.709907 0.659294
O O1 0.460761 0.973259 0.174708
O O2 0.454002 0.787660 0.309376
O O3 0.250000 0.500000 0.224785
O O4 0.193903 0.365112 0.094111
O O5 0.109728 0.515178 0.188032
O O6 0.170815 0.301494 0.258411
O O7 0.743681 0.172409 0.983277
O O8 0.864968 0.308618 0.928261
O O9 0.868074 0.062282 0.940249
O O10 0.850562 0.202354 0.084044
O O11 0.401843 0.824469 0.052735
O O12 0.500000 0.000000 0.000000
O O13 0.352974 0.669950 0.931468
O O14 0.932748 0.471969 0.473337
O O15 0.899766 0.562918 0.630316
O O16 0.993238 0.367374 0.615777
#
# Coordination Sequence:
#
# PCOD8223916 Si02
#       8
#     4   8   8   8   8   8   8   8
#     4  12  24  46  70 104 130 180 244 290 342 414
#     4  11  21  37  64  98 137 174 217 284 355 416
#     4  11  23  42  67  96 133 184 229 276 348 412
#     4  12  25  46  72  96 132 188 238 287 335 403
#     4  11  23  42  66  97 135 180 225 278 353 415
#     4   9  20  33  60  96 127 167 218 272 330 412
#     4   9  18  35  58  90 129 169 217 268 335 407
#     4  11  23  38  68 100 136 176 229 282 349 419
#
# _framework density 21.009350999999999
#
# number of rings (size 3 to 8) (size 9 to 14) (size 15 to 20)
#    0.000    1.333    4.000    2.000    5.600    0.000 
#    0.000    4.000    0.000    0.000    0.000    0.000 
#    0.000    0.000    0.000    0.000    0.000    0.000 
#
# Total GULP energy -743377.407261 kJ/mol
# GULP energy per Si atom -12389.623454 kJ/mol
# Density = 2.096153 g / cm^3
# Si number density = 21.009351 Si / 1000 Ang^3
#
#
#
# Elastic Constant Matrix: (Units=GPa)
#
#
# Indices 1 2 3 4 5 6 
#
# 1 126.0202 33.5215 31.0585 0.0000 0.0000 0.0000
# 2 33.5215 66.7530 23.8750 0.0000 0.0000 0.0000
# 3 31.0585 23.8750 89.2953 0.0000 0.0000 0.0000
# 4 0.0000 0.0000 0.0000 34.1857 0.0000 0.0000
# 5 0.0000 0.0000 0.0000 0.0000 19.2610 0.0000
# 6 0.0000 0.0000 0.0000 0.0000 0.0000 31.8081
#
#
#
# Elastic Compliance Matrix: (Units=1/GPa)
#
#
# Indices 1 2 3 4 5 6 
#
# 1 0.009553 -0.003990 -0.002256 0.000000 0.000000 0.000000
# 2 -0.003990 0.018231 -0.003487 0.000000 0.000000 0.000000
# 3 -0.002256 -0.003487 0.012916 0.000000 0.000000 0.000000
# 4 0.000000 0.000000 0.000000 0.029252 0.000000 0.000000
# 5 0.000000 0.000000 0.000000 0.000000 0.051919 0.000000
# 6 0.000000 0.000000 0.000000 0.000000 0.000000 0.031438
#
#
# Mechanical properties :
#
#
# Convention : Reuss Voigt Hill
#
# Bulk Modulus (GPa) = 47.09345 50.99763 49.04554
# Shear Modulus (GPa) = 27.80063 29.95852 28.87958
#
# Velocity S-wave (km/s) = 3.64160 3.78029 3.71159
# Velocity P-wave (km/s) = 6.33607 6.58639 6.46244
#
# Compressibility (1/GPa) = 0.02123438
#
# Stress axis : x y z
#
# Youngs Moduli (GPa) = 104.68382 54.85026 77.42573
#
# Poissons Ratio (x) = 0.21887 0.17465
# Poissons Ratio (y) = 0.41772 0.26996
# Poissons Ratio (z) = 0.23613 0.19125
#
# Static dielectric constant tensor:
#      x y z
#    x 4.033560 0.000000 0.000000 
#    y 0.000000 3.674090 0.000000 
#    z 0.000000 0.000000 3.470450 
# 
# 
# High freq. dielectric constant tensor:
#      x y z
#    x 1.833620 0.000000 0.000000 
#    y 0.000000 1.807010 0.000000 
#    z 0.000000 0.000000 1.810820 
# 
# From -- ./inp_files/14274.got.cif
#   From: 2010.03.12/outbox.cif.g09.slc.cpg/sg54_8_cif.got.tgz:14274.got - 2010.04.16 15:00:50.
