data_PCOD8223480
_publ_section_title
;
Structure prediction by ZEFSAII (Michael W. Deem and Ramdas Pophale) SiO2 
 PCOD8223480
Probable space group: P C C A
;
_chemical_formula_sum "Si O2"
_cell_formula_units_Z 40
_cell_length_a 5.090355
_cell_length_b 14.228851
_cell_length_c 27.729346
_cell_angle_alpha 90.000000
_cell_angle_beta 90.000000
_cell_angle_gamma 90.000000
_cell_volume 2008.433836
_symmetry_space_group_name_H-M "P C C A"
_symmetry_group_IT_number 54
_symmetry_cell_setting 'orthorhombic'
loop_
_space_group_symop_operation_xyz
x,y,z
1/2-x,-y,z
1/2+x,-y,1/2-z
-x,y,1/2-z
-x,-y,-z
1/2+x,y,-z
1/2-x,y,1/2+z
x,-y,1/2+z
loop_
_atom_site_type_symbol
_atom_site_label
_atom_site_fract_x
_atom_site_fract_y
_atom_site_fract_z
Si Si1 0.500000 0.942111 0.750000
Si Si2 0.995401 0.143042 0.652025
Si Si3 0.999942 0.744380 0.870104
Si Si4 0.876961 0.182850 0.031480
Si Si5 0.500018 0.563955 0.304672
Si Si6 0.750000 0.000000 0.585276
O O1 0.401370 0.880755 0.705215
O O2 0.750000 0.000000 0.731166
O O3 0.208398 0.212925 0.629816
O O4 0.710183 0.190849 0.657521
O O5 0.970009 0.050940 0.618345
O O6 0.086091 0.739579 0.926336
O O7 0.997096 0.644060 0.844821
O O8 0.901099 0.077365 0.053095
O O9 0.587859 0.197682 0.010244
O O10 0.250000 0.500000 0.313572
O O11 0.500000 0.605906 0.250000
O O12 0.750000 0.500000 0.313209
#
# Coordination Sequence:
#
# PCOD8223480 Si02
#       6
#     4   8   8   8   8   4
#     4  12  24  38  54  80 122 172 212 252 280 352
#     4  11  24  37  57  86 123 168 210 247 297 353
#     4  11  24  41  63  90 123 157 201 256 305 366
#     4  11  23  39  61  87 118 161 209 259 302 346
#     4  10  22  41  67  95 122 153 192 241 306 379
#     4  10  22  40  56  86 120 166 212 258 296 344
#
# _framework density 19.916015000000002
#
# number of rings (size 3 to 8) (size 9 to 14) (size 15 to 20)
#    0.000    1.200    1.000    5.400    5.600    3.200 
#    0.000    0.000    0.000    3.600    0.000    0.000 
#    0.000    0.000    0.000    0.000    0.000    0.000 
#
# Total GULP energy -496088.620713 kJ/mol
# GULP energy per Si atom -12402.215518 kJ/mol
# Density = 1.987069 g / cm^3
# Si number density = 19.916015 Si / 1000 Ang^3
#
#
#
# Elastic Constant Matrix: (Units=GPa)
#
#
# Indices 1 2 3 4 5 6 
#
# 1 112.7888 33.9486 30.8998 0.0000 0.0000 0.0000
# 2 33.9486 95.8277 61.6108 0.0000 0.0000 0.0000
# 3 30.8998 61.6108 139.5127 0.0000 0.0000 0.0000
# 4 0.0000 0.0000 0.0000 35.7954 0.0000 0.0000
# 5 0.0000 0.0000 0.0000 0.0000 34.3376 0.0000
# 6 0.0000 0.0000 0.0000 0.0000 0.0000 12.4789
#
#
#
# Elastic Compliance Matrix: (Units=1/GPa)
#
#
# Indices 1 2 3 4 5 6 
#
# 1 0.010006 -0.002961 -0.000909 0.000000 0.000000 0.000000
# 2 -0.002961 0.015449 -0.006167 0.000000 0.000000 0.000000
# 3 -0.000909 -0.006167 0.010092 0.000000 0.000000 0.000000
# 4 0.000000 0.000000 0.000000 0.027937 0.000000 0.000000
# 5 0.000000 0.000000 0.000000 0.000000 0.029123 0.000000
# 6 0.000000 0.000000 0.000000 0.000000 0.000000 0.080135
#
#
# Mechanical properties :
#
#
# Convention : Reuss Voigt Hill
#
# Bulk Modulus (GPa) = 64.61876 66.78306 65.70091
# Shear Modulus (GPa) = 25.25598 31.30038 28.27818
#
# Velocity S-wave (km/s) = 3.56494 3.96867 3.77221
# Velocity P-wave (km/s) = 7.03286 7.38956 7.21341
#
# Compressibility (1/GPa) = 0.01547538
#
# Stress axis : x y z
#
# Youngs Moduli (GPa) = 99.93787 64.72872 99.08406
#
# Poissons Ratio (x) = 0.19164 0.09005
# Poissons Ratio (y) = 0.29587 0.61103
# Poissons Ratio (z) = 0.09082 0.39917
#
# Static dielectric constant tensor:
#      x y z
#    x 3.692680 0.000000 0.000000 
#    y 0.000000 3.342900 0.000000 
#    z 0.000000 0.000000 3.767720 
# 
# 
# High freq. dielectric constant tensor:
#      x y z
#    x 1.797950 0.000000 0.000000 
#    y 0.000000 1.739180 0.000000 
#    z 0.000000 0.000000 1.788360 
# 
# From -- ./inp_files/22838.got.cif
#   From: 2010.03.12/outbox.cif.g09.slc.cpg/sg54_12_cif.got.tgz:22838.got - 2010.04.16 15:00:50.
