data_PCOD8223687
_publ_section_title
;
Structure prediction by ZEFSAII (Michael W. Deem and Ramdas Pophale) SiO2 
 PCOD8223687
Probable space group: P C C A
;
_chemical_formula_sum "Si O2"
_cell_formula_units_Z 40
_cell_length_a 9.395301
_cell_length_b 14.897901
_cell_length_c 14.028287
_cell_angle_alpha 90.000000
_cell_angle_beta 90.000000
_cell_angle_gamma 90.000000
_cell_volume 1963.543037
_symmetry_space_group_name_H-M "P C C A"
_symmetry_group_IT_number 54
_symmetry_cell_setting 'orthorhombic'
loop_
_space_group_symop_operation_xyz
x,y,z
1/2-x,-y,z
1/2+x,-y,1/2-z
-x,y,1/2-z
-x,-y,-z
1/2+x,y,-z
1/2-x,y,1/2+z
x,-y,1/2+z
loop_
_atom_site_type_symbol
_atom_site_label
_atom_site_fract_x
_atom_site_fract_y
_atom_site_fract_z
Si Si1 0.419250 0.487872 0.849670
Si Si2 0.837719 0.085409 0.357742
Si Si3 0.663865 0.913734 0.134273
Si Si4 0.725971 0.765604 0.988705
Si Si5 0.019979 0.641771 0.491278
O O1 0.250000 0.500000 0.834491
O O2 0.500000 0.478559 0.750000
O O3 0.486419 0.572125 0.904769
O O4 0.455593 0.399610 0.911395
O O5 0.817567 0.098456 0.246029
O O6 0.776211 0.176109 0.400229
O O7 0.999168 0.071212 0.391043
O O8 0.750000 0.000000 0.395365
O O9 0.750000 0.000000 0.096762
O O10 0.726408 0.824989 0.084661
O O11 0.568353 0.730771 0.965171
O O12 0.819147 0.675313 0.996466
#
# Coordination Sequence:
#
# PCOD8223687 Si02
#       5
#     8   8   8   8   8
#     4  11  26  46  70  95 129 170 206 258 326 387
#     4  10  23  41  62  88 127 173 212 258 315 373
#     4  10  23  41  61  90 128 168 215 259 313 377
#     4  12  23  41  66  94 126 168 210 269 313 368
#     4  11  26  44  65  96 131 160 216 264 315 384
#
# _framework density 20.371337
#
# number of rings (size 3 to 8) (size 9 to 14) (size 15 to 20)
#    0.000    1.200    4.000    0.600    5.600    4.800 
#    0.000    0.000    0.000    0.000    0.000    0.000 
#    0.000    0.000    0.000    0.000    0.000    0.000 
#
# Total GULP energy -496171.140103 kJ/mol
# GULP energy per Si atom -12404.278503 kJ/mol
# Density = 2.032497 g / cm^3
# Si number density = 20.371337 Si / 1000 Ang^3
#
#
#
# Elastic Constant Matrix: (Units=GPa)
#
#
# Indices 1 2 3 4 5 6 
#
# 1 104.8072 45.7788 60.4359 0.0000 0.0000 0.0000
# 2 45.7788 110.1294 44.3009 0.0000 0.0000 0.0000
# 3 60.4359 44.3009 96.8015 0.0000 0.0000 0.0000
# 4 0.0000 0.0000 0.0000 7.0599 0.0000 0.0000
# 5 0.0000 0.0000 0.0000 0.0000 30.3850 0.0000
# 6 0.0000 0.0000 0.0000 0.0000 0.0000 52.9140
#
#
#
# Elastic Compliance Matrix: (Units=1/GPa)
#
#
# Indices 1 2 3 4 5 6 
#
# 1 0.015768 -0.003180 -0.008389 0.000000 0.000000 0.000000
# 2 -0.003180 0.011770 -0.003401 0.000000 0.000000 0.000000
# 3 -0.008389 -0.003401 0.017125 0.000000 0.000000 0.000000
# 4 0.000000 0.000000 0.000000 0.141645 0.000000 0.000000
# 5 0.000000 0.000000 0.000000 0.000000 0.032911 0.000000
# 6 0.000000 0.000000 0.000000 0.000000 0.000000 0.018899
#
#
# Mechanical properties :
#
#
# Convention : Reuss Voigt Hill
#
# Bulk Modulus (GPa) = 67.92487 68.08548 68.00517
# Shear Modulus (GPa) = 18.31740 28.81994 23.56867
#
# Velocity S-wave (km/s) = 3.00188 3.76537 3.40509
# Velocity P-wave (km/s) = 6.74024 7.23870 6.99391
#
# Compressibility (1/GPa) = 0.01472215
#
# Stress axis : x y z
#
# Youngs Moduli (GPa) = 63.42108 84.96001 58.39572
#
# Poissons Ratio (x) = 0.27015 0.48988
# Poissons Ratio (y) = 0.20166 0.19863
# Poissons Ratio (z) = 0.53204 0.28898
#
# Static dielectric constant tensor:
#      x y z
#    x 3.951070 0.000000 0.000000 
#    y 0.000000 3.758550 0.000000 
#    z 0.000000 0.000000 3.562270 
# 
# 
# High freq. dielectric constant tensor:
#      x y z
#    x 1.811880 0.000000 0.000000 
#    y 0.000000 1.804990 0.000000 
#    z 0.000000 0.000000 1.795050 
# 
# From -- ./inp_files/11457.got.cif
#   From: 2010.03.12/outbox.cif.g09.slc.cpg/sg54_6_cif.got.tgz:11457.got - 2010.04.16 15:00:50.
