data_PCOD8223107
_publ_section_title
;
Structure prediction by ZEFSAII (Michael W. Deem and Ramdas Pophale) SiO2 
 PCOD8223107
Probable space group: P C C A
;
_chemical_formula_sum "Si O2"
_cell_formula_units_Z 60
_cell_length_a 25.027511
_cell_length_b 7.478685
_cell_length_c 17.633032
_cell_angle_alpha 90.000000
_cell_angle_beta 90.000000
_cell_angle_gamma 90.000000
_cell_volume 3300.425226
_symmetry_space_group_name_H-M "P C C A"
_symmetry_group_IT_number 54
_symmetry_cell_setting 'orthorhombic'
loop_
_space_group_symop_operation_xyz
x,y,z
1/2-x,-y,z
1/2+x,-y,1/2-z
-x,y,1/2-z
-x,-y,-z
1/2+x,y,-z
1/2-x,y,1/2+z
x,-y,1/2+z
loop_
_atom_site_type_symbol
_atom_site_label
_atom_site_fract_x
_atom_site_fract_y
_atom_site_fract_z
Si Si1 0.250000 0.207929 0.189342
Si Si2 0.837687 0.795383 0.189112
Si Si3 0.040661 0.204383 0.314214
Si Si4 0.459339 0.795615 0.814214
Si Si5 0.041270 0.499999 0.433506
Si Si6 0.250000 0.500000 0.561788
Si Si7 0.337687 0.204616 0.810888
Si Si8 0.336523 0.500000 0.433538
O O1 0.302007 0.257591 0.238844
O O2 0.250000 0.322920 0.113114
O O3 0.197992 0.257590 0.238843
O O4 0.250000 0.000000 0.165866
O O5 0.898854 0.765178 0.214806
O O6 0.823181 0.674414 0.116804
O O7 0.826690 1.000000 0.164774
O O8 0.029248 0.321348 0.387277
O O9 0.101146 0.234822 0.285195
O O10 0.000000 0.268322 0.250000
O O11 0.030208 0.999999 0.337157
O O12 0.500000 0.731677 0.750000
O O13 0.470751 0.678649 0.887276
O O14 0.102356 0.499999 0.461592
O O15 0.000000 0.500000 0.500000
O O16 0.302091 0.500001 0.509331
O O17 0.323180 0.325586 0.883196
#
# Coordination Sequence:
#
# PCOD8223107 Si02
#       8
#     8   8   8   8   8   4   8   8
#     4  10  21  35  53  77 101 126 162 210 256 292
#     4   9  18  35  56  74  95 129 171 207 241 289
#     4   9  18  33  54  77  98 126 167 209 246 287
#     4   9  18  33  54  77  98 126 167 209 246 287
#     4  10  21  34  49  74 105 135 165 198 243 296
#     4  12  24  34  48  76 108 132 160 202 252 300
#     4   9  18  35  56  74  95 129 171 207 241 289
#     4  10  21  35  52  73 100 136 170 199 238 295
#
# _framework density 18.179476000000001
#
# number of rings (size 3 to 8) (size 9 to 14) (size 15 to 20)
#    0.000    2.400    0.000    2.000    0.000    3.733 
#    0.000    0.000    0.000    0.000    0.000    0.000 
#    0.000    0.000    0.000    0.000    0.000    0.000 
#
# Total GULP energy -744079.938481 kJ/mol
# GULP energy per Si atom -12401.332308 kJ/mol
# Density = 1.813810 g / cm^3
# Si number density = 18.179476 Si / 1000 Ang^3
#
#
#
# Elastic Constant Matrix: (Units=GPa)
#
#
# Indices 1 2 3 4 5 6 
#
# 1 131.1987 61.1810 98.8693 0.0000 0.0000 0.0000
# 2 61.1810 103.3085 74.2094 0.0000 0.0000 0.0000
# 3 98.8693 74.2094 143.9459 0.0000 0.0000 0.0000
# 4 0.0000 0.0000 0.0000 24.6816 0.0000 0.0000
# 5 0.0000 0.0000 0.0000 0.0000 42.5482 0.0000
# 6 0.0000 0.0000 0.0000 0.0000 0.0000 23.1572
#
#
#
# Elastic Compliance Matrix: (Units=1/GPa)
#
#
# Indices 1 2 3 4 5 6 
#
# 1 0.016211 -0.002544 -0.009823 0.000000 0.000000 0.000000
# 2 -0.002544 0.015772 -0.006383 0.000000 0.000000 0.000000
# 3 -0.009823 -0.006383 0.016985 0.000000 0.000000 0.000000
# 4 0.000000 0.000000 0.000000 0.040516 0.000000 0.000000
# 5 0.000000 0.000000 0.000000 0.000000 0.023503 0.000000
# 6 0.000000 0.000000 0.000000 0.000000 0.000000 0.043183
#
#
# Mechanical properties :
#
#
# Convention : Reuss Voigt Hill
#
# Bulk Modulus (GPa) = 87.21093 94.10804 90.65948
# Shear Modulus (GPa) = 25.31750 27.69030 26.50390
#
# Velocity S-wave (km/s) = 3.73586 3.90701 3.82239
# Velocity P-wave (km/s) = 8.16610 8.49891 8.33416
#
# Compressibility (1/GPa) = 0.01146645
#
# Stress axis : x y z
#
# Youngs Moduli (GPa) = 61.68771 63.40366 58.87699
#
# Poissons Ratio (x) = 0.16132 0.57832
# Poissons Ratio (y) = 0.15696 0.37584
# Poissons Ratio (z) = 0.60593 0.40473
#
# Static dielectric constant tensor:
#      x y z
#    x 3.419670 0.000000 0.000000 
#    y 0.000000 3.635570 0.000000 
#    z 0.000000 0.000000 3.059110 
# 
# 
# High freq. dielectric constant tensor:
#      x y z
#    x 1.719700 0.000000 0.000000 
#    y 0.000000 1.723310 0.000000 
#    z 0.000000 0.000000 1.678190 
# 
# From -- ./inp_files/14977.got.cif
#   From: 2010.03.12/outbox.cif.g09.slc.cpg/sg54_8_cif.got.tgz:14977.got - 2010.04.16 15:00:50.
