data_PCOD8223612
_publ_section_title
;
Structure prediction by ZEFSAII (Michael W. Deem and Ramdas Pophale) SiO2 
 PCOD8223612
Probable space group: P C C A
;
_chemical_formula_sum "Si O2"
_cell_formula_units_Z 48
_cell_length_a 23.160374
_cell_length_b 7.686319
_cell_length_c 14.000242
_cell_angle_alpha 90.000000
_cell_angle_beta 90.000000
_cell_angle_gamma 90.000000
_cell_volume 2492.295398
_symmetry_space_group_name_H-M "P C C A"
_symmetry_group_IT_number 54
_symmetry_cell_setting 'orthorhombic'
loop_
_space_group_symop_operation_xyz
x,y,z
1/2-x,-y,z
1/2+x,-y,1/2-z
-x,y,1/2-z
-x,-y,-z
1/2+x,y,-z
1/2-x,y,1/2+z
x,-y,1/2+z
loop_
_atom_site_type_symbol
_atom_site_label
_atom_site_fract_x
_atom_site_fract_y
_atom_site_fract_z
Si Si1 0.336027 0.601523 0.978928
Si Si2 0.786964 0.763983 0.506148
Si Si3 0.613316 0.591042 0.723112
Si Si4 0.104016 0.277632 0.157136
Si Si5 0.750000 0.000000 0.169727
Si Si6 0.840169 0.907166 0.320132
Si Si7 0.500000 0.424741 0.750000
O O1 0.331852 0.393791 0.987063
O O2 0.277320 0.693983 0.012193
O O3 0.385911 0.676542 0.046490
O O4 0.350916 0.645183 0.869939
O O5 0.788166 0.871691 0.604203
O O6 0.807159 0.889297 0.420786
O O7 0.638855 0.417212 0.775801
O O8 0.616187 0.748129 0.799755
O O9 0.546312 0.550050 0.696142
O O10 0.035058 0.300647 0.175955
O O11 0.124196 0.085039 0.182750
O O12 0.793080 0.893631 0.236672
#
# Coordination Sequence:
#
# PCOD8223612 Si02
#       7
#     8   8   8   8   4   8   4
#     4  11  21  40  65  88 131 164 210 251 315 375
#     4  11  23  37  59  97 126 168 205 247 307 395
#     4  10  22  44  63  92 121 173 206 267 311 368
#     4  10  22  43  61  94 123 162 212 271 302 377
#     4  12  22  36  58  96 122 170 206 244 300 406
#     4  12  23  40  66  88 137 163 203 258 322 363
#     4   8  22  44  64  92 122 160 226 262 318 358
#
# _framework density 19.259354999999999
#
# number of rings (size 3 to 8) (size 9 to 14) (size 15 to 20)
#    1.000    0.333    3.333    3.500    0.000    1.333 
#    0.000    0.000    0.000    3.000    0.000    0.000 
#    0.000    0.000    0.000    0.000    0.000    0.000 
#
# Total GULP energy -594972.057848 kJ/mol
# GULP energy per Si atom -12395.251205 kJ/mol
# Density = 1.921552 g / cm^3
# Si number density = 19.259355 Si / 1000 Ang^3
#
#
#
# Elastic Constant Matrix: (Units=GPa)
#
#
# Indices 1 2 3 4 5 6 
#
# 1 72.9918 35.3782 23.6616 0.0000 0.0000 0.0000
# 2 35.3782 123.7948 34.8072 0.0000 0.0000 0.0000
# 3 23.6616 34.8072 94.7040 0.0000 0.0000 0.0000
# 4 0.0000 0.0000 0.0000 30.9965 0.0000 0.0000
# 5 0.0000 0.0000 0.0000 0.0000 19.2628 0.0000
# 6 0.0000 0.0000 0.0000 0.0000 0.0000 31.6717
#
#
#
# Elastic Compliance Matrix: (Units=1/GPa)
#
#
# Indices 1 2 3 4 5 6 
#
# 1 0.016484 -0.003962 -0.002662 0.000000 0.000000 0.000000
# 2 -0.003962 0.009961 -0.002671 0.000000 0.000000 0.000000
# 3 -0.002662 -0.002671 0.012206 0.000000 0.000000 0.000000
# 4 0.000000 0.000000 0.000000 0.032262 0.000000 0.000000
# 5 0.000000 0.000000 0.000000 0.000000 0.051914 0.000000
# 6 0.000000 0.000000 0.000000 0.000000 0.000000 0.031574
#
#
# Mechanical properties :
#
#
# Convention : Reuss Voigt Hill
#
# Bulk Modulus (GPa) = 49.85064 53.24272 51.54668
# Shear Modulus (GPa) = 27.82758 29.56243 28.69500
#
# Velocity S-wave (km/s) = 3.80529 3.92211 3.86414
# Velocity P-wave (km/s) = 6.72659 6.94376 6.83604
#
# Compressibility (1/GPa) = 0.02005992
#
# Stress axis : x y z
#
# Youngs Moduli (GPa) = 60.66648 100.38895 81.92622
#
# Poissons Ratio (x) = 0.39776 0.21810
# Poissons Ratio (y) = 0.24037 0.21884
# Poissons Ratio (z) = 0.16150 0.26816
#
# Static dielectric constant tensor:
#      x y z
#    x 3.253160 0.000000 0.000000 
#    y 0.000000 3.589880 0.000000 
#    z 0.000000 0.000000 3.414000 
# 
# 
# High freq. dielectric constant tensor:
#      x y z
#    x 1.721580 0.000000 0.000000 
#    y 0.000000 1.761100 0.000000 
#    z 0.000000 0.000000 1.750200 
# 
# From -- ./inp_files/10271.got.cif
#   From: 2010.03.12/outbox.cif.g09.slc.cpg/sg54_6_cif.got.tgz:10271.got - 2010.04.16 15:00:50.
