data_PCOD8223459
_publ_section_title
;
Structure prediction by ZEFSAII (Michael W. Deem and Ramdas Pophale) SiO2 
 PCOD8223459
Probable space group: P C C A
;
_chemical_formula_sum "Si O2"
_cell_formula_units_Z 32
_cell_length_a 8.836527
_cell_length_b 5.104465
_cell_length_c 31.486934
_cell_angle_alpha 90.000000
_cell_angle_beta 90.000000
_cell_angle_gamma 90.000000
_cell_volume 1420.241546
_symmetry_space_group_name_H-M "P C C A"
_symmetry_group_IT_number 54
_symmetry_cell_setting 'orthorhombic'
loop_
_space_group_symop_operation_xyz
x,y,z
1/2-x,-y,z
1/2+x,-y,1/2-z
-x,y,1/2-z
-x,-y,-z
1/2+x,y,-z
1/2-x,y,1/2+z
x,-y,1/2+z
loop_
_atom_site_type_symbol
_atom_site_label
_atom_site_fract_x
_atom_site_fract_y
_atom_site_fract_z
Si Si1 0.854200 0.756038 0.983192
Si Si2 0.928224 0.516550 0.345063
Si Si3 0.922612 0.545722 0.067477
Si Si4 0.071059 0.987137 0.705017
O O1 0.750000 0.500000 0.982491
O O2 0.993733 0.716578 0.950631
O O3 0.750000 0.000000 0.970490
O O4 0.927895 0.774525 0.030849
O O5 0.750000 0.500000 0.350794
O O6 0.984381 0.233445 0.328725
O O7 0.993537 0.620451 0.389496
O O8 0.983847 0.730020 0.310876
O O9 0.750000 0.500000 0.079971
O O10 0.000000 0.917763 0.750000
O O11 0.250000 0.000000 0.710010
#
# Coordination Sequence:
#
# PCOD8223459 Si02
#       4
#     8   8   8   8
#     4  10  23  42  62  85 123 169 207 252 310 364
#     4  10  22  39  60  87 121 158 194 241 305 369
#     4  10  23  39  62  93 122 158 211 259 301 357
#     4  10  22  40  62  87 116 153 195 241 301 368
#
# _framework density 22.531376000000002
#
# number of rings (size 3 to 8) (size 9 to 14) (size 15 to 20)
#    0.000    2.000    0.000    1.500    0.000   21.000 
#    0.000    0.000    0.000    0.000    0.000    0.000 
#    0.000    0.000    0.000    0.000    0.000    0.000 
#
# Total GULP energy -396616.215284 kJ/mol
# GULP energy per Si atom -12394.256728 kJ/mol
# Density = 2.248009 g / cm^3
# Si number density = 22.531376 Si / 1000 Ang^3
#
#
#
# Elastic Constant Matrix: (Units=GPa)
#
#
# Indices 1 2 3 4 5 6 
#
# 1 68.3245 46.8315 38.6028 0.0000 0.0000 0.0000
# 2 46.8315 116.0525 25.3338 0.0000 0.0000 0.0000
# 3 38.6028 25.3338 133.0784 0.0000 0.0000 0.0000
# 4 0.0000 0.0000 0.0000 -22.9519 0.0000 0.0000
# 5 0.0000 0.0000 0.0000 0.0000 -219.0344 0.0000
# 6 0.0000 0.0000 0.0000 0.0000 0.0000 29.8648
#
#
#
# Elastic Compliance Matrix: (Units=1/GPa)
#
#
# Indices 1 2 3 4 5 6 
#
# 1 0.023196 -0.008234 -0.005161 0.000000 0.000000 0.000000
# 2 -0.008234 0.011913 0.000121 0.000000 0.000000 0.000000
# 3 -0.005161 0.000121 0.008989 0.000000 0.000000 0.000000
# 4 0.000000 0.000000 0.000000 -0.043569 0.000000 0.000000
# 5 0.000000 0.000000 0.000000 0.000000 -0.004565 0.000000
# 6 0.000000 0.000000 0.000000 0.000000 0.000000 0.033484
#
#
# Mechanical properties :
#
#
# Convention : Reuss Voigt Hill
#
# Bulk Modulus (GPa) = 56.98395 59.88796 58.43596
# Shear Modulus (GPa) = 80.84814 -28.64514 26.10150
#
# Velocity S-wave (km/s) = 5.99670 -3.56946 3.40730
# Velocity P-wave (km/s) = 8.56113 3.10636 6.43982
#
# Compressibility (1/GPa) = 0.01754880
#
# Stress axis : x y z
#
# Youngs Moduli (GPa) = 43.11176 83.94155 111.25301
#
# Poissons Ratio (x) = 0.69114 0.57418
# Poissons Ratio (y) = 0.35497 -0.01341
# Poissons Ratio (z) = 0.22250 -0.01012
#
# Static dielectric constant tensor:
#      x y z
#    x 4.242990 0.000000 0.000000 
#    y 0.000000 4.109950 0.000000 
#    z 0.000000 0.000000 4.014040 
# 
# 
# High freq. dielectric constant tensor:
#      x y z
#    x 1.893040 0.000000 0.000000 
#    y 0.000000 1.883710 0.000000 
#    z 0.000000 0.000000 1.884710 
# 
# From -- ./inp_files/27497.got.cif
#   From: 2010.03.12/outbox.cif.g09.slc.cpg/sg54_14_cif.got.tgz:27497.got - 2010.04.16 15:00:50.
