data_PCOD8223466
_publ_section_title
;
Structure prediction by ZEFSAII (Michael W. Deem and Ramdas Pophale) SiO2 
 PCOD8223466
Probable space group: P C C A
;
_chemical_formula_sum "Si O2"
_cell_formula_units_Z 44
_cell_length_a 16.511358
_cell_length_b 9.248578
_cell_length_c 13.800519
_cell_angle_alpha 90.000000
_cell_angle_beta 90.000000
_cell_angle_gamma 90.000000
_cell_volume 2107.430091
_symmetry_space_group_name_H-M "P C C A"
_symmetry_group_IT_number 54
_symmetry_cell_setting 'orthorhombic'
loop_
_space_group_symop_operation_xyz
x,y,z
1/2-x,-y,z
1/2+x,-y,1/2-z
-x,y,1/2-z
-x,-y,-z
1/2+x,y,-z
1/2-x,y,1/2+z
x,-y,1/2+z
loop_
_atom_site_type_symbol
_atom_site_label
_atom_site_fract_x
_atom_site_fract_y
_atom_site_fract_z
Si Si1 0.853627 0.276626 0.002419
Si Si2 0.086643 0.425103 0.009827
Si Si3 0.002309 0.220620 0.138951
Si Si4 0.816736 0.188473 0.580081
Si Si5 0.250000 0.000000 0.750799
Si Si6 0.622875 0.995232 0.406508
O O1 0.763749 0.252473 0.035674
O O2 0.916113 0.252653 0.091114
O O3 0.853348 0.442932 0.967093
O O4 0.877242 0.169937 0.913634
O O5 0.077773 0.315870 0.099333
O O6 0.118420 0.323319 0.919560
O O7 0.000000 0.500000 0.000000
O O8 0.030949 0.055569 0.117479
O O9 0.000000 0.258025 0.250000
O O10 0.795186 0.123284 0.685445
O O11 0.847494 0.058057 0.512229
O O12 0.180628 0.936280 0.679986
#
# Coordination Sequence:
#
# PCOD8223466 Si02
#       6
#     8   8   8   8   4   8
#     4  11  19  41  60  90 124 168 214 262 342 386
#     4   9  22  41  62  85 127 170 210 263 329 393
#     4  10  22  39  61  89 127 171 217 268 327 400
#     4  11  21  39  66  87 127 166 208 274 323 386
#     4  12  20  38  64  96 124 160 230 266 332 404
#     4  11  22  39  61  93 128 166 207 276 328 387
#
# _framework density 20.878509999999999
#
# number of rings (size 3 to 8) (size 9 to 14) (size 15 to 20)
#    0.000    1.455    3.636    2.182    0.000    0.000 
#    6.545    0.000    4.000    0.000    0.000    0.000 
#    0.000    0.000    0.000    0.000    0.000    0.000 
#
# Total GULP energy -545131.315440 kJ/mol
# GULP energy per Si atom -12389.348078 kJ/mol
# Density = 2.083099 g / cm^3
# Si number density = 20.878510 Si / 1000 Ang^3
#
#
#
# Elastic Constant Matrix: (Units=GPa)
#
#
# Indices 1 2 3 4 5 6 
#
# 1 51.1633 18.8230 1.8078 0.0000 0.0000 0.0000
# 2 18.8230 113.0984 25.3325 0.0000 0.0000 0.0000
# 3 1.8078 25.3325 85.9652 0.0000 0.0000 0.0000
# 4 0.0000 0.0000 0.0000 12.5449 0.0000 0.0000
# 5 0.0000 0.0000 0.0000 0.0000 29.4732 0.0000
# 6 0.0000 0.0000 0.0000 0.0000 0.0000 33.3048
#
#
#
# Elastic Compliance Matrix: (Units=1/GPa)
#
#
# Indices 1 2 3 4 5 6 
#
# 1 0.020851 -0.003610 0.000625 0.000000 0.000000 0.000000
# 2 -0.003610 0.010092 -0.002898 0.000000 0.000000 0.000000
# 3 0.000625 -0.002898 0.012473 0.000000 0.000000 0.000000
# 4 0.000000 0.000000 0.000000 0.079714 0.000000 0.000000
# 5 0.000000 0.000000 0.000000 0.000000 0.033929 0.000000
# 6 0.000000 0.000000 0.000000 0.000000 0.000000 0.030026
#
#
# Mechanical properties :
#
#
# Convention : Reuss Voigt Hill
#
# Bulk Modulus (GPa) = 31.59471 38.01703 34.80587
# Shear Modulus (GPa) = 23.87757 28.68214 26.27986
#
# Velocity S-wave (km/s) = 3.38545 3.71045 3.55167
# Velocity P-wave (km/s) = 5.51790 6.05019 5.79016
#
# Compressibility (1/GPa) = 0.03165086
#
# Stress axis : x y z
#
# Youngs Moduli (GPa) = 47.95835 99.08993 80.17029
#
# Poissons Ratio (x) = 0.35775 -0.05014
# Poissons Ratio (y) = 0.17315 0.23233
# Poissons Ratio (z) = -0.02999 0.28716
#
# Static dielectric constant tensor:
#      x y z
#    x 4.046750 0.000000 0.000000 
#    y 0.000000 4.704250 0.000000 
#    z 0.000000 0.000000 3.582030 
# 
# 
# High freq. dielectric constant tensor:
#      x y z
#    x 1.832020 0.000000 0.000000 
#    y 0.000000 1.825430 0.000000 
#    z 0.000000 0.000000 1.785920 
# 
# From -- ./inp_files/14011.got.cif
#   From: 2010.03.12/outbox.cif.g09.slc.cpg/sg54_8_cif.got.tgz:14011.got - 2010.04.16 15:00:50.
