data_PCOD8223978
_publ_section_title
;
Structure prediction by ZEFSAII (Michael W. Deem and Ramdas Pophale) SiO2 
 PCOD8223978
Probable space group: P C C A
;
_chemical_formula_sum "Si O2"
_cell_formula_units_Z 48
_cell_length_a 12.964284
_cell_length_b 6.715406
_cell_length_c 25.085301
_cell_angle_alpha 90.000000
_cell_angle_beta 90.000000
_cell_angle_gamma 90.000000
_cell_volume 2183.937106
_symmetry_space_group_name_H-M "P C C A"
_symmetry_group_IT_number 54
_symmetry_cell_setting 'orthorhombic'
loop_
_space_group_symop_operation_xyz
x,y,z
1/2-x,-y,z
1/2+x,-y,1/2-z
-x,y,1/2-z
-x,-y,-z
1/2+x,y,-z
1/2-x,y,1/2+z
x,-y,1/2+z
loop_
_atom_site_type_symbol
_atom_site_label
_atom_site_fract_x
_atom_site_fract_y
_atom_site_fract_z
Si Si1 0.457351 0.135566 0.676732
Si Si2 0.250000 0.500000 0.534853
Si Si3 0.631032 0.184053 0.197408
Si Si4 0.410135 0.181612 0.559868
Si Si5 0.750000 0.000000 0.783423
Si Si6 0.000000 0.515699 0.750000
Si Si7 0.250000 0.000000 0.394771
Si Si8 0.380457 0.171453 0.987163
O O1 0.474794 0.159972 0.614110
O O2 0.441963 0.342119 0.708217
O O3 0.550263 0.002397 0.701354
O O4 0.346158 0.033506 0.678461
O O5 0.324836 0.354916 0.568873
O O6 0.178846 0.374010 0.496353
O O7 0.716648 0.177982 0.243864
O O8 0.571002 0.387947 0.209474
O O9 0.694388 0.171267 0.141774
O O10 0.498527 0.228953 0.515950
O O11 0.358307 0.979373 0.536799
O O12 0.340305 0.914331 0.431271
#
# Coordination Sequence:
#
# PCOD8223978 Si02
#       8
#     8   4   8   8   4   4   4   8
#     4  12  25  45  68 101 137 183 226 283 356 414
#     4  12  24  42  68 104 132 182 232 286 334 416
#     4  11  24  46  68  99 140 176 231 290 342 417
#     4  11  26  44  70  99 149 180 230 284 362 414
#     4  11  22  43  70  90 138 177 218 285 338 410
#     4  12  24  46  68 100 138 174 232 296 336 410
#     4  11  22  47  76  98 130 193 230 277 366 408
#     4  11  24  47  70 101 140 184 228 295 342 421
#
# _framework density 21.978653000000001
#
# number of rings (size 3 to 8) (size 9 to 14) (size 15 to 20)
#    0.000    0.667    6.667    0.500    2.333    4.667 
#    0.000    0.000    0.000    0.000    0.000    0.000 
#    0.000    0.000    0.000    0.000    0.000    0.000 
#
# Total GULP energy -594708.918924 kJ/mol
# GULP energy per Si atom -12389.769144 kJ/mol
# Density = 2.192863 g / cm^3
# Si number density = 21.978653 Si / 1000 Ang^3
#
#
#
# Elastic Constant Matrix: (Units=GPa)
#
#
# Indices 1 2 3 4 5 6 
#
# 1 94.4194 22.9089 13.2430 0.0000 0.0000 0.0000
# 2 22.9089 95.3664 37.1649 0.0000 0.0000 0.0000
# 3 13.2430 37.1649 102.9241 0.0000 0.0000 0.0000
# 4 0.0000 0.0000 0.0000 6.2565 0.0000 0.0000
# 5 0.0000 0.0000 0.0000 0.0000 42.8748 0.0000
# 6 0.0000 0.0000 0.0000 0.0000 0.0000 31.1306
#
#
#
# Elastic Compliance Matrix: (Units=1/GPa)
#
#
# Indices 1 2 3 4 5 6 
#
# 1 0.011273 -0.002494 -0.000550 0.000000 0.000000 0.000000
# 2 -0.002494 0.012755 -0.004285 0.000000 0.000000 0.000000
# 3 -0.000550 -0.004285 0.011334 0.000000 0.000000 0.000000
# 4 0.000000 0.000000 0.000000 0.159835 0.000000 0.000000
# 5 0.000000 0.000000 0.000000 0.000000 0.023324 0.000000
# 6 0.000000 0.000000 0.000000 0.000000 0.000000 0.032123
#
#
# Mechanical properties :
#
#
# Convention : Reuss Voigt Hill
#
# Bulk Modulus (GPa) = 48.29796 48.81595 48.55696
# Shear Modulus (GPa) = 18.36873 30.67856 24.52364
#
# Velocity S-wave (km/s) = 2.89408 3.74014 3.34397
# Velocity P-wave (km/s) = 5.76109 6.39612 6.08689
#
# Compressibility (1/GPa) = 0.02070481
#
# Stress axis : x y z
#
# Youngs Moduli (GPa) = 88.70570 78.40247 88.23121
#
# Poissons Ratio (x) = 0.19551 0.04853
# Poissons Ratio (y) = 0.22120 0.37805
# Poissons Ratio (z) = 0.04879 0.33593
#
# Static dielectric constant tensor:
#      x y z
#    x 4.217830 0.000000 0.000000 
#    y 0.000000 3.773470 0.000000 
#    z 0.000000 0.000000 3.871920 
# 
# 
# High freq. dielectric constant tensor:
#      x y z
#    x 1.889160 0.000000 0.000000 
#    y 0.000000 1.839410 0.000000 
#    z 0.000000 0.000000 1.863840 
# 
# From -- ./inp_files/26532.got.cif
#   From: 2010.03.12/outbox.cif.g09.slc.cpg/sg54_14_cif.got.tgz:26532.got - 2010.04.16 15:00:50.
