data_PCOD8223080
_publ_section_title
;
Structure prediction by ZEFSAII (Michael W. Deem and Ramdas Pophale) SiO2 
 PCOD8223080
Probable space group: P C C A
;
_chemical_formula_sum "Si O2"
_cell_formula_units_Z 28
_cell_length_a 8.503832
_cell_length_b 8.228339
_cell_length_c 18.613239
_cell_angle_alpha 90.000000
_cell_angle_beta 90.000000
_cell_angle_gamma 90.000000
_cell_volume 1302.413237
_symmetry_space_group_name_H-M "P C C A"
_symmetry_group_IT_number 54
_symmetry_cell_setting 'orthorhombic'
loop_
_space_group_symop_operation_xyz
x,y,z
1/2-x,-y,z
1/2+x,-y,1/2-z
-x,y,1/2-z
-x,-y,-z
1/2+x,y,-z
1/2-x,y,1/2+z
x,-y,1/2+z
loop_
_atom_site_type_symbol
_atom_site_label
_atom_site_fract_x
_atom_site_fract_y
_atom_site_fract_z
Si Si1 0.500000 0.265922 0.250000
Si Si2 0.543482 0.667488 0.411059
Si Si3 0.750000 0.500000 0.294413
Si Si4 0.067910 0.965376 0.678347
Si Si5 0.250000 0.500000 0.474177
O O1 0.660365 0.368897 0.245788
O O2 0.492026 0.148615 0.321490
O O3 0.614538 0.582696 0.341266
O O4 0.531472 0.860870 0.393414
O O5 0.370618 0.597933 0.424666
O O6 0.657960 0.633913 0.478227
O O7 0.000000 0.873577 0.750000
O O8 0.250000 0.000000 0.687106
#
# Coordination Sequence:
#
# PCOD8223080 Si02
#       5
#     4   8   4   8   4
#     4  10  24  38  62  96 132 172 206 260 348 390
#     4  10  20  42  65  90 134 166 221 273 313 389
#     4  11  22  37  64  92 131 166 215 270 320 403
#     4  10  21  40  62  94 136 165 201 270 335 400
#     4   9  22  39  68  94 123 182 229 260 314 371
#
# _framework density 21.498553000000001
#
# number of rings (size 3 to 8) (size 9 to 14) (size 15 to 20)
#    0.857    1.143    2.857    0.000    2.000    3.429 
#    0.000    1.429    0.000    0.000    0.000    0.000 
#    0.000    0.000    0.000    0.000    0.000    0.000 
#
# Total GULP energy -346872.319355 kJ/mol
# GULP energy per Si atom -12388.297120 kJ/mol
# Density = 2.144962 g / cm^3
# Si number density = 21.498553 Si / 1000 Ang^3
#
#
#
# Elastic Constant Matrix: (Units=GPa)
#
#
# Indices 1 2 3 4 5 6 
#
# 1 175.5476 88.6877 72.6135 0.0000 0.0000 0.0000
# 2 88.6877 171.6597 64.2175 0.0000 0.0000 0.0000
# 3 72.6135 64.2175 69.7883 0.0000 0.0000 0.0000
# 4 0.0000 0.0000 0.0000 -29.1701 0.0000 0.0000
# 5 0.0000 0.0000 0.0000 0.0000 30.9781 0.0000
# 6 0.0000 0.0000 0.0000 0.0000 0.0000 35.7034
#
#
#
# Elastic Compliance Matrix: (Units=1/GPa)
#
#
# Indices 1 2 3 4 5 6 
#
# 1 0.010444 -0.002029 -0.009000 0.000000 0.000000 0.000000
# 2 -0.002029 0.009278 -0.006426 0.000000 0.000000 0.000000
# 3 -0.009000 -0.006426 0.029606 0.000000 0.000000 0.000000
# 4 0.000000 0.000000 0.000000 -0.034282 0.000000 0.000000
# 5 0.000000 0.000000 0.000000 0.000000 0.032281 0.000000
# 6 0.000000 0.000000 0.000000 0.000000 0.000000 0.028009
#
#
# Mechanical properties :
#
#
# Convention : Reuss Voigt Hill
#
# Bulk Modulus (GPa) = 69.35587 96.44814 82.90201
# Shear Modulus (GPa) = 43.45861 20.26743 31.86302
#
# Velocity S-wave (km/s) = 4.50095 3.07373 3.85398
# Velocity P-wave (km/s) = 7.70339 7.58664 7.64524
#
# Compressibility (1/GPa) = 0.01441839
#
# Stress axis : x y z
#
# Youngs Moduli (GPa) = 95.74541 107.78483 33.77670
#
# Poissons Ratio (x) = 0.21872 0.30399
# Poissons Ratio (y) = 0.19429 0.21704
# Poissons Ratio (z) = 0.86170 0.69260
#
# Static dielectric constant tensor:
#      x y z
#    x 4.058710 0.000000 0.000000 
#    y 0.000000 4.251640 0.000000 
#    z 0.000000 0.000000 3.587410 
# 
# 
# High freq. dielectric constant tensor:
#      x y z
#    x 1.859910 0.000000 0.000000 
#    y 0.000000 1.845130 0.000000 
#    z 0.000000 0.000000 1.802430 
# 
# From -- ./inp_files/16189.got.cif
#   From: 2010.03.12/outbox.cif.g09.slc.cpg/sg54_9_cif.got.tgz:16189.got - 2010.04.16 15:00:50.
