data_PCOD8223923
_publ_section_title
;
Structure prediction by ZEFSAII (Michael W. Deem and Ramdas Pophale) SiO2 
 PCOD8223923
Probable space group: P C C A
;
_chemical_formula_sum "Si O2"
_cell_formula_units_Z 64
_cell_length_a 17.621103
_cell_length_b 9.573274
_cell_length_c 18.810324
_cell_angle_alpha 90.000000
_cell_angle_beta 90.000000
_cell_angle_gamma 90.000000
_cell_volume 3173.144540
_symmetry_space_group_name_H-M "P C C A"
_symmetry_group_IT_number 54
_symmetry_cell_setting 'orthorhombic'
loop_
_space_group_symop_operation_xyz
x,y,z
1/2-x,-y,z
1/2+x,-y,1/2-z
-x,y,1/2-z
-x,-y,-z
1/2+x,y,-z
1/2-x,y,1/2+z
x,-y,1/2+z
loop_
_atom_site_type_symbol
_atom_site_label
_atom_site_fract_x
_atom_site_fract_y
_atom_site_fract_z
Si Si1 0.923357 0.176399 0.794408
Si Si2 0.919648 0.095952 0.062904
Si Si3 0.148731 0.606848 0.112365
Si Si4 0.856855 0.619586 0.545029
Si Si5 0.817583 0.333054 0.563199
Si Si6 0.815839 0.294818 0.406438
Si Si7 0.328473 0.916782 0.832294
Si Si8 0.087863 0.039744 0.082033
O O1 0.902587 0.329179 0.825300
O O2 0.854784 0.116788 0.746978
O O3 0.000000 0.191413 0.750000
O O4 0.934417 0.074588 0.860266
O O5 0.892129 0.250385 0.085822
O O6 0.009779 0.110955 0.056753
O O7 0.894490 0.999549 0.127804
O O8 0.880583 0.039833 0.989184
O O9 0.225920 0.700973 0.108095
O O10 0.156680 0.441149 0.128581
O O11 0.109565 0.619048 0.035155
O O12 0.869818 0.468942 0.583352
O O13 0.766973 0.627938 0.541606
O O14 0.846333 0.275090 0.487689
O O15 0.818317 0.229607 0.628396
O O16 0.855255 0.151171 0.378480
O O17 0.250000 0.000000 0.831505
#
# Coordination Sequence:
#
# PCOD8223923 Si02
#       8
#     8   8   8   8   8   8   8   8
#     4  12  26  44  57  87 135 171 203 254 319 388
#     4  11  21  39  62  92 123 162 211 263 310 367
#     4   9  20  40  65  91 120 161 206 259 312 375
#     4   9  17  36  63  92 121 150 204 262 317 352
#     4   9  18  35  61  94 122 150 196 273 308 355
#     4   9  19  39  67  94 118 148 217 269 303 363
#     4  12  24  39  61  92 126 167 211 253 317 376
#     4  11  23  39  63  91 124 167 210 261 312 367
#
# _framework density 20.169266
#
# number of rings (size 3 to 8) (size 9 to 14) (size 15 to 20)
#    0.000    1.750    5.000    1.500    1.750    0.000 
#    2.250    5.625    0.000    0.000    0.000    0.000 
#    0.000    0.000    0.000    0.000    0.000    0.000 
#
# Total GULP energy -792862.430973 kJ/mol
# GULP energy per Si atom -12388.475484 kJ/mol
# Density = 2.012336 g / cm^3
# Si number density = 20.169266 Si / 1000 Ang^3
#
#
#
# Elastic Constant Matrix: (Units=GPa)
#
#
# Indices 1 2 3 4 5 6 
#
# 1 56.4370 32.5733 14.9488 0.0000 0.0000 0.0000
# 2 32.5733 115.2521 36.1037 0.0000 0.0000 0.0000
# 3 14.9488 36.1037 77.4481 0.0000 0.0000 0.0000
# 4 0.0000 0.0000 0.0000 10.4238 0.0000 0.0000
# 5 0.0000 0.0000 0.0000 0.0000 24.1453 0.0000
# 6 0.0000 0.0000 0.0000 0.0000 0.0000 20.0844
#
#
#
# Elastic Compliance Matrix: (Units=1/GPa)
#
#
# Indices 1 2 3 4 5 6 
#
# 1 0.021326 -0.005548 -0.001530 0.000000 0.000000 0.000000
# 2 -0.005548 0.011604 -0.004338 0.000000 0.000000 0.000000
# 3 -0.001530 -0.004338 0.015230 0.000000 0.000000 0.000000
# 4 0.000000 0.000000 0.000000 0.095934 0.000000 0.000000
# 5 0.000000 0.000000 0.000000 0.000000 0.041416 0.000000
# 6 0.000000 0.000000 0.000000 0.000000 0.000000 0.049790
#
#
# Mechanical properties :
#
#
# Convention : Reuss Voigt Hill
#
# Bulk Modulus (GPa) = 39.48412 46.26543 42.87478
# Shear Modulus (GPa) = 18.75649 21.96480 20.36065
#
# Velocity S-wave (km/s) = 3.05282 3.30362 3.18069
# Velocity P-wave (km/s) = 5.66085 6.12701 5.89853
#
# Compressibility (1/GPa) = 0.02532664
#
# Stress axis : x y z
#
# Youngs Moduli (GPa) = 46.89046 86.17938 65.66168
#
# Poissons Ratio (x) = 0.47813 0.10046
# Poissons Ratio (y) = 0.26015 0.28486
# Poissons Ratio (z) = 0.07174 0.37388
#
# Static dielectric constant tensor:
#      x y z
#    x 3.455060 0.000000 0.000000 
#    y 0.000000 3.934890 0.000000 
#    z 0.000000 0.000000 3.453220 
# 
# 
# High freq. dielectric constant tensor:
#      x y z
#    x 1.770530 0.000000 0.000000 
#    y 0.000000 1.802980 0.000000 
#    z 0.000000 0.000000 1.760380 
# 
# From -- ./inp_files/21941.got.cif
#   From: 2010.03.12/outbox.cif.g09.slc.cpg/sg54_11_cif.got.tgz:21941.got - 2010.04.16 15:00:50.
