data_PCOD8223197
_publ_section_title
;
Structure prediction by ZEFSAII (Michael W. Deem and Ramdas Pophale) SiO2 
 PCOD8223197
Probable space group: P C C A
;
_chemical_formula_sum "Si O2"
_cell_formula_units_Z 32
_cell_length_a 5.383120
_cell_length_b 12.662851
_cell_length_c 18.170942
_cell_angle_alpha 90.000000
_cell_angle_beta 90.000000
_cell_angle_gamma 90.000000
_cell_volume 1238.634008
_symmetry_space_group_name_H-M "P C C A"
_symmetry_group_IT_number 54
_symmetry_cell_setting 'orthorhombic'
loop_
_space_group_symop_operation_xyz
x,y,z
1/2-x,-y,z
1/2+x,-y,1/2-z
-x,y,1/2-z
-x,-y,-z
1/2+x,y,-z
1/2-x,y,1/2+z
x,-y,1/2+z
loop_
_atom_site_type_symbol
_atom_site_label
_atom_site_fract_x
_atom_site_fract_y
_atom_site_fract_z
Si Si1 0.955103 0.119222 0.972725
Si Si2 0.892453 0.096764 0.676168
Si Si3 0.744217 0.378152 0.036264
Si Si4 0.745951 0.677007 0.205929
O O1 0.900411 0.128086 0.885041
O O2 0.724985 0.176035 0.014327
O O3 0.000000 0.000000 0.000000
O O4 0.726187 0.196561 0.698391
O O5 0.000000 0.046292 0.750000
O O6 0.750000 0.000000 0.637114
O O7 0.750000 0.500000 0.012836
O O8 0.751461 0.372201 0.124880
O O9 0.488706 0.325914 0.003320
O O10 0.500000 0.637374 0.250000
O O11 0.000000 0.646120 0.250000
#
# Coordination Sequence:
#
# PCOD8223197 Si02
#       4
#     8   8   8   8
#     4  10  21  38  55  81 109 144 202 260 302 369
#     4  11  24  39  62  87 124 171 215 266 318 371
#     4  10  22  43  71 102 133 170 212 263 330 397
#     4  11  25  43  63  97 133 173 221 268 328 390
#
# _framework density 25.834911000000002
#
# number of rings (size 3 to 8) (size 9 to 14) (size 15 to 20)
#    0.000    1.500    2.500    2.250    3.500    7.000 
#    0.000    0.000    0.000    0.000    0.000    0.000 
#    0.000    0.000    0.000    0.000    0.000    0.000 
#
# Total GULP energy -396611.743274 kJ/mol
# GULP energy per Si atom -12394.116977 kJ/mol
# Density = 2.577611 g / cm^3
# Si number density = 25.834911 Si / 1000 Ang^3
#
#
#
# Elastic Constant Matrix: (Units=GPa)
#
#
# Indices 1 2 3 4 5 6 
#
# 1 234.9356 34.6142 97.7952 0.0000 0.0000 0.0000
# 2 34.6142 37.4408 -8.4457 0.0000 0.0000 0.0000
# 3 97.7952 -8.4457 228.7321 0.0000 0.0000 0.0000
# 4 0.0000 0.0000 0.0000 24.0354 0.0000 0.0000
# 5 0.0000 0.0000 0.0000 0.0000 50.9609 0.0000
# 6 0.0000 0.0000 0.0000 0.0000 0.0000 30.6342
#
#
#
# Elastic Compliance Matrix: (Units=1/GPa)
#
#
# Indices 1 2 3 4 5 6 
#
# 1 0.006503 -0.006695 -0.003028 0.000000 0.000000 0.000000
# 2 -0.006695 0.033826 0.004112 0.000000 0.000000 0.000000
# 3 -0.003028 0.004112 0.005818 0.000000 0.000000 0.000000
# 4 0.000000 0.000000 0.000000 0.041605 0.000000 0.000000
# 5 0.000000 0.000000 0.000000 0.000000 0.019623 0.000000
# 6 0.000000 0.000000 0.000000 0.000000 0.000000 0.032643
#
#
# Mechanical properties :
#
#
# Convention : Reuss Voigt Hill
#
# Bulk Modulus (GPa) = 28.63294 83.22622 55.92958
# Shear Modulus (GPa) = 30.69681 46.26909 38.48295
#
# Velocity S-wave (km/s) = 3.45075 4.23656 3.86368
# Velocity P-wave (km/s) = 5.19462 7.49772 6.44980
#
# Compressibility (1/GPa) = 0.03492481
#
# Stress axis : x y z
#
# Youngs Moduli (GPa) = 153.76907 29.56298 171.87298
#
# Poissons Ratio (x) = 0.19793 0.52038
# Poissons Ratio (y) = 1.02952 -0.70667
# Poissons Ratio (z) = 0.46557 -0.12155
#
# Static dielectric constant tensor:
#      x y z
#    x 6.160660 0.000000 0.000000 
#    y 0.000000 4.461340 0.000000 
#    z 0.000000 0.000000 4.689050 
# 
# 
# High freq. dielectric constant tensor:
#      x y z
#    x 2.036140 0.000000 0.000000 
#    y 0.000000 2.050160 0.000000 
#    z 0.000000 0.000000 2.045870 
# 
# From -- ./inp_files/15668.got.cif
#   From: 2010.03.12/outbox.cif.g09.slc.cpg/sg54_8_cif.got.tgz:15668.got - 2010.04.16 15:00:50.
