data_PCOD8223391
_publ_section_title
;
Structure prediction by ZEFSAII (Michael W. Deem and Ramdas Pophale) SiO2 
 PCOD8223391
Probable space group: P C C A
;
_chemical_formula_sum "Si O2"
_cell_formula_units_Z 36
_cell_length_a 22.725075
_cell_length_b 5.415559
_cell_length_c 13.549185
_cell_angle_alpha 90.000000
_cell_angle_beta 90.000000
_cell_angle_gamma 90.000000
_cell_volume 1667.484438
_symmetry_space_group_name_H-M "P C C A"
_symmetry_group_IT_number 54
_symmetry_cell_setting 'orthorhombic'
loop_
_space_group_symop_operation_xyz
x,y,z
1/2-x,-y,z
1/2+x,-y,1/2-z
-x,y,1/2-z
-x,-y,-z
1/2+x,y,-z
1/2-x,y,1/2+z
x,-y,1/2+z
loop_
_atom_site_type_symbol
_atom_site_label
_atom_site_fract_x
_atom_site_fract_y
_atom_site_fract_z
Si Si1 0.663101 0.250822 0.747673
Si Si2 0.690811 0.346146 0.523835
Si Si3 0.591645 0.514546 0.890731
Si Si4 0.250000 0.000000 0.116811
Si Si5 0.445611 0.019090 0.677262
O O1 0.681916 0.267431 0.635534
O O2 0.632810 0.499675 0.791620
O O3 0.615398 0.029202 0.760302
O O4 0.721108 0.205054 0.813048
O O5 0.750000 0.500000 0.514104
O O6 0.632967 0.492807 0.487800
O O7 0.698413 0.108854 0.453036
O O8 0.550815 0.265690 0.893078
O O9 0.553301 0.765534 0.886389
O O10 0.500000 0.019252 0.750000
#
# Coordination Sequence:
#
# PCOD8223391 Si02
#       5
#     8   8   8   4   8
#     4  10  25  38  65  97 132 170 221 266 333 392
#     4  12  23  39  64  95 133 180 213 270 335 400
#     4  10  22  43  63  95 134 163 224 271 322 390
#     4  12  22  44  62  96 136 172 218 278 320 408
#     4  10  21  44  70  90 131 176 219 279 332 376
#
# _framework density 21.589404999999999
#
# number of rings (size 3 to 8) (size 9 to 14) (size 15 to 20)
#    1.333    0.000    4.444    1.333    3.111    1.778 
#    0.000    2.222    0.000    0.000    0.000    0.000 
#    0.000    0.000    0.000    0.000    0.000    0.000 
#
# Total GULP energy -446089.509742 kJ/mol
# GULP energy per Si atom -12391.375271 kJ/mol
# Density = 2.154027 g / cm^3
# Si number density = 21.589405 Si / 1000 Ang^3
#
#
#
# Elastic Constant Matrix: (Units=GPa)
#
#
# Indices 1 2 3 4 5 6 
#
# 1 21.5250 -5.4921 3.6822 0.0000 0.0000 0.0000
# 2 -5.4921 123.2611 19.8601 0.0000 0.0000 0.0000
# 3 3.6822 19.8601 124.1173 0.0000 0.0000 0.0000
# 4 0.0000 0.0000 0.0000 11.9755 0.0000 0.0000
# 5 0.0000 0.0000 0.0000 0.0000 16.5178 0.0000
# 6 0.0000 0.0000 0.0000 0.0000 0.0000 25.2756
#
#
#
# Elastic Compliance Matrix: (Units=1/GPa)
#
#
# Indices 1 2 3 4 5 6 
#
# 1 0.047376 0.002399 -0.001789 0.000000 0.000000 0.000000
# 2 0.002399 0.008449 -0.001423 0.000000 0.000000 0.000000
# 3 -0.001789 -0.001423 0.008338 0.000000 0.000000 0.000000
# 4 0.000000 0.000000 0.000000 0.083504 0.000000 0.000000
# 5 0.000000 0.000000 0.000000 0.000000 0.060541 0.000000
# 6 0.000000 0.000000 0.000000 0.000000 0.000000 0.039564
#
#
# Mechanical properties :
#
#
# Convention : Reuss Voigt Hill
#
# Bulk Modulus (GPa) = 15.99077 33.88932 24.94005
# Shear Modulus (GPa) = 18.50185 27.47732 22.98958
#
# Velocity S-wave (km/s) = 2.93061 3.57139 3.26675
# Velocity P-wave (km/s) = 4.34444 5.72169 5.07996
#
# Compressibility (1/GPa) = 0.06253606
#
# Stress axis : x y z
#
# Youngs Moduli (GPa) = 21.10778 118.35643 119.93719
#
# Poissons Ratio (x) = -0.28397 0.21462
# Poissons Ratio (y) = -0.05064 0.17069
# Poissons Ratio (z) = 0.03777 0.16844
#
# Static dielectric constant tensor:
#      x y z
#    x 3.744780 0.000000 0.000000 
#    y 0.000000 3.958250 0.000000 
#    z 0.000000 0.000000 3.656480 
# 
# 
# High freq. dielectric constant tensor:
#      x y z
#    x 1.838900 0.000000 0.000000 
#    y 0.000000 1.846400 0.000000 
#    z 0.000000 0.000000 1.828420 
# 
# From -- ./inp_files/14782.got.cif
#   From: 2010.03.12/outbox.cif.g09.slc.cpg/sg54_8_cif.got.tgz:14782.got - 2010.04.16 15:00:50.
