data_PCOD8223944
_publ_section_title
;
Structure prediction by ZEFSAII (Michael W. Deem and Ramdas Pophale) SiO2 
 PCOD8223944
Probable space group: P C C A
;
_chemical_formula_sum "Si O2"
_cell_formula_units_Z 64
_cell_length_a 30.176118
_cell_length_b 11.404874
_cell_length_c 8.871154
_cell_angle_alpha 90.000000
_cell_angle_beta 90.000000
_cell_angle_gamma 90.000000
_cell_volume 3053.050440
_symmetry_space_group_name_H-M "P C C A"
_symmetry_group_IT_number 54
_symmetry_cell_setting 'orthorhombic'
loop_
_space_group_symop_operation_xyz
x,y,z
1/2-x,-y,z
1/2+x,-y,1/2-z
-x,y,1/2-z
-x,-y,-z
1/2+x,y,-z
1/2-x,y,1/2+z
x,-y,1/2+z
loop_
_atom_site_type_symbol
_atom_site_label
_atom_site_fract_x
_atom_site_fract_y
_atom_site_fract_z
Si Si1 0.161864 0.822389 0.482513
Si Si2 0.720451 0.597363 0.156014
Si Si3 0.151789 0.768294 0.153491
Si Si4 0.750504 0.750576 0.907796
Si Si5 0.400228 0.037509 0.988354
Si Si6 0.549748 0.122934 0.802446
Si Si7 0.099760 0.341015 0.144993
Si Si8 0.374018 0.557424 0.446926
O O1 0.150373 0.749234 0.332103
O O2 0.214946 0.836468 0.505727
O O3 0.141896 0.745736 0.620780
O O4 0.140922 0.950223 0.462461
O O5 0.750000 0.500000 0.237361
O O6 0.723732 0.716042 0.254338
O O7 0.672381 0.537622 0.139760
O O8 0.742429 0.629311 0.996391
O O9 0.202009 0.809314 0.110583
O O10 0.116671 0.864756 0.103142
O O11 0.136017 0.647097 0.081271
O O12 0.441423 0.969826 0.064110
O O13 0.415833 0.097265 0.833449
O O14 0.500000 0.107596 0.750000
O O15 0.557129 0.254629 0.869572
O O16 0.095187 0.391256 0.314560
O O17 0.102166 0.443741 0.019376
#
# Coordination Sequence:
#
# PCOD8223944 Si02
#       8
#     8   8   8   8   8   8   8   8
#     4  11  22  41  61  91 132 170 223 269 317 379
#     4  11  22  33  52  83 122 171 225 268 305 353
#     4  11  23  41  61  92 132 177 226 267 318 386
#     4  11  22  35  54  86 127 170 222 269 307 366
#     4  11  23  43  72  97 126 170 209 271 338 397
#     4  11  24  46  74 102 129 159 215 278 338 412
#     4  11  23  40  66  96 131 172 215 260 333 390
#     4  11  23  37  62  89 133 175 213 264 320 381
#
# _framework density 20.962641000000001
#
# number of rings (size 3 to 8) (size 9 to 14) (size 15 to 20)
#    0.000    1.000    5.000    2.250    3.500    0.500 
#    0.000    1.875    0.000    0.000    0.000    0.000 
#    0.000    0.000    0.000    0.000    0.000    0.000 
#
# Total GULP energy -793142.401834 kJ/mol
# GULP energy per Si atom -12392.850029 kJ/mol
# Density = 2.091493 g / cm^3
# Si number density = 20.962641 Si / 1000 Ang^3
#
#
#
# Elastic Constant Matrix: (Units=GPa)
#
#
# Indices 1 2 3 4 5 6 
#
# 1 65.6507 35.4626 9.1762 0.0000 0.0000 0.0000
# 2 35.4626 94.4955 26.5306 0.0000 0.0000 0.0000
# 3 9.1762 26.5306 82.2848 0.0000 0.0000 0.0000
# 4 0.0000 0.0000 0.0000 33.4652 0.0000 0.0000
# 5 0.0000 0.0000 0.0000 0.0000 24.0302 0.0000
# 6 0.0000 0.0000 0.0000 0.0000 0.0000 20.2331
#
#
#
# Elastic Compliance Matrix: (Units=1/GPa)
#
#
# Indices 1 2 3 4 5 6 
#
# 1 0.019108 -0.007227 0.000199 0.000000 0.000000 0.000000
# 2 -0.007227 0.014369 -0.003827 0.000000 0.000000 0.000000
# 3 0.000199 -0.003827 0.013365 0.000000 0.000000 0.000000
# 4 0.000000 0.000000 0.000000 0.029882 0.000000 0.000000
# 5 0.000000 0.000000 0.000000 0.000000 0.041614 0.000000
# 6 0.000000 0.000000 0.000000 0.000000 0.000000 0.049424
#
#
# Mechanical properties :
#
#
# Convention : Reuss Voigt Hill
#
# Bulk Modulus (GPa) = 39.78918 42.75218 41.27068
# Shear Modulus (GPa) = 25.27184 26.96314 26.11749
#
# Velocity S-wave (km/s) = 3.47589 3.59032 3.53357
# Velocity P-wave (km/s) = 5.92717 6.13400 6.03147
#
# Compressibility (1/GPa) = 0.02513246
#
# Stress axis : x y z
#
# Youngs Moduli (GPa) = 52.33399 69.59366 74.82443
#
# Poissons Ratio (x) = 0.50294 -0.01491
# Poissons Ratio (y) = 0.37821 0.28636
# Poissons Ratio (z) = -0.01043 0.26634
#
# Static dielectric constant tensor:
#      x y z
#    x 3.492630 0.000000 0.000000 
#    y 0.000000 3.662030 0.000000 
#    z 0.000000 0.000000 3.885190 
# 
# 
# High freq. dielectric constant tensor:
#      x y z
#    x 1.788100 0.000000 0.000000 
#    y 0.000000 1.811870 0.000000 
#    z 0.000000 0.000000 1.836970 
# 
# From -- ./inp_files/5974.got.cif
#   From: 2010.03.12/outbox.cif.g09.slc.cpg/sg54_3_cif.got.tgz:5974.got - 2010.04.16 15:00:50.
