data_PCOD8223300
_publ_section_title
;
Structure prediction by ZEFSAII (Michael W. Deem and Ramdas Pophale) SiO2 
 PCOD8223300
Probable space group: P C C A
;
_chemical_formula_sum "Si O2"
_cell_formula_units_Z 40
_cell_length_a 8.294153
_cell_length_b 8.520656
_cell_length_c 23.257551
_cell_angle_alpha 90.000000
_cell_angle_beta 90.000000
_cell_angle_gamma 90.000000
_cell_volume 1643.648912
_symmetry_space_group_name_H-M "P C C A"
_symmetry_group_IT_number 54
_symmetry_cell_setting 'orthorhombic'
loop_
_space_group_symop_operation_xyz
x,y,z
1/2-x,-y,z
1/2+x,-y,1/2-z
-x,y,1/2-z
-x,-y,-z
1/2+x,y,-z
1/2-x,y,1/2+z
x,-y,1/2+z
loop_
_atom_site_type_symbol
_atom_site_label
_atom_site_fract_x
_atom_site_fract_y
_atom_site_fract_z
Si Si1 0.214309 0.678597 0.829474
Si Si2 0.677340 0.166394 0.274515
Si Si3 0.481271 0.178332 0.920565
Si Si4 0.787483 0.679867 0.482348
Si Si5 0.518290 0.179593 0.388704
O O1 0.250000 0.500000 0.844022
O O2 0.212812 0.706235 0.760196
O O3 0.046758 0.738863 0.858084
O O4 0.352760 0.784652 0.857416
O O5 0.500000 0.179193 0.250000
O O6 0.668413 0.192763 0.343237
O O7 0.750000 0.000000 0.258973
O O8 0.638666 0.243254 0.950556
O O9 0.503525 0.993446 0.915000
O O10 0.324775 0.225622 0.959051
O O11 0.750000 0.500000 0.496721
O O12 0.942950 0.697671 0.439976
#
# Coordination Sequence:
#
# PCOD8223300 Si02
#       5
#     8   8   8   8   8
#     4  11  23  42  67  95 130 173 222 283 347 401
#     4  10  21  40  64  93 128 168 219 274 334 408
#     4  12  24  43  68  98 136 181 227 276 334 405
#     4  12  25  42  66 100 139 177 224 280 338 398
#     4  11  24  43  65  96 132 175 228 277 334 410
#
# _framework density 24.336098
#
# number of rings (size 3 to 8) (size 9 to 14) (size 15 to 20)
#    0.000    0.800    0.000    9.000    0.000    2.400 
#    0.000   11.000    0.000    0.000    0.000    0.000 
#    0.000    0.000    0.000    0.000    0.000    0.000 
#
# Total GULP energy -496020.379200 kJ/mol
# GULP energy per Si atom -12400.509480 kJ/mol
# Density = 2.428071 g / cm^3
# Si number density = 24.336098 Si / 1000 Ang^3
#
#
#
# Elastic Constant Matrix: (Units=GPa)
#
#
# Indices 1 2 3 4 5 6 
#
# 1 37.0559 20.8797 19.0032 0.0000 0.0000 0.0000
# 2 20.8797 119.2718 51.6007 0.0000 0.0000 0.0000
# 3 19.0032 51.6007 142.7835 0.0000 0.0000 0.0000
# 4 0.0000 0.0000 0.0000 8.2017 0.0000 0.0000
# 5 0.0000 0.0000 0.0000 0.0000 39.2063 0.0000
# 6 0.0000 0.0000 0.0000 0.0000 0.0000 38.9081
#
#
#
# Elastic Compliance Matrix: (Units=1/GPa)
#
#
# Indices 1 2 3 4 5 6 
#
# 1 0.030698 -0.004275 -0.002541 0.000000 0.000000 0.000000
# 2 -0.004275 0.010533 -0.003238 0.000000 0.000000 0.000000
# 3 -0.002541 -0.003238 0.008512 0.000000 0.000000 0.000000
# 4 0.000000 0.000000 0.000000 0.121925 0.000000 0.000000
# 5 0.000000 0.000000 0.000000 0.000000 0.025506 0.000000
# 6 0.000000 0.000000 0.000000 0.000000 0.000000 0.025702
#
#
# Mechanical properties :
#
#
# Convention : Reuss Voigt Hill
#
# Bulk Modulus (GPa) = 33.74212 53.56429 43.65320
# Shear Modulus (GPa) = 19.77369 31.10507 25.43938
#
# Velocity S-wave (km/s) = 2.85358 3.57899 3.23667
# Velocity P-wave (km/s) = 4.97517 6.25595 5.65196
#
# Compressibility (1/GPa) = 0.02963655
#
# Stress axis : x y z
#
# Youngs Moduli (GPa) = 32.57557 94.93718 117.48341
#
# Poissons Ratio (x) = 0.40583 0.29850
# Poissons Ratio (y) = 0.13925 0.38038
# Poissons Ratio (z) = 0.08277 0.30738
#
# Static dielectric constant tensor:
#      x y z
#    x 4.617760 0.000000 0.000000 
#    y 0.000000 4.276450 0.000000 
#    z 0.000000 0.000000 5.457680 
# 
# 
# High freq. dielectric constant tensor:
#      x y z
#    x 1.971280 0.000000 0.000000 
#    y 0.000000 1.954370 0.000000 
#    z 0.000000 0.000000 1.991940 
# 
# From -- ./inp_files/23239.got.cif
#   From: 2010.03.12/outbox.cif.g09.slc.cpg/sg54_12_cif.got.tgz:23239.got - 2010.04.16 15:00:50.
