data_PCOD8223573
_publ_section_title
;
Structure prediction by ZEFSAII (Michael W. Deem and Ramdas Pophale) SiO2 
 PCOD8223573
Probable space group: P C C A
;
_chemical_formula_sum "Si O2"
_cell_formula_units_Z 28
_cell_length_a 9.491032
_cell_length_b 6.520731
_cell_length_c 20.168146
_cell_angle_alpha 90.000000
_cell_angle_beta 90.000000
_cell_angle_gamma 90.000000
_cell_volume 1248.175630
_symmetry_space_group_name_H-M "P C C A"
_symmetry_group_IT_number 54
_symmetry_cell_setting 'orthorhombic'
loop_
_space_group_symop_operation_xyz
x,y,z
1/2-x,-y,z
1/2+x,-y,1/2-z
-x,y,1/2-z
-x,-y,-z
1/2+x,y,-z
1/2-x,y,1/2+z
x,-y,1/2+z
loop_
_atom_site_type_symbol
_atom_site_label
_atom_site_fract_x
_atom_site_fract_y
_atom_site_fract_z
Si Si1 0.750000 0.500000 0.331839
Si Si2 0.377382 0.839947 0.874698
Si Si3 0.339009 0.811883 0.562502
Si Si4 0.250000 0.500000 0.459565
Si Si5 0.500000 0.359297 0.250000
O O1 0.741449 0.293387 0.375484
O O2 0.608840 0.509981 0.287442
O O3 0.514972 0.916983 0.914368
O O4 0.347782 0.627334 0.911039
O O5 0.413295 0.790577 0.798634
O O6 0.250000 0.000000 0.878657
O O7 0.351973 0.644265 0.504045
O O8 0.250000 0.000000 0.533481
#
# Coordination Sequence:
#
# PCOD8223573 Si02
#       5
#     4   8   8   4   4
#     4   9  21  40  62  90 127 167 210 260 316 373
#     4  11  25  42  65  96 128 167 212 260 315 375
#     4  10  23  42  65  95 129 164 207 262 321 377
#     4  11  23  42  68  94 125 165 212 260 312 377
#     4  10  22  42  64  90 124 170 214 258 312 372
#
# _framework density 22.432742000000001
#
# number of rings (size 3 to 8) (size 9 to 14) (size 15 to 20)
#    0.000    1.714    0.000    2.571    0.000   18.286 
#    0.000    2.857    0.000    0.000    0.000    0.000 
#    0.000    0.000    0.000    0.000    0.000    0.000 
#
# Total GULP energy -347173.239186 kJ/mol
# GULP energy per Si atom -12399.044257 kJ/mol
# Density = 2.238168 g / cm^3
# Si number density = 22.432742 Si / 1000 Ang^3
#
#
#
# Elastic Constant Matrix: (Units=GPa)
#
#
# Indices 1 2 3 4 5 6 
#
# 1 137.0390 72.6400 54.8884 0.0000 0.0000 0.0000
# 2 72.6400 118.9890 54.3003 0.0000 0.0000 0.0000
# 3 54.8884 54.3003 134.1328 0.0000 0.0000 0.0000
# 4 0.0000 0.0000 0.0000 34.4950 0.0000 0.0000
# 5 0.0000 0.0000 0.0000 0.0000 49.4116 0.0000
# 6 0.0000 0.0000 0.0000 0.0000 0.0000 45.2330
#
#
#
# Elastic Compliance Matrix: (Units=1/GPa)
#
#
# Indices 1 2 3 4 5 6 
#
# 1 0.011316 -0.005881 -0.002250 0.000000 0.000000 0.000000
# 2 -0.005881 0.013365 -0.003004 0.000000 0.000000 0.000000
# 3 -0.002250 -0.003004 0.009592 0.000000 0.000000 0.000000
# 4 0.000000 0.000000 0.000000 0.028990 0.000000 0.000000
# 5 0.000000 0.000000 0.000000 0.000000 0.020238 0.000000
# 6 0.000000 0.000000 0.000000 0.000000 0.000000 0.022108
#
#
# Mechanical properties :
#
#
# Convention : Reuss Voigt Hill
#
# Bulk Modulus (GPa) = 83.31063 83.75757 83.53410
# Shear Modulus (GPa) = 37.91333 39.71671 38.81502
#
# Velocity S-wave (km/s) = 4.11553 4.21227 4.16418
# Velocity P-wave (km/s) = 7.73318 7.81511 7.77425
#
# Compressibility (1/GPa) = 0.01200327
#
# Stress axis : x y z
#
# Youngs Moduli (GPa) = 88.37220 74.81978 104.25449
#
# Poissons Ratio (x) = 0.44005 0.23453
# Poissons Ratio (y) = 0.51975 0.31317
# Poissons Ratio (z) = 0.19880 0.22475
#
# Static dielectric constant tensor:
#      x y z
#    x 4.876430 0.000000 0.000000 
#    y 0.000000 3.758630 0.000000 
#    z 0.000000 0.000000 4.341670 
# 
# 
# High freq. dielectric constant tensor:
#      x y z
#    x 1.887290 0.000000 0.000000 
#    y 0.000000 1.868180 0.000000 
#    z 0.000000 0.000000 1.903780 
# 
# From -- ./inp_files/20795.got.cif
#   From: 2010.03.12/outbox.cif.g09.slc.cpg/sg54_11_cif.got.tgz:20795.got - 2010.04.16 15:00:50.
