data_PCOD8223672
_publ_section_title
;
Structure prediction by ZEFSAII (Michael W. Deem and Ramdas Pophale) SiO2 
 PCOD8223672
Probable space group: P C C A
;
_chemical_formula_sum "Si O2"
_cell_formula_units_Z 52
_cell_length_a 8.887194
_cell_length_b 24.478882
_cell_length_c 11.400751
_cell_angle_alpha 90.000000
_cell_angle_beta 90.000000
_cell_angle_gamma 90.000000
_cell_volume 2480.217114
_symmetry_space_group_name_H-M "P C C A"
_symmetry_group_IT_number 54
_symmetry_cell_setting 'orthorhombic'
loop_
_space_group_symop_operation_xyz
x,y,z
1/2-x,-y,z
1/2+x,-y,1/2-z
-x,y,1/2-z
-x,-y,-z
1/2+x,y,-z
1/2-x,y,1/2+z
x,-y,1/2+z
loop_
_atom_site_type_symbol
_atom_site_label
_atom_site_fract_x
_atom_site_fract_y
_atom_site_fract_z
Si Si1 0.323065 0.601532 0.559179
Si Si2 0.750000 0.500000 0.090218
Si Si3 0.534484 0.657096 0.375624
Si Si4 0.000000 0.238594 0.250000
Si Si5 0.751829 0.937206 0.147092
Si Si6 0.000000 0.462193 0.750000
Si Si7 0.198149 0.849976 0.661620
Si Si8 0.969862 0.886199 0.471526
O O1 0.238351 0.553529 0.489588
O O2 0.445964 0.629852 0.480033
O O3 0.209582 0.649009 0.597028
O O4 0.393626 0.577000 0.675942
O O5 0.599317 0.501826 0.168309
O O6 0.500000 0.628237 0.250000
O O7 0.494157 0.721893 0.364891
O O8 0.847374 0.201838 0.257387
O O9 0.692346 0.904167 0.259250
O O10 0.921834 0.919465 0.115561
O O11 0.750000 0.000000 0.183810
O O12 0.642134 0.928378 0.036165
O O13 0.363949 0.844581 0.603695
O O14 0.068173 0.851809 0.563007
#
# Coordination Sequence:
#
# PCOD8223672 Si02
#       8
#     8   4   8   4   8   4   8   8
#     4  12  24  47  68 106 139 187 231 290 353 425
#     4  12  26  42  70 104 148 190 230 286 356 426
#     4  10  26  45  72  96 140 176 241 294 350 408
#     4  10  24  47  72  92 132 177 232 300 346 414
#     4  11  22  39  64  97 140 178 224 283 353 421
#     4  12  26  39  72 104 146 187 238 278 356 428
#     4  11  22  44  64  96 130 173 229 281 348 420
#     4  10  23  38  65  93 133 173 224 279 338 431
#
# _framework density 20.965904999999999
#
# number of rings (size 3 to 8) (size 9 to 14) (size 15 to 20)
#    0.462    0.615    3.077    2.769    3.231    6.154 
#    0.000    0.000    6.769    0.000    0.000    0.000 
#    0.000    0.000    0.000    0.000    0.000    0.000 
#
# Total GULP energy -644785.246082 kJ/mol
# GULP energy per Si atom -12399.716271 kJ/mol
# Density = 2.091819 g / cm^3
# Si number density = 20.965905 Si / 1000 Ang^3
#
#
#
# Elastic Constant Matrix: (Units=GPa)
#
#
# Indices 1 2 3 4 5 6 
#
# 1 133.9681 43.0293 45.9150 0.0000 0.0000 0.0000
# 2 43.0293 113.9937 35.3491 0.0000 0.0000 0.0000
# 3 45.9150 35.3491 94.1512 0.0000 0.0000 0.0000
# 4 0.0000 0.0000 0.0000 23.0116 0.0000 0.0000
# 5 0.0000 0.0000 0.0000 0.0000 47.0688 0.0000
# 6 0.0000 0.0000 0.0000 0.0000 0.0000 33.7719
#
#
#
# Elastic Compliance Matrix: (Units=1/GPa)
#
#
# Indices 1 2 3 4 5 6 
#
# 1 0.009526 -0.002439 -0.003730 0.000000 0.000000 0.000000
# 2 -0.002439 0.010553 -0.002773 0.000000 0.000000 0.000000
# 3 -0.003730 -0.002773 0.013481 0.000000 0.000000 0.000000
# 4 0.000000 0.000000 0.000000 0.043456 0.000000 0.000000
# 5 0.000000 0.000000 0.000000 0.000000 0.021245 0.000000
# 6 0.000000 0.000000 0.000000 0.000000 0.000000 0.029610
#
#
# Mechanical properties :
#
#
# Convention : Reuss Voigt Hill
#
# Bulk Modulus (GPa) = 63.78790 65.63331 64.71061
# Shear Modulus (GPa) = 33.11661 35.29176 34.20419
#
# Velocity S-wave (km/s) = 3.97866 4.10725 4.04347
# Velocity P-wave (km/s) = 7.18310 7.33930 7.26162
#
# Compressibility (1/GPa) = 0.01567695
#
# Stress axis : x y z
#
# Youngs Moduli (GPa) = 104.97276 94.76051 74.17770
#
# Poissons Ratio (x) = 0.23115 0.27667
# Poissons Ratio (y) = 0.25606 0.20566
# Poissons Ratio (z) = 0.39154 0.26273
#
# Static dielectric constant tensor:
#      x y z
#    x 3.940160 0.000000 0.000000 
#    y 0.000000 3.546480 0.000000 
#    z 0.000000 0.000000 3.931590 
# 
# 
# High freq. dielectric constant tensor:
#      x y z
#    x 1.833230 0.000000 0.000000 
#    y 0.000000 1.796840 0.000000 
#    z 0.000000 0.000000 1.831070 
# 
# From -- ./inp_files/6997.got.cif
#   From: 2010.03.12/outbox.cif.g09.slc.cpg/sg54_4_cif.got.tgz:6997.got - 2010.04.16 15:00:50.
