data_PCOD8223304
_publ_section_title
;
Structure prediction by ZEFSAII (Michael W. Deem and Ramdas Pophale) SiO2 
 PCOD8223304
Probable space group: P C C A
;
_chemical_formula_sum "Si O2"
_cell_formula_units_Z 60
_cell_length_a 24.699608
_cell_length_b 6.802017
_cell_length_c 17.071157
_cell_angle_alpha 90.000000
_cell_angle_beta 90.000000
_cell_angle_gamma 90.000000
_cell_volume 2868.076495
_symmetry_space_group_name_H-M "P C C A"
_symmetry_group_IT_number 54
_symmetry_cell_setting 'orthorhombic'
loop_
_space_group_symop_operation_xyz
x,y,z
1/2-x,-y,z
1/2+x,-y,1/2-z
-x,y,1/2-z
-x,-y,-z
1/2+x,y,-z
1/2-x,y,1/2+z
x,-y,1/2+z
loop_
_atom_site_type_symbol
_atom_site_label
_atom_site_fract_x
_atom_site_fract_y
_atom_site_fract_z
Si Si1 0.957818 0.104005 0.610917
Si Si2 0.250000 0.000000 0.630944
Si Si3 0.129557 0.797558 0.867900
Si Si4 0.619084 0.485194 0.853474
Si Si5 0.851104 0.156145 0.954306
Si Si6 0.445120 0.856957 0.066909
Si Si7 0.447512 0.518250 0.790213
Si Si8 0.286642 0.317763 0.741072
O O1 0.958903 0.189996 0.523035
O O2 0.969616 0.290210 0.665129
O O3 0.900799 0.008014 0.638264
O O4 0.003279 0.933519 0.616508
O O5 0.199525 0.024886 0.572697
O O6 0.247286 0.179630 0.691767
O O7 0.086184 0.626116 0.847403
O O8 0.182847 0.787867 0.813480
O O9 0.152345 0.782171 0.955268
O O10 0.644911 0.637378 0.912163
O O11 0.575697 0.342893 0.894735
O O12 0.591676 0.591516 0.779310
O O13 0.668763 0.359936 0.823615
O O14 0.903399 0.034216 0.931824
O O15 0.500000 0.413942 0.750000
O O16 0.250000 0.500000 0.771526
#
# Coordination Sequence:
#
# PCOD8223304 Si02
#       8
#     8   4   8   8   8   8   8   8
#     4  10  22  39  63  95 132 174 214 267 329 398
#     4  12  24  42  70  90 124 168 226 274 330 396
#     4  10  25  43  64  94 134 167 218 271 331 390
#     4  11  22  38  64  90 126 169 213 269 324 395
#     4  11  23  42  66  97 124 174 220 271 328 399
#     4  10  21  40  64  94 133 170 215 270 331 390
#     4  11  23  37  61  96 130 173 216 259 322 390
#     4  11  24  43  62  93 126 169 214 276 337 386
#
# _framework density 20.919944999999998
#
# number of rings (size 3 to 8) (size 9 to 14) (size 15 to 20)
#    0.000    1.333    2.667    2.400    1.867    3.200 
#    2.400    6.667    0.000    0.000    0.000    0.000 
#    0.000    0.000    0.000    0.000    0.000    0.000 
#
# Total GULP energy -743779.788978 kJ/mol
# GULP energy per Si atom -12396.329816 kJ/mol
# Density = 2.087233 g / cm^3
# Si number density = 20.919945 Si / 1000 Ang^3
#
#
#
# Elastic Constant Matrix: (Units=GPa)
#
#
# Indices 1 2 3 4 5 6 
#
# 1 81.1464 8.0149 40.1433 0.0000 0.0000 0.0000
# 2 8.0149 54.7628 45.1819 0.0000 0.0000 0.0000
# 3 40.1433 45.1819 118.7613 0.0000 0.0000 0.0000
# 4 0.0000 0.0000 0.0000 16.8172 0.0000 0.0000
# 5 0.0000 0.0000 0.0000 0.0000 31.5719 0.0000
# 6 0.0000 0.0000 0.0000 0.0000 0.0000 33.8223
#
#
#
# Elastic Compliance Matrix: (Units=1/GPa)
#
#
# Indices 1 2 3 4 5 6 
#
# 1 0.015111 0.002919 -0.006218 0.000000 0.000000 0.000000
# 2 0.002919 0.027178 -0.011326 0.000000 0.000000 0.000000
# 3 -0.006218 -0.011326 0.014831 0.000000 0.000000 0.000000
# 4 0.000000 0.000000 0.000000 0.059463 0.000000 0.000000
# 5 0.000000 0.000000 0.000000 0.000000 0.031674 0.000000
# 6 0.000000 0.000000 0.000000 0.000000 0.000000 0.029566
#
#
# Mechanical properties :
#
#
# Convention : Reuss Voigt Hill
#
# Bulk Modulus (GPa) = 35.88228 49.03896 42.46062
# Shear Modulus (GPa) = 23.10909 27.19763 25.15336
#
# Velocity S-wave (km/s) = 3.32722 3.60958 3.47127
# Velocity P-wave (km/s) = 5.65243 6.39251 6.03383
#
# Compressibility (1/GPa) = 0.02786891
#
# Stress axis : x y z
#
# Youngs Moduli (GPa) = 66.17559 36.79421 67.42559
#
# Poissons Ratio (x) = -0.10739 0.41927
# Poissons Ratio (y) = -0.19315 0.76369
# Poissons Ratio (z) = 0.41150 0.41674
#
# Static dielectric constant tensor:
#      x y z
#    x 3.925570 0.000000 0.000000 
#    y 0.000000 3.612780 0.000000 
#    z 0.000000 0.000000 3.978870 
# 
# 
# High freq. dielectric constant tensor:
#      x y z
#    x 1.827320 0.000000 0.000000 
#    y 0.000000 1.812500 0.000000 
#    z 0.000000 0.000000 1.828330 
# 
# From -- ./inp_files/19264.got.cif
#   From: 2010.03.12/outbox.cif.g09.slc.cpg/sg54_10_cif.got.tgz:19264.got - 2010.04.16 15:00:50.
