data_PCOD8223625
_publ_section_title
;
Structure prediction by ZEFSAII (Michael W. Deem and Ramdas Pophale) SiO2 
 PCOD8223625
Probable space group: P C C A
;
_chemical_formula_sum "Si O2"
_cell_formula_units_Z 48
_cell_length_a 9.368465
_cell_length_b 15.572544
_cell_length_c 14.639936
_cell_angle_alpha 90.000000
_cell_angle_beta 90.000000
_cell_angle_gamma 90.000000
_cell_volume 2135.832464
_symmetry_space_group_name_H-M "P C C A"
_symmetry_group_IT_number 54
_symmetry_cell_setting 'orthorhombic'
loop_
_space_group_symop_operation_xyz
x,y,z
1/2-x,-y,z
1/2+x,-y,1/2-z
-x,y,1/2-z
-x,-y,-z
1/2+x,y,-z
1/2-x,y,1/2+z
x,-y,1/2+z
loop_
_atom_site_type_symbol
_atom_site_label
_atom_site_fract_x
_atom_site_fract_y
_atom_site_fract_z
Si Si1 0.982994 0.201586 0.354933
Si Si2 0.596909 0.026482 0.582576
Si Si3 0.842454 0.772230 0.354706
Si Si4 0.500000 0.918306 0.750000
Si Si5 0.000000 0.365217 0.750000
Si Si6 0.870462 0.426862 0.567262
Si Si7 0.895731 0.332124 0.024999
O O1 0.818127 0.206570 0.381278
O O2 0.049662 0.293547 0.380056
O O3 0.000000 0.183959 0.250000
O O4 0.071450 0.127684 0.406049
O O5 0.750000 0.000000 0.545212
O O6 0.500000 0.000000 0.500000
O O7 0.581959 0.978699 0.679564
O O8 0.899113 0.860397 0.312919
O O9 0.867772 0.694630 0.282659
O O10 0.923784 0.738893 0.445656
O O11 0.066659 0.424852 0.829785
O O12 0.750000 0.500000 0.555578
O O13 0.009561 0.419443 0.498662
O O14 0.773405 0.345598 0.538001
#
# Coordination Sequence:
#
# PCOD8223625 Si02
#       7
#     8   8   8   4   4   8   8
#     4  12  24  42  70  96 135 178 241 285 355 425
#     4  12  29  44  66 100 140 187 239 299 362 421
#     4  10  22  43  71  98 133 190 226 293 349 423
#     4  11  24  46  70  97 148 174 238 301 360 414
#     4   9  22  44  66 105 150 182 240 283 364 438
#     4  11  23  45  70 107 145 185 230 298 362 431
#     4  11  23  43  73 104 139 184 240 285 357 443
#
# _framework density 22.473672000000001
#
# number of rings (size 3 to 8) (size 9 to 14) (size 15 to 20)
#    0.000    1.000    2.500    3.500    4.667    2.667 
#    4.500    1.667    0.000    0.000    0.000    0.000 
#    0.000    0.000    0.000    0.000    0.000    0.000 
#
# Total GULP energy -594749.982305 kJ/mol
# GULP energy per Si atom -12390.624631 kJ/mol
# Density = 2.242252 g / cm^3
# Si number density = 22.473672 Si / 1000 Ang^3
#
#
#
# Elastic Constant Matrix: (Units=GPa)
#
#
# Indices 1 2 3 4 5 6 
#
# 1 130.5047 -0.8902 15.2317 0.0000 0.0000 0.0000
# 2 -0.8902 40.8911 5.8721 0.0000 0.0000 0.0000
# 3 15.2317 5.8721 78.1329 0.0000 0.0000 0.0000
# 4 0.0000 0.0000 0.0000 -35.3817 0.0000 0.0000
# 5 0.0000 0.0000 0.0000 0.0000 41.7686 0.0000
# 6 0.0000 0.0000 0.0000 0.0000 0.0000 39.0774
#
#
#
# Elastic Compliance Matrix: (Units=1/GPa)
#
#
# Indices 1 2 3 4 5 6 
#
# 1 0.007847 0.000395 -0.001559 0.000000 0.000000 0.000000
# 2 0.000395 0.024742 -0.001936 0.000000 0.000000 0.000000
# 3 -0.001559 -0.001936 0.013248 0.000000 0.000000 0.000000
# 4 0.000000 0.000000 0.000000 -0.028263 0.000000 0.000000
# 5 0.000000 0.000000 0.000000 0.000000 0.023941 0.000000
# 6 0.000000 0.000000 0.000000 0.000000 0.000000 0.025590
#
#
# Mechanical properties :
#
#
# Convention : Reuss Voigt Hill
#
# Bulk Modulus (GPa) = 25.23015 32.21733 28.72374
# Shear Modulus (GPa) = 57.79022 24.38054 41.08538
#
# Velocity S-wave (km/s) = 5.07646 3.29728 4.28033
# Velocity P-wave (km/s) = 6.75363 5.37241 6.10222
#
# Compressibility (1/GPa) = 0.03963512
#
# Stress axis : x y z
#
# Youngs Moduli (GPa) = 127.43301 40.41730 75.48169
#
# Poissons Ratio (x) = -0.01596 0.11771
# Poissons Ratio (y) = -0.05031 0.14617
# Poissons Ratio (z) = 0.19873 0.07827
#
# Static dielectric constant tensor:
#      x y z
#    x 4.175600 0.000000 0.000000 
#    y 0.000000 4.160370 0.000000 
#    z 0.000000 0.000000 4.162670 
# 
# 
# High freq. dielectric constant tensor:
#      x y z
#    x 1.895200 0.000000 0.000000 
#    y 0.000000 1.885300 0.000000 
#    z 0.000000 0.000000 1.892930 
# 
# From -- ./inp_files/11773.got.cif
#   From: 2010.03.12/outbox.cif.g09.slc.cpg/sg54_6_cif.got.tgz:11773.got - 2010.04.16 15:00:50.
