data_PCOD8223948
_publ_section_title
;
Structure prediction by ZEFSAII (Michael W. Deem and Ramdas Pophale) SiO2 
 PCOD8223948
Probable space group: P C C A
;
_chemical_formula_sum "Si O2"
_cell_formula_units_Z 64
_cell_length_a 14.894823
_cell_length_b 8.671776
_cell_length_c 24.619872
_cell_angle_alpha 90.000000
_cell_angle_beta 90.000000
_cell_angle_gamma 90.000000
_cell_volume 3180.015146
_symmetry_space_group_name_H-M "P C C A"
_symmetry_group_IT_number 54
_symmetry_cell_setting 'orthorhombic'
loop_
_space_group_symop_operation_xyz
x,y,z
1/2-x,-y,z
1/2+x,-y,1/2-z
-x,y,1/2-z
-x,-y,-z
1/2+x,y,-z
1/2-x,y,1/2+z
x,-y,1/2+z
loop_
_atom_site_type_symbol
_atom_site_label
_atom_site_fract_x
_atom_site_fract_y
_atom_site_fract_z
Si Si1 0.152314 0.930570 0.256012
Si Si2 0.847692 0.929801 0.363554
Si Si3 0.847686 0.569430 0.243988
Si Si4 0.650245 0.432394 0.636086
Si Si5 0.152308 0.429801 0.636446
Si Si6 0.849755 0.932394 0.636086
Si Si7 0.994678 0.066472 0.559652
Si Si8 0.505322 0.566472 0.559652
O O1 0.109879 0.963274 0.196605
O O2 0.154896 0.750000 0.269388
O O3 0.250000 0.000000 0.251849
O O4 0.103518 0.015560 0.306545
O O5 0.834035 0.750000 0.371250
O O6 0.918504 0.994512 0.407153
O O7 0.750000 0.000000 0.373562
O O8 0.750000 0.500000 0.248151
O O9 0.896482 0.484440 0.193455
O O10 0.890121 0.536726 0.303395
O O11 0.750000 0.500000 0.632873
O O12 0.652896 0.250000 0.631745
O O13 0.595160 0.501276 0.586362
O O14 0.250000 0.500000 0.626438
O O15 0.081496 0.494512 0.592847
O O16 0.750000 0.000000 0.632873
O O17 0.904840 0.001275 0.586362
O O18 0.990596 0.250000 0.558768
O O19 0.000000 0.000000 0.500000
O O20 0.500000 0.500000 0.500000
#
# Coordination Sequence:
#
# PCOD8223948 Si02
#       8
#     8   8   8   8   8   8   8   8
#     4   9  16  31  55  85 116 147 181 225 279 341
#     4   9  20  37  60  86 116 150 186 229 284 340
#     4   9  16  31  55  85 116 147 181 225 279 341
#     4  11  22  38  60  87 116 151 189 234 287 341
#     4   9  20  37  60  86 116 150 186 229 284 340
#     4  11  22  38  60  87 116 151 189 234 287 341
#     4  11  24  42  59  82 114 152 197 243 285 337
#     4  11  24  42  59  82 114 152 197 243 285 337
#
# _framework density 20.125689999999999
#
# number of rings (size 3 to 8) (size 9 to 14) (size 15 to 20)
#    0.000    2.000    0.000    5.250    0.000    5.000 
#    0.000    7.500    0.000    0.000    0.000    0.000 
#    0.000    0.000    0.000    0.000    0.000    0.000 
#
# Total GULP energy -793226.365340 kJ/mol
# GULP energy per Si atom -12394.161958 kJ/mol
# Density = 2.007988 g / cm^3
# Si number density = 20.125690 Si / 1000 Ang^3
#
#
#
# Elastic Constant Matrix: (Units=GPa)
#
#
# Indices 1 2 3 4 5 6 
#
# 1 91.2633 41.8662 69.9007 0.0000 0.0000 0.0000
# 2 41.8662 111.1831 64.2257 0.0000 0.0000 0.0000
# 3 69.9007 64.2257 189.4052 0.0000 0.0000 0.0000
# 4 0.0000 0.0000 0.0000 37.4245 0.0000 0.0000
# 5 0.0000 0.0000 0.0000 0.0000 32.4262 0.0000
# 6 0.0000 0.0000 0.0000 0.0000 0.0000 26.9962
#
#
#
# Elastic Compliance Matrix: (Units=1/GPa)
#
#
# Indices 1 2 3 4 5 6 
#
# 1 0.016187 -0.003289 -0.004859 0.000000 0.000000 0.000000
# 2 -0.003289 0.011853 -0.002806 0.000000 0.000000 0.000000
# 3 -0.004859 -0.002806 0.008024 0.000000 0.000000 0.000000
# 4 0.000000 0.000000 0.000000 0.026720 0.000000 0.000000
# 5 0.000000 0.000000 0.000000 0.000000 0.030839 0.000000
# 6 0.000000 0.000000 0.000000 0.000000 0.000000 0.037042
#
#
# Mechanical properties :
#
#
# Convention : Reuss Voigt Hill
#
# Bulk Modulus (GPa) = 70.62855 82.64852 76.63854
# Shear Modulus (GPa) = 31.78785 33.75998 32.77391
#
# Velocity S-wave (km/s) = 3.97856 4.10012 4.03980
# Velocity P-wave (km/s) = 7.50168 7.97308 7.74097
#
# Compressibility (1/GPa) = 0.01415858
#
# Stress axis : x y z
#
# Youngs Moduli (GPa) = 61.77610 84.36528 124.62237
#
# Poissons Ratio (x) = 0.27745 0.60553
# Poissons Ratio (y) = 0.20316 0.34964
# Poissons Ratio (z) = 0.30016 0.23670
#
# Static dielectric constant tensor:
#      x y z
#    x 3.569790 0.000000 0.000000 
#    y 0.000000 3.832130 0.000000 
#    z 0.000000 0.000000 4.244720 
# 
# 
# High freq. dielectric constant tensor:
#      x y z
#    x 1.771120 0.000000 0.000000 
#    y 0.000000 1.792800 0.000000 
#    z 0.000000 0.000000 1.799940 
# 
# From -- ./inp_files/24493.got.cif
#   From: 2010.03.12/outbox.cif.g09.slc.cpg/sg54_13_cif.got.tgz:24493.got - 2010.04.16 15:00:50.
