data_PCOD8223283
_publ_section_title
;
Structure prediction by ZEFSAII (Michael W. Deem and Ramdas Pophale) SiO2 
 PCOD8223283
Probable space group: P C C A
;
_chemical_formula_sum "Si O2"
_cell_formula_units_Z 64
_cell_length_a 14.488070
_cell_length_b 11.070537
_cell_length_c 18.016881
_cell_angle_alpha 90.000000
_cell_angle_beta 90.000000
_cell_angle_gamma 90.000000
_cell_volume 2889.740426
_symmetry_space_group_name_H-M "P C C A"
_symmetry_group_IT_number 54
_symmetry_cell_setting 'orthorhombic'
loop_
_space_group_symop_operation_xyz
x,y,z
1/2-x,-y,z
1/2+x,-y,1/2-z
-x,y,1/2-z
-x,-y,-z
1/2+x,y,-z
1/2-x,y,1/2+z
x,-y,1/2+z
loop_
_atom_site_type_symbol
_atom_site_label
_atom_site_fract_x
_atom_site_fract_y
_atom_site_fract_z
Si Si1 0.563247 0.630734 0.562081
Si Si2 0.498897 0.862681 0.024883
Si Si3 0.394345 0.963090 0.753230
Si Si4 0.244195 0.665644 0.659043
Si Si5 0.817030 0.277040 0.688638
Si Si6 0.619241 0.504964 0.418462
Si Si7 0.684622 0.104194 0.610603
Si Si8 0.820101 0.086095 0.387425
O O1 0.516651 0.759934 0.537782
O O2 0.620536 0.640069 0.637120
O O3 0.628289 0.571462 0.498722
O O4 0.485335 0.536970 0.587200
O O5 0.598583 0.845282 0.062829
O O6 0.407801 0.852470 0.074815
O O7 0.500000 0.000000 0.000000
O O8 0.500000 0.996709 0.750000
O O9 0.381089 0.824178 0.773959
O O10 0.349263 0.049173 0.813094
O O11 0.350176 0.991550 0.674779
O O12 0.274421 0.642682 0.744486
O O13 0.311946 0.608028 0.596064
O O14 0.144147 0.603082 0.645613
O O15 0.240636 0.807562 0.646992
O O16 0.742200 0.222224 0.631937
O O17 0.750000 0.000000 0.571613
O O18 0.750000 0.000000 0.436824
#
# Coordination Sequence:
#
# PCOD8223283 Si02
#       8
#     8   8   8   8   8   8   8   8
#     4  11  26  49  72 106 144 194 249 313 371 433
#     4  12  26  41  67 109 147 199 246 292 382 455
#     4  11  20  36  66 108 150 188 227 295 373 444
#     4  11  23  47  76 104 139 195 248 300 371 445
#     4  11  24  41  76 109 141 185 244 311 382 438
#     4  10  26  50  73  96 144 195 257 306 351 437
#     4  10  21  40  59  99 152 184 229 294 363 450
#     4  12  23  40  71 111 147 189 239 305 374 442
#
# _framework density 22.147317000000001
#
# number of rings (size 3 to 8) (size 9 to 14) (size 15 to 20)
#    0.000    1.000    5.000    1.875    3.500    3.500 
#    0.000    8.750    5.500    0.000    0.000    0.000 
#    0.000    0.000    0.000    0.000    0.000    0.000 
#
# Total GULP energy -792952.938969 kJ/mol
# GULP energy per Si atom -12389.889671 kJ/mol
# Density = 2.209691 g / cm^3
# Si number density = 22.147317 Si / 1000 Ang^3
#
#
#
# Elastic Constant Matrix: (Units=GPa)
#
#
# Indices 1 2 3 4 5 6 
#
# 1 112.9421 33.7226 43.9221 0.0000 0.0000 0.0000
# 2 33.7226 81.3932 36.7302 0.0000 0.0000 0.0000
# 3 43.9221 36.7302 102.5469 0.0000 0.0000 0.0000
# 4 0.0000 0.0000 0.0000 27.2370 0.0000 0.0000
# 5 0.0000 0.0000 0.0000 0.0000 40.4291 0.0000
# 6 0.0000 0.0000 0.0000 0.0000 0.0000 58.7722
#
#
#
# Elastic Compliance Matrix: (Units=1/GPa)
#
#
# Indices 1 2 3 4 5 6 
#
# 1 0.011187 -0.002950 -0.003735 0.000000 0.000000 0.000000
# 2 -0.002950 0.015432 -0.004264 0.000000 0.000000 0.000000
# 3 -0.003735 -0.004264 0.012879 0.000000 0.000000 0.000000
# 4 0.000000 0.000000 0.000000 0.036715 0.000000 0.000000
# 5 0.000000 0.000000 0.000000 0.000000 0.024735 0.000000
# 6 0.000000 0.000000 0.000000 0.000000 0.000000 0.017015
#
#
# Mechanical properties :
#
#
# Convention : Reuss Voigt Hill
#
# Bulk Modulus (GPa) = 56.81624 58.40356 57.60990
# Shear Modulus (GPa) = 34.31056 37.45482 35.88269
#
# Velocity S-wave (km/s) = 3.94025 4.11684 4.02952
# Velocity P-wave (km/s) = 6.81251 7.00183 6.90782
#
# Compressibility (1/GPa) = 0.01760060
#
# Stress axis : x y z
#
# Youngs Moduli (GPa) = 89.38661 64.79872 77.64675
#
# Poissons Ratio (x) = 0.19113 0.29003
# Poissons Ratio (y) = 0.26365 0.33111
# Poissons Ratio (z) = 0.33388 0.27632
#
# Static dielectric constant tensor:
#      x y z
#    x 3.159850 0.000000 0.000000 
#    y 0.000000 4.328010 0.000000 
#    z 0.000000 0.000000 3.924930 
# 
# 
# High freq. dielectric constant tensor:
#      x y z
#    x 1.884940 0.000000 0.000000 
#    y 0.000000 1.873750 0.000000 
#    z 0.000000 0.000000 1.861570 
# 
# From -- ./inp_files/18240.got.cif
#   From: 2010.03.12/outbox.cif.g09.slc.cpg/sg54_10_cif.got.tgz:18240.got - 2010.04.16 15:00:50.
