data_PCOD8223060
_publ_section_title
;
Structure prediction by ZEFSAII (Michael W. Deem and Ramdas Pophale) SiO2 
 PCOD8223060
Probable space group: P C C A
;
_chemical_formula_sum "Si O2"
_cell_formula_units_Z 44
_cell_length_a 27.867497
_cell_length_b 8.077386
_cell_length_c 8.831984
_cell_angle_alpha 90.000000
_cell_angle_beta 90.000000
_cell_angle_gamma 90.000000
_cell_volume 1988.048953
_symmetry_space_group_name_H-M "P C C A"
_symmetry_group_IT_number 54
_symmetry_cell_setting 'orthorhombic'
loop_
_space_group_symop_operation_xyz
x,y,z
1/2-x,-y,z
1/2+x,-y,1/2-z
-x,y,1/2-z
-x,-y,-z
1/2+x,y,-z
1/2-x,y,1/2+z
x,-y,1/2+z
loop_
_atom_site_type_symbol
_atom_site_label
_atom_site_fract_x
_atom_site_fract_y
_atom_site_fract_z
Si Si1 0.604672 0.381111 0.646144
Si Si2 0.460567 0.663291 0.856510
Si Si3 0.892348 0.842112 0.361459
Si Si4 0.815129 0.626530 0.245641
Si Si5 0.250000 0.500000 0.498425
Si Si6 0.545029 0.847007 0.349860
O O1 0.573801 0.526869 0.566558
O O2 0.617873 0.242962 0.523188
O O3 0.651157 0.464377 0.723430
O O4 0.570326 0.307426 0.772882
O O5 0.500000 0.574342 0.750000
O O6 0.436415 0.770284 0.727506
O O7 0.478334 0.785349 0.991186
O O8 0.844654 0.800286 0.260100
O O9 0.909386 0.030968 0.382999
O O10 0.778085 0.634132 0.106034
O O11 0.787111 0.603522 0.402327
O O12 0.500000 0.917289 0.250000
#
# Coordination Sequence:
#
# PCOD8223060 Si02
#       6
#     8   8   8   8   4   8
#     4  11  23  41  64  97 129 173 226 276 328 388
#     4  11  23  40  64  89 126 172 232 281 315 380
#     4  11  23  40  61  94 134 173 216 264 332 394
#     4  10  21  40  71 104 127 168 213 278 326 403
#     4  10  20  40  74 104 128 162 224 272 342 390
#     4  12  26  42  64  93 136 186 223 269 330 390
#
# _framework density 22.132252999999999
#
# number of rings (size 3 to 8) (size 9 to 14) (size 15 to 20)
#    0.000    1.091    1.818    5.455    2.545    4.364 
#    0.000    1.818    0.000    6.545    0.000    0.000 
#    0.000    0.000    0.000    0.000    0.000    0.000 
#
# Total GULP energy -545100.720022 kJ/mol
# GULP energy per Si atom -12388.652728 kJ/mol
# Density = 2.208188 g / cm^3
# Si number density = 22.132253 Si / 1000 Ang^3
#
#
#
# Elastic Constant Matrix: (Units=GPa)
#
#
# Indices 1 2 3 4 5 6 
#
# 1 120.2149 36.2336 60.3612 0.0000 0.0000 0.0000
# 2 36.2336 77.5042 32.8616 0.0000 0.0000 0.0000
# 3 60.3612 32.8616 122.8535 0.0000 0.0000 0.0000
# 4 0.0000 0.0000 0.0000 25.0584 0.0000 0.0000
# 5 0.0000 0.0000 0.0000 0.0000 38.5918 0.0000
# 6 0.0000 0.0000 0.0000 0.0000 0.0000 -12.2575
#
#
#
# Elastic Compliance Matrix: (Units=1/GPa)
#
#
# Indices 1 2 3 4 5 6 
#
# 1 0.011808 -0.003452 -0.004878 0.000000 0.000000 0.000000
# 2 -0.003452 0.015562 -0.002467 0.000000 0.000000 0.000000
# 3 -0.004878 -0.002467 0.011196 0.000000 0.000000 0.000000
# 4 0.000000 0.000000 0.000000 0.039907 0.000000 0.000000
# 5 0.000000 0.000000 0.000000 0.000000 0.025912 0.000000
# 6 0.000000 0.000000 0.000000 0.000000 0.000000 -0.081583
#
#
# Mechanical properties :
#
#
# Convention : Reuss Voigt Hill
#
# Bulk Modulus (GPa) = 58.91726 64.38728 61.65227
# Shear Modulus (GPa) = 99.88976 23.01962 61.45469
#
# Velocity S-wave (km/s) = 6.72541 3.22855 5.27516
# Velocity P-wave (km/s) = 9.32665 6.56150 8.06349
#
# Compressibility (1/GPa) = 0.01697295
#
# Stress axis : x y z
#
# Youngs Moduli (GPa) = 84.68545 64.25829 89.31404
#
# Poissons Ratio (x) = 0.22182 0.43571
# Poissons Ratio (y) = 0.29234 0.22030
# Poissons Ratio (z) = 0.41313 0.15850
#
# Static dielectric constant tensor:
#      x y z
#    x 4.261130 0.000000 0.000000 
#    y 0.000000 3.905030 0.000000 
#    z 0.000000 0.000000 4.219100 
# 
# 
# High freq. dielectric constant tensor:
#      x y z
#    x 1.869640 0.000000 0.000000 
#    y 0.000000 1.840890 0.000000 
#    z 0.000000 0.000000 1.890020 
# 
# From -- ./inp_files/5786.got.cif
#   From: 2010.03.12/outbox.cif.g09.slc.cpg/sg54_3_cif.got.tgz:5786.got - 2010.04.16 15:00:50.
