data_PCOD8223505
_publ_section_title
;
Structure prediction by ZEFSAII (Michael W. Deem and Ramdas Pophale) SiO2 
 PCOD8223505
Probable space group: P C C A
;
_chemical_formula_sum "Si O2"
_cell_formula_units_Z 40
_cell_length_a 20.662424
_cell_length_b 5.905405
_cell_length_c 13.852240
_cell_angle_alpha 90.000000
_cell_angle_beta 90.000000
_cell_angle_gamma 90.000000
_cell_volume 1690.250075
_symmetry_space_group_name_H-M "P C C A"
_symmetry_group_IT_number 54
_symmetry_cell_setting 'orthorhombic'
loop_
_space_group_symop_operation_xyz
x,y,z
1/2-x,-y,z
1/2+x,-y,1/2-z
-x,y,1/2-z
-x,-y,-z
1/2+x,y,-z
1/2-x,y,1/2+z
x,-y,1/2+z
loop_
_atom_site_type_symbol
_atom_site_label
_atom_site_fract_x
_atom_site_fract_y
_atom_site_fract_z
Si Si1 0.123809 0.106725 0.938259
Si Si2 0.114532 0.066655 0.640706
Si Si3 0.419649 0.736670 0.303443
Si Si4 0.001558 0.654823 0.356615
Si Si5 0.684523 0.635773 0.720299
O O1 0.057103 0.243683 0.924573
O O2 0.182138 0.241069 0.884519
O O3 0.115812 0.858501 0.892120
O O4 0.140975 0.080311 0.050815
O O5 0.176278 0.174321 0.696175
O O6 0.067270 0.266514 0.598618
O O7 0.073398 0.907668 0.713675
O O8 0.487333 0.619132 0.342347
O O9 0.376927 0.525989 0.267760
O O10 0.000000 0.767603 0.250000
O O11 0.750000 0.500000 0.734537
#
# Coordination Sequence:
#
# PCOD8223505 Si02
#       5
#     8   8   8   8   8
#     4  10  23  40  63  97 131 171 224 278 332 403
#     4  11  23  40  65  98 129 174 232 266 338 413
#     4  10  22  40  64  86 137 167 220 273 345 399
#     4  11  20  38  60  97 132 180 206 268 342 413
#     4  10  23  44  65  91 126 175 225 283 348 389
#
# _framework density 23.665137000000001
#
# number of rings (size 3 to 8) (size 9 to 14) (size 15 to 20)
#    0.000    1.600    6.000    0.600    2.800    7.200 
#    0.000    6.000    0.000    0.000    0.000    0.000 
#    0.000    0.000    0.000    0.000    0.000    0.000 
#
# Total GULP energy -495588.645025 kJ/mol
# GULP energy per Si atom -12389.716126 kJ/mol
# Density = 2.361127 g / cm^3
# Si number density = 23.665137 Si / 1000 Ang^3
#
#
#
# Elastic Constant Matrix: (Units=GPa)
#
#
# Indices 1 2 3 4 5 6 
#
# 1 87.4476 42.8336 41.7065 0.0000 0.0000 0.0000
# 2 42.8336 130.0721 57.6522 0.0000 0.0000 0.0000
# 3 41.7065 57.6522 136.0556 0.0000 0.0000 0.0000
# 4 0.0000 0.0000 0.0000 19.0430 0.0000 0.0000
# 5 0.0000 0.0000 0.0000 0.0000 19.6575 0.0000
# 6 0.0000 0.0000 0.0000 0.0000 0.0000 43.4329
#
#
#
# Elastic Compliance Matrix: (Units=1/GPa)
#
#
# Indices 1 2 3 4 5 6 
#
# 1 0.014562 -0.003468 -0.002994 0.000000 0.000000 0.000000
# 2 -0.003468 0.010292 -0.003298 0.000000 0.000000 0.000000
# 3 -0.002994 -0.003298 0.009665 0.000000 0.000000 0.000000
# 4 0.000000 0.000000 0.000000 0.052513 0.000000 0.000000
# 5 0.000000 0.000000 0.000000 0.000000 0.050871 0.000000
# 6 0.000000 0.000000 0.000000 0.000000 0.000000 0.023024
#
#
# Mechanical properties :
#
#
# Convention : Reuss Voigt Hill
#
# Bulk Modulus (GPa) = 66.67336 70.88445 68.77891
# Shear Modulus (GPa) = 26.96174 30.51888 28.74031
#
# Velocity S-wave (km/s) = 3.37902 3.59501 3.48869
# Velocity P-wave (km/s) = 6.59231 6.87389 6.73457
#
# Compressibility (1/GPa) = 0.01499849
#
# Stress axis : x y z
#
# Youngs Moduli (GPa) = 68.67033 97.16355 103.46327
#
# Poissons Ratio (x) = 0.33699 0.30980
# Poissons Ratio (y) = 0.23817 0.34121
# Poissons Ratio (z) = 0.20562 0.32044
#
# Static dielectric constant tensor:
#      x y z
#    x 3.917100 0.000000 0.000000 
#    y 0.000000 4.613630 0.000000 
#    z 0.000000 0.000000 4.041710 
# 
# 
# High freq. dielectric constant tensor:
#      x y z
#    x 1.895510 0.000000 0.000000 
#    y 0.000000 1.957000 0.000000 
#    z 0.000000 0.000000 1.922950 
# 
# From -- ./inp_files/14848.got.cif
#   From: 2010.03.12/outbox.cif.g09.slc.cpg/sg54_8_cif.got.tgz:14848.got - 2010.04.16 15:00:50.
