data_PCOD8223159
_publ_section_title
;
Structure prediction by ZEFSAII (Michael W. Deem and Ramdas Pophale) SiO2 
 PCOD8223159
Probable space group: P C C A
;
_chemical_formula_sum "Si O2"
_cell_formula_units_Z 48
_cell_length_a 15.144488
_cell_length_b 8.284832
_cell_length_c 20.116022
_cell_angle_alpha 90.000000
_cell_angle_beta 90.000000
_cell_angle_gamma 90.000000
_cell_volume 2523.948003
_symmetry_space_group_name_H-M "P C C A"
_symmetry_group_IT_number 54
_symmetry_cell_setting 'orthorhombic'
loop_
_space_group_symop_operation_xyz
x,y,z
1/2-x,-y,z
1/2+x,-y,1/2-z
-x,y,1/2-z
-x,-y,-z
1/2+x,y,-z
1/2-x,y,1/2+z
x,-y,1/2+z
loop_
_atom_site_type_symbol
_atom_site_label
_atom_site_fract_x
_atom_site_fract_y
_atom_site_fract_z
Si Si1 0.250000 0.000000 0.318284
Si Si2 0.065708 0.890108 0.807429
Si Si3 0.515302 0.904303 0.566254
Si Si4 0.822980 0.282928 0.604412
Si Si5 0.062670 0.430761 0.558553
Si Si6 0.544560 0.518278 0.180138
Si Si7 0.250000 0.500000 0.501732
O O1 0.156834 0.025821 0.281254
O O2 0.256698 0.164360 0.359160
O O3 0.081176 0.699608 0.815739
O O4 0.000000 0.932695 0.750000
O O5 0.022110 0.972292 0.872207
O O6 0.607215 0.813004 0.560555
O O7 0.441591 0.763113 0.570372
O O8 0.500000 0.000000 0.500000
O O9 0.873821 0.404094 0.656071
O O10 0.759643 0.354121 0.549029
O O11 0.164362 0.474878 0.547050
O O12 0.000000 0.500000 0.500000
O O13 0.033491 0.517328 0.626264
O O14 0.500000 0.461603 0.250000
#
# Coordination Sequence:
#
# PCOD8223159 Si02
#       7
#     4   8   8   8   8   8   4
#     4  10  22  36  60  96 120 158 216 242 318 368
#     4  10  22  40  63  88 125 163 204 257 308 372
#     4  10  21  36  60  86 121 158 199 253 307 363
#     4  10  22  35  61  91 119 166 199 262 295 380
#     4  11  22  39  61  91 122 164 203 256 307 373
#     4  10  21  42  66  89 123 166 211 254 316 371
#     4  12  22  38  62  92 128 158 216 250 316 362
#
# _framework density 19.017824999999998
#
# number of rings (size 3 to 8) (size 9 to 14) (size 15 to 20)
#    0.000    1.667    3.333    2.000    4.667    6.000 
#    0.000    7.500    0.000    0.000    0.000    0.000 
#    0.000    0.000    0.000    0.000    0.000    0.000 
#
# Total GULP energy -594630.843020 kJ/mol
# GULP energy per Si atom -12388.142563 kJ/mol
# Density = 1.897454 g / cm^3
# Si number density = 19.017825 Si / 1000 Ang^3
#
#
#
# Elastic Constant Matrix: (Units=GPa)
#
#
# Indices 1 2 3 4 5 6 
#
# 1 118.8212 28.3965 50.2985 0.0000 0.0000 0.0000
# 2 28.3965 85.9917 32.3040 0.0000 0.0000 0.0000
# 3 50.2985 32.3040 116.4362 0.0000 0.0000 0.0000
# 4 0.0000 0.0000 0.0000 -13.9033 0.0000 0.0000
# 5 0.0000 0.0000 0.0000 0.0000 17.2360 0.0000
# 6 0.0000 0.0000 0.0000 0.0000 0.0000 30.1438
#
#
#
# Elastic Compliance Matrix: (Units=1/GPa)
#
#
# Indices 1 2 3 4 5 6 
#
# 1 0.010595 -0.001986 -0.004026 0.000000 0.000000 0.000000
# 2 -0.001986 0.013354 -0.002847 0.000000 0.000000 0.000000
# 3 -0.004026 -0.002847 0.011117 0.000000 0.000000 0.000000
# 4 0.000000 0.000000 0.000000 -0.071925 0.000000 0.000000
# 5 0.000000 0.000000 0.000000 0.000000 0.058018 0.000000
# 6 0.000000 0.000000 0.000000 0.000000 0.000000 0.033174
#
#
# Mechanical properties :
#
#
# Convention : Reuss Voigt Hill
#
# Bulk Modulus (GPa) = 57.64178 60.36079 59.00129
# Shear Modulus (GPa) = 64.23863 20.71197 42.47530
#
# Velocity S-wave (km/s) = 5.81820 3.30370 4.73106
# Velocity P-wave (km/s) = 8.68967 6.80886 7.80612
#
# Compressibility (1/GPa) = 0.01734853
#
# Stress axis : x y z
#
# Youngs Moduli (GPa) = 94.38546 74.88127 89.94990
#
# Poissons Ratio (x) = 0.14874 0.36211
# Poissons Ratio (y) = 0.18748 0.25609
# Poissons Ratio (z) = 0.37997 0.21319
#
# Static dielectric constant tensor:
#      x y z
#    x 3.558320 0.000000 0.000000 
#    y 0.000000 3.682580 0.000000 
#    z 0.000000 0.000000 10.006400 
# 
# 
# High freq. dielectric constant tensor:
#      x y z
#    x 1.742050 0.000000 0.000000 
#    y 0.000000 1.760410 0.000000 
#    z 0.000000 0.000000 1.724540 
# 
# From -- ./inp_files/18074.got.cif
#   From: 2010.03.12/outbox.cif.g09.slc.cpg/sg54_10_cif.got.tgz:18074.got - 2010.04.16 15:00:50.
