data_PCOD8223694
_publ_section_title
;
Structure prediction by ZEFSAII (Michael W. Deem and Ramdas Pophale) SiO2 
 PCOD8223694
Probable space group: P C C A
;
_chemical_formula_sum "Si O2"
_cell_formula_units_Z 40
_cell_length_a 11.761793
_cell_length_b 6.781287
_cell_length_c 23.931066
_cell_angle_alpha 90.000000
_cell_angle_beta 90.000000
_cell_angle_gamma 90.000000
_cell_volume 1908.744073
_symmetry_space_group_name_H-M "P C C A"
_symmetry_group_IT_number 54
_symmetry_cell_setting 'orthorhombic'
loop_
_space_group_symop_operation_xyz
x,y,z
1/2-x,-y,z
1/2+x,-y,1/2-z
-x,y,1/2-z
-x,-y,-z
1/2+x,y,-z
1/2-x,y,1/2+z
x,-y,1/2+z
loop_
_atom_site_type_symbol
_atom_site_label
_atom_site_fract_x
_atom_site_fract_y
_atom_site_fract_z
Si Si1 0.250000 0.500000 0.195626
Si Si2 0.068322 0.209706 0.940115
Si Si3 0.250000 0.000000 0.865893
Si Si4 0.660066 0.651818 0.197628
Si Si5 0.628980 0.108098 0.939881
Si Si6 0.046778 0.466868 0.130214
O O1 0.186944 0.338662 0.235574
O O2 0.151269 0.594539 0.156266
O O3 0.172467 0.142033 0.902339
O O4 0.019510 0.419681 0.919088
O O5 0.120042 0.229419 0.002056
O O6 0.967245 0.055470 0.937912
O O7 0.330217 0.130391 0.826962
O O8 0.750000 0.500000 0.169384
O O9 0.535259 0.575333 0.182576
O O10 0.604610 0.265198 0.891372
O O11 0.750000 0.000000 0.933124
#
# Coordination Sequence:
#
# PCOD8223694 Si02
#       6
#     4   8   4   8   8   8
#     4  10  24  44  62  94 132 158 222 278 314 398
#     4  11  23  40  66  94 131 172 216 268 324 407
#     4  12  20  44  66  94 124 174 222 266 326 394
#     4  10  23  41  66  90 123 171 217 270 321 386
#     4  11  24  40  62  99 135 170 216 273 327 397
#     4  12  22  44  66  93 131 176 212 269 339 387
#
# _framework density 20.956187
#
# number of rings (size 3 to 8) (size 9 to 14) (size 15 to 20)
#    0.600    0.400    5.000    2.400    0.000    0.000 
#    5.400    0.000    0.000    0.000    0.000    0.000 
#    0.000    0.000    0.000    0.000    0.000    0.000 
#
# Total GULP energy -495714.739478 kJ/mol
# GULP energy per Si atom -12392.868487 kJ/mol
# Density = 2.090849 g / cm^3
# Si number density = 20.956187 Si / 1000 Ang^3
#
#
#
# Elastic Constant Matrix: (Units=GPa)
#
#
# Indices 1 2 3 4 5 6 
#
# 1 140.9714 35.2570 47.1503 0.0000 0.0000 0.0000
# 2 35.2570 60.2853 15.8713 0.0000 0.0000 0.0000
# 3 47.1503 15.8713 75.6011 0.0000 0.0000 0.0000
# 4 0.0000 0.0000 0.0000 27.0355 0.0000 0.0000
# 5 0.0000 0.0000 0.0000 0.0000 77.9518 0.0000
# 6 0.0000 0.0000 0.0000 0.0000 0.0000 36.6465
#
#
#
# Elastic Compliance Matrix: (Units=1/GPa)
#
#
# Indices 1 2 3 4 5 6 
#
# 1 0.009973 -0.004440 -0.005287 0.000000 0.000000 0.000000
# 2 -0.004440 0.019535 -0.001332 0.000000 0.000000 0.000000
# 3 -0.005287 -0.001332 0.016805 0.000000 0.000000 0.000000
# 4 0.000000 0.000000 0.000000 0.036988 0.000000 0.000000
# 5 0.000000 0.000000 0.000000 0.000000 0.012828 0.000000
# 6 0.000000 0.000000 0.000000 0.000000 0.000000 0.027288
#
#
# Mechanical properties :
#
#
# Convention : Reuss Voigt Hill
#
# Bulk Modulus (GPa) = 41.33391 52.60169 46.96780
# Shear Modulus (GPa) = 32.55192 40.23204 36.39198
#
# Velocity S-wave (km/s) = 3.94551 4.38632 4.17174
# Velocity P-wave (km/s) = 6.36576 7.12800 6.75763
#
# Compressibility (1/GPa) = 0.02419321
#
# Stress axis : x y z
#
# Youngs Moduli (GPa) = 100.27424 51.18947 59.50761
#
# Poissons Ratio (x) = 0.22730 0.31465
# Poissons Ratio (y) = 0.44525 0.07925
# Poissons Ratio (z) = 0.53020 0.06818
#
# Static dielectric constant tensor:
#      x y z
#    x 3.920190 0.000000 0.000000 
#    y 0.000000 3.471490 0.000000 
#    z 0.000000 0.000000 3.871520 
# 
# 
# High freq. dielectric constant tensor:
#      x y z
#    x 1.843670 0.000000 0.000000 
#    y 0.000000 1.792820 0.000000 
#    z 0.000000 0.000000 1.825770 
# 
# From -- ./inp_files/26094.got.cif
#   From: 2010.03.12/outbox.cif.g09.slc.cpg/sg54_14_cif.got.tgz:26094.got - 2010.04.16 15:00:50.
