data_PCOD8223090
_publ_section_title
;
Structure prediction by ZEFSAII (Michael W. Deem and Ramdas Pophale) SiO2 
 PCOD8223090
Probable space group: P C C A
;
_chemical_formula_sum "Si O2"
_cell_formula_units_Z 56
_cell_length_a 12.560463
_cell_length_b 15.250594
_cell_length_c 13.326350
_cell_angle_alpha 90.000000
_cell_angle_beta 90.000000
_cell_angle_gamma 90.000000
_cell_volume 2552.722600
_symmetry_space_group_name_H-M "P C C A"
_symmetry_group_IT_number 54
_symmetry_cell_setting 'orthorhombic'
loop_
_space_group_symop_operation_xyz
x,y,z
1/2-x,-y,z
1/2+x,-y,1/2-z
-x,y,1/2-z
-x,-y,-z
1/2+x,y,-z
1/2-x,y,1/2+z
x,-y,1/2+z
loop_
_atom_site_type_symbol
_atom_site_label
_atom_site_fract_x
_atom_site_fract_y
_atom_site_fract_z
Si Si1 0.554256 0.416848 0.454395
Si Si2 0.075666 0.256942 0.014174
Si Si3 0.117792 0.350891 0.209835
Si Si4 0.204182 0.738732 0.319907
Si Si5 0.167067 0.077266 0.747302
Si Si6 0.000000 0.647812 0.250000
Si Si7 0.750000 0.500000 0.390658
Si Si8 0.999598 0.922085 0.078479
O O1 0.500000 0.500000 0.500000
O O2 0.520646 0.327167 0.507722
O O3 0.508712 0.416062 0.342783
O O4 0.682132 0.431223 0.457529
O O5 0.121101 0.272712 0.125987
O O6 0.172529 0.271997 0.936507
O O7 0.025452 0.162726 0.990025
O O8 0.192019 0.319963 0.301529
O O9 0.165044 0.443582 0.172613
O O10 0.000000 0.367817 0.250000
O O11 0.230707 0.836663 0.283055
O O12 0.103118 0.710060 0.252910
O O13 0.086885 0.055198 0.837348
O O14 0.110141 0.090726 0.638896
O O15 0.250000 0.000000 0.732994
O O16 0.000000 0.000000 0.000000
#
# Coordination Sequence:
#
# PCOD8223090 Si02
#       8
#     8   8   8   8   8   4   4   8
#     4  11  22  42  66  97 133 177 235 286 344 419
#     4  10  24  47  72 102 134 187 242 282 362 419
#     4  12  28  46  69 107 143 183 236 303 354 424
#     4  10  22  46  72  96 136 188 235 289 359 425
#     4  10  22  42  69 101 138 182 235 280 356 429
#     4  10  20  42  74  94 124 188 238 290 342 424
#     4  12  26  44  68 100 140 188 234 288 368 420
#     4  10  23  44  70 102 141 184 231 295 350 419
#
# _framework density 21.937362
#
# number of rings (size 3 to 8) (size 9 to 14) (size 15 to 20)
#    0.000    1.429    2.857    2.571    3.000    2.857 
#    2.571    1.429    0.000    0.000    0.000    0.000 
#    0.000    0.000    0.000    0.000    0.000    0.000 
#
# Total GULP energy -694148.993204 kJ/mol
# GULP energy per Si atom -12395.517736 kJ/mol
# Density = 2.188743 g / cm^3
# Si number density = 21.937362 Si / 1000 Ang^3
#
#
#
# Elastic Constant Matrix: (Units=GPa)
#
#
# Indices 1 2 3 4 5 6 
#
# 1 131.4986 50.0931 17.3797 0.0000 0.0000 0.0000
# 2 50.0931 128.6438 39.4194 0.0000 0.0000 0.0000
# 3 17.3797 39.4194 90.6327 0.0000 0.0000 0.0000
# 4 0.0000 0.0000 0.0000 33.3480 0.0000 0.0000
# 5 0.0000 0.0000 0.0000 0.0000 27.9110 0.0000
# 6 0.0000 0.0000 0.0000 0.0000 0.0000 43.4251
#
#
#
# Elastic Compliance Matrix: (Units=1/GPa)
#
#
# Indices 1 2 3 4 5 6 
#
# 1 0.008933 -0.003408 -0.000231 0.000000 0.000000 0.000000
# 2 -0.003408 0.010269 -0.003813 0.000000 0.000000 0.000000
# 3 -0.000231 -0.003813 0.012736 0.000000 0.000000 0.000000
# 4 0.000000 0.000000 0.000000 0.029987 0.000000 0.000000
# 5 0.000000 0.000000 0.000000 0.000000 0.035828 0.000000
# 6 0.000000 0.000000 0.000000 0.000000 0.000000 0.023028
#
#
# Mechanical properties :
#
#
# Convention : Reuss Voigt Hill
#
# Bulk Modulus (GPa) = 58.70176 62.72884 60.71530
# Shear Modulus (GPa) = 35.37004 37.19569 36.28287
#
# Velocity S-wave (km/s) = 4.01973 4.12216 4.07127
# Velocity P-wave (km/s) = 6.95422 7.16330 7.05953
#
# Compressibility (1/GPa) = 0.01703526
#
# Stress axis : x y z
#
# Youngs Moduli (GPa) = 111.94022 97.38323 78.51693
#
# Poissons Ratio (x) = 0.33187 0.01813
# Poissons Ratio (y) = 0.38148 0.29936
# Poissons Ratio (z) = 0.02584 0.37130
#
# Static dielectric constant tensor:
#      x y z
#    x 3.869870 0.000000 0.000000 
#    y 0.000000 3.806060 0.000000 
#    z 0.000000 0.000000 3.997010 
# 
# 
# High freq. dielectric constant tensor:
#      x y z
#    x 1.861610 0.000000 0.000000 
#    y 0.000000 1.868450 0.000000 
#    z 0.000000 0.000000 1.863710 
# 
# From -- ./inp_files/12780.got.cif
#   From: 2010.03.12/outbox.cif.g09.slc.cpg/sg54_7_cif.got.tgz:12780.got - 2010.04.16 15:00:50.
