data_PCOD8223896
_publ_section_title
;
Structure prediction by ZEFSAII (Michael W. Deem and Ramdas Pophale) SiO2 
 PCOD8223896
Probable space group: P C C A
;
_chemical_formula_sum "Si O2"
_cell_formula_units_Z 28
_cell_length_a 25.736321
_cell_length_b 4.973211
_cell_length_c 8.804888
_cell_angle_alpha 90.000000
_cell_angle_beta 90.000000
_cell_angle_gamma 90.000000
_cell_volume 1126.956587
_symmetry_space_group_name_H-M "P C C A"
_symmetry_group_IT_number 54
_symmetry_cell_setting 'orthorhombic'
loop_
_space_group_symop_operation_xyz
x,y,z
1/2-x,-y,z
1/2+x,-y,1/2-z
-x,y,1/2-z
-x,-y,-z
1/2+x,y,-z
1/2-x,y,1/2+z
x,-y,1/2+z
loop_
_atom_site_type_symbol
_atom_site_label
_atom_site_fract_x
_atom_site_fract_y
_atom_site_fract_z
Si Si1 0.094839 0.345592 0.444804
Si Si2 0.941665 0.830960 0.226899
Si Si3 0.799503 0.326146 0.568135
Si Si4 0.250000 0.000000 0.682767
O O1 0.054967 0.574860 0.386623
O O2 0.083705 0.265772 0.616974
O O3 0.150797 0.483062 0.430180
O O4 0.092172 0.073979 0.344125
O O5 0.000000 0.939323 0.250000
O O6 0.750000 0.500000 0.572800
O O7 0.793957 0.152800 0.720291
O O8 0.793296 0.156261 0.415245
#
# Coordination Sequence:
#
# PCOD8223896 Si02
#       4
#     8   8   8   4
#     4  12  29  48  83 116 159 214 265 324 411 472
#     4  12  27  53  82 119 161 207 272 339 397 470
#     4  11  27  45  76 111 160 206 262 322 391 480
#     4  10  26  50  72 106 168 204 260 320 394 456
#
# _framework density 24.845677999999999
#
# number of rings (size 3 to 8) (size 9 to 14) (size 15 to 20)
#    0.000    0.571    0.000    5.143   16.000    0.000 
#    0.000    0.000    0.000    0.000    0.000    0.000 
#    0.000    0.000    0.000    0.000    0.000    0.000 
#
# Total GULP energy -347013.489614 kJ/mol
# GULP energy per Si atom -12393.338915 kJ/mol
# Density = 2.478913 g / cm^3
# Si number density = 24.845678 Si / 1000 Ang^3
#
#
#
# Elastic Constant Matrix: (Units=GPa)
#
#
# Indices 1 2 3 4 5 6 
#
# 1 127.1483 52.3507 70.3490 0.0000 0.0000 0.0000
# 2 52.3507 186.3900 101.3329 0.0000 0.0000 0.0000
# 3 70.3490 101.3329 185.8860 0.0000 0.0000 0.0000
# 4 0.0000 0.0000 0.0000 157.2093 0.0000 0.0000
# 5 0.0000 0.0000 0.0000 0.0000 23.2633 0.0000
# 6 0.0000 0.0000 0.0000 0.0000 0.0000 56.8272
#
#
#
# Elastic Compliance Matrix: (Units=1/GPa)
#
#
# Indices 1 2 3 4 5 6 
#
# 1 0.010098 -0.001078 -0.003234 0.000000 0.000000 0.000000
# 2 -0.001078 0.007740 -0.003811 0.000000 0.000000 0.000000
# 3 -0.003234 -0.003811 0.008681 0.000000 0.000000 0.000000
# 4 0.000000 0.000000 0.000000 0.006361 0.000000 0.000000
# 5 0.000000 0.000000 0.000000 0.000000 0.042986 0.000000
# 6 0.000000 0.000000 0.000000 0.000000 0.000000 0.017597
#
#
# Mechanical properties :
#
#
# Convention : Reuss Voigt Hill
#
# Bulk Modulus (GPa) = 97.34671 105.27662 101.31166
# Shear Modulus (GPa) = 44.19526 65.81939 55.00732
#
# Velocity S-wave (km/s) = 4.22215 5.15255 4.71038
# Velocity P-wave (km/s) = 7.93941 8.82398 8.39336
#
# Compressibility (1/GPa) = 0.01027256
#
# Stress axis : x y z
#
# Youngs Moduli (GPa) = 99.02983 129.19982 115.19111
#
# Poissons Ratio (x) = 0.13928 0.37252
# Poissons Ratio (y) = 0.10676 0.43903
# Poissons Ratio (z) = 0.32026 0.49242
#
# Static dielectric constant tensor:
#      x y z
#    x 4.283990 0.000000 0.000000 
#    y 0.000000 5.030780 0.000000 
#    z 0.000000 0.000000 4.875180 
# 
# 
# High freq. dielectric constant tensor:
#      x y z
#    x 1.993310 0.000000 0.000000 
#    y 0.000000 2.012610 0.000000 
#    z 0.000000 0.000000 2.013980 
# 
# From -- ./inp_files/5372.got.cif
#   From: 2010.03.12/outbox.cif.g09.slc.cpg/sg54_3_cif.got.tgz:5372.got - 2010.04.16 15:00:50.
