data_PCOD8223767
_publ_section_title
;
Structure prediction by ZEFSAII (Michael W. Deem and Ramdas Pophale) SiO2 
 PCOD8223767
Probable space group: P C C A
;
_chemical_formula_sum "Si O2"
_cell_formula_units_Z 60
_cell_length_a 24.602991
_cell_length_b 14.648883
_cell_length_c 8.669890
_cell_angle_alpha 90.000000
_cell_angle_beta 90.000000
_cell_angle_gamma 90.000000
_cell_volume 3124.683294
_symmetry_space_group_name_H-M "P C C A"
_symmetry_group_IT_number 54
_symmetry_cell_setting 'orthorhombic'
loop_
_space_group_symop_operation_xyz
x,y,z
1/2-x,-y,z
1/2+x,-y,1/2-z
-x,y,1/2-z
-x,-y,-z
1/2+x,y,-z
1/2-x,y,1/2+z
x,-y,1/2+z
loop_
_atom_site_type_symbol
_atom_site_label
_atom_site_fract_x
_atom_site_fract_y
_atom_site_fract_z
Si Si1 0.698128 0.607285 0.548672
Si Si2 0.685275 0.417440 0.413035
Si Si3 0.837194 0.784729 0.889685
Si Si4 0.779761 0.873593 0.415254
Si Si5 0.750000 0.000000 0.669348
Si Si6 0.865361 0.253765 0.038677
Si Si7 0.551193 0.894770 0.047510
Si Si8 0.068644 0.921013 0.595799
O O1 0.672859 0.522041 0.455538
O O2 0.761187 0.618173 0.502882
O O3 0.664878 0.697292 0.501701
O O4 0.693476 0.591518 0.730755
O O5 0.634292 0.358132 0.478212
O O6 0.781357 0.839053 0.895772
O O7 0.848414 0.751015 0.716662
O O8 0.883713 0.852110 0.954305
O O9 0.787454 0.933005 0.569564
O O10 0.791963 0.940499 0.271841
O O11 0.821240 0.791194 0.423438
O O12 0.922806 0.204044 0.009436
O O13 0.561265 0.919482 0.223092
O O14 0.487037 0.889387 0.010194
O O15 0.581110 0.974075 0.949672
#
# Coordination Sequence:
#
# PCOD8223767 Si02
#       8
#     8   8   8   8   4   8   8   8
#     4  11  22  37  57  81 112 145 179 223 273 331
#     4  11  22  37  57  81 112 145 179 223 273 331
#     4  11  22  35  55  80 111 144 184 226 272 329
#     4  11  22  34  47  74 106 146 179 220 261 326
#     4  10  24  34  44  66 112 150 180 210 268 320
#     4  11  22  35  55  80 111 144 184 226 272 329
#     4   9  20  37  56  79 109 148 190 231 273 318
#     4   9  20  37  56  79 109 148 190 231 273 318
#
# _framework density 19.201946
#
# number of rings (size 3 to 8) (size 9 to 14) (size 15 to 20)
#    0.000    1.600    2.667    3.200    5.600    1.067 
#    0.000    0.000    0.000    0.800    0.000    0.000 
#    0.000    0.000    0.000    0.000    0.000    0.000 
#
# Total GULP energy -743945.080408 kJ/mol
# GULP energy per Si atom -12399.084673 kJ/mol
# Density = 1.915824 g / cm^3
# Si number density = 19.201946 Si / 1000 Ang^3
#
#
#
# Elastic Constant Matrix: (Units=GPa)
#
#
# Indices 1 2 3 4 5 6 
#
# 1 60.0449 27.0120 9.8111 0.0000 0.0000 0.0000
# 2 27.0120 102.5367 26.5286 0.0000 0.0000 0.0000
# 3 9.8111 26.5286 86.7099 0.0000 0.0000 0.0000
# 4 0.0000 0.0000 0.0000 21.2213 0.0000 0.0000
# 5 0.0000 0.0000 0.0000 0.0000 17.9474 0.0000
# 6 0.0000 0.0000 0.0000 0.0000 0.0000 30.6386
#
#
#
# Elastic Compliance Matrix: (Units=1/GPa)
#
#
# Indices 1 2 3 4 5 6 
#
# 1 0.018929 -0.004813 -0.000669 0.000000 0.000000 0.000000
# 2 -0.004813 0.011815 -0.003070 0.000000 0.000000 0.000000
# 3 -0.000669 -0.003070 0.012548 0.000000 0.000000 0.000000
# 4 0.000000 0.000000 0.000000 0.047122 0.000000 0.000000
# 5 0.000000 0.000000 0.000000 0.000000 0.055718 0.000000
# 6 0.000000 0.000000 0.000000 0.000000 0.000000 0.032639
#
#
# Mechanical properties :
#
#
# Convention : Reuss Voigt Hill
#
# Bulk Modulus (GPa) = 38.18804 41.77721 39.98262
# Shear Modulus (GPa) = 24.43733 26.35747 25.39740
#
# Velocity S-wave (km/s) = 3.57129 3.70894 3.64077
# Velocity P-wave (km/s) = 6.07752 6.33606 6.20814
#
# Compressibility (1/GPa) = 0.02618621
#
# Stress axis : x y z
#
# Youngs Moduli (GPa) = 52.82918 84.63840 79.69584
#
# Poissons Ratio (x) = 0.40741 0.05332
# Poissons Ratio (y) = 0.25429 0.24468
# Poissons Ratio (z) = 0.03535 0.25985
#
# Static dielectric constant tensor:
#      x y z
#    x 3.484540 0.000000 0.000000 
#    y 0.000000 3.775370 0.000000 
#    z 0.000000 0.000000 3.594890 
# 
# 
# High freq. dielectric constant tensor:
#      x y z
#    x 1.706420 0.000000 0.000000 
#    y 0.000000 1.754330 0.000000 
#    z 0.000000 0.000000 1.758320 
# 
# From -- ./inp_files/5270.got.cif
#   From: 2010.03.12/outbox.cif.g09.slc.cpg/sg54_3_cif.got.tgz:5270.got - 2010.04.16 15:00:50.
