data_PCOD8223810
_publ_section_title
;
Structure prediction by ZEFSAII (Michael W. Deem and Ramdas Pophale) SiO2 
 PCOD8223810
Probable space group: P C C A
;
_chemical_formula_sum "Si O2"
_cell_formula_units_Z 56
_cell_length_a 8.690198
_cell_length_b 21.464694
_cell_length_c 14.675851
_cell_angle_alpha 90.000000
_cell_angle_beta 90.000000
_cell_angle_gamma 90.000000
_cell_volume 2737.522309
_symmetry_space_group_name_H-M "P C C A"
_symmetry_group_IT_number 54
_symmetry_cell_setting 'orthorhombic'
loop_
_space_group_symop_operation_xyz
x,y,z
1/2-x,-y,z
1/2+x,-y,1/2-z
-x,y,1/2-z
-x,-y,-z
1/2+x,y,-z
1/2-x,y,1/2+z
x,-y,1/2+z
loop_
_atom_site_type_symbol
_atom_site_label
_atom_site_fract_x
_atom_site_fract_y
_atom_site_fract_z
Si Si1 0.870287 0.955530 0.963976
Si Si2 0.829868 0.336035 0.418901
Si Si3 0.678999 0.566196 0.265007
Si Si4 0.638501 0.212343 0.378856
Si Si5 0.189832 0.653544 0.889834
Si Si6 0.199275 0.778896 0.324245
Si Si7 0.359465 0.873689 0.449025
O O1 0.969354 0.898841 0.919259
O O2 0.750000 0.000000 0.904682
O O3 0.768096 0.928483 0.047944
O O4 0.000000 0.000000 0.000000
O O5 0.771985 0.386815 0.345947
O O6 0.748763 0.269218 0.406079
O O7 0.788219 0.356906 0.520184
O O8 0.013067 0.333264 0.414006
O O9 0.750000 0.500000 0.288429
O O10 0.500000 0.558256 0.250000
O O11 0.734658 0.592696 0.168130
O O12 0.459033 0.230126 0.379690
O O13 0.681073 0.192007 0.276171
O O14 0.651224 0.154993 0.448668
O O15 0.231709 0.710177 0.822506
O O16 0.319348 0.822806 0.375053
#
# Coordination Sequence:
#
# PCOD8223810 Si02
#       7
#     8   8   8   8   8   8   8
#     4   9  20  38  64  90 124 169 209 248 303 369
#     4  11  23  40  61  91 128 165 208 265 322 380
#     4  10  24  44  64  88 124 170 216 258 319 391
#     4  11  23  37  59  94 131 162 209 261 328 379
#     4  11  23  40  61  91 128 165 208 264 324 374
#     4  11  23  37  59  94 131 164 205 267 323 380
#     4  11  20  38  62  94 123 165 216 254 313 376
#
# _framework density 20.456454000000001
#
# number of rings (size 3 to 8) (size 9 to 14) (size 15 to 20)
#    0.000    1.429    4.286    0.857    2.000    2.857 
#    0.000    2.857    0.000   12.857    0.000    0.000 
#    0.000    0.000    0.000    0.000    0.000    0.000 
#
# Total GULP energy -693741.183559 kJ/mol
# GULP energy per Si atom -12388.235421 kJ/mol
# Density = 2.040989 g / cm^3
# Si number density = 20.456454 Si / 1000 Ang^3
#
#
#
# Elastic Constant Matrix: (Units=GPa)
#
#
# Indices 1 2 3 4 5 6 
#
# 1 98.1932 41.8192 27.0699 0.0000 0.0000 0.0000
# 2 41.8192 100.8913 33.1366 0.0000 0.0000 0.0000
# 3 27.0699 33.1366 101.3117 0.0000 0.0000 0.0000
# 4 0.0000 0.0000 0.0000 -2.2641 0.0000 0.0000
# 5 0.0000 0.0000 0.0000 0.0000 32.0144 0.0000
# 6 0.0000 0.0000 0.0000 0.0000 0.0000 44.1641
#
#
#
# Elastic Compliance Matrix: (Units=1/GPa)
#
#
# Indices 1 2 3 4 5 6 
#
# 1 0.012675 -0.004640 -0.001869 0.000000 0.000000 0.000000
# 2 -0.004640 0.012803 -0.002948 0.000000 0.000000 0.000000
# 3 -0.001869 -0.002948 0.011334 0.000000 0.000000 0.000000
# 4 0.000000 0.000000 0.000000 -0.441672 0.000000 0.000000
# 5 0.000000 0.000000 0.000000 0.000000 0.031236 0.000000
# 6 0.000000 0.000000 0.000000 0.000000 0.000000 0.022643
#
#
# Mechanical properties :
#
#
# Convention : Reuss Voigt Hill
#
# Bulk Modulus (GPa) = 55.87008 56.04974 55.95991
# Shear Modulus (GPa) = -15.33271 28.00758 6.33743
#
# Velocity S-wave (km/s) = -2.74072 3.70419 1.76203
# Velocity P-wave (km/s) = 4.16600 6.76415 5.61735
#
# Compressibility (1/GPa) = 0.01789867
#
# Stress axis : x y z
#
# Youngs Moduli (GPa) = 78.89280 78.10600 88.22929
#
# Poissons Ratio (x) = 0.36241 0.16492
# Poissons Ratio (y) = 0.36607 0.26008
# Poissons Ratio (z) = 0.14746 0.23024
#
# Static dielectric constant tensor:
#      x y z
#    x 4.263990 0.000000 0.000000 
#    y 0.000000 1.635170 0.000000 
#    z 0.000000 0.000000 3.864170 
# 
# 
# High freq. dielectric constant tensor:
#      x y z
#    x 1.821780 0.000000 0.000000 
#    y 0.000000 1.803810 0.000000 
#    z 0.000000 0.000000 1.777630 
# 
# From -- ./inp_files/11891.got.cif
#   From: 2010.03.12/outbox.cif.g09.slc.cpg/sg54_6_cif.got.tgz:11891.got - 2010.04.16 15:00:50.
