data_PCOD8223635
_publ_section_title
;
Structure prediction by ZEFSAII (Michael W. Deem and Ramdas Pophale) SiO2 
 PCOD8223635
Probable space group: P C C A
;
_chemical_formula_sum "Si O2"
_cell_formula_units_Z 40
_cell_length_a 28.849391
_cell_length_b 6.438304
_cell_length_c 9.790327
_cell_angle_alpha 90.000000
_cell_angle_beta 90.000000
_cell_angle_gamma 90.000000
_cell_volume 1818.466591
_symmetry_space_group_name_H-M "P C C A"
_symmetry_group_IT_number 54
_symmetry_cell_setting 'orthorhombic'
loop_
_space_group_symop_operation_xyz
x,y,z
1/2-x,-y,z
1/2+x,-y,1/2-z
-x,y,1/2-z
-x,-y,-z
1/2+x,y,-z
1/2-x,y,1/2+z
x,-y,1/2+z
loop_
_atom_site_type_symbol
_atom_site_label
_atom_site_fract_x
_atom_site_fract_y
_atom_site_fract_z
Si Si1 0.704639 0.122914 0.923188
Si Si2 0.750000 0.500000 0.295894
Si Si3 0.326593 0.807251 0.795710
Si Si4 0.075558 0.322392 0.691898
Si Si5 0.961919 0.623363 0.583405
Si Si6 0.500000 0.016399 0.750000
O O1 0.716508 0.360363 0.888637
O O2 0.668129 0.120402 0.047671
O O3 0.750000 0.000000 0.972870
O O4 0.681616 0.011496 0.794255
O O5 0.717242 0.349480 0.206985
O O6 0.373129 0.698379 0.748678
O O7 0.052778 0.512343 0.775998
O O8 0.079699 0.362436 0.528246
O O9 0.044233 0.119100 0.708360
O O10 0.000000 0.500000 0.500000
O O11 0.983127 0.846155 0.621919
#
# Coordination Sequence:
#
# PCOD8223635 Si02
#       6
#     8   4   8   8   8   4
#     4  10  22  44  67  96 132 173 225 277 338 403
#     4  10  22  44  72  92 136 178 222 278 350 394
#     4  11  26  42  68 102 134 175 226 281 335 409
#     4  12  28  43  71 102 136 180 231 285 340 414
#     4  12  24  48  68 101 139 180 229 280 342 414
#     4  12  24  44  74  92 142 182 224 278 352 396
#
# _framework density 21.996555000000001
#
# number of rings (size 3 to 8) (size 9 to 14) (size 15 to 20)
#    0.000    0.800    4.000    3.000    5.600    3.200 
#    0.000    0.000    0.000    0.000    0.000    0.000 
#    0.000    0.000    0.000    0.000    0.000    0.000 
#
# Total GULP energy -496021.395616 kJ/mol
# GULP energy per Si atom -12400.534890 kJ/mol
# Density = 2.194649 g / cm^3
# Si number density = 21.996555 Si / 1000 Ang^3
#
#
#
# Elastic Constant Matrix: (Units=GPa)
#
#
# Indices 1 2 3 4 5 6 
#
# 1 72.2704 18.4653 10.1566 0.0000 0.0000 0.0000
# 2 18.4653 114.2891 47.0128 0.0000 0.0000 0.0000
# 3 10.1566 47.0128 127.8197 0.0000 0.0000 0.0000
# 4 0.0000 0.0000 0.0000 25.0062 0.0000 0.0000
# 5 0.0000 0.0000 0.0000 0.0000 27.0139 0.0000
# 6 0.0000 0.0000 0.0000 0.0000 0.0000 23.9858
#
#
#
# Elastic Compliance Matrix: (Units=1/GPa)
#
#
# Indices 1 2 3 4 5 6 
#
# 1 0.014445 -0.002194 -0.000341 0.000000 0.000000 0.000000
# 2 -0.002194 0.010643 -0.003740 0.000000 0.000000 0.000000
# 3 -0.000341 -0.003740 0.009226 0.000000 0.000000 0.000000
# 4 0.000000 0.000000 0.000000 0.039990 0.000000 0.000000
# 5 0.000000 0.000000 0.000000 0.000000 0.037018 0.000000
# 6 0.000000 0.000000 0.000000 0.000000 0.000000 0.041691
#
#
# Mechanical properties :
#
#
# Convention : Reuss Voigt Hill
#
# Bulk Modulus (GPa) = 45.94585 51.73873 48.84229
# Shear Modulus (GPa) = 28.93215 31.11747 30.02481
#
# Velocity S-wave (km/s) = 3.63065 3.76527 3.69857
# Velocity P-wave (km/s) = 6.20553 6.51731 6.36333
#
# Compressibility (1/GPa) = 0.02176475
#
# Stress axis : x y z
#
# Youngs Moduli (GPa) = 69.22659 93.96147 108.38627
#
# Poissons Ratio (x) = 0.20611 0.03696
# Poissons Ratio (y) = 0.15186 0.40538
# Poissons Ratio (z) = 0.02361 0.35143
#
# Static dielectric constant tensor:
#      x y z
#    x 4.663060 0.000000 0.000000 
#    y 0.000000 4.238390 0.000000 
#    z 0.000000 0.000000 4.469250 
# 
# 
# High freq. dielectric constant tensor:
#      x y z
#    x 1.851910 0.000000 0.000000 
#    y 0.000000 1.874040 0.000000 
#    z 0.000000 0.000000 1.880610 
# 
# From -- ./inp_files/10456.got.cif
#   From: 2010.03.12/outbox.cif.g09.slc.cpg/sg54_6_cif.got.tgz:10456.got - 2010.04.16 15:00:50.
