data_PCOD8223218
_publ_section_title
;
Structure prediction by ZEFSAII (Michael W. Deem and Ramdas Pophale) SiO2 
 PCOD8223218
Probable space group: P C C A
;
_chemical_formula_sum "Si O2"
_cell_formula_units_Z 48
_cell_length_a 8.574631
_cell_length_b 9.047163
_cell_length_c 29.291153
_cell_angle_alpha 90.000000
_cell_angle_beta 90.000000
_cell_angle_gamma 90.000000
_cell_volume 2272.292955
_symmetry_space_group_name_H-M "P C C A"
_symmetry_group_IT_number 54
_symmetry_cell_setting 'orthorhombic'
loop_
_space_group_symop_operation_xyz
x,y,z
1/2-x,-y,z
1/2+x,-y,1/2-z
-x,y,1/2-z
-x,-y,-z
1/2+x,y,-z
1/2-x,y,1/2+z
x,-y,1/2+z
loop_
_atom_site_type_symbol
_atom_site_label
_atom_site_fract_x
_atom_site_fract_y
_atom_site_fract_z
Si Si1 0.461337 0.649546 0.631236
Si Si2 0.931174 0.182077 0.956576
Si Si3 0.145668 0.356202 0.781384
Si Si4 0.853289 0.133618 0.275764
Si Si5 0.564704 0.154474 0.950205
Si Si6 0.897898 0.691176 0.861281
O O1 0.510189 0.709438 0.581055
O O2 0.580340 0.706584 0.670116
O O3 0.459357 0.473736 0.634958
O O4 0.288415 0.710430 0.638878
O O5 0.746619 0.183460 0.955521
O O6 0.989771 0.015362 0.947992
O O7 0.983404 0.235191 0.006886
O O8 0.250000 0.500000 0.789986
O O9 0.245293 0.229482 0.757503
O O10 0.000000 0.403941 0.750000
O O11 0.940854 0.233889 0.313567
O O12 0.000000 0.060964 0.250000
O O13 0.750000 0.000000 0.296713
O O14 0.514257 0.225777 0.902411
#
# Coordination Sequence:
#
# PCOD8223218 Si02
#       6
#     8   8   8   8   8   8
#     4  10  21  38  63  89 122 165 208 252 309 371
#     4   9  19  37  60  89 118 161 203 250 313 370
#     4  12  23  41  66  91 128 169 208 262 313 372
#     4  12  27  43  64  94 125 163 214 262 317 377
#     4   9  19  36  62  85 121 159 201 253 309 373
#     4  10  21  39  63  90 120 166 207 249 311 379
#
# _framework density 21.124034999999999
#
# number of rings (size 3 to 8) (size 9 to 14) (size 15 to 20)
#    0.000    1.667    1.667    3.000    4.667    0.667 
#    6.000    0.000    0.000    0.000    0.000    0.000 
#    0.000    0.000    0.000    0.000    0.000    0.000 
#
# Total GULP energy -595055.973044 kJ/mol
# GULP energy per Si atom -12396.999438 kJ/mol
# Density = 2.107596 g / cm^3
# Si number density = 21.124035 Si / 1000 Ang^3
#
#
#
# Elastic Constant Matrix: (Units=GPa)
#
#
# Indices 1 2 3 4 5 6 
#
# 1 41.5511 21.0083 49.0495 0.0000 0.0000 0.0000
# 2 21.0083 89.3662 61.4794 0.0000 0.0000 0.0000
# 3 49.0495 61.4794 176.3513 0.0000 0.0000 0.0000
# 4 0.0000 0.0000 0.0000 40.0760 0.0000 0.0000
# 5 0.0000 0.0000 0.0000 0.0000 37.0294 0.0000
# 6 0.0000 0.0000 0.0000 0.0000 0.0000 21.5122
#
#
#
# Elastic Compliance Matrix: (Units=1/GPa)
#
#
# Indices 1 2 3 4 5 6 
#
# 1 0.036122 -0.002078 -0.009322 0.000000 0.000000 0.000000
# 2 -0.002078 0.014840 -0.004595 0.000000 0.000000 0.000000
# 3 -0.009322 -0.004595 0.009865 0.000000 0.000000 0.000000
# 4 0.000000 0.000000 0.000000 0.024953 0.000000 0.000000
# 5 0.000000 0.000000 0.000000 0.000000 0.027006 0.000000
# 6 0.000000 0.000000 0.000000 0.000000 0.000000 0.046485
#
#
# Mechanical properties :
#
#
# Convention : Reuss Voigt Hill
#
# Bulk Modulus (GPa) = 34.67962 63.37144 49.02553
# Shear Modulus (GPa) = 24.89113 31.43896 28.16504
#
# Velocity S-wave (km/s) = 3.43641 3.86204 3.65542
# Velocity P-wave (km/s) = 5.67433 7.06767 6.40897
#
# Compressibility (1/GPa) = 0.02883538
#
# Stress axis : x y z
#
# Youngs Moduli (GPa) = 27.68381 67.38587 101.36424
#
# Poissons Ratio (x) = 0.14005 0.94495
# Poissons Ratio (y) = 0.05754 0.46581
# Poissons Ratio (z) = 0.25808 0.30967
#
# Static dielectric constant tensor:
#      x y z
#    x 3.729020 0.000000 0.000000 
#    y 0.000000 3.761070 0.000000 
#    z 0.000000 0.000000 4.209560 
# 
# 
# High freq. dielectric constant tensor:
#      x y z
#    x 1.814330 0.000000 0.000000 
#    y 0.000000 1.817960 0.000000 
#    z 0.000000 0.000000 1.840430 
# 
# From -- ./inp_files/27757.got.cif
#   From: 2010.03.12/outbox.cif.g09.slc.cpg/sg54_14_cif.got.tgz:27757.got - 2010.04.16 15:00:50.
