data_PCOD8223103
_publ_section_title
;
Structure prediction by ZEFSAII (Michael W. Deem and Ramdas Pophale) SiO2 
 PCOD8223103
Probable space group: P C C A
;
_chemical_formula_sum "Si O2"
_cell_formula_units_Z 36
_cell_length_a 11.106298
_cell_length_b 12.875796
_cell_length_c 11.553469
_cell_angle_alpha 90.000000
_cell_angle_beta 90.000000
_cell_angle_gamma 90.000000
_cell_volume 1652.174111
_symmetry_space_group_name_H-M "P C C A"
_symmetry_group_IT_number 54
_symmetry_cell_setting 'orthorhombic'
loop_
_space_group_symop_operation_xyz
x,y,z
1/2-x,-y,z
1/2+x,-y,1/2-z
-x,y,1/2-z
-x,-y,-z
1/2+x,y,-z
1/2-x,y,1/2+z
x,-y,1/2+z
loop_
_atom_site_type_symbol
_atom_site_label
_atom_site_fract_x
_atom_site_fract_y
_atom_site_fract_z
Si Si1 0.543242 0.678678 0.405780
Si Si2 0.098650 0.746499 0.344337
Si Si3 0.689238 0.608078 0.207965
Si Si4 0.000000 0.866335 0.750000
Si Si5 0.885356 0.017670 0.584693
O O1 0.570667 0.681389 0.540278
O O2 0.634230 0.602419 0.337470
O O3 0.410245 0.632954 0.388978
O O4 0.557614 0.793895 0.349779
O O5 0.222763 0.705981 0.293526
O O6 0.000000 0.719174 0.250000
O O7 0.105875 0.867507 0.366922
O O8 0.750000 0.500000 0.175531
O O9 0.102792 0.938454 0.807498
O O10 0.750000 0.000000 0.529633
O O11 0.000000 0.000000 0.500000
#
# Coordination Sequence:
#
# PCOD8223103 Si02
#       5
#     8   8   8   4   8
#     4  10  24  47  70  99 148 179 234 304 353 421
#     4  12  27  43  72 109 140 186 245 288 359 440
#     4  10  25  47  73  98 135 186 236 298 367 415
#     4  10  20  46  64 100 142 194 226 292 358 412
#     4  12  25  43  71 104 146 193 241 295 359 433
#
# _framework density 21.789470999999999
#
# number of rings (size 3 to 8) (size 9 to 14) (size 15 to 20)
#    0.000    1.333    3.333    2.667    6.222    2.667 
#    0.000    0.000    0.000    0.000    0.000    0.000 
#    0.000    0.000    0.000    0.000    0.000    0.000 
#
# Total GULP energy -446315.818795 kJ/mol
# GULP energy per Si atom -12397.661633 kJ/mol
# Density = 2.173988 g / cm^3
# Si number density = 21.789471 Si / 1000 Ang^3
#
#
#
# Elastic Constant Matrix: (Units=GPa)
#
#
# Indices 1 2 3 4 5 6 
#
# 1 166.1483 41.3706 40.4507 0.0000 0.0000 0.0000
# 2 41.3706 108.7826 0.9565 0.0000 0.0000 0.0000
# 3 40.4507 0.9565 77.6725 0.0000 0.0000 0.0000
# 4 0.0000 0.0000 0.0000 4.9295 0.0000 0.0000
# 5 0.0000 0.0000 0.0000 0.0000 11.7333 0.0000
# 6 0.0000 0.0000 0.0000 0.0000 0.0000 28.7445
#
#
#
# Elastic Compliance Matrix: (Units=1/GPa)
#
#
# Indices 1 2 3 4 5 6 
#
# 1 0.007709 -0.002897 -0.003979 0.000000 0.000000 0.000000
# 2 -0.002897 0.010282 0.001382 0.000000 0.000000 0.000000
# 3 -0.003979 0.001382 0.014930 0.000000 0.000000 0.000000
# 4 0.000000 0.000000 0.000000 0.202859 0.000000 0.000000
# 5 0.000000 0.000000 0.000000 0.000000 0.085227 0.000000
# 6 0.000000 0.000000 0.000000 0.000000 0.000000 0.034789
#
#
# Mechanical properties :
#
#
# Convention : Reuss Voigt Hill
#
# Bulk Modulus (GPa) = 45.59295 57.57322 51.58309
# Shear Modulus (GPa) = 13.36561 27.06985 20.21773
#
# Velocity S-wave (km/s) = 2.47937 3.52850 3.04940
# Velocity P-wave (km/s) = 5.40057 6.56356 6.01026
#
# Compressibility (1/GPa) = 0.02193321
#
# Stress axis : x y z
#
# Youngs Moduli (GPa) = 129.72368 97.25631 66.98056
#
# Poissons Ratio (x) = 0.28172 0.26651
# Poissons Ratio (y) = 0.37577 -0.09256
# Poissons Ratio (z) = 0.51616 -0.13440
#
# Static dielectric constant tensor:
#      x y z
#    x 4.103210 0.000000 0.000000 
#    y 0.000000 3.930190 0.000000 
#    z 0.000000 0.000000 3.912350 
# 
# 
# High freq. dielectric constant tensor:
#      x y z
#    x 1.864370 0.000000 0.000000 
#    y 0.000000 1.866950 0.000000 
#    z 0.000000 0.000000 1.846650 
# 
# From -- ./inp_files/7420.got.cif
#   From: 2010.03.12/outbox.cif.g09.slc.cpg/sg54_4_cif.got.tgz:7420.got - 2010.04.16 15:00:50.
