data_PCOD8223871
_publ_section_title
;
Structure prediction by ZEFSAII (Michael W. Deem and Ramdas Pophale) SiO2 
 PCOD8223871
Probable space group: P C C A
;
_chemical_formula_sum "Si O2"
_cell_formula_units_Z 32
_cell_length_a 27.992402
_cell_length_b 5.459330
_cell_length_c 8.974839
_cell_angle_alpha 90.000000
_cell_angle_beta 90.000000
_cell_angle_gamma 90.000000
_cell_volume 1371.532742
_symmetry_space_group_name_H-M "P C C A"
_symmetry_group_IT_number 54
_symmetry_cell_setting 'orthorhombic'
loop_
_space_group_symop_operation_xyz
x,y,z
1/2-x,-y,z
1/2+x,-y,1/2-z
-x,y,1/2-z
-x,-y,-z
1/2+x,y,-z
1/2-x,y,1/2+z
x,-y,1/2+z
loop_
_atom_site_type_symbol
_atom_site_label
_atom_site_fract_x
_atom_site_fract_y
_atom_site_fract_z
Si Si1 0.628651 0.211431 0.892666
Si Si2 0.178147 0.486628 0.351854
Si Si3 0.294083 0.824203 0.605630
Si Si4 0.983006 0.246999 0.419924
O O1 0.635661 0.352891 0.737403
O O2 0.573387 0.211041 0.927720
O O3 0.653154 0.944616 0.876250
O O4 0.655405 0.332412 0.030095
O O5 0.210715 0.292567 0.441503
O O6 0.211750 0.623037 0.234100
O O7 0.250000 0.000000 0.628605
O O8 0.000000 0.254276 0.250000
O O9 0.000000 0.500000 0.500000
O O10 0.000000 0.000000 0.500000
#
# Coordination Sequence:
#
# PCOD8223871 Si02
#       4
#     8   8   8   8
#     4  11  25  44  75 102 148 193 248 311 381 455
#     4  10  25  45  73 102 149 187 247 307 376 448
#     4  11  26  46  73 109 145 197 249 308 382 461
#     4  12  29  49  79 116 158 207 269 330 401 474
#
# _framework density 23.331558000000001
#
# number of rings (size 3 to 8) (size 9 to 14) (size 15 to 20)
#    0.000    1.000    0.000    3.750   14.000   10.000 
#    0.000    3.750    0.000    0.000    0.000    0.000 
#    0.000    0.000    0.000    0.000    0.000    0.000 
#
# Total GULP energy -396757.551821 kJ/mol
# GULP energy per Si atom -12398.673494 kJ/mol
# Density = 2.327845 g / cm^3
# Si number density = 23.331558 Si / 1000 Ang^3
#
#
#
# Elastic Constant Matrix: (Units=GPa)
#
#
# Indices 1 2 3 4 5 6 
#
# 1 133.4737 39.6234 22.5876 0.0000 0.0000 0.0000
# 2 39.6234 135.7756 49.3332 0.0000 0.0000 0.0000
# 3 22.5876 49.3332 151.6374 0.0000 0.0000 0.0000
# 4 0.0000 0.0000 0.0000 -40.4706 0.0000 0.0000
# 5 0.0000 0.0000 0.0000 0.0000 19.3923 0.0000
# 6 0.0000 0.0000 0.0000 0.0000 0.0000 26.1753
#
#
#
# Elastic Compliance Matrix: (Units=1/GPa)
#
#
# Indices 1 2 3 4 5 6 
#
# 1 0.008237 -0.002220 -0.000505 0.000000 0.000000 0.000000
# 2 -0.002220 0.008951 -0.002581 0.000000 0.000000 0.000000
# 3 -0.000505 -0.002581 0.007510 0.000000 0.000000 0.000000
# 4 0.000000 0.000000 0.000000 -0.024709 0.000000 0.000000
# 5 0.000000 0.000000 0.000000 0.000000 0.051567 0.000000
# 6 0.000000 0.000000 0.000000 0.000000 0.000000 0.038204
#
#
# Mechanical properties :
#
#
# Convention : Reuss Voigt Hill
#
# Bulk Modulus (GPa) = 70.99883 71.55281 71.27582
# Shear Modulus (GPa) = 47.58906 21.64224 34.61565
#
# Velocity S-wave (km/s) = 4.52119 3.04895 3.85598
# Velocity P-wave (km/s) = 7.59943 6.56728 7.10213
#
# Compressibility (1/GPa) = 0.01408474
#
# Stress axis : x y z
#
# Youngs Moduli (GPa) = 121.40866 111.71961 133.16217
#
# Poissons Ratio (x) = 0.24806 0.06719
# Poissons Ratio (y) = 0.26957 0.34374
# Poissons Ratio (z) = 0.06126 0.28839
#
# Static dielectric constant tensor:
#      x y z
#    x 4.356150 0.000000 0.000000 
#    y 0.000000 5.139900 0.000000 
#    z 0.000000 0.000000 4.650380 
# 
# 
# High freq. dielectric constant tensor:
#      x y z
#    x 1.922350 0.000000 0.000000 
#    y 0.000000 1.941080 0.000000 
#    z 0.000000 0.000000 1.953620 
# 
# From -- ./inp_files/5650.got.cif
#   From: 2010.03.12/outbox.cif.g09.slc.cpg/sg54_3_cif.got.tgz:5650.got - 2010.04.16 15:00:50.
