data_PCOD8223456
_publ_section_title
;
Structure prediction by ZEFSAII (Michael W. Deem and Ramdas Pophale) SiO2 
 PCOD8223456
Probable space group: P C C A
;
_chemical_formula_sum "Si O2"
_cell_formula_units_Z 60
_cell_length_a 18.234800
_cell_length_b 5.178775
_cell_length_c 29.203176
_cell_angle_alpha 90.000000
_cell_angle_beta 90.000000
_cell_angle_gamma 90.000000
_cell_volume 2757.770572
_symmetry_space_group_name_H-M "P C C A"
_symmetry_group_IT_number 54
_symmetry_cell_setting 'orthorhombic'
loop_
_space_group_symop_operation_xyz
x,y,z
1/2-x,-y,z
1/2+x,-y,1/2-z
-x,y,1/2-z
-x,-y,-z
1/2+x,y,-z
1/2-x,y,1/2+z
x,-y,1/2+z
loop_
_atom_site_type_symbol
_atom_site_label
_atom_site_fract_x
_atom_site_fract_y
_atom_site_fract_z
Si Si1 0.668476 0.398567 0.987130
Si Si2 0.422365 0.326421 0.773079
Si Si3 0.750000 0.000000 0.835732
Si Si4 0.095452 0.871117 0.983072
Si Si5 0.382647 0.185790 0.225440
Si Si6 0.013644 0.424357 0.658346
Si Si7 0.516243 0.895937 0.925532
Si Si8 0.131554 0.728024 0.611123
O O1 0.750000 0.500000 0.984749
O O2 0.637238 0.439173 0.935428
O O3 0.634403 0.597223 0.023559
O O4 0.652365 0.104854 0.003829
O O5 0.500000 0.361929 0.750000
O O6 0.368579 0.547225 0.752741
O O7 0.443914 0.399988 0.825572
O O8 0.389645 0.043529 0.763402
O O9 0.688473 0.860885 0.805517
O O10 0.788230 0.793821 0.869467
O O11 0.037639 0.805231 0.023638
O O12 0.053530 0.918238 0.935137
O O13 0.458461 0.203821 0.194902
O O14 0.987885 0.323947 0.608791
O O15 0.088152 0.588286 0.651863
O O16 0.586247 0.015992 0.900578
#
# Coordination Sequence:
#
# PCOD8223456 Si02
#       8
#     8   8   4   8   8   8   8   8
#     4  11  24  40  61  91 133 175 218 253 330 395
#     4  10  22  39  60  83 124 159 210 260 311 377
#     4  12  24  40  60  92 136 172 210 258 336 420
#     4  10  23  41  62  90 138 174 211 276 320 389
#     4  11  24  39  57  90 124 168 199 253 322 392
#     4  11  22  39  65  93 126 164 220 269 327 390
#     4  10  22  39  61  97 130 167 223 266 335 375
#     4  11  25  35  62  96 135 168 213 268 328 400
#
# _framework density 21.756706999999999
#
# number of rings (size 3 to 8) (size 9 to 14) (size 15 to 20)
#    0.000    1.333    2.667    3.200    9.333    3.200 
#    0.000    0.000    0.000    0.000    6.933    0.000 
#    0.000    0.000    0.000    0.000    0.000    0.000 
#
# Total GULP energy -743290.816939 kJ/mol
# GULP energy per Si atom -12388.180282 kJ/mol
# Density = 2.170719 g / cm^3
# Si number density = 21.756707 Si / 1000 Ang^3
#
#
#
# Elastic Constant Matrix: (Units=GPa)
#
#
# Indices 1 2 3 4 5 6 
#
# 1 54.4778 17.4678 29.3560 0.0000 0.0000 0.0000
# 2 17.4678 102.5924 28.9923 0.0000 0.0000 0.0000
# 3 29.3560 28.9923 80.1493 0.0000 0.0000 0.0000
# 4 0.0000 0.0000 0.0000 6.6418 0.0000 0.0000
# 5 0.0000 0.0000 0.0000 0.0000 22.1367 0.0000
# 6 0.0000 0.0000 0.0000 0.0000 0.0000 26.8594
#
#
#
# Elastic Compliance Matrix: (Units=1/GPa)
#
#
# Indices 1 2 3 4 5 6 
#
# 1 0.023139 -0.001721 -0.007853 0.000000 0.000000 0.000000
# 2 -0.001721 0.010985 -0.003343 0.000000 0.000000 0.000000
# 3 -0.007853 -0.003343 0.016562 0.000000 0.000000 0.000000
# 4 0.000000 0.000000 0.000000 0.150561 0.000000 0.000000
# 5 0.000000 0.000000 0.000000 0.000000 0.045174 0.000000
# 6 0.000000 0.000000 0.000000 0.000000 0.000000 0.037231
#
#
# Mechanical properties :
#
#
# Convention : Reuss Voigt Hill
#
# Bulk Modulus (GPa) = 40.23632 43.20574 41.72103
# Shear Modulus (GPa) = 15.73461 21.88782 18.81121
#
# Velocity S-wave (km/s) = 2.69217 3.17523 2.94363
# Velocity P-wave (km/s) = 5.31014 5.77447 5.54717
#
# Compressibility (1/GPa) = 0.02485317
#
# Stress axis : x y z
#
# Youngs Moduli (GPa) = 43.21637 91.03233 60.37793
#
# Poissons Ratio (x) = 0.15663 0.47413
# Poissons Ratio (y) = 0.07436 0.20187
# Poissons Ratio (z) = 0.33937 0.30436
#
# Static dielectric constant tensor:
#      x y z
#    x 4.078920 0.000000 0.000000 
#    y 0.000000 4.053800 0.000000 
#    z 0.000000 0.000000 4.578000 
# 
# 
# High freq. dielectric constant tensor:
#      x y z
#    x 1.823310 0.000000 0.000000 
#    y 0.000000 1.863090 0.000000 
#    z 0.000000 0.000000 1.840280 
# 
# From -- ./inp_files/26666.got.cif
#   From: 2010.03.12/outbox.cif.g09.slc.cpg/sg54_14_cif.got.tgz:26666.got - 2010.04.16 15:00:50.
