data_PCOD8223483
_publ_section_title
;
Structure prediction by ZEFSAII (Michael W. Deem and Ramdas Pophale) SiO2 
 PCOD8223483
Probable space group: P C C A
;
_chemical_formula_sum "Si O2"
_cell_formula_units_Z 40
_cell_length_a 12.646270
_cell_length_b 8.948082
_cell_length_c 17.118332
_cell_angle_alpha 90.000000
_cell_angle_beta 90.000000
_cell_angle_gamma 90.000000
_cell_volume 1937.108069
_symmetry_space_group_name_H-M "P C C A"
_symmetry_group_IT_number 54
_symmetry_cell_setting 'orthorhombic'
loop_
_space_group_symop_operation_xyz
x,y,z
1/2-x,-y,z
1/2+x,-y,1/2-z
-x,y,1/2-z
-x,-y,-z
1/2+x,y,-z
1/2-x,y,1/2+z
x,-y,1/2+z
loop_
_atom_site_type_symbol
_atom_site_label
_atom_site_fract_x
_atom_site_fract_y
_atom_site_fract_z
Si Si1 0.793752 0.340707 0.727988
Si Si2 0.887217 0.811223 0.788614
Si Si3 0.927273 0.127669 0.822573
Si Si4 0.050807 0.665634 0.416193
Si Si5 0.635120 0.573943 0.424071
O O1 0.750000 0.500000 0.756254
O O2 0.697076 0.221583 0.718336
O O3 0.859528 0.274234 0.801033
O O4 0.861716 0.363960 0.650514
O O5 0.865633 0.685799 0.852465
O O6 0.000000 0.791561 0.750000
O O7 0.865458 0.970630 0.832204
O O8 0.000000 0.087522 0.750000
O O9 0.996023 0.172685 0.898849
O O10 0.111326 0.670032 0.497822
O O11 0.960034 0.541776 0.413132
O O12 0.750000 0.500000 0.434354
#
# Coordination Sequence:
#
# PCOD8223483 Si02
#       5
#     8   8   8   8   8
#     4  11  20  35  61  86 114 153 197 245 303 363
#     4  11  22  36  58  88 119 154 200 251 305 367
#     4   9  20  37  58  85 116 151 194 244 298 363
#     4  10  22  40  59  85 121 158 200 252 309 364
#     4  11  23  38  59  87 119 158 205 253 302 365
#
# _framework density 20.649336999999999
#
# number of rings (size 3 to 8) (size 9 to 14) (size 15 to 20)
#    0.000    1.600    0.000    5.400    0.000    4.000 
#    0.000    0.000    0.000   14.400    0.000    0.000 
#    0.000    0.000    0.000    0.000    0.000    0.000 
#
# Total GULP energy -495580.077888 kJ/mol
# GULP energy per Si atom -12389.501947 kJ/mol
# Density = 2.060234 g / cm^3
# Si number density = 20.649337 Si / 1000 Ang^3
#
#
#
# Elastic Constant Matrix: (Units=GPa)
#
#
# Indices 1 2 3 4 5 6 
#
# 1 137.1816 47.1012 54.5363 0.0000 0.0000 0.0000
# 2 47.1012 115.1290 38.8228 0.0000 0.0000 0.0000
# 3 54.5363 38.8228 97.6489 0.0000 0.0000 0.0000
# 4 0.0000 0.0000 0.0000 25.6984 0.0000 0.0000
# 5 0.0000 0.0000 0.0000 0.0000 32.2869 0.0000
# 6 0.0000 0.0000 0.0000 0.0000 0.0000 21.2066
#
#
#
# Elastic Compliance Matrix: (Units=1/GPa)
#
#
# Indices 1 2 3 4 5 6 
#
# 1 0.009976 -0.002544 -0.004560 0.000000 0.000000 0.000000
# 2 -0.002544 0.010679 -0.002825 0.000000 0.000000 0.000000
# 3 -0.004560 -0.002825 0.013911 0.000000 0.000000 0.000000
# 4 0.000000 0.000000 0.000000 0.038913 0.000000 0.000000
# 5 0.000000 0.000000 0.000000 0.000000 0.030972 0.000000
# 6 0.000000 0.000000 0.000000 0.000000 0.000000 0.047155
#
#
# Mechanical properties :
#
#
# Convention : Reuss Voigt Hill
#
# Bulk Modulus (GPa) = 67.99040 70.09780 69.04410
# Shear Modulus (GPa) = 28.35001 29.80500 29.07750
#
# Velocity S-wave (km/s) = 3.70932 3.80332 3.75661
# Velocity P-wave (km/s) = 7.16541 7.30119 7.23362
#
# Compressibility (1/GPa) = 0.01470796
#
# Stress axis : x y z
#
# Youngs Moduli (GPa) = 100.24242 93.63978 71.88631
#
# Poissons Ratio (x) = 0.23818 0.32781
# Poissons Ratio (y) = 0.25497 0.20310
# Poissons Ratio (z) = 0.45712 0.26456
#
# Static dielectric constant tensor:
#      x y z
#    x 3.927560 0.000000 0.000000 
#    y 0.000000 3.974780 0.000000 
#    z 0.000000 0.000000 3.650300 
# 
# 
# High freq. dielectric constant tensor:
#      x y z
#    x 1.832370 0.000000 0.000000 
#    y 0.000000 1.812720 0.000000 
#    z 0.000000 0.000000 1.785130 
# 
# From -- ./inp_files/17098.got.cif
#   From: 2010.03.12/outbox.cif.g09.slc.cpg/sg54_9_cif.got.tgz:17098.got - 2010.04.16 15:00:50.
