data_PCOD8223033
_publ_section_title
;
Structure prediction by ZEFSAII (Michael W. Deem and Ramdas Pophale) SiO2 
 PCOD8223033
Probable space group: P C C A
;
_chemical_formula_sum "Si O2"
_cell_formula_units_Z 60
_cell_length_a 10.635806
_cell_length_b 11.372926
_cell_length_c 23.385927
_cell_angle_alpha 90.000000
_cell_angle_beta 90.000000
_cell_angle_gamma 90.000000
_cell_volume 2828.767216
_symmetry_space_group_name_H-M "P C C A"
_symmetry_group_IT_number 54
_symmetry_cell_setting 'orthorhombic'
loop_
_space_group_symop_operation_xyz
x,y,z
1/2-x,-y,z
1/2+x,-y,1/2-z
-x,y,1/2-z
-x,-y,-z
1/2+x,y,-z
1/2-x,y,1/2+z
x,-y,1/2+z
loop_
_atom_site_type_symbol
_atom_site_label
_atom_site_fract_x
_atom_site_fract_y
_atom_site_fract_z
Si Si1 0.699068 0.628867 0.109959
Si Si2 0.319477 0.617968 0.170782
Si Si3 0.591675 0.957805 0.087466
Si Si4 0.377541 0.955988 0.786208
Si Si5 0.942190 0.257643 0.428847
Si Si6 0.829899 0.815803 0.045699
Si Si7 0.306744 0.694134 0.779493
Si Si8 0.000000 0.495391 0.750000
O O1 0.750000 0.500000 0.095730
O O2 0.569544 0.661364 0.076012
O O3 0.815217 0.711925 0.091049
O O4 0.690840 0.659542 0.177896
O O5 0.250000 0.500000 0.151356
O O6 0.340357 0.695285 0.115201
O O7 0.241245 0.699061 0.214447
O O8 0.447769 0.578881 0.200577
O O9 0.468319 0.878426 0.085580
O O10 0.699431 0.891110 0.049965
O O11 0.626881 0.974257 0.153809
O O12 0.562600 0.087362 0.060877
O O13 0.500000 0.993101 0.750000
O O14 0.375198 0.815659 0.795137
O O15 0.250000 0.000000 0.753940
O O16 0.869446 0.254713 0.488859
O O17 0.401790 0.585233 0.784153
#
# Coordination Sequence:
#
# PCOD8223033 Si02
#       8
#     8   8   8   8   8   8   8   4
#     4  11  22  39  66  95 128 175 229 277 348 426
#     4  10  22  38  64  97 139 168 218 286 339 409
#     4  10  21  46  67  91 130 179 226 279 342 416
#     4  12  24  42  70 102 146 175 224 288 349 412
#     4  11  23  40  66  96 121 177 234 277 345 408
#     4  10  21  42  66  88 129 173 222 284 335 397
#     4  11  21  41  63  95 137 181 221 269 355 424
#     4  10  20  40  62  92 136 188 212 266 352 442
#
# _framework density 21.210652
#
# number of rings (size 3 to 8) (size 9 to 14) (size 15 to 20)
#    0.000    1.333    3.333    4.000    1.867    1.067 
#    0.000   12.000    0.000    0.000    0.000    0.000 
#    0.000    0.000    0.000    0.000    0.000    0.000 
#
# Total GULP energy -743333.100107 kJ/mol
# GULP energy per Si atom -12388.885002 kJ/mol
# Density = 2.116238 g / cm^3
# Si number density = 21.210652 Si / 1000 Ang^3
#
#
#
# Elastic Constant Matrix: (Units=GPa)
#
#
# Indices 1 2 3 4 5 6 
#
# 1 79.8666 14.5235 45.1381 0.0000 0.0000 0.0000
# 2 14.5235 96.2092 37.5774 0.0000 0.0000 0.0000
# 3 45.1381 37.5774 105.4830 0.0000 0.0000 0.0000
# 4 0.0000 0.0000 0.0000 32.0902 0.0000 0.0000
# 5 0.0000 0.0000 0.0000 0.0000 28.9448 0.0000
# 6 0.0000 0.0000 0.0000 0.0000 0.0000 21.7683
#
#
#
# Elastic Compliance Matrix: (Units=1/GPa)
#
#
# Indices 1 2 3 4 5 6 
#
# 1 0.016523 0.000311 -0.007181 0.000000 0.000000 0.000000
# 2 0.000311 0.012080 -0.004436 0.000000 0.000000 0.000000
# 3 -0.007181 -0.004436 0.014134 0.000000 0.000000 0.000000
# 4 0.000000 0.000000 0.000000 0.031162 0.000000 0.000000
# 5 0.000000 0.000000 0.000000 0.000000 0.034548 0.000000
# 6 0.000000 0.000000 0.000000 0.000000 0.000000 0.045938
#
#
# Mechanical properties :
#
#
# Convention : Reuss Voigt Hill
#
# Bulk Modulus (GPa) = 49.69510 52.89297 51.29404
# Shear Modulus (GPa) = 27.21735 28.84865 28.03300
#
# Velocity S-wave (km/s) = 3.58605 3.69196 3.63939
# Velocity P-wave (km/s) = 6.37390 6.57002 6.47270
#
# Compressibility (1/GPa) = 0.02012271
#
# Stress axis : x y z
#
# Youngs Moduli (GPa) = 60.52185 82.78252 70.75387
#
# Poissons Ratio (x) = -0.02571 0.50809
# Poissons Ratio (y) = -0.01879 0.31388
# Poissons Ratio (z) = 0.43461 0.36724
#
# Static dielectric constant tensor:
#      x y z
#    x 3.707820 0.000000 0.000000 
#    y 0.000000 4.150130 0.000000 
#    z 0.000000 0.000000 3.708190 
# 
# 
# High freq. dielectric constant tensor:
#      x y z
#    x 1.814980 0.000000 0.000000 
#    y 0.000000 1.850130 0.000000 
#    z 0.000000 0.000000 1.816740 
# 
# From -- ./inp_files/21234.got.cif
#   From: 2010.03.12/outbox.cif.g09.slc.cpg/sg54_11_cif.got.tgz:21234.got - 2010.04.16 15:00:50.
