data_PCOD8223646
_publ_section_title
;
Structure prediction by ZEFSAII (Michael W. Deem and Ramdas Pophale) SiO2 
 PCOD8223646
Probable space group: P C C A
;
_chemical_formula_sum "Si O2"
_cell_formula_units_Z 44
_cell_length_a 15.857230
_cell_length_b 13.826488
_cell_length_c 9.209899
_cell_angle_alpha 90.000000
_cell_angle_beta 90.000000
_cell_angle_gamma 90.000000
_cell_volume 2019.268517
_symmetry_space_group_name_H-M "P C C A"
_symmetry_group_IT_number 54
_symmetry_cell_setting 'orthorhombic'
loop_
_space_group_symop_operation_xyz
x,y,z
1/2-x,-y,z
1/2+x,-y,1/2-z
-x,y,1/2-z
-x,-y,-z
1/2+x,y,-z
1/2-x,y,1/2+z
x,-y,1/2+z
loop_
_atom_site_type_symbol
_atom_site_label
_atom_site_fract_x
_atom_site_fract_y
_atom_site_fract_z
Si Si1 0.294374 0.868197 0.348396
Si Si2 0.001957 0.396089 0.921553
Si Si3 0.411789 0.311017 0.834055
Si Si4 0.263570 0.392753 0.662736
Si Si5 0.827896 0.705722 0.100977
Si Si6 0.250000 0.000000 0.595647
O O1 0.370109 0.793786 0.334159
O O2 0.200917 0.815694 0.358838
O O3 0.309284 0.936405 0.488504
O O4 0.302705 0.929483 0.200302
O O5 0.078858 0.320273 0.955752
O O6 0.000000 0.411445 0.750000
O O7 0.000000 0.500000 0.000000
O O8 0.923217 0.341876 0.996565
O O9 0.500000 0.310038 0.750000
O O10 0.350417 0.387147 0.754351
O O11 0.250000 0.500000 0.603265
O O12 0.262836 0.321204 0.526485
O O13 0.184597 0.363588 0.761205
#
# Coordination Sequence:
#
# PCOD8223646 Si02
#       6
#     8   8   8   8   8   4
#     4  10  23  43  73  97 133 169 228 277 359 403
#     4  12  28  43  66  97 142 187 231 271 330 392
#     4  11  23  45  66  98 141 181 216 286 341 405
#     4  11  23  39  62  95 134 180 235 269 313 391
#     4  11  24  40  68  94 132 181 226 275 331 400
#     4  10  22  44  74 100 124 168 226 296 338 432
#
# _framework density 21.79007
#
# number of rings (size 3 to 8) (size 9 to 14) (size 15 to 20)
#    0.000    1.091    1.818    4.364   10.182    0.000 
#    0.000    0.909    0.000    0.000    0.000    0.000 
#    0.000    0.000    0.000    0.000    0.000    0.000 
#
# Total GULP energy -545181.748175 kJ/mol
# GULP energy per Si atom -12390.494277 kJ/mol
# Density = 2.174047 g / cm^3
# Si number density = 21.790070 Si / 1000 Ang^3
#
#
#
# Elastic Constant Matrix: (Units=GPa)
#
#
# Indices 1 2 3 4 5 6 
#
# 1 47.1308 38.2134 -2.2329 0.0000 0.0000 0.0000
# 2 38.2134 119.0873 35.5487 0.0000 0.0000 0.0000
# 3 -2.2329 35.5487 134.8334 0.0000 0.0000 0.0000
# 4 0.0000 0.0000 0.0000 34.7176 0.0000 0.0000
# 5 0.0000 0.0000 0.0000 0.0000 30.5895 0.0000
# 6 0.0000 0.0000 0.0000 0.0000 0.0000 27.9777
#
#
#
# Elastic Compliance Matrix: (Units=1/GPa)
#
#
# Indices 1 2 3 4 5 6 
#
# 1 0.029966 -0.010598 0.003290 0.000000 0.000000 0.000000
# 2 -0.010598 0.012863 -0.003567 0.000000 0.000000 0.000000
# 3 0.003290 -0.003567 0.008411 0.000000 0.000000 0.000000
# 4 0.000000 0.000000 0.000000 0.028804 0.000000 0.000000
# 5 0.000000 0.000000 0.000000 0.000000 0.032691 0.000000
# 6 0.000000 0.000000 0.000000 0.000000 0.000000 0.035743
#
#
# Mechanical properties :
#
#
# Convention : Reuss Voigt Hill
#
# Bulk Modulus (GPa) = 33.90787 49.34555 41.62671
# Shear Modulus (GPa) = 27.76900 33.95844 30.86372
#
# Velocity S-wave (km/s) = 3.57373 3.95199 3.76761
# Velocity P-wave (km/s) = 5.71171 6.59692 6.17021
#
# Compressibility (1/GPa) = 0.02949168
#
# Stress axis : x y z
#
# Youngs Moduli (GPa) = 33.37094 77.74457 118.88611
#
# Poissons Ratio (x) = 0.82393 -0.39118
# Poissons Ratio (y) = 0.35366 0.42403
# Poissons Ratio (z) = -0.10980 0.27729
#
# Static dielectric constant tensor:
#      x y z
#    x 3.881390 0.000000 0.000000 
#    y 0.000000 3.923710 0.000000 
#    z 0.000000 0.000000 4.392910 
# 
# 
# High freq. dielectric constant tensor:
#      x y z
#    x 1.833530 0.000000 0.000000 
#    y 0.000000 1.848960 0.000000 
#    z 0.000000 0.000000 1.891490 
# 
# From -- ./inp_files/4113.got.cif
#   From: 2010.03.12/outbox.cif.g09.slc.cpg/sg54_3_cif.got.tgz:4113.got - 2010.04.16 15:00:50.
