data_PCOD8223284
_publ_section_title
;
Structure prediction by ZEFSAII (Michael W. Deem and Ramdas Pophale) SiO2 
 PCOD8223284
Probable space group: P C C A
;
_chemical_formula_sum "Si O2"
_cell_formula_units_Z 64
_cell_length_a 31.610788
_cell_length_b 9.263012
_cell_length_c 10.592296
_cell_angle_alpha 90.000000
_cell_angle_beta 90.000000
_cell_angle_gamma 90.000000
_cell_volume 3101.541934
_symmetry_space_group_name_H-M "P C C A"
_symmetry_group_IT_number 54
_symmetry_cell_setting 'orthorhombic'
loop_
_space_group_symop_operation_xyz
x,y,z
1/2-x,-y,z
1/2+x,-y,1/2-z
-x,y,1/2-z
-x,-y,-z
1/2+x,y,-z
1/2-x,y,1/2+z
x,-y,1/2+z
loop_
_atom_site_type_symbol
_atom_site_label
_atom_site_fract_x
_atom_site_fract_y
_atom_site_fract_z
Si Si1 0.732205 0.849645 0.750905
Si Si2 0.689966 0.307839 0.709892
Si Si3 0.950202 0.903613 0.259471
Si Si4 0.834552 0.855023 0.469838
Si Si5 0.394158 0.347260 0.177924
Si Si6 0.622773 0.648173 0.400793
Si Si7 0.591334 0.937230 0.493477
Si Si8 0.821910 0.619426 0.125637
O O1 0.771703 0.750693 0.797710
O O2 0.700215 0.885985 0.863569
O O3 0.708467 0.757617 0.642285
O O4 0.750000 0.000000 0.694728
O O5 0.690359 0.201540 0.590393
O O6 0.643672 0.291761 0.772276
O O7 0.700375 0.472974 0.672553
O O8 0.936625 0.738080 0.284837
O O9 0.000000 0.911870 0.250000
O O10 0.935498 0.997627 0.378695
O O11 0.930379 0.964841 0.129152
O O12 0.868706 0.734868 0.431328
O O13 0.860757 0.001440 0.497964
O O14 0.405921 0.507076 0.127431
O O15 0.365477 0.354958 0.301014
O O16 0.593643 0.766014 0.468024
O O17 0.664367 0.602063 0.480722
#
# Coordination Sequence:
#
# PCOD8223284 Si02
#       8
#     8   8   8   8   8   8   8   8
#     4  11  25  39  56  86 121 159 212 274 329 365
#     4  11  23  38  60  87 122 163 216 272 325 379
#     4  11  23  43  68 101 136 173 211 272 338 400
#     4  10  22  40  60  89 123 168 213 267 324 396
#     4   9  20  41  64  89 123 165 214 260 318 400
#     4  11  21  38  67  93 118 171 221 262 322 394
#     4  11  23  41  70  97 134 172 219 266 328 411
#     4  10  21  40  60  85 121 165 214 264 318 390
#
# _framework density 20.634898
#
# number of rings (size 3 to 8) (size 9 to 14) (size 15 to 20)
#    0.000    1.500    2.500    2.250    3.500    0.500 
#    0.000    1.250    0.000    0.000    0.000    0.000 
#    0.000    0.000    0.000    0.000    0.000    0.000 
#
# Total GULP energy -793527.183766 kJ/mol
# GULP energy per Si atom -12398.862246 kJ/mol
# Density = 2.058793 g / cm^3
# Si number density = 20.634898 Si / 1000 Ang^3
#
#
#
# Elastic Constant Matrix: (Units=GPa)
#
#
# Indices 1 2 3 4 5 6 
#
# 1 104.2991 54.9781 35.7251 0.0000 0.0000 0.0000
# 2 54.9781 135.1693 39.4000 0.0000 0.0000 0.0000
# 3 35.7251 39.4000 96.3192 0.0000 0.0000 0.0000
# 4 0.0000 0.0000 0.0000 29.1341 0.0000 0.0000
# 5 0.0000 0.0000 0.0000 0.0000 25.1753 0.0000
# 6 0.0000 0.0000 0.0000 0.0000 0.0000 25.5993
#
#
#
# Elastic Compliance Matrix: (Units=1/GPa)
#
#
# Indices 1 2 3 4 5 6 
#
# 1 0.012926 -0.004383 -0.003002 0.000000 0.000000 0.000000
# 2 -0.004383 0.009886 -0.002418 0.000000 0.000000 0.000000
# 3 -0.003002 -0.002418 0.012485 0.000000 0.000000 0.000000
# 4 0.000000 0.000000 0.000000 0.034324 0.000000 0.000000
# 5 0.000000 0.000000 0.000000 0.000000 0.039721 0.000000
# 6 0.000000 0.000000 0.000000 0.000000 0.000000 0.039064
#
#
# Mechanical properties :
#
#
# Convention : Reuss Voigt Hill
#
# Bulk Modulus (GPa) = 63.72895 66.22155 64.97525
# Shear Modulus (GPa) = 28.86158 29.69403 29.27781
#
# Velocity S-wave (km/s) = 3.74395 3.79756 3.77085
# Velocity P-wave (km/s) = 7.04561 7.16870 7.10742
#
# Compressibility (1/GPa) = 0.01569145
#
# Stress axis : x y z
#
# Youngs Moduli (GPa) = 77.36300 101.15769 80.09837
#
# Poissons Ratio (x) = 0.44333 0.24042
# Poissons Ratio (y) = 0.33905 0.19370
# Poissons Ratio (z) = 0.23221 0.24462
#
# Static dielectric constant tensor:
#      x y z
#    x 3.441380 0.000000 0.000000 
#    y 0.000000 3.905720 0.000000 
#    z 0.000000 0.000000 3.729200 
# 
# 
# High freq. dielectric constant tensor:
#      x y z
#    x 1.776740 0.000000 0.000000 
#    y 0.000000 1.818880 0.000000 
#    z 0.000000 0.000000 1.811280 
# 
# From -- ./inp_files/10553.got.cif
#   From: 2010.03.12/outbox.cif.g09.slc.cpg/sg54_6_cif.got.tgz:10553.got - 2010.04.16 15:00:50.
