data_PCOD8223987
_publ_section_title
;
Structure prediction by ZEFSAII (Michael W. Deem and Ramdas Pophale) SiO2 
 PCOD8223987
Probable space group: P C C A
;
_chemical_formula_sum "Si O2"
_cell_formula_units_Z 48
_cell_length_a 9.720274
_cell_length_b 7.497170
_cell_length_c 30.854983
_cell_angle_alpha 90.000000
_cell_angle_beta 90.000000
_cell_angle_gamma 90.000000
_cell_volume 2248.542897
_symmetry_space_group_name_H-M "P C C A"
_symmetry_group_IT_number 54
_symmetry_cell_setting 'orthorhombic'
loop_
_space_group_symop_operation_xyz
x,y,z
1/2-x,-y,z
1/2+x,-y,1/2-z
-x,y,1/2-z
-x,-y,-z
1/2+x,y,-z
1/2-x,y,1/2+z
x,-y,1/2+z
loop_
_atom_site_type_symbol
_atom_site_label
_atom_site_fract_x
_atom_site_fract_y
_atom_site_fract_z
Si Si1 0.481710 0.667195 0.398289
Si Si2 0.230196 0.709925 0.828088
Si Si3 0.264155 0.202972 0.646635
Si Si4 0.974712 0.734259 0.114175
Si Si5 0.843126 0.328555 0.261967
Si Si6 0.912403 0.977612 0.542920
O O1 0.403165 0.750097 0.356895
O O2 0.642316 0.693612 0.388291
O O3 0.441158 0.460458 0.406079
O O4 0.436233 0.776317 0.440571
O O5 0.250000 0.500000 0.822631
O O6 0.360637 0.798392 0.851330
O O7 0.212437 0.785952 0.779331
O O8 0.328571 0.211390 0.694795
O O9 0.113796 0.288495 0.641781
O O10 0.250000 0.000000 0.632127
O O11 0.975551 0.879391 0.076400
O O12 0.750000 0.500000 0.271097
O O13 0.000000 0.384372 0.250000
O O14 0.750000 0.000000 0.534261
O O15 0.000000 0.000000 0.500000
#
# Coordination Sequence:
#
# PCOD8223987 Si02
#       6
#     8   8   8   8   8   8
#     4  11  22  46  71  96 135 182 231 273 341 410
#     4   9  20  39  67  93 129 182 231 273 332 392
#     4  12  25  42  65 100 139 182 235 291 338 398
#     4  11  24  45  73  97 132 188 228 280 343 406
#     4  11  23  40  62  96 138 182 236 288 334 397
#     4  12  28  47  73 105 142 174 218 284 348 419
#
# _framework density 21.347156999999999
#
# number of rings (size 3 to 8) (size 9 to 14) (size 15 to 20)
#    0.000    1.000    5.000    1.500    7.000    0.667 
#    6.000    0.000    0.000    0.000    0.000    0.000 
#    0.000    0.000    0.000    0.000    0.000    0.000 
#
# Total GULP energy -595156.406391 kJ/mol
# GULP energy per Si atom -12399.091800 kJ/mol
# Density = 2.129857 g / cm^3
# Si number density = 21.347157 Si / 1000 Ang^3
#
#
#
# Elastic Constant Matrix: (Units=GPa)
#
#
# Indices 1 2 3 4 5 6 
#
# 1 146.6154 16.3874 41.2296 0.0000 0.0000 0.0000
# 2 16.3874 74.9519 21.9397 0.0000 0.0000 0.0000
# 3 41.2296 21.9397 116.1152 0.0000 0.0000 0.0000
# 4 0.0000 0.0000 0.0000 28.2625 0.0000 0.0000
# 5 0.0000 0.0000 0.0000 0.0000 40.0162 0.0000
# 6 0.0000 0.0000 0.0000 0.0000 0.0000 25.1811
#
#
#
# Elastic Compliance Matrix: (Units=1/GPa)
#
#
# Indices 1 2 3 4 5 6 
#
# 1 0.007638 -0.000927 -0.002537 0.000000 0.000000 0.000000
# 2 -0.000927 0.014236 -0.002361 0.000000 0.000000 0.000000
# 3 -0.002537 -0.002361 0.009959 0.000000 0.000000 0.000000
# 4 0.000000 0.000000 0.000000 0.035383 0.000000 0.000000
# 5 0.000000 0.000000 0.000000 0.000000 0.024990 0.000000
# 6 0.000000 0.000000 0.000000 0.000000 0.000000 0.039712
#
#
# Mechanical properties :
#
#
# Convention : Reuss Voigt Hill
#
# Bulk Modulus (GPa) = 49.54675 55.19954 52.37315
# Shear Modulus (GPa) = 33.26822 35.90034 34.58428
#
# Velocity S-wave (km/s) = 3.95199 4.10535 4.02940
# Velocity P-wave (km/s) = 6.63963 6.95601 6.79966
#
# Compressibility (1/GPa) = 0.02018296
#
# Stress axis : x y z
#
# Youngs Moduli (GPa) = 130.93189 70.24640 100.41303
#
# Poissons Ratio (x) = 0.06514 0.25472
# Poissons Ratio (y) = 0.12142 0.23703
# Poissons Ratio (z) = 0.33213 0.16582
#
# Static dielectric constant tensor:
#      x y z
#    x 4.077940 0.000000 0.000000 
#    y 0.000000 3.802910 0.000000 
#    z 0.000000 0.000000 3.874210 
# 
# 
# High freq. dielectric constant tensor:
#      x y z
#    x 1.856710 0.000000 0.000000 
#    y 0.000000 1.825840 0.000000 
#    z 0.000000 0.000000 1.825750 
# 
# From -- ./inp_files/27774.got.cif
#   From: 2010.03.12/outbox.cif.g09.slc.cpg/sg54_14_cif.got.tgz:27774.got - 2010.04.16 15:00:50.
