data_PCOD8223584
_publ_section_title
;
Structure prediction by ZEFSAII (Michael W. Deem and Ramdas Pophale) SiO2 
 PCOD8223584
Probable space group: P C C A
;
_chemical_formula_sum "Si O2"
_cell_formula_units_Z 32
_cell_length_a 9.239545
_cell_length_b 13.616282
_cell_length_c 11.177688
_cell_angle_alpha 90.000000
_cell_angle_beta 90.000000
_cell_angle_gamma 90.000000
_cell_volume 1406.245369
_symmetry_space_group_name_H-M "P C C A"
_symmetry_group_IT_number 54
_symmetry_cell_setting 'orthorhombic'
loop_
_space_group_symop_operation_xyz
x,y,z
1/2-x,-y,z
1/2+x,-y,1/2-z
-x,y,1/2-z
-x,-y,-z
1/2+x,y,-z
1/2-x,y,1/2+z
x,-y,1/2+z
loop_
_atom_site_type_symbol
_atom_site_label
_atom_site_fract_x
_atom_site_fract_y
_atom_site_fract_z
Si Si1 0.750000 0.000000 0.472984
Si Si2 0.797158 0.611673 0.928195
Si Si3 0.496785 0.706326 0.608499
Si Si4 0.497393 0.130304 0.939275
Si Si5 0.000000 0.709072 0.750000
O O1 0.865432 0.945464 0.557551
O O2 0.648329 0.923891 0.396795
O O3 0.750000 0.500000 0.921878
O O4 0.661246 0.682171 0.940949
O O5 0.876696 0.638714 0.803468
O O6 0.893389 0.629696 0.046314
O O7 0.500000 0.694440 0.750000
O O8 0.528929 0.819074 0.568822
O O9 0.446333 0.218353 0.854083
#
# Coordination Sequence:
#
# PCOD8223584 Si02
#       5
#     4   8   8   8   4
#     4  10  22  42  66  94 140 174 240 294 338 442
#     4  11  26  46  72 106 144 186 248 293 356 434
#     4  11  26  45  73 101 146 193 233 300 365 427
#     4  10  22  44  63 102 135 182 235 286 362 420
#     4  10  24  42  74  98 146 184 230 304 360 424
#
# _framework density 22.755631000000001
#
# number of rings (size 3 to 8) (size 9 to 14) (size 15 to 20)
#    0.000    1.500    0.000    3.750   12.250    2.000 
#    9.000    0.000    0.000    0.000    0.000    0.000 
#    0.000    0.000    0.000    0.000    0.000    0.000 
#
# Total GULP energy -396602.215374 kJ/mol
# GULP energy per Si atom -12393.819230 kJ/mol
# Density = 2.270384 g / cm^3
# Si number density = 22.755631 Si / 1000 Ang^3
#
#
#
# Elastic Constant Matrix: (Units=GPa)
#
#
# Indices 1 2 3 4 5 6 
#
# 1 155.5988 63.2640 60.1888 0.0000 0.0000 0.0000
# 2 63.2640 152.1912 57.2512 0.0000 0.0000 0.0000
# 3 60.1888 57.2512 141.0305 0.0000 0.0000 0.0000
# 4 0.0000 0.0000 0.0000 28.6655 0.0000 0.0000
# 5 0.0000 0.0000 0.0000 0.0000 32.0493 0.0000
# 6 0.0000 0.0000 0.0000 0.0000 0.0000 45.4912
#
#
#
# Elastic Compliance Matrix: (Units=1/GPa)
#
#
# Indices 1 2 3 4 5 6 
#
# 1 0.008459 -0.002547 -0.002576 0.000000 0.000000 0.000000
# 2 -0.002547 0.008522 -0.002372 0.000000 0.000000 0.000000
# 3 -0.002576 -0.002372 0.009153 0.000000 0.000000 0.000000
# 4 0.000000 0.000000 0.000000 0.034885 0.000000 0.000000
# 5 0.000000 0.000000 0.000000 0.000000 0.031202 0.000000
# 6 0.000000 0.000000 0.000000 0.000000 0.000000 0.021982
#
#
# Mechanical properties :
#
#
# Convention : Reuss Voigt Hill
#
# Bulk Modulus (GPa) = 89.74467 90.02540 89.88503
# Shear Modulus (GPa) = 37.61975 39.11562 38.36769
#
# Velocity S-wave (km/s) = 4.07037 4.15051 4.11064
# Velocity P-wave (km/s) = 7.84950 7.91307 7.88135
#
# Compressibility (1/GPa) = 0.01114272
#
# Stress axis : x y z
#
# Youngs Moduli (GPa) = 118.21861 117.34375 109.25211
#
# Poissons Ratio (x) = 0.29890 0.28144
# Poissons Ratio (y) = 0.30113 0.25919
# Poissons Ratio (z) = 0.30454 0.27839
#
# Static dielectric constant tensor:
#      x y z
#    x 4.350470 0.000000 0.000000 
#    y 0.000000 4.287680 0.000000 
#    z 0.000000 0.000000 4.133210 
# 
# 
# High freq. dielectric constant tensor:
#      x y z
#    x 1.912550 0.000000 0.000000 
#    y 0.000000 1.913520 0.000000 
#    z 0.000000 0.000000 1.875460 
# 
# From -- ./inp_files/6739.got.cif
#   From: 2010.03.12/outbox.cif.g09.slc.cpg/sg54_4_cif.got.tgz:6739.got - 2010.04.16 15:00:50.
