data_PCOD8223970
_publ_section_title
;
Structure prediction by ZEFSAII (Michael W. Deem and Ramdas Pophale) SiO2 
 PCOD8223970
Probable space group: P C C A
;
_chemical_formula_sum "Si O2"
_cell_formula_units_Z 56
_cell_length_a 20.718531
_cell_length_b 13.893400
_cell_length_c 9.201318
_cell_angle_alpha 90.000000
_cell_angle_beta 90.000000
_cell_angle_gamma 90.000000
_cell_volume 2648.607102
_symmetry_space_group_name_H-M "P C C A"
_symmetry_group_IT_number 54
_symmetry_cell_setting 'orthorhombic'
loop_
_space_group_symop_operation_xyz
x,y,z
1/2-x,-y,z
1/2+x,-y,1/2-z
-x,y,1/2-z
-x,-y,-z
1/2+x,y,-z
1/2-x,y,1/2+z
x,-y,1/2+z
loop_
_atom_site_type_symbol
_atom_site_label
_atom_site_fract_x
_atom_site_fract_y
_atom_site_fract_z
Si Si1 0.363899 0.525430 0.700721
Si Si2 0.821439 0.323124 0.339470
Si Si3 0.192680 0.900690 0.240863
Si Si4 0.828260 0.081191 0.098340
Si Si5 0.202530 0.705025 0.339422
Si Si6 0.434765 0.767626 0.312360
Si Si7 0.555160 0.567903 0.061639
O O1 0.316352 0.438727 0.658634
O O2 0.329459 0.604644 0.798494
O O3 0.385705 0.572419 0.550380
O O4 0.424246 0.481308 0.787745
O O5 0.776743 0.288281 0.208478
O O6 0.794472 0.280978 0.488555
O O7 0.893397 0.283362 0.314934
O O8 0.266604 0.893571 0.300547
O O9 0.163096 0.793980 0.267031
O O10 0.151077 0.976450 0.337266
O O11 0.191711 0.927320 0.070408
O O12 0.889374 0.153330 0.110348
O O13 0.500000 0.817762 0.250000
O O14 0.461724 0.680654 0.415353
O O15 0.500000 0.500000 0.000000
#
# Coordination Sequence:
#
# PCOD8223970 Si02
#       7
#     8   8   8   8   8   8   8
#     4  11  23  38  61  94 136 173 221 280 333 408
#     4  11  25  40  64  99 134 181 216 285 349 411
#     4  11  23  40  72 102 136 177 220 289 345 424
#     4  11  23  43  69 106 134 179 229 284 355 409
#     4  12  24  39  66  98 136 172 225 277 356 413
#     4  11  25  44  70  93 135 180 235 287 345 410
#     4  11  22  42  62  92 130 187 234 268 334 414
#
# _framework density 21.143187999999999
#
# number of rings (size 3 to 8) (size 9 to 14) (size 15 to 20)
#    0.000    0.857    2.857    6.000    6.000    1.143 
#    0.000    0.714    0.000    0.000    0.000    0.000 
#    0.000    0.000    0.000    0.000    0.000    0.000 
#
# Total GULP energy -694034.609008 kJ/mol
# GULP energy per Si atom -12393.475161 kJ/mol
# Density = 2.109506 g / cm^3
# Si number density = 21.143188 Si / 1000 Ang^3
#
#
#
# Elastic Constant Matrix: (Units=GPa)
#
#
# Indices 1 2 3 4 5 6 
#
# 1 75.1514 56.9488 41.8998 0.0000 0.0000 0.0000
# 2 56.9488 116.5251 37.9182 0.0000 0.0000 0.0000
# 3 41.8998 37.9182 144.4936 0.0000 0.0000 0.0000
# 4 0.0000 0.0000 0.0000 33.3339 0.0000 0.0000
# 5 0.0000 0.0000 0.0000 0.0000 25.6849 0.0000
# 6 0.0000 0.0000 0.0000 0.0000 0.0000 36.4398
#
#
#
# Elastic Compliance Matrix: (Units=1/GPa)
#
#
# Indices 1 2 3 4 5 6 
#
# 1 0.023155 -0.009984 -0.004094 0.000000 0.000000 0.000000
# 2 -0.009984 0.013688 -0.000697 0.000000 0.000000 0.000000
# 3 -0.004094 -0.000697 0.008291 0.000000 0.000000 0.000000
# 4 0.000000 0.000000 0.000000 0.029999 0.000000 0.000000
# 5 0.000000 0.000000 0.000000 0.000000 0.038933 0.000000
# 6 0.000000 0.000000 0.000000 0.000000 0.000000 0.027443
#
#
# Mechanical properties :
#
#
# Convention : Reuss Voigt Hill
#
# Bulk Modulus (GPa) = 64.17142 67.74486 65.95814
# Shear Modulus (GPa) = 28.36801 32.38527 30.37664
#
# Velocity S-wave (km/s) = 3.66691 3.91795 3.79451
# Velocity P-wave (km/s) = 6.95306 7.25105 7.10362
#
# Compressibility (1/GPa) = 0.01558326
#
# Stress axis : x y z
#
# Youngs Moduli (GPa) = 43.18699 73.05604 120.61449
#
# Poissons Ratio (x) = 0.72940 0.49384
# Poissons Ratio (y) = 0.43119 0.08405
# Poissons Ratio (z) = 0.17682 0.05091
#
# Static dielectric constant tensor:
#      x y z
#    x 3.502100 0.000000 0.000000 
#    y 0.000000 4.459170 0.000000 
#    z 0.000000 0.000000 3.888870 
# 
# 
# High freq. dielectric constant tensor:
#      x y z
#    x 1.797040 0.000000 0.000000 
#    y 0.000000 1.846460 0.000000 
#    z 0.000000 0.000000 1.835450 
# 
# From -- ./inp_files/4788.got.cif
#   From: 2010.03.12/outbox.cif.g09.slc.cpg/sg54_3_cif.got.tgz:4788.got - 2010.04.16 15:00:50.
