data_PCOD8223671
_publ_section_title
;
Structure prediction by ZEFSAII (Michael W. Deem and Ramdas Pophale) SiO2 
 PCOD8223671
Probable space group: P C C A
;
_chemical_formula_sum "Si O2"
_cell_formula_units_Z 60
_cell_length_a 26.420536
_cell_length_b 8.844603
_cell_length_c 12.732512
_cell_angle_alpha 90.000000
_cell_angle_beta 90.000000
_cell_angle_gamma 90.000000
_cell_volume 2975.322607
_symmetry_space_group_name_H-M "P C C A"
_symmetry_group_IT_number 54
_symmetry_cell_setting 'orthorhombic'
loop_
_space_group_symop_operation_xyz
x,y,z
1/2-x,-y,z
1/2+x,-y,1/2-z
-x,y,1/2-z
-x,-y,-z
1/2+x,y,-z
1/2-x,y,1/2+z
x,-y,1/2+z
loop_
_atom_site_type_symbol
_atom_site_label
_atom_site_fract_x
_atom_site_fract_y
_atom_site_fract_z
Si Si1 0.672668 0.753610 0.814693
Si Si2 0.327132 0.410724 0.626376
Si Si3 0.606052 0.175961 0.954300
Si Si4 0.750000 0.500000 0.543693
Si Si5 0.926042 0.072763 0.792196
Si Si6 0.274412 0.760585 0.304901
Si Si7 0.480462 0.104832 0.409107
Si Si8 0.194651 0.047719 0.489905
O O1 0.668151 0.572226 0.818252
O O2 0.621249 0.819960 0.767307
O O3 0.717836 0.799991 0.735575
O O4 0.678540 0.815784 0.933044
O O5 0.379867 0.344063 0.584623
O O6 0.289633 0.413704 0.528655
O O7 0.307597 0.281196 0.704853
O O8 0.587319 0.076790 0.856506
O O9 0.654114 0.088714 0.006876
O O10 0.560935 0.214047 0.036727
O O11 0.723201 0.378872 0.616307
O O12 0.949605 0.015712 0.682036
O O13 0.968630 0.174002 0.855747
O O14 0.299950 0.899369 0.368096
O O15 0.500000 0.000000 0.500000
O O16 0.250000 0.000000 0.531168
#
# Coordination Sequence:
#
# PCOD8223671 Si02
#       8
#     8   8   8   4   8   8   8   8
#     4  11  22  40  59  89 123 163 206 251 305 365
#     4  12  23  39  57  91 128 162 210 243 303 377
#     4  10  23  37  62  90 120 157 204 256 305 365
#     4  12  20  38  54  80 122 174 200 234 288 360
#     4   9  21  39  64  88 118 155 208 257 309 367
#     4  12  22  35  58  81 126 168 200 240 296 359
#     4   9  19  41  64  89 117 155 201 258 321 361
#     4  11  24  38  55  89 124 160 205 253 290 357
#
# _framework density 20.165880000000001
#
# number of rings (size 3 to 8) (size 9 to 14) (size 15 to 20)
#    0.000    1.333    4.000    1.600    5.600    1.600 
#    0.000    0.667    0.000    6.400    0.000    0.000 
#    0.000    0.000    0.000    0.000    0.000    0.000 
#
# Total GULP energy -743470.442875 kJ/mol
# GULP energy per Si atom -12391.174048 kJ/mol
# Density = 2.011998 g / cm^3
# Si number density = 20.165880 Si / 1000 Ang^3
#
#
#
# Elastic Constant Matrix: (Units=GPa)
#
#
# Indices 1 2 3 4 5 6 
#
# 1 106.6267 20.5637 45.4219 0.0000 0.0000 0.0000
# 2 20.5637 44.5655 12.7001 0.0000 0.0000 0.0000
# 3 45.4219 12.7001 103.1243 0.0000 0.0000 0.0000
# 4 0.0000 0.0000 0.0000 0.0457 0.0000 0.0000
# 5 0.0000 0.0000 0.0000 0.0000 38.3037 0.0000
# 6 0.0000 0.0000 0.0000 0.0000 0.0000 21.4677
#
#
#
# Elastic Compliance Matrix: (Units=1/GPa)
#
#
# Indices 1 2 3 4 5 6 
#
# 1 0.012284 -0.004276 -0.004884 0.000000 0.000000 0.000000
# 2 -0.004276 0.024744 -0.001164 0.000000 0.000000 0.000000
# 3 -0.004884 -0.001164 0.011991 0.000000 0.000000 0.000000
# 4 0.000000 0.000000 0.000000 21.861376 0.000000 0.000000
# 5 0.000000 0.000000 0.000000 0.000000 0.026107 0.000000
# 6 0.000000 0.000000 0.000000 0.000000 0.000000 0.046582
#
#
# Mechanical properties :
#
#
# Convention : Reuss Voigt Hill
#
# Bulk Modulus (GPa) = 35.24702 45.74310 40.49506
# Shear Modulus (GPa) = 0.22714 23.67215 11.94965
#
# Velocity S-wave (km/s) = 0.33597 3.42990 2.43691
# Velocity P-wave (km/s) = 4.20321 6.19825 5.29553
#
# Compressibility (1/GPa) = 0.02837119
#
# Stress axis : x y z
#
# Youngs Moduli (GPa) = 81.40902 40.41438 83.39267
#
# Poissons Ratio (x) = 0.17282 0.40727
# Poissons Ratio (y) = 0.34812 0.09705
# Poissons Ratio (z) = 0.39758 0.04703
#
# Static dielectric constant tensor:
#      x y z
#    x 4.164090 0.000000 0.000000 
#    y 0.000000 10.361740 0.000000 
#    z 0.000000 0.000000 3.976330 
# 
# 
# High freq. dielectric constant tensor:
#      x y z
#    x 1.789820 0.000000 0.000000 
#    y 0.000000 1.749960 0.000000 
#    z 0.000000 0.000000 1.812420 
# 
# From -- ./inp_files/10334.got.cif
#   From: 2010.03.12/outbox.cif.g09.slc.cpg/sg54_6_cif.got.tgz:10334.got - 2010.04.16 15:00:50.
