data_PCOD8223295
_publ_section_title
;
Structure prediction by ZEFSAII (Michael W. Deem and Ramdas Pophale) SiO2 
 PCOD8223295
Probable space group: P C C A
;
_chemical_formula_sum "Si O2"
_cell_formula_units_Z 32
_cell_length_a 8.618402
_cell_length_b 9.125783
_cell_length_c 18.709373
_cell_angle_alpha 90.000000
_cell_angle_beta 90.000000
_cell_angle_gamma 90.000000
_cell_volume 1471.485946
_symmetry_space_group_name_H-M "P C C A"
_symmetry_group_IT_number 54
_symmetry_cell_setting 'orthorhombic'
loop_
_space_group_symop_operation_xyz
x,y,z
1/2-x,-y,z
1/2+x,-y,1/2-z
-x,y,1/2-z
-x,-y,-z
1/2+x,y,-z
1/2-x,y,1/2+z
x,-y,1/2+z
loop_
_atom_site_type_symbol
_atom_site_label
_atom_site_fract_x
_atom_site_fract_y
_atom_site_fract_z
Si Si1 0.614204 0.894997 0.690814
Si Si2 0.161871 0.642900 0.790765
Si Si3 0.460157 0.152902 0.461249
Si Si4 0.678000 0.345849 0.543040
O O1 0.500000 0.965262 0.750000
O O2 0.705472 0.760983 0.726627
O O3 0.503494 0.858597 0.623284
O O4 0.750000 0.000000 0.663298
O O5 0.250000 0.500000 0.762883
O O6 0.123476 0.636816 0.875056
O O7 0.000000 0.671108 0.750000
O O8 0.536197 0.301036 0.492725
O O9 0.280664 0.198466 0.466352
O O10 0.500000 0.000000 0.500000
O O11 0.750000 0.500000 0.516221
#
# Coordination Sequence:
#
# PCOD8223295 Si02
#       4
#     8   8   8   8
#     4  11  24  41  61  89 122 160 209 261 312 371
#     4  10  21  40  63  92 127 163 203 251 305 370
#     4  11  22  40  62  88 121 161 204 253 312 373
#     4  10  22  39  61  91 126 160 203 255 307 370
#
# _framework density 21.746725000000001
#
# number of rings (size 3 to 8) (size 9 to 14) (size 15 to 20)
#    0.000    1.500    0.000    6.000    0.000    4.000 
#    0.000    2.500    0.000    0.000    0.000    0.000 
#    0.000    0.000    0.000    0.000    0.000    0.000 
#
# Total GULP energy -396477.631618 kJ/mol
# GULP energy per Si atom -12389.925988 kJ/mol
# Density = 2.169723 g / cm^3
# Si number density = 21.746725 Si / 1000 Ang^3
#
#
#
# Elastic Constant Matrix: (Units=GPa)
#
#
# Indices 1 2 3 4 5 6 
#
# 1 78.7804 33.3843 63.8100 0.0000 0.0000 0.0000
# 2 33.3843 123.8462 31.7073 0.0000 0.0000 0.0000
# 3 63.8100 31.7073 116.9999 0.0000 0.0000 0.0000
# 4 0.0000 0.0000 0.0000 41.6387 0.0000 0.0000
# 5 0.0000 0.0000 0.0000 0.0000 29.5988 0.0000
# 6 0.0000 0.0000 0.0000 0.0000 0.0000 48.3881
#
#
#
# Elastic Compliance Matrix: (Units=1/GPa)
#
#
# Indices 1 2 3 4 5 6 
#
# 1 0.023962 -0.003346 -0.012162 0.000000 0.000000 0.000000
# 2 -0.003346 0.009144 -0.000653 0.000000 0.000000 0.000000
# 3 -0.012162 -0.000653 0.015357 0.000000 0.000000 0.000000
# 4 0.000000 0.000000 0.000000 0.024016 0.000000 0.000000
# 5 0.000000 0.000000 0.000000 0.000000 0.033785 0.000000
# 6 0.000000 0.000000 0.000000 0.000000 0.000000 0.020666
#
#
# Mechanical properties :
#
#
# Convention : Reuss Voigt Hill
#
# Bulk Modulus (GPa) = 61.95364 64.15887 63.05625
# Shear Modulus (GPa) = 30.37075 36.64011 33.50543
#
# Velocity S-wave (km/s) = 3.74112 4.10915 3.92945
# Velocity P-wave (km/s) = 6.87109 7.21667 7.04600
#
# Compressibility (1/GPa) = 0.01614110
#
# Stress axis : x y z
#
# Youngs Moduli (GPa) = 41.73268 109.36564 65.11697
#
# Poissons Ratio (x) = 0.36589 0.79194
# Poissons Ratio (y) = 0.13962 0.04254
# Poissons Ratio (z) = 0.50755 0.07145
#
# Static dielectric constant tensor:
#      x y z
#    x 3.830850 0.000000 0.000000 
#    y 0.000000 4.637320 0.000000 
#    z 0.000000 0.000000 3.838430 
# 
# 
# High freq. dielectric constant tensor:
#      x y z
#    x 1.851100 0.000000 0.000000 
#    y 0.000000 1.873010 0.000000 
#    z 0.000000 0.000000 1.845370 
# 
# From -- ./inp_files/20011.got.cif
#   From: 2010.03.12/outbox.cif.g09.slc.cpg/sg54_11_cif.got.tgz:20011.got - 2010.04.16 15:00:50.
