data_PCOD8223975
_publ_section_title
;
Structure prediction by ZEFSAII (Michael W. Deem and Ramdas Pophale) SiO2 
 PCOD8223975
Probable space group: P C C A
;
_chemical_formula_sum "Si O2"
_cell_formula_units_Z 32
_cell_length_a 14.277868
_cell_length_b 10.788545
_cell_length_c 7.087664
_cell_angle_alpha 90.000000
_cell_angle_beta 90.000000
_cell_angle_gamma 90.000000
_cell_volume 1091.765486
_symmetry_space_group_name_H-M "P C C A"
_symmetry_group_IT_number 54
_symmetry_cell_setting 'orthorhombic'
loop_
_space_group_symop_operation_xyz
x,y,z
1/2-x,-y,z
1/2+x,-y,1/2-z
-x,y,1/2-z
-x,-y,-z
1/2+x,y,-z
1/2-x,y,1/2+z
x,-y,1/2+z
loop_
_atom_site_type_symbol
_atom_site_label
_atom_site_fract_x
_atom_site_fract_y
_atom_site_fract_z
Si Si1 0.736400 0.854940 0.047131
Si Si2 0.857612 0.485086 0.987941
Si Si3 0.391145 0.268967 0.259528
Si Si4 0.598565 0.281960 0.785582
O O1 0.840606 0.787418 0.045537
O O2 0.689419 0.808377 0.249869
O O3 0.750000 0.000000 0.054265
O O4 0.659234 0.815944 0.896976
O O5 0.750000 0.500000 0.036247
O O6 0.866905 0.415302 0.779784
O O7 0.904693 0.624164 0.974239
O O8 0.905045 0.387460 0.124778
O O9 0.500000 0.235116 0.250000
O O10 0.500000 0.209947 0.750000
#
# Coordination Sequence:
#
# PCOD8223975 Si02
#       4
#     8   8   8   8
#     4  11  26  48  73 105 150 200 259 319 372 449
#     4  11  22  42  71 107 152 193 238 309 383 454
#     4  11  26  46  74 108 149 200 253 315 388 456
#     4  11  24  41  70 110 148 195 245 309 382 455
#
# _framework density 29.310327000000001
#
# number of rings (size 3 to 8) (size 9 to 14) (size 15 to 20)
#    0.000    1.000    2.500    3.000    3.500    8.000 
#    0.000    0.000    0.000    0.000    0.000    0.000 
#    0.000    0.000    0.000    0.000    0.000    0.000 
#
# Total GULP energy -396782.366058 kJ/mol
# GULP energy per Si atom -12399.448939 kJ/mol
# Density = 2.924362 g / cm^3
# Si number density = 29.310327 Si / 1000 Ang^3
#
#
#
# Elastic Constant Matrix: (Units=GPa)
#
#
# Indices 1 2 3 4 5 6 
#
# 1 268.9566 79.6530 35.6436 0.0000 0.0000 0.0000
# 2 79.6530 252.4046 33.6961 0.0000 0.0000 0.0000
# 3 35.6436 33.6961 106.6566 0.0000 0.0000 0.0000
# 4 0.0000 0.0000 0.0000 36.7261 0.0000 0.0000
# 5 0.0000 0.0000 0.0000 0.0000 35.4662 0.0000
# 6 0.0000 0.0000 0.0000 0.0000 0.0000 24.8729
#
#
#
# Elastic Compliance Matrix: (Units=1/GPa)
#
#
# Indices 1 2 3 4 5 6 
#
# 1 0.004207 -0.001190 -0.001030 0.000000 0.000000 0.000000
# 2 -0.001190 0.004473 -0.001015 0.000000 0.000000 0.000000
# 3 -0.001030 -0.001015 0.010041 0.000000 0.000000 0.000000
# 4 0.000000 0.000000 0.000000 0.027229 0.000000 0.000000
# 5 0.000000 0.000000 0.000000 0.000000 0.028196 0.000000
# 6 0.000000 0.000000 0.000000 0.000000 0.000000 0.040204
#
#
# Mechanical properties :
#
#
# Convention : Reuss Voigt Hill
#
# Bulk Modulus (GPa) = 81.63328 102.88924 92.26126
# Shear Modulus (GPa) = 40.03068 51.34804 45.68936
#
# Velocity S-wave (km/s) = 3.69962 4.19008 3.95247
# Velocity P-wave (km/s) = 6.79422 7.65432 7.23706
#
# Compressibility (1/GPa) = 0.01224991
#
# Stress axis : x y z
#
# Youngs Moduli (GPa) = 237.69720 223.56178 99.59281
#
# Poissons Ratio (x) = 0.26607 0.10258
# Poissons Ratio (y) = 0.28289 0.10113
# Poissons Ratio (z) = 0.24481 0.22701
#
# Static dielectric constant tensor:
#      x y z
#    x 5.498090 0.000000 0.000000 
#    y 0.000000 5.310110 0.000000 
#    z 0.000000 0.000000 8.859850 
# 
# 
# High freq. dielectric constant tensor:
#      x y z
#    x 2.196790 0.000000 0.000000 
#    y 0.000000 2.174020 0.000000 
#    z 0.000000 0.000000 2.317970 
# 
# From -- ./inp_files/3243.got.cif
#   From: 2010.03.12/outbox.cif.g09.slc.cpg/sg54_2_cif.got.tgz:3243.got - 2010.04.16 15:00:50.
