data_PCOD8223627
_publ_section_title
;
Structure prediction by ZEFSAII (Michael W. Deem and Ramdas Pophale) SiO2 
 PCOD8223627
Probable space group: P C C A
;
_chemical_formula_sum "Si O2"
_cell_formula_units_Z 60
_cell_length_a 15.458889
_cell_length_b 11.435603
_cell_length_c 16.720546
_cell_angle_alpha 90.000000
_cell_angle_beta 90.000000
_cell_angle_gamma 90.000000
_cell_volume 2955.886838
_symmetry_space_group_name_H-M "P C C A"
_symmetry_group_IT_number 54
_symmetry_cell_setting 'orthorhombic'
loop_
_space_group_symop_operation_xyz
x,y,z
1/2-x,-y,z
1/2+x,-y,1/2-z
-x,y,1/2-z
-x,-y,-z
1/2+x,y,-z
1/2-x,y,1/2+z
x,-y,1/2+z
loop_
_atom_site_type_symbol
_atom_site_label
_atom_site_fract_x
_atom_site_fract_y
_atom_site_fract_z
Si Si1 0.550371 0.083499 0.172255
Si Si2 0.661261 0.281474 0.247184
Si Si3 0.804769 0.673229 0.630486
Si Si4 0.750000 0.500000 0.006713
Si Si5 0.071647 0.559019 0.052297
Si Si6 0.336156 0.924837 0.435976
Si Si7 0.447021 0.497928 0.315890
Si Si8 0.606155 0.197897 0.413810
O O1 0.500000 0.029352 0.250000
O O2 0.628230 0.166912 0.200143
O O3 0.483911 0.160026 0.122636
O O4 0.585766 0.986452 0.111476
O O5 0.756627 0.317145 0.215909
O O6 0.602126 0.392161 0.227500
O O7 0.667544 0.247021 0.341578
O O8 0.743757 0.615829 0.562643
O O9 0.829552 0.802282 0.607226
O O10 0.886654 0.584828 0.633994
O O11 0.835828 0.507093 0.951731
O O12 0.089535 0.693240 0.026055
O O13 0.027786 0.560336 0.138194
O O14 0.000000 0.500000 0.000000
O O15 0.354062 0.905743 0.531297
O O16 0.250000 0.000000 0.427798
O O17 0.500000 0.573519 0.250000
#
# Coordination Sequence:
#
# PCOD8223627 Si02
#       8
#     8   8   8   4   8   8   8   8
#     4  10  22  43  73  94 125 181 231 275 336 402
#     4  11  20  42  71  96 128 182 227 270 338 421
#     4  12  24  42  67  97 133 183 223 275 350 411
#     4  12  24  38  66  98 140 180 232 278 358 412
#     4  12  22  39  65  98 138 173 222 276 337 423
#     4  12  25  45  66  97 140 174 227 290 343 391
#     4  12  22  40  68 100 139 173 218 283 343 409
#     4  11  23  42  67  99 131 176 231 271 340 413
#
# _framework density 20.298476000000001
#
# number of rings (size 3 to 8) (size 9 to 14) (size 15 to 20)
#    0.000    0.533    8.000    0.800    0.000    1.600 
#    4.800    0.000    0.000    0.000    0.000    0.000 
#    0.000    0.000    0.000    0.000    0.000    0.000 
#
# Total GULP energy -743433.046881 kJ/mol
# GULP energy per Si atom -12390.550781 kJ/mol
# Density = 2.025228 g / cm^3
# Si number density = 20.298476 Si / 1000 Ang^3
#
#
#
# Elastic Constant Matrix: (Units=GPa)
#
#
# Indices 1 2 3 4 5 6 
#
# 1 105.2375 32.9659 38.5868 0.0000 0.0000 0.0000
# 2 32.9659 102.0386 41.0078 0.0000 0.0000 0.0000
# 3 38.5868 41.0078 89.0794 0.0000 0.0000 0.0000
# 4 0.0000 0.0000 0.0000 41.2126 0.0000 0.0000
# 5 0.0000 0.0000 0.0000 0.0000 28.8304 0.0000
# 6 0.0000 0.0000 0.0000 0.0000 0.0000 25.5310
#
#
#
# Elastic Compliance Matrix: (Units=1/GPa)
#
#
# Indices 1 2 3 4 5 6 
#
# 1 0.011663 -0.002132 -0.004070 0.000000 0.000000 0.000000
# 2 -0.002132 0.012415 -0.004792 0.000000 0.000000 0.000000
# 3 -0.004070 -0.004792 0.015195 0.000000 0.000000 0.000000
# 4 0.000000 0.000000 0.000000 0.024264 0.000000 0.000000
# 5 0.000000 0.000000 0.000000 0.000000 0.034686 0.000000
# 6 0.000000 0.000000 0.000000 0.000000 0.000000 0.039168
#
#
# Mechanical properties :
#
#
# Convention : Reuss Voigt Hill
#
# Bulk Modulus (GPa) = 57.85643 57.94183 57.89913
# Shear Modulus (GPa) = 30.27735 31.36780 30.82258
#
# Velocity S-wave (km/s) = 3.86632 3.93533 3.90098
# Velocity P-wave (km/s) = 6.96391 7.01826 6.99114
#
# Compressibility (1/GPa) = 0.01728416
#
# Stress axis : x y z
#
# Youngs Moduli (GPa) = 85.74357 80.54982 65.81132
#
# Poissons Ratio (x) = 0.17174 0.26788
# Poissons Ratio (y) = 0.18281 0.31534
# Poissons Ratio (z) = 0.34902 0.38596
#
# Static dielectric constant tensor:
#      x y z
#    x 3.855490 0.000000 0.000000 
#    y 0.000000 3.680190 0.000000 
#    z 0.000000 0.000000 5.618800 
# 
# 
# High freq. dielectric constant tensor:
#      x y z
#    x 1.791760 0.000000 0.000000 
#    y 0.000000 1.784040 0.000000 
#    z 0.000000 0.000000 1.806010 
# 
# From -- ./inp_files/18196.got.cif
#   From: 2010.03.12/outbox.cif.g09.slc.cpg/sg54_10_cif.got.tgz:18196.got - 2010.04.16 15:00:50.
