data_PCOD8223498
_publ_section_title
;
Structure prediction by ZEFSAII (Michael W. Deem and Ramdas Pophale) SiO2 
 PCOD8223498
Probable space group: P C C A
;
_chemical_formula_sum "Si O2"
_cell_formula_units_Z 40
_cell_length_a 17.712613
_cell_length_b 12.153929
_cell_length_c 7.495564
_cell_angle_alpha 90.000000
_cell_angle_beta 90.000000
_cell_angle_gamma 90.000000
_cell_volume 1613.628834
_symmetry_space_group_name_H-M "P C C A"
_symmetry_group_IT_number 54
_symmetry_cell_setting 'orthorhombic'
loop_
_space_group_symop_operation_xyz
x,y,z
1/2-x,-y,z
1/2+x,-y,1/2-z
-x,y,1/2-z
-x,-y,-z
1/2+x,y,-z
1/2-x,y,1/2+z
x,-y,1/2+z
loop_
_atom_site_type_symbol
_atom_site_label
_atom_site_fract_x
_atom_site_fract_y
_atom_site_fract_z
Si Si1 0.417886 0.856992 0.272167
Si Si2 0.578481 0.613218 0.166997
Si Si3 0.831652 0.446821 0.485681
Si Si4 0.667035 0.789326 0.582787
Si Si5 0.195212 0.102257 0.556229
O O1 0.500000 0.913590 0.250000
O O2 0.428627 0.741931 0.379755
O O3 0.365155 0.931539 0.401453
O O4 0.384785 0.840045 0.074057
O O5 0.500000 0.571645 0.250000
O O6 0.653804 0.599289 0.288814
O O7 0.600466 0.535851 0.002431
O O8 0.750000 0.500000 0.503858
O O9 0.844787 0.341454 0.616900
O O10 0.652601 0.856706 0.765553
O O11 0.754522 0.799443 0.523969
O O12 0.250000 0.000000 0.600807
#
# Coordination Sequence:
#
# PCOD8223498 Si02
#       5
#     8   8   8   8   8
#     4  10  24  47  72 106 144 178 228 291 346 414
#     4  10  22  40  62  95 140 181 218 271 342 411
#     4  11  23  36  62  97 133 177 227 280 332 403
#     4  11  25  42  69 104 136 183 233 290 347 414
#     4  12  25  45  77  98 132 183 236 290 359 412
#
# _framework density 24.788847000000001
#
# number of rings (size 3 to 8) (size 9 to 14) (size 15 to 20)
#    0.000    1.200    2.000    3.000    8.400    1.600 
#    0.000    1.000    0.000    0.000    0.000    0.000 
#    0.000    0.000    0.000    0.000    0.000    0.000 
#
# Total GULP energy -495757.143057 kJ/mol
# GULP energy per Si atom -12393.928576 kJ/mol
# Density = 2.473243 g / cm^3
# Si number density = 24.788847 Si / 1000 Ang^3
#
#
#
# Elastic Constant Matrix: (Units=GPa)
#
#
# Indices 1 2 3 4 5 6 
#
# 1 131.2307 11.2212 40.9366 0.0000 0.0000 0.0000
# 2 11.2212 69.4678 20.9972 0.0000 0.0000 0.0000
# 3 40.9366 20.9972 104.9625 0.0000 0.0000 0.0000
# 4 0.0000 0.0000 0.0000 21.4292 0.0000 0.0000
# 5 0.0000 0.0000 0.0000 0.0000 28.5588 0.0000
# 6 0.0000 0.0000 0.0000 0.0000 0.0000 30.1514
#
#
#
# Elastic Compliance Matrix: (Units=1/GPa)
#
#
# Indices 1 2 3 4 5 6 
#
# 1 0.008686 -0.000404 -0.003307 0.000000 0.000000 0.000000
# 2 -0.000404 0.015340 -0.002911 0.000000 0.000000 0.000000
# 3 -0.003307 -0.002911 0.011399 0.000000 0.000000 0.000000
# 4 0.000000 0.000000 0.000000 0.046665 0.000000 0.000000
# 5 0.000000 0.000000 0.000000 0.000000 0.035015 0.000000
# 6 0.000000 0.000000 0.000000 0.000000 0.000000 0.033166
#
#
# Mechanical properties :
#
#
# Convention : Reuss Voigt Hill
#
# Bulk Modulus (GPa) = 45.08128 50.21900 47.65014
# Shear Modulus (GPa) = 29.25505 31.52828 30.39167
#
# Velocity S-wave (km/s) = 3.43909 3.57020 3.50526
# Velocity P-wave (km/s) = 5.83055 6.10719 5.97048
#
# Compressibility (1/GPa) = 0.02218216
#
# Stress axis : x y z
#
# Youngs Moduli (GPa) = 115.12415 65.18762 87.72398
#
# Poissons Ratio (x) = 0.02631 0.29011
# Poissons Ratio (y) = 0.04646 0.25540
# Poissons Ratio (z) = 0.38072 0.18979
#
# Static dielectric constant tensor:
#      x y z
#    x 4.544970 0.000000 0.000000 
#    y 0.000000 4.817960 0.000000 
#    z 0.000000 0.000000 4.338580 
# 
# 
# High freq. dielectric constant tensor:
#      x y z
#    x 1.981730 0.000000 0.000000 
#    y 0.000000 1.988680 0.000000 
#    z 0.000000 0.000000 1.975140 
# 
# From -- ./inp_files/3980.got.cif
#   From: 2010.03.12/outbox.cif.g09.slc.cpg/sg54_2_cif.got.tgz:3980.got - 2010.04.16 15:00:50.
