data_PCOD8223268
_publ_section_title
;
Structure prediction by ZEFSAII (Michael W. Deem and Ramdas Pophale) SiO2 
 PCOD8223268
Probable space group: P C C A
;
_chemical_formula_sum "Si O2"
_cell_formula_units_Z 56
_cell_length_a 13.293653
_cell_length_b 13.788230
_cell_length_c 14.784563
_cell_angle_alpha 90.000000
_cell_angle_beta 90.000000
_cell_angle_gamma 90.000000
_cell_volume 2709.950448
_symmetry_space_group_name_H-M "P C C A"
_symmetry_group_IT_number 54
_symmetry_cell_setting 'orthorhombic'
loop_
_space_group_symop_operation_xyz
x,y,z
1/2-x,-y,z
1/2+x,-y,1/2-z
-x,y,1/2-z
-x,-y,-z
1/2+x,y,-z
1/2-x,y,1/2+z
x,-y,1/2+z
loop_
_atom_site_type_symbol
_atom_site_label
_atom_site_fract_x
_atom_site_fract_y
_atom_site_fract_z
Si Si1 0.510808 0.371175 0.152384
Si Si2 0.692931 0.584679 0.934946
Si Si3 0.961878 0.730720 0.650593
Si Si4 0.367723 0.721432 0.004520
Si Si5 0.647812 0.944934 0.500604
Si Si6 0.646376 0.458685 0.627079
Si Si7 0.522747 0.047914 0.644931
O O1 0.500000 0.320788 0.250000
O O2 0.398094 0.365996 0.116029
O O3 0.551216 0.481475 0.165228
O O4 0.590076 0.313394 0.091759
O O5 0.750000 0.500000 0.876368
O O6 0.766203 0.668912 0.967339
O O7 0.648773 0.523077 0.019440
O O8 0.867193 0.657549 0.640891
O O9 0.931848 0.843050 0.637430
O O10 0.000000 0.713527 0.750000
O O11 0.047658 0.702036 0.579473
O O12 0.334139 0.831380 0.993151
O O13 0.577427 0.965981 0.414230
O O14 0.750000 0.000000 0.479092
O O15 0.604840 0.978763 0.598211
O O16 0.750000 0.500000 0.671242
O O17 0.500000 0.020356 0.750000
#
# Coordination Sequence:
#
# PCOD8223268 Si02
#       7
#     8   8   8   8   8   8   8
#     4  12  25  40  61  94 126 165 208 251 305 359
#     4  11  22  40  63  82 125 168 206 253 301 359
#     4  10  21  39  65  88 120 164 212 253 306 369
#     4  11  23  42  60  90 122 164 203 255 313 362
#     4  10  23  39  66  92 121 159 205 253 314 372
#     4  11  21  37  63  88 123 165 208 254 299 359
#     4   9  21  42  65  93 123 160 203 256 312 369
#
# _framework density 20.664584999999999
#
# number of rings (size 3 to 8) (size 9 to 14) (size 15 to 20)
#    0.000    1.429    4.286    1.714    2.000    4.000 
#    0.000    1.429    0.000    0.000    0.000    0.000 
#    0.000    0.000    0.000    0.000    0.000    0.000 
#
# Total GULP energy -694187.329736 kJ/mol
# GULP energy per Si atom -12396.202317 kJ/mol
# Density = 2.061755 g / cm^3
# Si number density = 20.664585 Si / 1000 Ang^3
#
#
#
# Elastic Constant Matrix: (Units=GPa)
#
#
# Indices 1 2 3 4 5 6 
#
# 1 133.4337 76.4941 47.6916 0.0000 0.0000 0.0000
# 2 76.4941 122.8976 42.0710 0.0000 0.0000 0.0000
# 3 47.6916 42.0710 121.4522 0.0000 0.0000 0.0000
# 4 0.0000 0.0000 0.0000 22.1715 0.0000 0.0000
# 5 0.0000 0.0000 0.0000 0.0000 12.1284 0.0000
# 6 0.0000 0.0000 0.0000 0.0000 0.0000 35.1708
#
#
#
# Elastic Compliance Matrix: (Units=1/GPa)
#
#
# Indices 1 2 3 4 5 6 
#
# 1 0.012270 -0.006793 -0.002465 0.000000 0.000000 0.000000
# 2 -0.006793 0.012993 -0.001833 0.000000 0.000000 0.000000
# 3 -0.002465 -0.001833 0.009837 0.000000 0.000000 0.000000
# 4 0.000000 0.000000 0.000000 0.045103 0.000000 0.000000
# 5 0.000000 0.000000 0.000000 0.000000 0.082451 0.000000
# 6 0.000000 0.000000 0.000000 0.000000 0.000000 0.028433
#
#
# Mechanical properties :
#
#
# Convention : Reuss Voigt Hill
#
# Bulk Modulus (GPa) = 77.41986 78.92186 78.17086
# Shear Modulus (GPa) = 22.98076 27.99593 25.48835
#
# Velocity S-wave (km/s) = 3.33841 3.68472 3.51583
# Velocity P-wave (km/s) = 7.23922 7.50851 7.37509
#
# Compressibility (1/GPa) = 0.01291658
#
# Stress axis : x y z
#
# Youngs Moduli (GPa) = 81.50172 76.96711 101.66123
#
# Poissons Ratio (x) = 0.52285 0.25058
# Poissons Ratio (y) = 0.55365 0.18636
# Poissons Ratio (z) = 0.20089 0.14109
#
# Static dielectric constant tensor:
#      x y z
#    x 3.696670 0.000000 0.000000 
#    y 0.000000 3.858120 0.000000 
#    z 0.000000 0.000000 4.163150 
# 
# 
# High freq. dielectric constant tensor:
#      x y z
#    x 1.809010 0.000000 0.000000 
#    y 0.000000 1.808060 0.000000 
#    z 0.000000 0.000000 1.807890 
# 
# From -- ./inp_files/12709.got.cif
#   From: 2010.03.12/outbox.cif.g09.slc.cpg/sg54_7_cif.got.tgz:12709.got - 2010.04.16 15:00:50.
