data_PCOD8223015
_publ_section_title
;
Structure prediction by ZEFSAII (Michael W. Deem and Ramdas Pophale) SiO2 
 PCOD8223015
Probable space group: P C C A
;
_chemical_formula_sum "Si O2"
_cell_formula_units_Z 40
_cell_length_a 9.381341
_cell_length_b 8.646779
_cell_length_c 21.836419
_cell_angle_alpha 90.000000
_cell_angle_beta 90.000000
_cell_angle_gamma 90.000000
_cell_volume 1771.334986
_symmetry_space_group_name_H-M "P C C A"
_symmetry_group_IT_number 54
_symmetry_cell_setting 'orthorhombic'
loop_
_space_group_symop_operation_xyz
x,y,z
1/2-x,-y,z
1/2+x,-y,1/2-z
-x,y,1/2-z
-x,-y,-z
1/2+x,y,-z
1/2-x,y,1/2+z
x,-y,1/2+z
loop_
_atom_site_type_symbol
_atom_site_label
_atom_site_fract_x
_atom_site_fract_y
_atom_site_fract_z
Si Si1 0.750000 0.500000 0.351519
Si Si2 0.323556 0.839508 0.501315
Si Si3 0.350019 0.221719 0.227656
Si Si4 0.415151 0.289328 0.569178
Si Si5 0.250000 0.000000 0.326128
Si Si6 0.947847 0.020276 0.879055
O O1 0.773329 0.642965 0.307816
O O2 0.612354 0.549195 0.394075
O O3 0.199597 0.714533 0.514062
O O4 0.424101 0.748499 0.452649
O O5 0.422246 0.873615 0.561025
O O6 0.250000 0.000000 0.477859
O O7 0.500000 0.291613 0.250000
O O8 0.382542 0.079801 0.183291
O O9 0.256721 0.155319 0.284089
O O10 0.368229 0.143906 0.611804
O O11 0.115926 0.007806 0.371150
#
# Coordination Sequence:
#
# PCOD8223015 Si02
#       6
#     4   8   8   8   4   8
#     4  12  24  42  62  88 134 184 208 256 334 394
#     4  10  21  40  66  97 124 165 213 273 321 380
#     4  10  22  41  62  88 127 164 215 265 315 383
#     4  11  24  38  68  92 134 167 212 262 325 392
#     4  10  22  36  68  98 116 158 218 282 314 370
#     4  10  20  39  65  93 123 158 214 274 321 366
#
# _framework density 22.581838000000001
#
# number of rings (size 3 to 8) (size 9 to 14) (size 15 to 20)
#    0.000    1.600    2.000    3.600    5.600    2.400 
#    0.000    0.000    0.000    0.000    0.000    0.000 
#    0.000    0.000    0.000    0.000    0.000    0.000 
#
# Total GULP energy -495553.868985 kJ/mol
# GULP energy per Si atom -12388.846725 kJ/mol
# Density = 2.253044 g / cm^3
# Si number density = 22.581838 Si / 1000 Ang^3
#
#
#
# Elastic Constant Matrix: (Units=GPa)
#
#
# Indices 1 2 3 4 5 6 
#
# 1 119.0609 19.3851 32.5080 0.0000 0.0000 0.0000
# 2 19.3851 52.1710 11.0100 0.0000 0.0000 0.0000
# 3 32.5080 11.0100 64.6057 0.0000 0.0000 0.0000
# 4 0.0000 0.0000 0.0000 5.5290 0.0000 0.0000
# 5 0.0000 0.0000 0.0000 0.0000 38.9968 0.0000
# 6 0.0000 0.0000 0.0000 0.0000 0.0000 21.5418
#
#
#
# Elastic Compliance Matrix: (Units=1/GPa)
#
#
# Indices 1 2 3 4 5 6 
#
# 1 0.010112 -0.002784 -0.004614 0.000000 0.000000 0.000000
# 2 -0.002784 0.020649 -0.002118 0.000000 0.000000 0.000000
# 3 -0.004614 -0.002118 0.018161 0.000000 0.000000 0.000000
# 4 0.000000 0.000000 0.000000 0.180864 0.000000 0.000000
# 5 0.000000 0.000000 0.000000 0.000000 0.025643 0.000000
# 6 0.000000 0.000000 0.000000 0.000000 0.000000 0.046421
#
#
# Mechanical properties :
#
#
# Convention : Reuss Voigt Hill
#
# Bulk Modulus (GPa) = 33.45517 40.18264 36.81891
# Shear Modulus (GPa) = 15.11281 24.74250 19.92765
#
# Velocity S-wave (km/s) = 2.58979 3.31370 2.97385
# Velocity P-wave (km/s) = 4.87749 5.69857 5.30394
#
# Compressibility (1/GPa) = 0.02989074
#
# Stress axis : x y z
#
# Youngs Moduli (GPa) = 98.89239 48.42828 55.06296
#
# Poissons Ratio (x) = 0.13481 0.25405
# Poissons Ratio (y) = 0.27528 0.11664
# Poissons Ratio (z) = 0.45626 0.10259
#
# Static dielectric constant tensor:
#      x y z
#    x 5.201140 0.000000 0.000000 
#    y 0.000000 4.001110 0.000000 
#    z 0.000000 0.000000 4.192750 
# 
# 
# High freq. dielectric constant tensor:
#      x y z
#    x 1.899800 0.000000 0.000000 
#    y 0.000000 1.855090 0.000000 
#    z 0.000000 0.000000 1.897940 
# 
# From -- ./inp_files/23293.got.cif
#   From: 2010.03.12/outbox.cif.g09.slc.cpg/sg54_12_cif.got.tgz:23293.got - 2010.04.16 15:00:50.
