data_PCOD8223837
_publ_section_title
;
Structure prediction by ZEFSAII (Michael W. Deem and Ramdas Pophale) SiO2 
 PCOD8223837
Probable space group: P C C A
;
_chemical_formula_sum "Si O2"
_cell_formula_units_Z 56
_cell_length_a 13.762328
_cell_length_b 15.012779
_cell_length_c 11.730705
_cell_angle_alpha 90.000000
_cell_angle_beta 90.000000
_cell_angle_gamma 90.000000
_cell_volume 2423.690213
_symmetry_space_group_name_H-M "P C C A"
_symmetry_group_IT_number 54
_symmetry_cell_setting 'orthorhombic'
loop_
_space_group_symop_operation_xyz
x,y,z
1/2-x,-y,z
1/2+x,-y,1/2-z
-x,y,1/2-z
-x,-y,-z
1/2+x,y,-z
1/2-x,y,1/2+z
x,-y,1/2+z
loop_
_atom_site_type_symbol
_atom_site_label
_atom_site_fract_x
_atom_site_fract_y
_atom_site_fract_z
Si Si1 0.614529 0.358577 0.102552
Si Si2 0.000000 0.322496 0.250000
Si Si3 0.066017 0.399522 0.484469
Si Si4 0.616601 0.262857 0.331641
Si Si5 0.168541 0.238218 0.111486
Si Si6 0.250000 0.500000 0.937338
Si Si7 0.981495 0.922864 0.365812
Si Si8 0.155509 0.946121 0.506378
O O1 0.576734 0.309720 0.215391
O O2 0.705495 0.420789 0.139005
O O3 0.534411 0.430283 0.048633
O O4 0.649586 0.288903 0.007149
O O5 0.048034 0.383894 0.349182
O O6 0.081430 0.257733 0.198293
O O7 0.077422 0.305165 0.550841
O O8 0.161755 0.458419 0.512842
O O9 0.732984 0.270426 0.329231
O O10 0.578041 0.163911 0.331162
O O11 0.182115 0.131796 0.094689
O O12 0.000000 0.978512 0.250000
O O13 0.089905 0.898577 0.410531
O O14 0.915609 0.978780 0.448240
O O15 0.250000 0.000000 0.461219
#
# Coordination Sequence:
#
# PCOD8223837 Si02
#       8
#     8   4   8   8   8   4   8   8
#     4  11  25  46  71 101 143 190 237 297 357 429
#     4  10  24  46  70 102 144 190 236 294 362 436
#     4  11  24  46  72 103 140 184 231 296 359 427
#     4  12  23  46  74  99 141 192 240 288 361 432
#     4  11  23  44  70 100 141 190 240 294 358 427
#     4  12  24  46  70 108 138 182 240 300 358 432
#     4  11  24  44  69 101 140 183 236 289 350 426
#     4  11  24  45  66 102 140 183 233 296 354 418
#
# _framework density 23.105263000000001
#
# number of rings (size 3 to 8) (size 9 to 14) (size 15 to 20)
#    0.000    0.857    2.857    5.143    1.000    1.143 
#   10.286    0.000    0.000    0.000    0.000    0.000 
#    0.000    0.000    0.000    0.000    0.000    0.000 
#
# Total GULP energy -693916.538424 kJ/mol
# GULP energy per Si atom -12391.366758 kJ/mol
# Density = 2.305267 g / cm^3
# Si number density = 23.105263 Si / 1000 Ang^3
#
#
#
# Elastic Constant Matrix: (Units=GPa)
#
#
# Indices 1 2 3 4 5 6 
#
# 1 156.7500 42.7602 55.3166 0.0000 0.0000 0.0000
# 2 42.7602 62.8307 36.9531 0.0000 0.0000 0.0000
# 3 55.3166 36.9531 125.5188 0.0000 0.0000 0.0000
# 4 0.0000 0.0000 0.0000 -310.0626 0.0000 0.0000
# 5 0.0000 0.0000 0.0000 0.0000 29.4877 0.0000
# 6 0.0000 0.0000 0.0000 0.0000 0.0000 44.7653
#
#
#
# Elastic Compliance Matrix: (Units=1/GPa)
#
#
# Indices 1 2 3 4 5 6 
#
# 1 0.008412 -0.004287 -0.002445 0.000000 0.000000 0.000000
# 2 -0.004287 0.021433 -0.004421 0.000000 0.000000 0.000000
# 3 -0.002445 -0.004421 0.010346 0.000000 0.000000 0.000000
# 4 0.000000 0.000000 0.000000 -0.003225 0.000000 0.000000
# 5 0.000000 0.000000 0.000000 0.000000 0.033912 0.000000
# 6 0.000000 0.000000 0.000000 0.000000 0.000000 0.022339
#
#
# Mechanical properties :
#
#
# Convention : Reuss Voigt Hill
#
# Bulk Modulus (GPa) = 55.91041 68.35103 62.13072
# Shear Modulus (GPa) = 41.15759 -33.15728 4.00015
#
# Velocity S-wave (km/s) = 4.22513 -3.79232 1.31721
# Velocity P-wave (km/s) = 6.93203 3.23591 5.40944
#
# Compressibility (1/GPa) = 0.01788576
#
# Stress axis : x y z
#
# Youngs Moduli (GPa) = 118.88006 46.65654 96.65564
#
# Poissons Ratio (x) = 0.20000 0.23633
# Poissons Ratio (y) = 0.50961 0.42730
# Poissons Ratio (z) = 0.29067 0.20626
#
# Static dielectric constant tensor:
#      x y z
#    x 4.815960 0.000000 0.000000 
#    y 0.000000 4.089290 0.000000 
#    z 0.000000 0.000000 4.316050 
# 
# 
# High freq. dielectric constant tensor:
#      x y z
#    x 1.951340 0.000000 0.000000 
#    y 0.000000 1.917120 0.000000 
#    z 0.000000 0.000000 1.894150 
# 
# From -- ./inp_files/8497.got.cif
#   From: 2010.03.12/outbox.cif.g09.slc.cpg/sg54_5_cif.got.tgz:8497.got - 2010.04.16 15:00:50.
