data_PCOD8223422
_publ_section_title
;
Structure prediction by ZEFSAII (Michael W. Deem and Ramdas Pophale) SiO2 
 PCOD8223422
Probable space group: P C C A
;
_chemical_formula_sum "Si O2"
_cell_formula_units_Z 60
_cell_length_a 26.586402
_cell_length_b 7.784167
_cell_length_c 14.424294
_cell_angle_alpha 90.000000
_cell_angle_beta 90.000000
_cell_angle_gamma 90.000000
_cell_volume 2985.150817
_symmetry_space_group_name_H-M "P C C A"
_symmetry_group_IT_number 54
_symmetry_cell_setting 'orthorhombic'
loop_
_space_group_symop_operation_xyz
x,y,z
1/2-x,-y,z
1/2+x,-y,1/2-z
-x,y,1/2-z
-x,-y,-z
1/2+x,y,-z
1/2-x,y,1/2+z
x,-y,1/2+z
loop_
_atom_site_type_symbol
_atom_site_label
_atom_site_fract_x
_atom_site_fract_y
_atom_site_fract_z
Si Si1 0.548829 0.007469 0.695780
Si Si2 0.750000 0.000000 0.321429
Si Si3 0.245470 0.692301 0.037324
Si Si4 0.344205 0.807287 0.941705
Si Si5 0.851683 0.899986 0.263994
Si Si6 0.042500 0.316535 0.429667
Si Si7 0.358265 0.812895 0.525697
Si Si8 0.446823 0.301134 0.447717
O O1 0.500000 0.950561 0.750000
O O2 0.544304 0.201088 0.660680
O O3 0.598124 0.015437 0.760343
O O4 0.553654 0.864284 0.617495
O O5 0.750766 0.826972 0.380106
O O6 0.800552 0.012665 0.260352
O O7 0.250000 0.500000 0.076876
O O8 0.190726 0.709920 0.988026
O O9 0.289907 0.731245 0.965123
O O10 0.349650 0.786663 0.829760
O O11 0.389594 0.695363 0.988384
O O12 0.352108 0.998686 0.981743
O O13 0.855664 0.801393 0.361997
O O14 0.089516 0.274235 0.496431
O O15 0.043018 0.515597 0.398346
O O16 0.989359 0.270810 0.476285
#
# Coordination Sequence:
#
# PCOD8223422 Si02
#       8
#     8   4   8   8   8   8   8   8
#     4  11  23  38  61  91 126 163 208 255 315 369
#     4  10  22  40  60  90 126 158 208 248 304 370
#     4  11  22  40  65  92 123 165 206 253 309 365
#     4  11  21  40  65  89 124 166 201 256 313 364
#     4  10  22  37  63  90 121 164 202 257 308 361
#     4  11  22  40  64  90 120 171 207 252 319 372
#     4  11  21  41  65  90 123 165 210 251 307 375
#     4  10  23  39  61  91 124 160 210 258 307 374
#
# _framework density 20.099487
#
# number of rings (size 3 to 8) (size 9 to 14) (size 15 to 20)
#    0.000    1.333    5.333    2.000    3.733    0.533 
#    0.000    9.333    0.000    0.000    0.000    0.000 
#    0.000    0.000    0.000    0.000    0.000    0.000 
#
# Total GULP energy -743351.689945 kJ/mol
# GULP energy per Si atom -12389.194832 kJ/mol
# Density = 2.005374 g / cm^3
# Si number density = 20.099487 Si / 1000 Ang^3
#
#
#
# Elastic Constant Matrix: (Units=GPa)
#
#
# Indices 1 2 3 4 5 6 
#
# 1 162.1978 5.9811 33.2377 0.0000 0.0000 0.0000
# 2 5.9811 88.1558 8.7393 0.0000 0.0000 0.0000
# 3 33.2377 8.7393 54.6475 0.0000 0.0000 0.0000
# 4 0.0000 0.0000 0.0000 7.5745 0.0000 0.0000
# 5 0.0000 0.0000 0.0000 0.0000 29.3139 0.0000
# 6 0.0000 0.0000 0.0000 0.0000 0.0000 28.1347
#
#
#
# Elastic Compliance Matrix: (Units=1/GPa)
#
#
# Indices 1 2 3 4 5 6 
#
# 1 0.007043 -0.000054 -0.004275 0.000000 0.000000 0.000000
# 2 -0.000054 0.011527 -0.001811 0.000000 0.000000 0.000000
# 3 -0.004275 -0.001811 0.021189 0.000000 0.000000 0.000000
# 4 0.000000 0.000000 0.000000 0.132022 0.000000 0.000000
# 5 0.000000 0.000000 0.000000 0.000000 0.034114 0.000000
# 6 0.000000 0.000000 0.000000 0.000000 0.000000 0.035543
#
#
# Mechanical properties :
#
#
# Convention : Reuss Voigt Hill
#
# Bulk Modulus (GPa) = 36.39092 44.54637 40.46865
# Shear Modulus (GPa) = 19.02031 30.14081 24.58056
#
# Velocity S-wave (km/s) = 3.07955 3.87664 3.50086
# Velocity P-wave (km/s) = 5.54883 6.49991 6.04311
#
# Compressibility (1/GPa) = 0.02747938
#
# Stress axis : x y z
#
# Youngs Moduli (GPa) = 141.97687 86.75509 47.19442
#
# Poissons Ratio (x) = 0.00469 0.20177
# Poissons Ratio (y) = 0.00767 0.08545
# Poissons Ratio (z) = 0.60699 0.15707
#
# Static dielectric constant tensor:
#      x y z
#    x 5.004340 0.000000 0.000000 
#    y 0.000000 3.560360 0.000000 
#    z 0.000000 0.000000 3.410510 
# 
# 
# High freq. dielectric constant tensor:
#      x y z
#    x 1.830260 0.000000 0.000000 
#    y 0.000000 1.770720 0.000000 
#    z 0.000000 0.000000 1.754900 
# 
# From -- ./inp_files/15248.got.cif
#   From: 2010.03.12/outbox.cif.g09.slc.cpg/sg54_8_cif.got.tgz:15248.got - 2010.04.16 15:00:50.
