data_PCOD8223153
_publ_section_title
;
Structure prediction by ZEFSAII (Michael W. Deem and Ramdas Pophale) SiO2 
 PCOD8223153
Probable space group: P C C A
;
_chemical_formula_sum "Si O2"
_cell_formula_units_Z 56
_cell_length_a 15.527406
_cell_length_b 9.424069
_cell_length_c 19.938897
_cell_angle_alpha 90.000000
_cell_angle_beta 90.000000
_cell_angle_gamma 90.000000
_cell_volume 2917.685626
_symmetry_space_group_name_H-M "P C C A"
_symmetry_group_IT_number 54
_symmetry_cell_setting 'orthorhombic'
loop_
_space_group_symop_operation_xyz
x,y,z
1/2-x,-y,z
1/2+x,-y,1/2-z
-x,y,1/2-z
-x,-y,-z
1/2+x,y,-z
1/2-x,y,1/2+z
x,-y,1/2+z
loop_
_atom_site_type_symbol
_atom_site_label
_atom_site_fract_x
_atom_site_fract_y
_atom_site_fract_z
Si Si1 0.667750 0.683738 0.971585
Si Si2 0.486491 0.147830 0.960259
Si Si3 0.417022 0.593413 0.004893
Si Si4 0.313556 0.128251 0.300816
Si Si5 0.287616 0.646845 0.907364
Si Si6 0.178036 0.116313 0.649890
Si Si7 0.008964 0.989017 0.825101
O O1 0.652719 0.513469 0.960153
O O2 0.690292 0.753350 0.900588
O O3 0.586330 0.764658 0.002335
O O4 0.743838 0.707623 0.024784
O O5 0.569588 0.253800 0.959035
O O6 0.463109 0.123545 0.881991
O O7 0.500000 0.000000 0.000000
O O8 0.500000 0.500000 0.000000
O O9 0.387132 0.626300 0.928523
O O10 0.275909 0.252469 0.345075
O O11 0.304400 0.175650 0.223957
O O12 0.250000 0.000000 0.316288
O O13 0.413414 0.101828 0.319811
O O14 0.250000 0.500000 0.881856
O O15 0.250000 0.000000 0.630506
O O16 0.080621 0.055229 0.648335
O O17 0.000000 0.920279 0.750000
#
# Coordination Sequence:
#
# PCOD8223153 Si02
#       7
#     8   8   8   8   8   8   8
#     4  10  21  37  58  85 118 152 197 240 301 350
#     4  11  19  33  60  87 111 152 197 241 291 346
#     4   9  21  36  55  81 119 149 189 245 297 349
#     4  10  21  39  62  86 118 155 196 245 302 352
#     4  10  21  37  58  84 111 153 194 241 288 358
#     4  10  22  37  58  90 120 153 194 250 295 352
#     4  10  21  36  57  87 120 152 193 245 296 349
#
# _framework density 19.193294000000002
#
# number of rings (size 3 to 8) (size 9 to 14) (size 15 to 20)
#    0.000    2.000    1.429    1.714    4.000    1.714 
#    0.000    2.143    9.429    0.000    0.000    0.000 
#    0.000    0.000    0.000    0.000    0.000    0.000 
#
# Total GULP energy -693816.113202 kJ/mol
# GULP energy per Si atom -12389.573450 kJ/mol
# Density = 1.914961 g / cm^3
# Si number density = 19.193294 Si / 1000 Ang^3
#
#
#
# Elastic Constant Matrix: (Units=GPa)
#
#
# Indices 1 2 3 4 5 6 
#
# 1 81.6282 30.7776 27.2494 0.0000 0.0000 0.0000
# 2 30.7776 127.9388 88.3817 0.0000 0.0000 0.0000
# 3 27.2494 88.3817 141.1642 0.0000 0.0000 0.0000
# 4 0.0000 0.0000 0.0000 64.7881 0.0000 0.0000
# 5 0.0000 0.0000 0.0000 0.0000 18.4159 0.0000
# 6 0.0000 0.0000 0.0000 0.0000 0.0000 21.5962
#
#
#
# Elastic Compliance Matrix: (Units=1/GPa)
#
#
# Indices 1 2 3 4 5 6 
#
# 1 0.013554 -0.002561 -0.001013 0.000000 0.000000 0.000000
# 2 -0.002561 0.014257 -0.008432 0.000000 0.000000 0.000000
# 3 -0.001013 -0.008432 0.012559 0.000000 0.000000 0.000000
# 4 0.000000 0.000000 0.000000 0.015435 0.000000 0.000000
# 5 0.000000 0.000000 0.000000 0.000000 0.054301 0.000000
# 6 0.000000 0.000000 0.000000 0.000000 0.000000 0.046305
#
#
# Mechanical properties :
#
#
# Convention : Reuss Voigt Hill
#
# Bulk Modulus (GPa) = 61.13056 71.50540 66.31798
# Shear Modulus (GPa) = 26.89975 34.58154 30.74064
#
# Velocity S-wave (km/s) = 3.74775 4.24931 4.00638
# Velocity P-wave (km/s) = 7.11664 7.83657 7.48526
#
# Compressibility (1/GPa) = 0.01635843
#
# Stress axis : x y z
#
# Youngs Moduli (GPa) = 73.77659 70.13996 79.62591
#
# Poissons Ratio (x) = 0.17962 0.08067
# Poissons Ratio (y) = 0.18893 0.67141
# Poissons Ratio (z) = 0.07475 0.59142
#
# Static dielectric constant tensor:
#      x y z
#    x 4.040110 0.000000 0.000000 
#    y 0.000000 3.830850 0.000000 
#    z 0.000000 0.000000 3.529280 
# 
# 
# High freq. dielectric constant tensor:
#      x y z
#    x 1.763940 0.000000 0.000000 
#    y 0.000000 1.735840 0.000000 
#    z 0.000000 0.000000 1.740330 
# 
# From -- ./inp_files/21873.got.cif
#   From: 2010.03.12/outbox.cif.g09.slc.cpg/sg54_11_cif.got.tgz:21873.got - 2010.04.16 15:00:50.
