data_PCOD8223928
_publ_section_title
;
Structure prediction by ZEFSAII (Michael W. Deem and Ramdas Pophale) SiO2 
 PCOD8223928
Probable space group: P C C A
;
_chemical_formula_sum "Si O2"
_cell_formula_units_Z 60
_cell_length_a 18.855059
_cell_length_b 12.070579
_cell_length_c 12.340043
_cell_angle_alpha 90.000000
_cell_angle_beta 90.000000
_cell_angle_gamma 90.000000
_cell_volume 2808.488640
_symmetry_space_group_name_H-M "P C C A"
_symmetry_group_IT_number 54
_symmetry_cell_setting 'orthorhombic'
loop_
_space_group_symop_operation_xyz
x,y,z
1/2-x,-y,z
1/2+x,-y,1/2-z
-x,y,1/2-z
-x,-y,-z
1/2+x,y,-z
1/2-x,y,1/2+z
x,-y,1/2+z
loop_
_atom_site_type_symbol
_atom_site_label
_atom_site_fract_x
_atom_site_fract_y
_atom_site_fract_z
Si Si1 0.788984 0.693109 0.732166
Si Si2 0.134563 0.403536 0.073729
Si Si3 0.347295 0.213554 0.160712
Si Si4 0.250000 0.500000 0.421545
Si Si5 0.532245 0.761066 0.507799
Si Si6 0.931963 0.942892 0.183775
Si Si7 0.045201 0.407141 0.648184
Si Si8 0.610183 0.834594 0.083162
O O1 0.821782 0.608855 0.817218
O O2 0.732425 0.769822 0.795980
O O3 0.754845 0.614011 0.643341
O O4 0.848409 0.767585 0.675010
O O5 0.066652 0.477809 0.095729
O O6 0.180228 0.476248 0.990830
O O7 0.107882 0.278924 0.041111
O O8 0.380412 0.115464 0.231035
O O9 0.388823 0.328246 0.179882
O O10 0.350742 0.179350 0.033469
O O11 0.541140 0.859097 0.592676
O O12 0.506373 0.651775 0.566045
O O13 0.472349 0.796666 0.420911
O O14 0.000000 0.988661 0.250000
O O15 0.889101 0.038467 0.122026
O O16 0.000000 0.441455 0.750000
#
# Coordination Sequence:
#
# PCOD8223928 Si02
#       8
#     8   8   8   4   8   8   8   8
#     4  12  27  45  69 100 145 185 232 296 348 439
#     4  12  27  39  70 103 142 184 229 295 359 425
#     4  11  23  49  69  97 138 189 237 281 366 432
#     4  12  24  48  68  98 140 200 240 270 358 438
#     4  11  23  44  67 106 137 182 232 296 359 429
#     4  12  23  45  77 100 133 189 232 299 361 430
#     4  11  21  40  67 100 134 178 226 285 344 432
#     4  11  27  43  72 105 138 176 242 301 351 428
#
# _framework density 21.363804999999999
#
# number of rings (size 3 to 8) (size 9 to 14) (size 15 to 20)
#    0.000    0.533    4.000    6.000    5.600    0.533 
#    0.000    1.333    0.000    0.000    0.000    0.000 
#    0.000    0.000    0.000    0.000    0.000    0.000 
#
# Total GULP energy -743940.820821 kJ/mol
# GULP energy per Si atom -12399.013680 kJ/mol
# Density = 2.131518 g / cm^3
# Si number density = 21.363805 Si / 1000 Ang^3
#
#
#
# Elastic Constant Matrix: (Units=GPa)
#
#
# Indices 1 2 3 4 5 6 
#
# 1 65.5821 40.8439 35.0108 0.0000 0.0000 0.0000
# 2 40.8439 91.1889 54.1468 0.0000 0.0000 0.0000
# 3 35.0108 54.1468 98.2522 0.0000 0.0000 0.0000
# 4 0.0000 0.0000 0.0000 20.7410 0.0000 0.0000
# 5 0.0000 0.0000 0.0000 0.0000 40.6416 0.0000
# 6 0.0000 0.0000 0.0000 0.0000 0.0000 30.8398
#
#
#
# Elastic Compliance Matrix: (Units=1/GPa)
#
#
# Indices 1 2 3 4 5 6 
#
# 1 0.021960 -0.007714 -0.003574 0.000000 0.000000 0.000000
# 2 -0.007714 0.019010 -0.007728 0.000000 0.000000 0.000000
# 3 -0.003574 -0.007728 0.015710 0.000000 0.000000 0.000000
# 4 0.000000 0.000000 0.000000 0.048214 0.000000 0.000000
# 5 0.000000 0.000000 0.000000 0.000000 0.024605 0.000000
# 6 0.000000 0.000000 0.000000 0.000000 0.000000 0.032426
#
#
# Mechanical properties :
#
#
# Convention : Reuss Voigt Hill
#
# Bulk Modulus (GPa) = 53.62187 57.22512 55.42350
# Shear Modulus (GPa) = 24.25156 26.77926 25.51541
#
# Velocity S-wave (km/s) = 3.37288 3.54430 3.45966
# Velocity P-wave (km/s) = 6.34999 6.60255 6.47750
#
# Compressibility (1/GPa) = 0.01864911
#
# Stress axis : x y z
#
# Youngs Moduli (GPa) = 45.53704 52.60432 63.65307
#
# Poissons Ratio (x) = 0.40578 0.22750
# Poissons Ratio (y) = 0.35126 0.49189
# Poissons Ratio (z) = 0.16275 0.40651
#
# Static dielectric constant tensor:
#      x y z
#    x 4.185100 0.000000 0.000000 
#    y 0.000000 3.756460 0.000000 
#    z 0.000000 0.000000 3.974440 
# 
# 
# High freq. dielectric constant tensor:
#      x y z
#    x 1.839390 0.000000 0.000000 
#    y 0.000000 1.838830 0.000000 
#    z 0.000000 0.000000 1.852420 
# 
# From -- ./inp_files/9615.got.cif
#   From: 2010.03.12/outbox.cif.g09.slc.cpg/sg54_5_cif.got.tgz:9615.got - 2010.04.16 15:00:50.
