data_PCOD8223536
_publ_section_title
;
Structure prediction by ZEFSAII (Michael W. Deem and Ramdas Pophale) SiO2 
 PCOD8223536
Probable space group: P C C A
;
_chemical_formula_sum "Si O2"
_cell_formula_units_Z 44
_cell_length_a 17.823771
_cell_length_b 12.900229
_cell_length_c 9.036000
_cell_angle_alpha 90.000000
_cell_angle_beta 90.000000
_cell_angle_gamma 90.000000
_cell_volume 2077.654054
_symmetry_space_group_name_H-M "P C C A"
_symmetry_group_IT_number 54
_symmetry_cell_setting 'orthorhombic'
loop_
_space_group_symop_operation_xyz
x,y,z
1/2-x,-y,z
1/2+x,-y,1/2-z
-x,y,1/2-z
-x,-y,-z
1/2+x,y,-z
1/2-x,y,1/2+z
x,-y,1/2+z
loop_
_atom_site_type_symbol
_atom_site_label
_atom_site_fract_x
_atom_site_fract_y
_atom_site_fract_z
Si Si1 0.204254 0.103878 0.328998
Si Si2 0.750000 0.500000 0.566259
Si Si3 0.053610 0.017854 0.364764
Si Si4 0.417572 0.786825 0.792318
Si Si5 0.689036 0.781317 0.460296
Si Si6 0.700876 0.362625 0.327109
O O1 0.251368 0.195183 0.406588
O O2 0.250000 0.000000 0.341715
O O3 0.124119 0.088654 0.410729
O O4 0.186149 0.124303 0.155948
O O5 0.686958 0.445106 0.460242
O O6 0.794930 0.417695 0.667501
O O7 0.084015 0.912146 0.284017
O O8 0.000000 0.078246 0.250000
O O9 0.000000 0.000000 0.500000
O O10 0.500000 0.744451 0.750000
O O11 0.391556 0.760666 0.961705
O O12 0.360649 0.729796 0.677726
O O13 0.716700 0.681888 0.369134
#
# Coordination Sequence:
#
# PCOD8223536 Si02
#       6
#     8   4   8   8   8   8
#     4  12  24  37  64  94 128 178 236 277 314 393
#     4  10  22  40  78  96 126 154 230 278 342 422
#     4  11  25  41  57  88 136 181 225 266 320 378
#     4  11  24  41  64  97 140 175 217 280 343 393
#     4  12  22  40  66  95 130 172 228 275 331 396
#     4  11  21  43  68 101 123 169 212 281 341 412
#
# _framework density 21.177731000000001
#
# number of rings (size 3 to 8) (size 9 to 14) (size 15 to 20)
#    0.000    0.727    5.455    1.636    7.636    0.000 
#    0.000    0.909    0.000    0.000    0.000    0.000 
#    0.000    0.000    0.000    0.000    0.000    0.000 
#
# Total GULP energy -545211.202435 kJ/mol
# GULP energy per Si atom -12391.163692 kJ/mol
# Density = 2.112953 g / cm^3
# Si number density = 21.177731 Si / 1000 Ang^3
#
#
#
# Elastic Constant Matrix: (Units=GPa)
#
#
# Indices 1 2 3 4 5 6 
#
# 1 120.8115 26.1015 47.0993 0.0000 0.0000 0.0000
# 2 26.1015 70.3507 19.0264 0.0000 0.0000 0.0000
# 3 47.0993 19.0264 125.9678 0.0000 0.0000 0.0000
# 4 0.0000 0.0000 0.0000 36.6842 0.0000 0.0000
# 5 0.0000 0.0000 0.0000 0.0000 42.1467 0.0000
# 6 0.0000 0.0000 0.0000 0.0000 0.0000 23.9928
#
#
#
# Elastic Compliance Matrix: (Units=1/GPa)
#
#
# Indices 1 2 3 4 5 6 
#
# 1 0.010219 -0.002876 -0.003387 0.000000 0.000000 0.000000
# 2 -0.002876 0.015629 -0.001285 0.000000 0.000000 0.000000
# 3 -0.003387 -0.001285 0.009399 0.000000 0.000000 0.000000
# 4 0.000000 0.000000 0.000000 0.027260 0.000000 0.000000
# 5 0.000000 0.000000 0.000000 0.000000 0.023727 0.000000
# 6 0.000000 0.000000 0.000000 0.000000 0.000000 0.041679
#
#
# Mechanical properties :
#
#
# Convention : Reuss Voigt Hill
#
# Bulk Modulus (GPa) = 49.62335 55.73160 52.67747
# Shear Modulus (GPa) = 33.39464 35.55826 34.47645
#
# Velocity S-wave (km/s) = 3.97530 4.10205 4.03917
# Velocity P-wave (km/s) = 6.67483 6.98635 6.83237
#
# Compressibility (1/GPa) = 0.02015180
#
# Stress axis : x y z
#
# Youngs Moduli (GPa) = 97.85815 63.98348 106.39524
#
# Poissons Ratio (x) = 0.18399 0.36031
# Poissons Ratio (y) = 0.28139 0.13677
# Poissons Ratio (z) = 0.33140 0.08225
#
# Static dielectric constant tensor:
#      x y z
#    x 4.057020 0.000000 0.000000 
#    y 0.000000 3.915160 0.000000 
#    z 0.000000 0.000000 4.098700 
# 
# 
# High freq. dielectric constant tensor:
#      x y z
#    x 1.807030 0.000000 0.000000 
#    y 0.000000 1.815130 0.000000 
#    z 0.000000 0.000000 1.848860 
# 
# From -- ./inp_files/4123.got.cif
#   From: 2010.03.12/outbox.cif.g09.slc.cpg/sg54_3_cif.got.tgz:4123.got - 2010.04.16 15:00:50.
