data_PCOD8223441
_publ_section_title
;
Structure prediction by ZEFSAII (Michael W. Deem and Ramdas Pophale) SiO2 
 PCOD8223441
Probable space group: P C C A
;
_chemical_formula_sum "Si O2"
_cell_formula_units_Z 24
_cell_length_a 8.079084
_cell_length_b 8.119344
_cell_length_c 16.084555
_cell_angle_alpha 90.000000
_cell_angle_beta 90.000000
_cell_angle_gamma 90.000000
_cell_volume 1055.096338
_symmetry_space_group_name_H-M "P C C A"
_symmetry_group_IT_number 54
_symmetry_cell_setting 'orthorhombic'
loop_
_space_group_symop_operation_xyz
x,y,z
1/2-x,-y,z
1/2+x,-y,1/2-z
-x,y,1/2-z
-x,-y,-z
1/2+x,y,-z
1/2-x,y,1/2+z
x,-y,1/2+z
loop_
_atom_site_type_symbol
_atom_site_label
_atom_site_fract_x
_atom_site_fract_y
_atom_site_fract_z
Si Si1 0.000000 0.889998 0.250000
Si Si2 0.801843 0.317704 0.621600
Si Si3 0.250000 0.000000 0.628370
Si Si4 0.570908 0.184239 0.492399
O O1 0.861607 0.778145 0.203943
O O2 0.913692 0.011845 0.315242
O O3 0.750000 0.500000 0.648328
O O4 0.634847 0.240223 0.582253
O O5 0.944720 0.312897 0.550536
O O6 0.230252 0.164070 0.570608
O O7 0.500000 0.000000 0.500000
#
# Coordination Sequence:
#
# PCOD8223441 Si02
#       4
#     4   8   4   8
#     4  10  26  40  62 102 136 176 214 272 342 394
#     4  11  24  44  64  99 136 173 216 271 340 391
#     4  10  22  38  64  98 126 166 228 274 324 374
#     4  11  21  41  70  97 120 173 230 274 314 386
#
# _framework density 22.746735999999999
#
# number of rings (size 3 to 8) (size 9 to 14) (size 15 to 20)
#    0.000    1.333    3.333    1.000    9.333    0.000 
#    6.000    3.333    0.000    0.000    0.000    0.000 
#    0.000    0.000    0.000    0.000    0.000    0.000 
#
# Total GULP energy -297355.154267 kJ/mol
# GULP energy per Si atom -12389.798094 kJ/mol
# Density = 2.269496 g / cm^3
# Si number density = 22.746736 Si / 1000 Ang^3
#
#
#
# Elastic Constant Matrix: (Units=GPa)
#
#
# Indices 1 2 3 4 5 6 
#
# 1 59.8706 43.0375 22.2137 0.0000 0.0000 0.0000
# 2 43.0375 83.3755 23.1668 0.0000 0.0000 0.0000
# 3 22.2137 23.1668 97.2872 0.0000 0.0000 0.0000
# 4 0.0000 0.0000 0.0000 18.9099 0.0000 0.0000
# 5 0.0000 0.0000 0.0000 0.0000 63.3937 0.0000
# 6 0.0000 0.0000 0.0000 0.0000 0.0000 43.8414
#
#
#
# Elastic Compliance Matrix: (Units=1/GPa)
#
#
# Indices 1 2 3 4 5 6 
#
# 1 0.027399 -0.013284 -0.003093 0.000000 0.000000 0.000000
# 2 -0.013284 0.019284 -0.001559 0.000000 0.000000 0.000000
# 3 -0.003093 -0.001559 0.011356 0.000000 0.000000 0.000000
# 4 0.000000 0.000000 0.000000 0.052882 0.000000 0.000000
# 5 0.000000 0.000000 0.000000 0.000000 0.015774 0.000000
# 6 0.000000 0.000000 0.000000 0.000000 0.000000 0.022809
#
#
# Mechanical properties :
#
#
# Convention : Reuss Voigt Hill
#
# Bulk Modulus (GPa) = 45.10942 46.37435 45.74189
# Shear Modulus (GPa) = 25.93815 35.37004 30.65409
#
# Velocity S-wave (km/s) = 3.38050 3.94756 3.67499
# Velocity P-wave (km/s) = 5.92547 6.41944 6.17740
#
# Compressibility (1/GPa) = 0.02216832
#
# Stress axis : x y z
#
# Youngs Moduli (GPa) = 36.49743 51.85631 88.05711
#
# Poissons Ratio (x) = 0.68885 0.27235
# Poissons Ratio (y) = 0.48482 0.13728
# Poissons Ratio (z) = 0.11288 0.08084
#
# Static dielectric constant tensor:
#      x y z
#    x 4.610870 0.000000 0.000000 
#    y 0.000000 3.628670 0.000000 
#    z 0.000000 0.000000 4.557600 
# 
# 
# High freq. dielectric constant tensor:
#      x y z
#    x 1.916990 0.000000 0.000000 
#    y 0.000000 1.848680 0.000000 
#    z 0.000000 0.000000 1.912750 
# 
# From -- ./inp_files/16105.got.cif
#   From: 2010.03.12/outbox.cif.g09.slc.cpg/sg54_9_cif.got.tgz:16105.got - 2010.04.16 15:00:50.
