data_PCOD8223094
_publ_section_title
;
Structure prediction by ZEFSAII (Michael W. Deem and Ramdas Pophale) SiO2 
 PCOD8223094
Probable space group: P C C A
;
_chemical_formula_sum "Si O2"
_cell_formula_units_Z 56
_cell_length_a 14.512090
_cell_length_b 14.535569
_cell_length_c 11.240511
_cell_angle_alpha 90.000000
_cell_angle_beta 90.000000
_cell_angle_gamma 90.000000
_cell_volume 2371.090088
_symmetry_space_group_name_H-M "P C C A"
_symmetry_group_IT_number 54
_symmetry_cell_setting 'orthorhombic'
loop_
_space_group_symop_operation_xyz
x,y,z
1/2-x,-y,z
1/2+x,-y,1/2-z
-x,y,1/2-z
-x,-y,-z
1/2+x,y,-z
1/2-x,y,1/2+z
x,-y,1/2+z
loop_
_atom_site_type_symbol
_atom_site_label
_atom_site_fract_x
_atom_site_fract_y
_atom_site_fract_z
Si Si1 0.000000 0.586591 0.250000
Si Si2 0.653417 0.173837 0.893002
Si Si3 0.408901 0.981761 0.678687
Si Si4 0.151009 0.546074 0.661247
Si Si5 0.634116 0.675106 0.566151
Si Si6 0.332208 0.708600 0.327493
Si Si7 0.343709 0.844588 0.512108
Si Si8 0.750000 0.000000 0.148246
O O1 0.929739 0.528139 0.330874
O O2 0.946426 0.649691 0.156483
O O3 0.618169 0.069599 0.901869
O O4 0.635574 0.212750 0.763116
O O5 0.603911 0.232291 0.997132
O O6 0.763137 0.187410 0.900946
O O7 0.500000 0.004247 0.750000
O O8 0.327861 0.955046 0.768587
O O9 0.423277 0.896239 0.587265
O O10 0.250000 0.500000 0.679742
O O11 0.151013 0.595706 0.533114
O O12 0.130561 0.613010 0.774590
O O13 0.724560 0.694741 0.644729
O O14 0.381088 0.751750 0.446220
O O15 0.293742 0.916844 0.424408
#
# Coordination Sequence:
#
# PCOD8223094 Si02
#       8
#     4   8   8   8   8   8   8   4
#     4  12  24  48  72 112 144 188 244 308 370 450
#     4  10  20  43  66  99 142 190 238 300 364 433
#     4  12  24  40  69 109 145 190 255 304 366 434
#     4  11  24  44  73 106 144 189 242 301 375 448
#     4  10  24  42  72 105 143 188 242 301 367 444
#     4  10  21  43  72 101 136 192 243 293 369 441
#     4  11  20  41  73  95 137 195 244 299 370 427
#     4  12  20  42  70  90 142 190 244 302 364 438
#
# _framework density 23.617830000000001
#
# number of rings (size 3 to 8) (size 9 to 14) (size 15 to 20)
#    0.000    1.143    5.714    0.429    2.000    0.571 
#    5.143    1.429   17.286    0.000    0.000    0.000 
#    0.000    0.000    0.000    0.000    0.000    0.000 
#
# Total GULP energy -693932.540889 kJ/mol
# GULP energy per Si atom -12391.652516 kJ/mol
# Density = 2.356407 g / cm^3
# Si number density = 23.617830 Si / 1000 Ang^3
#
#
#
# Elastic Constant Matrix: (Units=GPa)
#
#
# Indices 1 2 3 4 5 6 
#
# 1 59.3573 9.0186 22.0122 0.0000 0.0000 0.0000
# 2 9.0186 67.9212 27.4021 0.0000 0.0000 0.0000
# 3 22.0122 27.4021 76.7384 0.0000 0.0000 0.0000
# 4 0.0000 0.0000 0.0000 38.3891 0.0000 0.0000
# 5 0.0000 0.0000 0.0000 0.0000 30.4214 0.0000
# 6 0.0000 0.0000 0.0000 0.0000 0.0000 23.2775
#
#
#
# Elastic Compliance Matrix: (Units=1/GPa)
#
#
# Indices 1 2 3 4 5 6 
#
# 1 0.018861 -0.000376 -0.005276 0.000000 0.000000 0.000000
# 2 -0.000376 0.017208 -0.006037 0.000000 0.000000 0.000000
# 3 -0.005276 -0.006037 0.016700 0.000000 0.000000 0.000000
# 4 0.000000 0.000000 0.000000 0.026049 0.000000 0.000000
# 5 0.000000 0.000000 0.000000 0.000000 0.032872 0.000000
# 6 0.000000 0.000000 0.000000 0.000000 0.000000 0.042960
#
#
# Mechanical properties :
#
#
# Convention : Reuss Voigt Hill
#
# Bulk Modulus (GPa) = 34.02289 35.65361 34.83825
# Shear Modulus (GPa) = 26.62050 28.12321 27.37185
#
# Velocity S-wave (km/s) = 3.36093 3.45449 3.40803
# Velocity P-wave (km/s) = 5.43120 5.57137 5.50173
#
# Compressibility (1/GPa) = 0.02939198
#
# Stress axis : x y z
#
# Youngs Moduli (GPa) = 53.02008 58.11104 59.87875
#
# Poissons Ratio (x) = 0.02184 0.31592
# Poissons Ratio (y) = 0.01993 0.36149
# Poissons Ratio (z) = 0.27973 0.35082
#
# Static dielectric constant tensor:
#      x y z
#    x 3.909660 0.000000 0.000000 
#    y 0.000000 4.575540 0.000000 
#    z 0.000000 0.000000 4.527610 
# 
# 
# High freq. dielectric constant tensor:
#      x y z
#    x 1.908990 0.000000 0.000000 
#    y 0.000000 1.942320 0.000000 
#    z 0.000000 0.000000 1.952230 
# 
# From -- ./inp_files/8487.got.cif
#   From: 2010.03.12/outbox.cif.g09.slc.cpg/sg54_5_cif.got.tgz:8487.got - 2010.04.16 15:00:50.
