data_PCOD8223560
_publ_section_title
;
Structure prediction by ZEFSAII (Michael W. Deem and Ramdas Pophale) SiO2 
 PCOD8223560
Probable space group: P C C A
;
_chemical_formula_sum "Si O2"
_cell_formula_units_Z 40
_cell_length_a 13.549676
_cell_length_b 6.807890
_cell_length_c 21.597683
_cell_angle_alpha 90.000000
_cell_angle_beta 90.000000
_cell_angle_gamma 90.000000
_cell_volume 1992.271870
_symmetry_space_group_name_H-M "P C C A"
_symmetry_group_IT_number 54
_symmetry_cell_setting 'orthorhombic'
loop_
_space_group_symop_operation_xyz
x,y,z
1/2-x,-y,z
1/2+x,-y,1/2-z
-x,y,1/2-z
-x,-y,-z
1/2+x,y,-z
1/2-x,y,1/2+z
x,-y,1/2+z
loop_
_atom_site_type_symbol
_atom_site_label
_atom_site_fract_x
_atom_site_fract_y
_atom_site_fract_z
Si Si1 0.360939 0.515275 0.547685
Si Si2 0.500000 0.946822 0.750000
Si Si3 0.484575 0.800762 0.463303
Si Si4 0.083257 0.598428 0.182310
Si Si5 0.584201 0.736146 0.170445
Si Si6 0.750000 0.500000 0.220666
O O1 0.250000 0.500000 0.524280
O O2 0.415489 0.660103 0.502182
O O3 0.408840 0.299349 0.545880
O O4 0.363080 0.602286 0.616728
O O5 0.537543 0.813379 0.806795
O O6 0.417776 0.090442 0.778932
O O7 0.433431 0.831068 0.396846
O O8 0.500000 0.000000 0.500000
O O9 0.163339 0.581283 0.236343
O O10 0.998297 0.431950 0.184859
O O11 0.696133 0.654567 0.175010
#
# Coordination Sequence:
#
# PCOD8223560 Si02
#       6
#     8   4   8   8   8   4
#     4  10  22  41  68  90 119 173 210 259 321 379
#     4  12  20  40  60  92 128 166 210 260 324 376
#     4  10  23  44  63  93 131 165 217 269 316 379
#     4  11  22  41  63  90 132 161 214 266 318 387
#     4  11  24  41  63  94 134 170 210 271 326 388
#     4  12  20  42  60  96 130 166 208 268 334 386
#
# _framework density 20.077582
#
# number of rings (size 3 to 8) (size 9 to 14) (size 15 to 20)
#    0.000    1.200    5.000    1.200    1.400    1.600 
#    0.000    4.000    0.000    0.000    0.000    0.000 
#    0.000    0.000    0.000    0.000    0.000    0.000 
#
# Total GULP energy -495844.907792 kJ/mol
# GULP energy per Si atom -12396.122695 kJ/mol
# Density = 2.003188 g / cm^3
# Si number density = 20.077582 Si / 1000 Ang^3
#
#
#
# Elastic Constant Matrix: (Units=GPa)
#
#
# Indices 1 2 3 4 5 6 
#
# 1 110.6804 34.4494 37.4485 0.0000 0.0000 0.0000
# 2 34.4494 118.7370 48.8158 0.0000 0.0000 0.0000
# 3 37.4485 48.8158 117.9131 0.0000 0.0000 0.0000
# 4 0.0000 0.0000 0.0000 40.0089 0.0000 0.0000
# 5 0.0000 0.0000 0.0000 0.0000 23.4751 0.0000
# 6 0.0000 0.0000 0.0000 0.0000 0.0000 22.1696
#
#
#
# Elastic Compliance Matrix: (Units=1/GPa)
#
#
# Indices 1 2 3 4 5 6 
#
# 1 0.010510 -0.002021 -0.002501 0.000000 0.000000 0.000000
# 2 -0.002021 0.010538 -0.003721 0.000000 0.000000 0.000000
# 3 -0.002501 -0.003721 0.010816 0.000000 0.000000 0.000000
# 4 0.000000 0.000000 0.000000 0.024994 0.000000 0.000000
# 5 0.000000 0.000000 0.000000 0.000000 0.042598 0.000000
# 6 0.000000 0.000000 0.000000 0.000000 0.000000 0.045107
#
#
# Mechanical properties :
#
#
# Convention : Reuss Voigt Hill
#
# Bulk Modulus (GPa) = 65.02944 65.41754 65.22349
# Shear Modulus (GPa) = 30.08855 32.23850 31.16353
#
# Velocity S-wave (km/s) = 3.87539 4.01146 3.94401
# Velocity P-wave (km/s) = 7.24460 7.35587 7.30045
#
# Compressibility (1/GPa) = 0.01537765
#
# Stress axis : x y z
#
# Youngs Moduli (GPa) = 95.14386 94.89385 92.45845
#
# Poissons Ratio (x) = 0.19178 0.23127
# Poissons Ratio (y) = 0.19229 0.34403
# Poissons Ratio (z) = 0.23799 0.35309
#
# Static dielectric constant tensor:
#      x y z
#    x 3.727960 0.000000 0.000000 
#    y 0.000000 -9.718810 0.000000 
#    z 0.000000 0.000000 4.029530 
# 
# 
# High freq. dielectric constant tensor:
#      x y z
#    x 1.778820 0.000000 0.000000 
#    y 0.000000 1.779390 0.000000 
#    z 0.000000 0.000000 1.800670 
# 
# From -- ./inp_files/24355.got.cif
#   From: 2010.03.12/outbox.cif.g09.slc.cpg/sg54_13_cif.got.tgz:24355.got - 2010.04.16 15:00:50.
