data_PCOD8223580
_publ_section_title
;
Structure prediction by ZEFSAII (Michael W. Deem and Ramdas Pophale) SiO2 
 PCOD8223580
Probable space group: P C C A
;
_chemical_formula_sum "Si O2"
_cell_formula_units_Z 40
_cell_length_a 5.473431
_cell_length_b 16.595789
_cell_length_c 18.857822
_cell_angle_alpha 90.000000
_cell_angle_beta 90.000000
_cell_angle_gamma 90.000000
_cell_volume 1712.967346
_symmetry_space_group_name_H-M "P C C A"
_symmetry_group_IT_number 54
_symmetry_cell_setting 'orthorhombic'
loop_
_space_group_symop_operation_xyz
x,y,z
1/2-x,-y,z
1/2+x,-y,1/2-z
-x,y,1/2-z
-x,-y,-z
1/2+x,y,-z
1/2-x,y,1/2+z
x,-y,1/2+z
loop_
_atom_site_type_symbol
_atom_site_label
_atom_site_fract_x
_atom_site_fract_y
_atom_site_fract_z
Si Si1 0.500000 0.286895 0.250000
Si Si2 0.250000 0.000000 0.294486
Si Si3 0.904553 0.592211 0.967674
Si Si4 0.139849 0.830843 0.822196
Si Si5 0.825012 0.587485 0.808933
Si Si6 0.431961 0.779974 0.033467
O O1 0.652557 0.233308 0.195417
O O2 0.385113 0.345585 0.190028
O O3 0.258914 0.919468 0.343868
O O4 0.500000 0.008577 0.250000
O O5 0.951167 0.577196 0.884864
O O6 0.907674 0.686288 0.984959
O O7 0.637001 0.554285 0.989408
O O8 0.960602 0.795944 0.882572
O O9 0.000000 0.845808 0.750000
O O10 0.750000 0.500000 0.780237
O O11 0.000000 0.626066 0.750000
O O12 0.174179 0.817765 0.005475
#
# Coordination Sequence:
#
# PCOD8223580 Si02
#       6
#     4   4   8   8   8   8
#     4  12  24  42  72 100 130 182 242 274 358 410
#     4  10  22  42  66 106 142 174 224 298 340 398
#     4  10  24  43  69  97 132 181 234 283 343 411
#     4  11  24  42  72 103 135 180 236 282 344 417
#     4  12  27  45  67  99 140 180 232 296 351 407
#     4  10  23  40  65  99 140 177 228 282 344 409
#
# _framework density 23.351292999999998
#
# number of rings (size 3 to 8) (size 9 to 14) (size 15 to 20)
#    0.000    1.200    2.000    3.000   14.000    0.800 
#    0.000    1.000    0.000    0.000    0.000    0.000 
#    0.000    0.000    0.000    0.000    0.000    0.000 
#
# Total GULP energy -495792.798292 kJ/mol
# GULP energy per Si atom -12394.819957 kJ/mol
# Density = 2.329814 g / cm^3
# Si number density = 23.351293 Si / 1000 Ang^3
#
#
#
# Elastic Constant Matrix: (Units=GPa)
#
#
# Indices 1 2 3 4 5 6 
#
# 1 154.9097 47.7895 58.2122 0.0000 0.0000 0.0000
# 2 47.7895 113.2911 0.9300 0.0000 0.0000 0.0000
# 3 58.2122 0.9300 133.6826 0.0000 0.0000 0.0000
# 4 0.0000 0.0000 0.0000 14.1122 0.0000 0.0000
# 5 0.0000 0.0000 0.0000 0.0000 39.3149 0.0000
# 6 0.0000 0.0000 0.0000 0.0000 0.0000 26.2543
#
#
#
# Elastic Compliance Matrix: (Units=1/GPa)
#
#
# Indices 1 2 3 4 5 6 
#
# 1 0.009112 -0.003812 -0.003941 0.000000 0.000000 0.000000
# 2 -0.003812 0.010422 0.001587 0.000000 0.000000 0.000000
# 3 -0.003941 0.001587 0.009186 0.000000 0.000000 0.000000
# 4 0.000000 0.000000 0.000000 0.070861 0.000000 0.000000
# 5 0.000000 0.000000 0.000000 0.000000 0.025436 0.000000
# 6 0.000000 0.000000 0.000000 0.000000 0.000000 0.038089
#
#
# Mechanical properties :
#
#
# Convention : Reuss Voigt Hill
#
# Bulk Modulus (GPa) = 61.01976 68.41631 64.71804
# Shear Modulus (GPa) = 27.63974 35.59974 31.61974
#
# Velocity S-wave (km/s) = 3.44415 3.90876 3.68379
# Velocity P-wave (km/s) = 6.48106 7.05220 6.77266
#
# Compressibility (1/GPa) = 0.01638813
#
# Stress axis : x y z
#
# Youngs Moduli (GPa) = 109.74123 95.95460 108.86513
#
# Poissons Ratio (x) = 0.36573 0.42909
# Poissons Ratio (y) = 0.41828 -0.17279
# Poissons Ratio (z) = 0.43254 -0.15230
#
# Static dielectric constant tensor:
#      x y z
#    x 4.706950 0.000000 0.000000 
#    y 0.000000 4.561710 0.000000 
#    z 0.000000 0.000000 3.864050 
# 
# 
# High freq. dielectric constant tensor:
#      x y z
#    x 1.936160 0.000000 0.000000 
#    y 0.000000 1.936060 0.000000 
#    z 0.000000 0.000000 1.901430 
# 
# From -- ./inp_files/15804.got.cif
#   From: 2010.03.12/outbox.cif.g09.slc.cpg/sg54_8_cif.got.tgz:15804.got - 2010.04.16 15:00:50.
