data_PCOD8223599
_publ_section_title
;
Structure prediction by ZEFSAII (Michael W. Deem and Ramdas Pophale) SiO2 
 PCOD8223599
Probable space group: P C C A
;
_chemical_formula_sum "Si O2"
_cell_formula_units_Z 60
_cell_length_a 8.941591
_cell_length_b 26.033411
_cell_length_c 11.432372
_cell_angle_alpha 90.000000
_cell_angle_beta 90.000000
_cell_angle_gamma 90.000000
_cell_volume 2661.228852
_symmetry_space_group_name_H-M "P C C A"
_symmetry_group_IT_number 54
_symmetry_cell_setting 'orthorhombic'
loop_
_space_group_symop_operation_xyz
x,y,z
1/2-x,-y,z
1/2+x,-y,1/2-z
-x,y,1/2-z
-x,-y,-z
1/2+x,y,-z
1/2-x,y,1/2+z
x,-y,1/2+z
loop_
_atom_site_type_symbol
_atom_site_label
_atom_site_fract_x
_atom_site_fract_y
_atom_site_fract_z
Si Si1 0.002909 0.864735 0.379599
Si Si2 0.164507 0.282420 0.447607
Si Si3 0.892780 0.436366 0.907642
Si Si4 0.500000 0.219678 0.750000
Si Si5 0.954473 0.665839 0.127830
Si Si6 0.790204 0.184317 0.438654
Si Si7 0.065395 0.550200 0.634424
Si Si8 0.423577 0.982837 0.875802
O O1 0.835989 0.859826 0.431569
O O2 0.000000 0.841753 0.250000
O O3 0.109162 0.827549 0.450433
O O4 0.066080 0.921873 0.380172
O O5 0.281695 0.323468 0.397566
O O6 0.230119 0.241486 0.539849
O O7 0.090868 0.254369 0.338831
O O8 0.042179 0.314333 0.515817
O O9 0.717523 0.419814 0.902140
O O10 0.906655 0.489961 0.839294
O O11 0.005813 0.394218 0.854919
O O12 0.933374 0.444826 0.041904
O O13 0.386296 0.182611 0.680346
O O14 0.000000 0.693652 0.250000
O O15 0.000000 0.576871 0.750000
O O16 0.500000 0.001590 0.750000
O O17 0.250000 0.000000 0.874315
O O18 0.500000 0.000000 0.000000
#
# Coordination Sequence:
#
# PCOD8223599 Si02
#       8
#     8   8   8   4   8   8   8   8
#     4  11  25  43  70 104 142 179 241 289 347 412
#     4  12  25  45  68  98 136 182 225 281 347 409
#     4  10  23  42  65 100 129 172 226 268 339 410
#     4  12  24  44  72 100 142 182 234 288 352 414
#     4  12  26  44  67  96 135 180 223 279 333 415
#     4  12  23  45  69 102 136 183 231 290 351 406
#     4  10  22  42  69  95 133 170 214 281 338 401
#     4  11  24  46  72 106 150 196 243 299 364 432
#
# _framework density 22.545974999999999
#
# number of rings (size 3 to 8) (size 9 to 14) (size 15 to 20)
#    0.000    0.800    2.667    4.000    0.000    8.533 
#    2.400    0.000    0.000    0.000    0.000    0.000 
#    0.000    0.000    0.000    0.000    0.000    0.000 
#
# Total GULP energy -743809.225255 kJ/mol
# GULP energy per Si atom -12396.820421 kJ/mol
# Density = 2.249466 g / cm^3
# Si number density = 22.545975 Si / 1000 Ang^3
#
#
#
# Elastic Constant Matrix: (Units=GPa)
#
#
# Indices 1 2 3 4 5 6 
#
# 1 157.4684 31.8386 49.4656 0.0000 0.0000 0.0000
# 2 31.8386 73.3793 6.8107 0.0000 0.0000 0.0000
# 3 49.4656 6.8107 134.7155 0.0000 0.0000 0.0000
# 4 0.0000 0.0000 0.0000 28.1706 0.0000 0.0000
# 5 0.0000 0.0000 0.0000 0.0000 40.2912 0.0000
# 6 0.0000 0.0000 0.0000 0.0000 0.0000 41.6400
#
#
#
# Elastic Compliance Matrix: (Units=1/GPa)
#
#
# Indices 1 2 3 4 5 6 
#
# 1 0.007842 -0.003150 -0.002720 0.000000 0.000000 0.000000
# 2 -0.003150 0.014957 0.000400 0.000000 0.000000 0.000000
# 3 -0.002720 0.000400 0.008402 0.000000 0.000000 0.000000
# 4 0.000000 0.000000 0.000000 0.035498 0.000000 0.000000
# 5 0.000000 0.000000 0.000000 0.000000 0.024819 0.000000
# 6 0.000000 0.000000 0.000000 0.000000 0.000000 0.024015
#
#
# Mechanical properties :
#
#
# Convention : Reuss Voigt Hill
#
# Bulk Modulus (GPa) = 49.35491 60.19924 54.77708
# Shear Modulus (GPa) = 37.52995 40.51691 39.02343
#
# Velocity S-wave (km/s) = 4.08437 4.24380 4.16485
# Velocity P-wave (km/s) = 6.64689 7.12543 6.89031
#
# Compressibility (1/GPa) = 0.02026141
#
# Stress axis : x y z
#
# Youngs Moduli (GPa) = 127.52040 66.85636 119.02471
#
# Poissons Ratio (x) = 0.21060 0.32377
# Poissons Ratio (y) = 0.40170 -0.04766
# Poissons Ratio (z) = 0.34688 -0.02677
#
# Static dielectric constant tensor:
#      x y z
#    x 4.304120 0.000000 0.000000 
#    y 0.000000 3.972150 0.000000 
#    z 0.000000 0.000000 4.380120 
# 
# 
# High freq. dielectric constant tensor:
#      x y z
#    x 1.902400 0.000000 0.000000 
#    y 0.000000 1.870970 0.000000 
#    z 0.000000 0.000000 1.911020 
# 
# From -- ./inp_files/7005.got.cif
#   From: 2010.03.12/outbox.cif.g09.slc.cpg/sg54_4_cif.got.tgz:7005.got - 2010.04.16 15:00:50.
