data_PCOD8223188
_publ_section_title
;
Structure prediction by ZEFSAII (Michael W. Deem and Ramdas Pophale) SiO2 
 PCOD8223188
Probable space group: P C C A
;
_chemical_formula_sum "Si O2"
_cell_formula_units_Z 48
_cell_length_a 14.180485
_cell_length_b 16.570123
_cell_length_c 10.285398
_cell_angle_alpha 90.000000
_cell_angle_beta 90.000000
_cell_angle_gamma 90.000000
_cell_volume 2416.784454
_symmetry_space_group_name_H-M "P C C A"
_symmetry_group_IT_number 54
_symmetry_cell_setting 'orthorhombic'
loop_
_space_group_symop_operation_xyz
x,y,z
1/2-x,-y,z
1/2+x,-y,1/2-z
-x,y,1/2-z
-x,-y,-z
1/2+x,y,-z
1/2-x,y,1/2+z
x,-y,1/2+z
loop_
_atom_site_type_symbol
_atom_site_label
_atom_site_fract_x
_atom_site_fract_y
_atom_site_fract_z
Si Si1 0.328075 0.834668 0.397070
Si Si2 0.500261 0.388837 0.392853
Si Si3 0.221425 0.906471 0.634477
Si Si4 0.488102 0.065280 0.608774
Si Si5 0.575216 0.674974 0.136546
Si Si6 0.641965 0.484080 0.537309
O O1 0.281187 0.851235 0.536623
O O2 0.265521 0.876774 0.283583
O O3 0.434658 0.865862 0.403674
O O4 0.339856 0.740061 0.365083
O O5 0.500000 0.349537 0.250000
O O6 0.516505 0.319112 0.500310
O O7 0.584319 0.456171 0.407581
O O8 0.399721 0.431698 0.412753
O O9 0.113352 0.893641 0.594162
O O10 0.250000 0.000000 0.622982
O O11 0.500000 0.022601 0.750000
O O12 0.500000 0.000000 0.500000
O O13 0.500000 0.689429 0.250000
O O14 0.625945 0.586924 0.145908
O O15 0.750000 0.500000 0.502342
#
# Coordination Sequence:
#
# PCOD8223188 Si02
#       6
#     8   8   8   8   8   8
#     4  11  24  43  61  95 126 170 207 267 325 371
#     4   9  20  40  63  93 125 164 212 256 309 370
#     4  11  22  40  67  92 127 161 216 263 311 390
#     4  10  21  37  62  88 119 162 205 250 317 374
#     4  10  21  44  63  86 133 173 203 265 324 371
#     4   9  20  38  66  95 123 166 210 253 309 383
#
# _framework density 19.861101000000001
#
# number of rings (size 3 to 8) (size 9 to 14) (size 15 to 20)
#    1.000    1.000    1.667    2.500    2.333    0.667 
#    9.000    0.833    0.000    0.000    0.000    0.000 
#    0.000    0.000    0.000    0.000    0.000    0.000 
#
# Total GULP energy -594843.202181 kJ/mol
# GULP energy per Si atom -12392.566712 kJ/mol
# Density = 1.981590 g / cm^3
# Si number density = 19.861101 Si / 1000 Ang^3
#
#
#
# Elastic Constant Matrix: (Units=GPa)
#
#
# Indices 1 2 3 4 5 6 
#
# 1 116.3798 16.2348 37.1571 0.0000 0.0000 0.0000
# 2 16.2348 57.9807 25.7259 0.0000 0.0000 0.0000
# 3 37.1571 25.7259 126.5437 0.0000 0.0000 0.0000
# 4 0.0000 0.0000 0.0000 21.5477 0.0000 0.0000
# 5 0.0000 0.0000 0.0000 0.0000 25.6432 0.0000
# 6 0.0000 0.0000 0.0000 0.0000 0.0000 14.0719
#
#
#
# Elastic Compliance Matrix: (Units=1/GPa)
#
#
# Indices 1 2 3 4 5 6 
#
# 1 0.009612 -0.001582 -0.002501 0.000000 0.000000 0.000000
# 2 -0.001582 0.019217 -0.003442 0.000000 0.000000 0.000000
# 3 -0.002501 -0.003442 0.009337 0.000000 0.000000 0.000000
# 4 0.000000 0.000000 0.000000 0.046409 0.000000 0.000000
# 5 0.000000 0.000000 0.000000 0.000000 0.038997 0.000000
# 6 0.000000 0.000000 0.000000 0.000000 0.000000 0.071064
#
#
# Mechanical properties :
#
#
# Convention : Reuss Voigt Hill
#
# Bulk Modulus (GPa) = 43.26031 51.01554 47.13792
# Shear Modulus (GPa) = 23.00019 27.03833 25.01926
#
# Velocity S-wave (km/s) = 3.40671 3.69368 3.55309
# Velocity P-wave (km/s) = 6.10761 6.62819 6.37322
#
# Compressibility (1/GPa) = 0.02311588
#
# Stress axis : x y z
#
# Youngs Moduli (GPa) = 104.04076 52.03621 107.10631
#
# Poissons Ratio (x) = 0.08231 0.26784
# Poissons Ratio (y) = 0.16457 0.36870
# Poissons Ratio (z) = 0.26018 0.17913
#
# Static dielectric constant tensor:
#      x y z
#    x 3.597830 0.000000 0.000000 
#    y 0.000000 3.383000 0.000000 
#    z 0.000000 0.000000 3.636690 
# 
# 
# High freq. dielectric constant tensor:
#      x y z
#    x 1.770340 0.000000 0.000000 
#    y 0.000000 1.752360 0.000000 
#    z 0.000000 0.000000 1.774530 
# 
# From -- ./inp_files/4287.got.cif
#   From: 2010.03.12/outbox.cif.g09.slc.cpg/sg54_3_cif.got.tgz:4287.got - 2010.04.16 15:00:50.
