data_PCOD8223947
_publ_section_title
;
Structure prediction by ZEFSAII (Michael W. Deem and Ramdas Pophale) SiO2 
 PCOD8223947
Probable space group: P C C A
;
_chemical_formula_sum "Si O2"
_cell_formula_units_Z 48
_cell_length_a 9.559466
_cell_length_b 14.260023
_cell_length_c 16.877458
_cell_angle_alpha 90.000000
_cell_angle_beta 90.000000
_cell_angle_gamma 90.000000
_cell_volume 2300.704780
_symmetry_space_group_name_H-M "P C C A"
_symmetry_group_IT_number 54
_symmetry_cell_setting 'orthorhombic'
loop_
_space_group_symop_operation_xyz
x,y,z
1/2-x,-y,z
1/2+x,-y,1/2-z
-x,y,1/2-z
-x,-y,-z
1/2+x,y,-z
1/2-x,y,1/2+z
x,-y,1/2+z
loop_
_atom_site_type_symbol
_atom_site_label
_atom_site_fract_x
_atom_site_fract_y
_atom_site_fract_z
Si Si1 0.255742 0.392711 0.844315
Si Si2 0.927663 0.093788 0.415110
Si Si3 0.019403 0.297618 0.926340
Si Si4 0.523922 0.290658 0.886216
Si Si5 0.208611 0.603611 0.164489
Si Si6 0.395238 0.106542 0.070677
O O1 0.250000 0.500000 0.875757
O O2 0.414295 0.354485 0.838315
O O3 0.184258 0.387534 0.758393
O O4 0.179574 0.321468 0.904973
O O5 0.982488 0.179993 0.360097
O O6 0.770446 0.122205 0.443071
O O7 0.036035 0.088515 0.486426
O O8 0.922612 0.988873 0.376476
O O9 0.933978 0.378738 0.882320
O O10 0.969245 0.197254 0.890103
O O11 0.996072 0.299841 0.020025
O O12 0.677701 0.323576 0.865369
O O13 0.250000 0.500000 0.139981
#
# Coordination Sequence:
#
# PCOD8223947 Si02
#       6
#     8   8   8   8   8   8
#     4  11  25  41  58  81 118 162 199 235 290 361
#     4   9  18  33  56  87 120 151 186 236 295 350
#     4  11  22  37  61  91 115 149 194 249 291 331
#     4  11  22  37  61  91 115 149 194 249 291 331
#     4  11  23  41  60  81 116 160 197 233 296 363
#     4   9  18  33  56  87 120 151 186 236 295 350
#
# _framework density 20.863171000000001
#
# number of rings (size 3 to 8) (size 9 to 14) (size 15 to 20)
#    0.000    1.667    1.667    3.000    7.000    6.667 
#    0.000    0.000    0.000    6.000    0.000    0.000 
#    0.000    0.000    0.000    0.000    0.000    0.000 
#
# Total GULP energy -594854.779249 kJ/mol
# GULP energy per Si atom -12392.807901 kJ/mol
# Density = 2.081569 g / cm^3
# Si number density = 20.863171 Si / 1000 Ang^3
#
#
#
# Elastic Constant Matrix: (Units=GPa)
#
#
# Indices 1 2 3 4 5 6 
#
# 1 68.7681 11.6283 -3.3601 0.0000 0.0000 0.0000
# 2 11.6283 141.9944 12.1406 0.0000 0.0000 0.0000
# 3 -3.3601 12.1406 39.2983 0.0000 0.0000 0.0000
# 4 0.0000 0.0000 0.0000 0.5421 0.0000 0.0000
# 5 0.0000 0.0000 0.0000 0.0000 28.4994 0.0000
# 6 0.0000 0.0000 0.0000 0.0000 0.0000 38.3935
#
#
#
# Elastic Compliance Matrix: (Units=1/GPa)
#
#
# Indices 1 2 3 4 5 6 
#
# 1 0.014854 -0.001361 0.001691 0.000000 0.000000 0.000000
# 2 -0.001361 0.007358 -0.002390 0.000000 0.000000 0.000000
# 3 0.001691 -0.002390 0.026329 0.000000 0.000000 0.000000
# 4 0.000000 0.000000 0.000000 1.844698 0.000000 0.000000
# 5 0.000000 0.000000 0.000000 0.000000 0.035089 0.000000
# 6 0.000000 0.000000 0.000000 0.000000 0.000000 0.026046
#
#
# Mechanical properties :
#
#
# Convention : Reuss Voigt Hill
#
# Bulk Modulus (GPa) = 22.51149 32.31981 27.41565
# Shear Modulus (GPa) = 2.53382 28.79713 15.66547
#
# Velocity S-wave (km/s) = 1.10324 3.71925 2.74317
# Velocity P-wave (km/s) = 3.52652 5.82827 4.81690
#
# Compressibility (1/GPa) = 0.04442176
#
# Stress axis : x y z
#
# Youngs Moduli (GPa) = 67.32027 135.90093 37.98063
#
# Poissons Ratio (x) = 0.18496 -0.06421
# Poissons Ratio (y) = 0.09162 0.09076
# Poissons Ratio (z) = -0.11381 0.32475
#
# Static dielectric constant tensor:
#      x y z
#    x 3.770890 0.000000 0.000000 
#    y 0.000000 4.625880 0.000000 
#    z 0.000000 0.000000 3.269250 
# 
# 
# High freq. dielectric constant tensor:
#      x y z
#    x 1.830520 0.000000 0.000000 
#    y 0.000000 1.845470 0.000000 
#    z 0.000000 0.000000 1.761710 
# 
# From -- ./inp_files/16644.got.cif
#   From: 2010.03.12/outbox.cif.g09.slc.cpg/sg54_9_cif.got.tgz:16644.got - 2010.04.16 15:00:50.
