data_PCOD8223981
_publ_section_title
;
Structure prediction by ZEFSAII (Michael W. Deem and Ramdas Pophale) SiO2 
 PCOD8223981
Probable space group: P C C A
;
_chemical_formula_sum "Si O2"
_cell_formula_units_Z 40
_cell_length_a 15.330527
_cell_length_b 7.675094
_cell_length_c 14.560030
_cell_angle_alpha 90.000000
_cell_angle_beta 90.000000
_cell_angle_gamma 90.000000
_cell_volume 1713.180243
_symmetry_space_group_name_H-M "P C C A"
_symmetry_group_IT_number 54
_symmetry_cell_setting 'orthorhombic'
loop_
_space_group_symop_operation_xyz
x,y,z
1/2-x,-y,z
1/2+x,-y,1/2-z
-x,y,1/2-z
-x,-y,-z
1/2+x,y,-z
1/2-x,y,1/2+z
x,-y,1/2+z
loop_
_atom_site_type_symbol
_atom_site_label
_atom_site_fract_x
_atom_site_fract_y
_atom_site_fract_z
Si Si1 0.699811 0.155142 0.209226
Si Si2 0.522210 0.037074 0.145131
Si Si3 0.885780 0.321803 0.882209
Si Si4 0.499661 0.350834 0.641323
Si Si5 0.183344 0.650707 0.928559
O O1 0.663452 0.292209 0.284697
O O2 0.779537 0.215170 0.145183
O O3 0.750000 0.000000 0.264212
O O4 0.624132 0.087348 0.139962
O O5 0.500000 0.020335 0.250000
O O6 0.496453 0.848623 0.100422
O O7 0.466209 0.191399 0.101614
O O8 0.920669 0.521987 0.889470
O O9 0.821774 0.279641 0.966693
O O10 0.500000 0.348348 0.750000
O O11 0.590641 0.427464 0.604450
O O12 0.250000 0.500000 0.929440
#
# Coordination Sequence:
#
# PCOD8223981 Si02
#       5
#     8   8   8   8   8
#     4  11  23  48  71 102 143 186 235 300 363 416
#     4   9  20  43  72  99 131 183 236 277 347 422
#     4  11  25  45  70 102 141 185 236 289 352 431
#     4  11  22  43  72  99 137 190 233 284 348 426
#     4  12  26  44  68 107 145 183 238 296 356 421
#
# _framework density 23.348392
#
# number of rings (size 3 to 8) (size 9 to 14) (size 15 to 20)
#    0.000    1.200    2.000    4.800    0.000    4.000 
#    3.600    0.000    0.000    0.000    0.000    0.000 
#    0.000    0.000    0.000    0.000    0.000    0.000 
#
# Total GULP energy -495567.055411 kJ/mol
# GULP energy per Si atom -12389.176385 kJ/mol
# Density = 2.329525 g / cm^3
# Si number density = 23.348392 Si / 1000 Ang^3
#
#
#
# Elastic Constant Matrix: (Units=GPa)
#
#
# Indices 1 2 3 4 5 6 
#
# 1 152.9154 52.5846 72.4071 0.0000 0.0000 0.0000
# 2 52.5846 116.5632 45.2967 0.0000 0.0000 0.0000
# 3 72.4071 45.2967 121.1881 0.0000 0.0000 0.0000
# 4 0.0000 0.0000 0.0000 26.2833 0.0000 0.0000
# 5 0.0000 0.0000 0.0000 0.0000 38.4798 0.0000
# 6 0.0000 0.0000 0.0000 0.0000 0.0000 8.3102
#
#
#
# Elastic Compliance Matrix: (Units=1/GPa)
#
#
# Indices 1 2 3 4 5 6 
#
# 1 0.009698 -0.002484 -0.004866 0.000000 0.000000 0.000000
# 2 -0.002484 0.010673 -0.002505 0.000000 0.000000 0.000000
# 3 -0.004866 -0.002505 0.012095 0.000000 0.000000 0.000000
# 4 0.000000 0.000000 0.000000 0.038047 0.000000 0.000000
# 5 0.000000 0.000000 0.000000 0.000000 0.025988 0.000000
# 6 0.000000 0.000000 0.000000 0.000000 0.000000 0.120335
#
#
# Mechanical properties :
#
#
# Convention : Reuss Voigt Hill
#
# Bulk Modulus (GPa) = 78.39329 81.24927 79.82128
# Shear Modulus (GPa) = 20.76436 29.30654 25.03545
#
# Velocity S-wave (km/s) = 2.98539 3.54670 3.27808
# Velocity P-wave (km/s) = 6.74772 7.18654 6.97058
#
# Compressibility (1/GPa) = 0.01275619
#
# Stress axis : x y z
#
# Youngs Moduli (GPa) = 103.11665 93.69279 82.67786
#
# Poissons Ratio (x) = 0.23274 0.40229
# Poissons Ratio (y) = 0.25615 0.20712
# Poissons Ratio (z) = 0.50173 0.23471
#
# Static dielectric constant tensor:
#      x y z
#    x 34.016720 0.000000 0.000000 
#    y 0.000000 4.628640 0.000000 
#    z 0.000000 0.000000 4.731490 
# 
# 
# High freq. dielectric constant tensor:
#      x y z
#    x 1.928990 0.000000 0.000000 
#    y 0.000000 1.930060 0.000000 
#    z 0.000000 0.000000 1.911650 
# 
# From -- ./inp_files/13230.got.cif
#   From: 2010.03.12/outbox.cif.g09.slc.cpg/sg54_7_cif.got.tgz:13230.got - 2010.04.16 15:00:50.
