data_PCOD8223482
_publ_section_title
;
Structure prediction by ZEFSAII (Michael W. Deem and Ramdas Pophale) SiO2 
 PCOD8223482
Probable space group: P C C A
;
_chemical_formula_sum "Si O2"
_cell_formula_units_Z 36
_cell_length_a 5.020276
_cell_length_b 16.760855
_cell_length_c 22.749056
_cell_angle_alpha 90.000000
_cell_angle_beta 90.000000
_cell_angle_gamma 90.000000
_cell_volume 1914.199255
_symmetry_space_group_name_H-M "P C C A"
_symmetry_group_IT_number 54
_symmetry_cell_setting 'orthorhombic'
loop_
_space_group_symop_operation_xyz
x,y,z
1/2-x,-y,z
1/2+x,-y,1/2-z
-x,y,1/2-z
-x,-y,-z
1/2+x,y,-z
1/2-x,y,1/2+z
x,-y,1/2+z
loop_
_atom_site_type_symbol
_atom_site_label
_atom_site_fract_x
_atom_site_fract_y
_atom_site_fract_z
Si Si1 0.000000 0.053628 0.250000
Si Si2 0.500356 0.547857 0.819987
Si Si3 0.725496 0.907186 0.036177
Si Si4 0.527503 0.728739 0.680348
Si Si5 0.526682 0.823076 0.351966
O O1 0.934788 0.105872 0.306412
O O2 0.750000 0.000000 0.233748
O O3 0.750000 0.500000 0.845450
O O4 0.500000 0.548147 0.750000
O O5 0.505215 0.638528 0.842514
O O6 0.250000 0.500000 0.845286
O O7 0.601066 0.857546 0.089075
O O8 0.750000 0.000000 0.053104
O O9 0.528816 0.885986 0.981488
O O10 0.500000 0.737640 0.750000
O O11 0.318702 0.782692 0.643307
O O12 0.829201 0.754645 0.669626
#
# Coordination Sequence:
#
# PCOD8223482 Si02
#       5
#     4   8   8   8   8
#     4  12  24  36  52  76 108 146 180 212 262 332
#     4   9  17  29  47  72 105 148 183 209 247 318
#     4  10  22  40  59  78 102 140 188 241 285 315
#     4  11  20  34  52  79 117 148 177 216 275 325
#     4  12  22  37  55  80 111 145 182 226 275 331
#
# _framework density 18.806819000000001
#
# number of rings (size 3 to 8) (size 9 to 14) (size 15 to 20)
#    0.000    1.333    2.222    4.667    0.000    6.222 
#    0.000    0.000    0.000    0.000    0.000    0.000 
#    0.000   62.222    0.000    0.000    0.000    0.000 
#
# Total GULP energy -446230.398167 kJ/mol
# GULP energy per Si atom -12395.288838 kJ/mol
# Density = 1.876401 g / cm^3
# Si number density = 18.806819 Si / 1000 Ang^3
#
#
#
# Elastic Constant Matrix: (Units=GPa)
#
#
# Indices 1 2 3 4 5 6 
#
# 1 108.2837 36.1299 -7.0292 0.0000 0.0000 0.0000
# 2 36.1299 111.9240 19.7944 0.0000 0.0000 0.0000
# 3 -7.0292 19.7944 43.3345 0.0000 0.0000 0.0000
# 4 0.0000 0.0000 0.0000 12.1426 0.0000 0.0000
# 5 0.0000 0.0000 0.0000 0.0000 18.6226 0.0000
# 6 0.0000 0.0000 0.0000 0.0000 0.0000 -28.3740
#
#
#
# Elastic Compliance Matrix: (Units=1/GPa)
#
#
# Indices 1 2 3 4 5 6 
#
# 1 0.010858 -0.004152 0.003658 0.000000 0.000000 0.000000
# 2 -0.004152 0.011307 -0.005838 0.000000 0.000000 0.000000
# 3 0.003658 -0.005838 0.026337 0.000000 0.000000 0.000000
# 4 0.000000 0.000000 0.000000 0.082355 0.000000 0.000000
# 5 0.000000 0.000000 0.000000 0.000000 0.053698 0.000000
# 6 0.000000 0.000000 0.000000 0.000000 0.000000 -0.035244
#
#
# Mechanical properties :
#
#
# Convention : Reuss Voigt Hill
#
# Bulk Modulus (GPa) = 27.90456 40.14805 34.02631
# Shear Modulus (GPa) = 28.74854 14.78805 21.76830
#
# Velocity S-wave (km/s) = 3.91400 2.80717 3.40585
# Velocity P-wave (km/s) = 5.94101 5.64809 5.79640
#
# Compressibility (1/GPa) = 0.03583643
#
# Stress axis : x y z
#
# Youngs Moduli (GPa) = 92.10019 88.43722 37.97006
#
# Poissons Ratio (x) = 0.36718 -0.13888
# Poissons Ratio (y) = 0.38239 0.22169
# Poissons Ratio (z) = -0.33687 0.51634
#
# Static dielectric constant tensor:
#      x y z
#    x 3.789070 0.000000 0.000000 
#    y 0.000000 3.567110 0.000000 
#    z 0.000000 0.000000 3.029590 
# 
# 
# High freq. dielectric constant tensor:
#      x y z
#    x 1.757480 0.000000 0.000000 
#    y 0.000000 1.734660 0.000000 
#    z 0.000000 0.000000 1.679310 
# 
# From -- ./inp_files/19598.got.cif
#   From: 2010.03.12/outbox.cif.g09.slc.cpg/sg54_10_cif.got.tgz:19598.got - 2010.04.16 15:00:50.
