data_PCOD8223339
_publ_section_title
;
Structure prediction by ZEFSAII (Michael W. Deem and Ramdas Pophale) SiO2 
 PCOD8223339
Probable space group: P C C A
;
_chemical_formula_sum "Si O2"
_cell_formula_units_Z 48
_cell_length_a 14.731275
_cell_length_b 16.764915
_cell_length_c 9.007113
_cell_angle_alpha 90.000000
_cell_angle_beta 90.000000
_cell_angle_gamma 90.000000
_cell_volume 2224.473846
_symmetry_space_group_name_H-M "P C C A"
_symmetry_group_IT_number 54
_symmetry_cell_setting 'orthorhombic'
loop_
_space_group_symop_operation_xyz
x,y,z
1/2-x,-y,z
1/2+x,-y,1/2-z
-x,y,1/2-z
-x,-y,-z
1/2+x,y,-z
1/2-x,y,1/2+z
x,-y,1/2+z
loop_
_atom_site_type_symbol
_atom_site_label
_atom_site_fract_x
_atom_site_fract_y
_atom_site_fract_z
Si Si1 0.091627 0.937517 0.337395
Si Si2 0.757645 0.305449 0.260528
Si Si3 0.169959 0.942662 0.028038
Si Si4 0.794980 0.193560 0.513079
Si Si5 0.090707 0.407986 0.671305
Si Si6 0.909068 0.570215 0.669558
O O1 0.120573 0.864880 0.447132
O O2 0.000000 0.916009 0.250000
O O3 0.084362 0.020446 0.434470
O O4 0.163398 0.947960 0.205039
O O5 0.806558 0.234386 0.352296
O O6 0.708141 0.267589 0.120932
O O7 0.673971 0.346803 0.345653
O O8 0.830322 0.368570 0.206878
O O9 0.198088 0.853377 0.981898
O O10 0.250000 0.000000 0.974334
O O11 0.120828 0.483576 0.770513
O O12 0.069027 0.436055 0.504767
O O13 0.000000 0.370748 0.750000
O O14 0.000000 0.599942 0.750000
#
# Coordination Sequence:
#
# PCOD8223339 Si02
#       6
#     8   8   8   8   8   8
#     4  11  23  41  66  96 127 169 223 274 329 394
#     4  12  25  44  68  96 136 179 221 272 349 405
#     4  10  21  41  66  88 124 170 215 264 320 397
#     4  11  24  43  64  94 133 171 219 268 339 401
#     4  11  25  43  72  97 134 176 229 281 331 401
#     4  11  25  44  67 101 130 177 230 281 332 399
#
# _framework density 21.578137000000002
#
# number of rings (size 3 to 8) (size 9 to 14) (size 15 to 20)
#    0.000    1.000    3.333    4.500    7.000    2.000 
#    3.000    0.000    0.000    0.000    0.000    0.000 
#    0.000    0.000    0.000    0.000    0.000    0.000 
#
# Total GULP energy -594911.888408 kJ/mol
# GULP energy per Si atom -12393.997675 kJ/mol
# Density = 2.152902 g / cm^3
# Si number density = 21.578137 Si / 1000 Ang^3
#
#
#
# Elastic Constant Matrix: (Units=GPa)
#
#
# Indices 1 2 3 4 5 6 
#
# 1 59.5429 28.5459 34.0591 0.0000 0.0000 0.0000
# 2 28.5459 78.2899 24.8835 0.0000 0.0000 0.0000
# 3 34.0591 24.8835 99.1277 0.0000 0.0000 0.0000
# 4 0.0000 0.0000 0.0000 35.2881 0.0000 0.0000
# 5 0.0000 0.0000 0.0000 0.0000 23.5449 0.0000
# 6 0.0000 0.0000 0.0000 0.0000 0.0000 25.7650
#
#
#
# Elastic Compliance Matrix: (Units=1/GPa)
#
#
# Indices 1 2 3 4 5 6 
#
# 1 0.023646 -0.006563 -0.006477 0.000000 0.000000 0.000000
# 2 -0.006563 0.015702 -0.001687 0.000000 0.000000 0.000000
# 3 -0.006477 -0.001687 0.012737 0.000000 0.000000 0.000000
# 4 0.000000 0.000000 0.000000 0.028338 0.000000 0.000000
# 5 0.000000 0.000000 0.000000 0.000000 0.042472 0.000000
# 6 0.000000 0.000000 0.000000 0.000000 0.000000 0.038812
#
#
# Mechanical properties :
#
#
# Convention : Reuss Voigt Hill
#
# Bulk Modulus (GPa) = 44.18622 45.77085 44.97853
# Shear Modulus (GPa) = 25.16296 26.88438 26.02367
#
# Velocity S-wave (km/s) = 3.41857 3.53357 3.47655
# Velocity P-wave (km/s) = 6.00866 6.15678 6.08317
#
# Compressibility (1/GPa) = 0.02263149
#
# Stress axis : x y z
#
# Youngs Moduli (GPa) = 42.29049 63.68554 78.51274
#
# Poissons Ratio (x) = 0.41798 0.50852
# Poissons Ratio (y) = 0.27756 0.13242
# Poissons Ratio (z) = 0.27391 0.10741
#
# Static dielectric constant tensor:
#      x y z
#    x 3.828950 0.000000 0.000000 
#    y 0.000000 3.931940 0.000000 
#    z 0.000000 0.000000 4.050020 
# 
# 
# High freq. dielectric constant tensor:
#      x y z
#    x 1.832980 0.000000 0.000000 
#    y 0.000000 1.844300 0.000000 
#    z 0.000000 0.000000 1.867800 
# 
# From -- ./inp_files/3562.got.cif
#   From: 2010.03.12/outbox.cif.g09.slc.cpg/sg54_2_cif.got.tgz:3562.got - 2010.04.16 15:00:50.
