data_PCOD8223322
_publ_section_title
;
Structure prediction by ZEFSAII (Michael W. Deem and Ramdas Pophale) SiO2 
 PCOD8223322
Probable space group: P C C A
;
_chemical_formula_sum "Si O2"
_cell_formula_units_Z 40
_cell_length_a 29.151836
_cell_length_b 4.935053
_cell_length_c 13.279829
_cell_angle_alpha 90.000000
_cell_angle_beta 90.000000
_cell_angle_gamma 90.000000
_cell_volume 1910.513963
_symmetry_space_group_name_H-M "P C C A"
_symmetry_group_IT_number 54
_symmetry_cell_setting 'orthorhombic'
loop_
_space_group_symop_operation_xyz
x,y,z
1/2-x,-y,z
1/2+x,-y,1/2-z
-x,y,1/2-z
-x,-y,-z
1/2+x,y,-z
1/2-x,y,1/2+z
x,-y,1/2+z
loop_
_atom_site_type_symbol
_atom_site_label
_atom_site_fract_x
_atom_site_fract_y
_atom_site_fract_z
Si Si1 0.302046 0.426677 0.920047
Si Si2 0.157104 0.094483 0.019661
Si Si3 0.781327 0.745023 0.796957
Si Si4 0.945632 0.258258 0.456358
Si Si5 0.988874 0.749118 0.366351
O O1 0.250000 0.500000 0.950881
O O2 0.306909 0.333140 0.805676
O O3 0.330319 0.703794 0.928956
O O4 0.324445 0.204553 0.994114
O O5 0.180393 0.192544 0.121941
O O6 0.103143 0.112430 0.035318
O O7 0.750000 0.500000 0.837183
O O8 0.750000 0.000000 0.772397
O O9 0.947150 0.545779 0.397584
O O10 0.965735 0.315347 0.567794
O O11 0.976392 0.058118 0.389501
O O12 0.000000 0.711149 0.250000
#
# Coordination Sequence:
#
# PCOD8223322 Si02
#       5
#     8   8   8   8   8
#     4  11  23  39  58  83 116 157 196 234 290 348
#     4  12  23  38  61  87 119 151 194 252 293 336
#     4  11  23  38  57  82 113 153 197 235 283 346
#     4  10  23  38  59  93 115 147 202 238 289 366
#     4  10  21  41  63  83 120 158 187 239 302 358
#
# _framework density 20.936775999999998
#
# number of rings (size 3 to 8) (size 9 to 14) (size 15 to 20)
#    0.000    1.200    0.000    7.800    0.000    3.200 
#    0.000    0.000    0.000    0.000    0.000    0.000 
#    0.000    0.000    0.000    0.000    0.000    0.000 
#
# Total GULP energy -496060.566929 kJ/mol
# GULP energy per Si atom -12401.514173 kJ/mol
# Density = 2.088912 g / cm^3
# Si number density = 20.936776 Si / 1000 Ang^3
#
#
#
# Elastic Constant Matrix: (Units=GPa)
#
#
# Indices 1 2 3 4 5 6 
#
# 1 92.0920 6.9813 39.6417 0.0000 0.0000 0.0000
# 2 6.9813 85.2794 15.4448 0.0000 0.0000 0.0000
# 3 39.6417 15.4448 127.9890 0.0000 0.0000 0.0000
# 4 0.0000 0.0000 0.0000 795.8956 0.0000 0.0000
# 5 0.0000 0.0000 0.0000 0.0000 7.9806 0.0000
# 6 0.0000 0.0000 0.0000 0.0000 0.0000 35.4621
#
#
#
# Elastic Compliance Matrix: (Units=1/GPa)
#
#
# Indices 1 2 3 4 5 6 
#
# 1 0.012538 -0.000330 -0.003844 0.000000 0.000000 0.000000
# 2 -0.000330 0.011997 -0.001345 0.000000 0.000000 0.000000
# 3 -0.003844 -0.001345 0.009166 0.000000 0.000000 0.000000
# 4 0.000000 0.000000 0.000000 0.001256 0.000000 0.000000
# 5 0.000000 0.000000 0.000000 0.000000 0.125304 0.000000
# 6 0.000000 0.000000 0.000000 0.000000 0.000000 0.028199
#
#
# Mechanical properties :
#
#
# Convention : Reuss Voigt Hill
#
# Bulk Modulus (GPa) = 44.12571 47.72177 45.92374
# Shear Modulus (GPa) = 24.14831 184.08715 104.11773
#
# Velocity S-wave (km/s) = 3.39985 9.38702 7.05957
# Velocity P-wave (km/s) = 6.04429 11.84614 9.40384
#
# Compressibility (1/GPa) = 0.02266253
#
# Stress axis : x y z
#
# Youngs Moduli (GPa) = 79.75591 83.35510 109.09896
#
# Poissons Ratio (x) = 0.02753 0.41933
# Poissons Ratio (y) = 0.02634 0.14678
# Poissons Ratio (z) = 0.30655 0.11214
#
# Static dielectric constant tensor:
#      x y z
#    x 3.624570 0.000000 0.000000 
#    y 0.000000 4.164990 0.000000 
#    z 0.000000 0.000000 3.714690 
# 
# 
# High freq. dielectric constant tensor:
#      x y z
#    x 1.801000 0.000000 0.000000 
#    y 0.000000 1.844730 0.000000 
#    z 0.000000 0.000000 1.825570 
# 
# From -- ./inp_files/10424.got.cif
#   From: 2010.03.12/outbox.cif.g09.slc.cpg/sg54_6_cif.got.tgz:10424.got - 2010.04.16 15:00:50.
