data_PCOD8223744
_publ_section_title
;
Structure prediction by ZEFSAII (Michael W. Deem and Ramdas Pophale) SiO2 
 PCOD8223744
Probable space group: P C C A
;
_chemical_formula_sum "Si O2"
_cell_formula_units_Z 48
_cell_length_a 25.973393
_cell_length_b 5.596569
_cell_length_c 13.790319
_cell_angle_alpha 90.000000
_cell_angle_beta 90.000000
_cell_angle_gamma 90.000000
_cell_volume 2004.586780
_symmetry_space_group_name_H-M "P C C A"
_symmetry_group_IT_number 54
_symmetry_cell_setting 'orthorhombic'
loop_
_space_group_symop_operation_xyz
x,y,z
1/2-x,-y,z
1/2+x,-y,1/2-z
-x,y,1/2-z
-x,-y,-z
1/2+x,y,-z
1/2-x,y,1/2+z
x,-y,1/2+z
loop_
_atom_site_type_symbol
_atom_site_label
_atom_site_fract_x
_atom_site_fract_y
_atom_site_fract_z
Si Si1 0.861694 0.063054 0.129468
Si Si2 0.531853 0.753568 0.103585
Si Si3 0.803261 0.625945 0.763580
Si Si4 0.877914 0.759168 0.306547
Si Si5 0.510597 0.742657 0.886693
Si Si6 0.692475 0.057224 0.943178
O O1 0.906268 0.239524 0.090058
O O2 0.810939 0.182598 0.177447
O O3 0.890441 0.929022 0.216561
O O4 0.841582 0.898829 0.040163
O O5 0.517972 0.497932 0.156365
O O6 0.511477 0.002610 0.154982
O O7 0.502042 0.745629 0.001590
O O8 0.750000 0.500000 0.738622
O O9 0.854601 0.471285 0.754930
O O10 0.803573 0.714267 0.874371
O O11 0.929580 0.710171 0.364028
O O12 0.833582 0.848746 0.379994
O O13 0.750000 0.000000 0.976604
#
# Coordination Sequence:
#
# PCOD8223744 Si02
#       6
#     8   8   8   8   8   8
#     4  11  27  44  72 107 144 188 248 300 365 446
#     4  10  23  45  72 108 140 192 251 297 367 450
#     4  11  26  47  71 103 144 184 242 303 367 438
#     4  11  25  46  69 104 145 188 237 306 360 434
#     4  10  23  44  74 101 147 193 241 305 369 439
#     4  11  24  46  72 100 143 192 236 297 371 438
#
# _framework density 23.945084999999999
#
# number of rings (size 3 to 8) (size 9 to 14) (size 15 to 20)
#    0.000    1.333    3.333    0.000    9.333    3.333 
#    0.000    0.000    0.000    0.000    0.000    0.000 
#    0.000    0.000    0.000    0.000    0.000    0.000 
#
# Total GULP energy -594660.159642 kJ/mol
# GULP energy per Si atom -12388.753326 kJ/mol
# Density = 2.389058 g / cm^3
# Si number density = 23.945085 Si / 1000 Ang^3
#
#
#
# Elastic Constant Matrix: (Units=GPa)
#
#
# Indices 1 2 3 4 5 6 
#
# 1 129.3777 40.8535 24.2958 0.0000 0.0000 0.0000
# 2 40.8535 136.0665 7.0669 0.0000 0.0000 0.0000
# 3 24.2958 7.0669 84.6045 0.0000 0.0000 0.0000
# 4 0.0000 0.0000 0.0000 13.9168 0.0000 0.0000
# 5 0.0000 0.0000 0.0000 0.0000 55.1499 0.0000
# 6 0.0000 0.0000 0.0000 0.0000 0.0000 39.8700
#
#
#
# Elastic Compliance Matrix: (Units=1/GPa)
#
#
# Indices 1 2 3 4 5 6 
#
# 1 0.008987 -0.002575 -0.002366 0.000000 0.000000 0.000000
# 2 -0.002575 0.008119 0.000061 0.000000 0.000000 0.000000
# 3 -0.002366 0.000061 0.012494 0.000000 0.000000 0.000000
# 4 0.000000 0.000000 0.000000 0.071856 0.000000 0.000000
# 5 0.000000 0.000000 0.000000 0.000000 0.018132 0.000000
# 6 0.000000 0.000000 0.000000 0.000000 0.000000 0.025082
#
#
# Mechanical properties :
#
#
# Convention : Reuss Voigt Hill
#
# Bulk Modulus (GPa) = 50.40108 54.94233 52.67170
# Shear Modulus (GPa) = 31.04773 40.30952 35.67863
#
# Velocity S-wave (km/s) = 3.60477 4.10740 3.86426
# Velocity P-wave (km/s) = 6.19840 6.74457 6.47724
#
# Compressibility (1/GPa) = 0.01984085
#
# Stress axis : x y z
#
# Youngs Moduli (GPa) = 111.27465 123.16167 80.03908
#
# Poissons Ratio (x) = 0.31719 0.18934
# Poissons Ratio (y) = 0.28658 -0.00491
# Poissons Ratio (z) = 0.26323 -0.00756
#
# Static dielectric constant tensor:
#      x y z
#    x 4.085210 0.000000 0.000000 
#    y 0.000000 4.450860 0.000000 
#    z 0.000000 0.000000 4.138230 
# 
# 
# High freq. dielectric constant tensor:
#      x y z
#    x 1.958890 0.000000 0.000000 
#    y 0.000000 1.938480 0.000000 
#    z 0.000000 0.000000 1.951260 
# 
# From -- ./inp_files/15175.got.cif
#   From: 2010.03.12/outbox.cif.g09.slc.cpg/sg54_8_cif.got.tgz:15175.got - 2010.04.16 15:00:50.
