data_PCOD8223700
_publ_section_title
;
Structure prediction by ZEFSAII (Michael W. Deem and Ramdas Pophale) SiO2 
 PCOD8223700
Probable space group: P C C A
;
_chemical_formula_sum "Si O2"
_cell_formula_units_Z 60
_cell_length_a 9.059514
_cell_length_b 16.868818
_cell_length_c 19.252581
_cell_angle_alpha 90.000000
_cell_angle_beta 90.000000
_cell_angle_gamma 90.000000
_cell_volume 2942.242824
_symmetry_space_group_name_H-M "P C C A"
_symmetry_group_IT_number 54
_symmetry_cell_setting 'orthorhombic'
loop_
_space_group_symop_operation_xyz
x,y,z
1/2-x,-y,z
1/2+x,-y,1/2-z
-x,y,1/2-z
-x,-y,-z
1/2+x,y,-z
1/2-x,y,1/2+z
x,-y,1/2+z
loop_
_atom_site_type_symbol
_atom_site_label
_atom_site_fract_x
_atom_site_fract_y
_atom_site_fract_z
Si Si1 0.784030 0.910906 0.058644
Si Si2 0.582476 0.411668 0.431802
Si Si3 0.750000 0.000000 0.874096
Si Si4 0.417795 0.711451 0.678791
Si Si5 0.571028 0.591875 0.426479
Si Si6 0.450506 0.131774 0.570499
Si Si7 0.582696 0.274732 0.822745
Si Si8 0.481693 0.881178 0.669742
O O1 0.627193 0.869036 0.068905
O O2 0.874991 0.917099 0.131008
O O3 0.750000 0.000000 0.030890
O O4 0.880100 0.855245 0.006254
O O5 0.520466 0.356236 0.371507
O O6 0.535287 0.500399 0.409509
O O7 0.756157 0.398778 0.439892
O O8 0.512035 0.383502 0.503697
O O9 0.880120 0.954482 0.914500
O O10 0.663147 0.935155 0.830607
O O11 0.500000 0.700970 0.750000
O O12 0.246953 0.701514 0.697446
O O13 0.447688 0.794468 0.638847
O O14 0.514117 0.650224 0.364912
O O15 0.410281 0.197817 0.627236
O O16 0.500000 0.257124 0.750000
O O17 0.500000 0.867094 0.750000
#
# Coordination Sequence:
#
# PCOD8223700 Si02
#       8
#     8   8   4   8   8   8   8   8
#     4  12  25  44  65  93 122 167 217 265 326 378
#     4   9  19  39  66  95 127 163 207 253 319 368
#     4  12  22  44  64  88 130 164 214 266 324 368
#     4  10  23  42  62  90 130 166 211 260 313 383
#     4   9  20  39  64  95 128 162 205 261 305 387
#     4  12  26  41  67  91 125 165 212 271 317 382
#     4  11  26  42  61  93 130 167 214 262 319 381
#     4  11  26  41  64  94 128 169 214 263 315 387
#
# _framework density 20.392607000000002
#
# number of rings (size 3 to 8) (size 9 to 14) (size 15 to 20)
#    0.000    1.333    3.333    1.200    6.533    3.200 
#    0.000    0.000    0.000    0.000    0.000    0.000 
#    0.000    0.000    0.000    0.000    0.000    0.000 
#
# Total GULP energy -743605.398519 kJ/mol
# GULP energy per Si atom -12393.423309 kJ/mol
# Density = 2.034619 g / cm^3
# Si number density = 20.392607 Si / 1000 Ang^3
#
#
#
# Elastic Constant Matrix: (Units=GPa)
#
#
# Indices 1 2 3 4 5 6 
#
# 1 99.2767 36.8467 50.2784 0.0000 0.0000 0.0000
# 2 36.8467 119.7327 73.2266 0.0000 0.0000 0.0000
# 3 50.2784 73.2266 125.2659 0.0000 0.0000 0.0000
# 4 0.0000 0.0000 0.0000 33.5223 0.0000 0.0000
# 5 0.0000 0.0000 0.0000 0.0000 30.6970 0.0000
# 6 0.0000 0.0000 0.0000 0.0000 0.0000 25.0817
#
#
#
# Elastic Compliance Matrix: (Units=1/GPa)
#
#
# Indices 1 2 3 4 5 6 
#
# 1 0.012759 -0.001237 -0.004398 0.000000 0.000000 0.000000
# 2 -0.001237 0.013119 -0.007173 0.000000 0.000000 0.000000
# 3 -0.004398 -0.007173 0.013941 0.000000 0.000000 0.000000
# 4 0.000000 0.000000 0.000000 0.029831 0.000000 0.000000
# 5 0.000000 0.000000 0.000000 0.000000 0.032577 0.000000
# 6 0.000000 0.000000 0.000000 0.000000 0.000000 0.039870
#
#
# Mechanical properties :
#
#
# Convention : Reuss Voigt Hill
#
# Bulk Modulus (GPa) = 70.40030 73.88654 72.14342
# Shear Modulus (GPa) = 28.99434 30.12177 29.55806
#
# Velocity S-wave (km/s) = 3.77478 3.84747 3.81129
# Velocity P-wave (km/s) = 7.32093 7.48652 7.40419
#
# Compressibility (1/GPa) = 0.01420449
#
# Stress axis : x y z
#
# Youngs Moduli (GPa) = 78.37365 76.22395 71.72877
#
# Poissons Ratio (x) = 0.09426 0.31549
# Poissons Ratio (y) = 0.09692 0.51449
# Poissons Ratio (z) = 0.34472 0.54674
#
# Static dielectric constant tensor:
#      x y z
#    x 3.651420 0.000000 0.000000 
#    y 0.000000 3.948280 0.000000 
#    z 0.000000 0.000000 3.635860 
# 
# 
# High freq. dielectric constant tensor:
#      x y z
#    x 1.801430 0.000000 0.000000 
#    y 0.000000 1.802380 0.000000 
#    z 0.000000 0.000000 1.793170 
# 
# From -- ./inp_files/16840.got.cif
#   From: 2010.03.12/outbox.cif.g09.slc.cpg/sg54_9_cif.got.tgz:16840.got - 2010.04.16 15:00:50.
