data_PCOD8223723
_publ_section_title
;
Structure prediction by ZEFSAII (Michael W. Deem and Ramdas Pophale) SiO2 
 PCOD8223723
Probable space group: P C C A
;
_chemical_formula_sum "Si O2"
_cell_formula_units_Z 24
_cell_length_a 15.956322
_cell_length_b 6.645132
_cell_length_c 10.442175
_cell_angle_alpha 90.000000
_cell_angle_beta 90.000000
_cell_angle_gamma 90.000000
_cell_volume 1107.203300
_symmetry_space_group_name_H-M "P C C A"
_symmetry_group_IT_number 54
_symmetry_cell_setting 'orthorhombic'
loop_
_space_group_symop_operation_xyz
x,y,z
1/2-x,-y,z
1/2+x,-y,1/2-z
-x,y,1/2-z
-x,-y,-z
1/2+x,y,-z
1/2-x,y,1/2+z
x,-y,1/2+z
loop_
_atom_site_type_symbol
_atom_site_label
_atom_site_fract_x
_atom_site_fract_y
_atom_site_fract_z
Si Si1 0.415356 0.106672 0.902975
Si Si2 0.903782 0.181674 0.813804
Si Si3 0.500000 0.554593 0.250000
Si Si4 0.250000 0.000000 0.291123
O O1 0.460523 0.312020 0.862077
O O2 0.314893 0.128664 0.878252
O O3 0.447293 0.919834 0.813989
O O4 0.431651 0.068322 0.054001
O O5 0.927750 0.416351 0.814402
O O6 0.803292 0.153772 0.798718
#
# Coordination Sequence:
#
# PCOD8223723 Si02
#       4
#     8   8   4   4
#     4  10  23  43  66  93 126 166 208 258 310 369
#     4  10  23  43  66  93 126 166 208 258 310 369
#     4  12  24  38  64 100 126 158 210 262 310 364
#     4   8  22  44  66  88 124 170 206 250 314 370
#
# _framework density 21.676234000000001
#
# number of rings (size 3 to 8) (size 9 to 14) (size 15 to 20)
#    2.000    0.000    0.000    3.000    0.000    9.333 
#    0.000    3.333    0.000    0.000    0.000    0.000 
#    0.000    0.000    0.000    0.000    0.000    0.000 
#
# Total GULP energy -297363.676046 kJ/mol
# GULP energy per Si atom -12390.153169 kJ/mol
# Density = 2.162690 g / cm^3
# Si number density = 21.676234 Si / 1000 Ang^3
#
#
#
# Elastic Constant Matrix: (Units=GPa)
#
#
# Indices 1 2 3 4 5 6 
#
# 1 110.3905 38.3603 55.0564 0.0000 0.0000 0.0000
# 2 38.3603 119.9949 47.7072 0.0000 0.0000 0.0000
# 3 55.0564 47.7072 184.7568 0.0000 0.0000 0.0000
# 4 0.0000 0.0000 0.0000 31.6147 0.0000 0.0000
# 5 0.0000 0.0000 0.0000 0.0000 37.9456 0.0000
# 6 0.0000 0.0000 0.0000 0.0000 0.0000 44.6416
#
#
#
# Elastic Compliance Matrix: (Units=1/GPa)
#
#
# Indices 1 2 3 4 5 6 
#
# 1 0.011290 -0.002532 -0.002711 0.000000 0.000000 0.000000
# 2 -0.002532 0.009855 -0.001790 0.000000 0.000000 0.000000
# 3 -0.002711 -0.001790 0.006683 0.000000 0.000000 0.000000
# 4 0.000000 0.000000 0.000000 0.031631 0.000000 0.000000
# 5 0.000000 0.000000 0.000000 0.000000 0.026354 0.000000
# 6 0.000000 0.000000 0.000000 0.000000 0.000000 0.022401
#
#
# Mechanical properties :
#
#
# Convention : Reuss Voigt Hill
#
# Bulk Modulus (GPa) = 72.66120 77.48779 75.07449
# Shear Modulus (GPa) = 39.41176 41.10825 40.26001
#
# Velocity S-wave (km/s) = 4.26866 4.35957 4.31436
# Velocity P-wave (km/s) = 7.60850 7.82090 7.71543
#
# Compressibility (1/GPa) = 0.01376250
#
# Stress axis : x y z
#
# Youngs Moduli (GPa) = 88.57036 101.47373 149.64258
#
# Poissons Ratio (x) = 0.25689 0.40565
# Poissons Ratio (y) = 0.22423 0.26790
# Poissons Ratio (z) = 0.24010 0.18166
#
# Static dielectric constant tensor:
#      x y z
#    x 4.115840 0.000000 0.000000 
#    y 0.000000 3.421620 0.000000 
#    z 0.000000 0.000000 3.737740 
# 
# 
# High freq. dielectric constant tensor:
#      x y z
#    x 1.886230 0.000000 0.000000 
#    y 0.000000 1.812890 0.000000 
#    z 0.000000 0.000000 1.857350 
# 
# From -- ./inp_files/3161.got.cif
#   From: 2010.03.12/outbox.cif.g09.slc.cpg/sg54_2_cif.got.tgz:3161.got - 2010.04.16 15:00:50.
