data_PCOD8223571
_publ_section_title
;
Structure prediction by ZEFSAII (Michael W. Deem and Ramdas Pophale) SiO2 
 PCOD8223571
Probable space group: P C C A
;
_chemical_formula_sum "Si O2"
_cell_formula_units_Z 32
_cell_length_a 12.331002
_cell_length_b 6.814534
_cell_length_c 19.283884
_cell_angle_alpha 90.000000
_cell_angle_beta 90.000000
_cell_angle_gamma 90.000000
_cell_volume 1620.425397
_symmetry_space_group_name_H-M "P C C A"
_symmetry_group_IT_number 54
_symmetry_cell_setting 'orthorhombic'
loop_
_space_group_symop_operation_xyz
x,y,z
1/2-x,-y,z
1/2+x,-y,1/2-z
-x,y,1/2-z
-x,-y,-z
1/2+x,y,-z
1/2-x,y,1/2+z
x,-y,1/2+z
loop_
_atom_site_type_symbol
_atom_site_label
_atom_site_fract_x
_atom_site_fract_y
_atom_site_fract_z
Si Si1 0.166735 0.844642 0.171325
Si Si2 0.046100 0.005344 0.890664
Si Si3 0.750000 0.000000 0.196753
Si Si4 0.750000 0.500000 0.412215
Si Si5 0.564296 0.302110 0.989338
O O1 0.172350 0.631832 0.135974
O O2 0.045042 0.925686 0.163866
O O3 0.250000 0.000000 0.134748
O O4 0.201684 0.828087 0.252757
O O5 0.151128 0.923949 0.850236
O O6 0.080528 0.188253 0.938642
O O7 0.003680 0.826851 0.935996
O O8 0.817843 0.352277 0.459702
O O9 0.500000 0.500000 0.000000
#
# Coordination Sequence:
#
# PCOD8223571 Si02
#       5
#     8   8   4   4   8
#     4  10  22  42  63  86 128 169 205 260 315 377
#     4  11  23  43  62  95 130 167 210 262 322 376
#     4  10  24  42  66  90 128 170 210 258 314 386
#     4  12  22  42  64  96 124 170 216 256 330 372
#     4  11  24  38  66  94 129 164 211 266 314 379
#
# _framework density 19.747902
#
# number of rings (size 3 to 8) (size 9 to 14) (size 15 to 20)
#    0.750    0.500    5.000    0.750    3.500    0.000 
#    4.500    0.000    0.000    0.000    0.000    0.000 
#    0.000    0.000    0.000    0.000    0.000    0.000 
#
# Total GULP energy -396700.146244 kJ/mol
# GULP energy per Si atom -12396.879570 kJ/mol
# Density = 1.970295 g / cm^3
# Si number density = 19.747902 Si / 1000 Ang^3
#
#
#
# Elastic Constant Matrix: (Units=GPa)
#
#
# Indices 1 2 3 4 5 6 
#
# 1 136.9967 32.3953 64.3184 0.0000 0.0000 0.0000
# 2 32.3953 92.3249 40.1101 0.0000 0.0000 0.0000
# 3 64.3184 40.1101 118.3923 0.0000 0.0000 0.0000
# 4 0.0000 0.0000 0.0000 24.3011 0.0000 0.0000
# 5 0.0000 0.0000 0.0000 0.0000 36.0414 0.0000
# 6 0.0000 0.0000 0.0000 0.0000 0.0000 28.9636
#
#
#
# Elastic Compliance Matrix: (Units=1/GPa)
#
#
# Indices 1 2 3 4 5 6 
#
# 1 0.009938 -0.001339 -0.004945 0.000000 0.000000 0.000000
# 2 -0.001339 0.012881 -0.003637 0.000000 0.000000 0.000000
# 3 -0.004945 -0.003637 0.012365 0.000000 0.000000 0.000000
# 4 0.000000 0.000000 0.000000 0.041150 0.000000 0.000000
# 5 0.000000 0.000000 0.000000 0.000000 0.027746 0.000000
# 6 0.000000 0.000000 0.000000 0.000000 0.000000 0.034526
#
#
# Mechanical properties :
#
#
# Convention : Reuss Voigt Hill
#
# Bulk Modulus (GPa) = 65.17771 69.04015 67.10893
# Shear Modulus (GPa) = 30.56947 31.92055 31.24501
#
# Velocity S-wave (km/s) = 3.93871 4.02481 3.98200
# Velocity P-wave (km/s) = 7.33220 7.52565 7.42956
#
# Compressibility (1/GPa) = 0.01534267
#
# Stress axis : x y z
#
# Youngs Moduli (GPa) = 100.62640 77.63400 80.87188
#
# Poissons Ratio (x) = 0.10391 0.39994
# Poissons Ratio (y) = 0.13469 0.29411
# Poissons Ratio (z) = 0.49763 0.28234
#
# Static dielectric constant tensor:
#      x y z
#    x 3.573180 0.000000 0.000000 
#    y 0.000000 3.328170 0.000000 
#    z 0.000000 0.000000 3.664160 
# 
# 
# High freq. dielectric constant tensor:
#      x y z
#    x 1.779050 0.000000 0.000000 
#    y 0.000000 1.754740 0.000000 
#    z 0.000000 0.000000 1.769360 
# 
# From -- ./inp_files/23780.got.cif
#   From: 2010.03.12/outbox.cif.g09.slc.cpg/sg54_12_cif.got.tgz:23780.got - 2010.04.16 15:00:50.
