data_PCOD8223779
_publ_section_title
;
Structure prediction by ZEFSAII (Michael W. Deem and Ramdas Pophale) SiO2 
 PCOD8223779
Probable space group: P C C A
;
_chemical_formula_sum "Si O2"
_cell_formula_units_Z 40
_cell_length_a 17.557452
_cell_length_b 8.599515
_cell_length_c 11.614149
_cell_angle_alpha 90.000000
_cell_angle_beta 90.000000
_cell_angle_gamma 90.000000
_cell_volume 1753.568928
_symmetry_space_group_name_H-M "P C C A"
_symmetry_group_IT_number 54
_symmetry_cell_setting 'orthorhombic'
loop_
_space_group_symop_operation_xyz
x,y,z
1/2-x,-y,z
1/2+x,-y,1/2-z
-x,y,1/2-z
-x,-y,-z
1/2+x,y,-z
1/2-x,y,1/2+z
x,-y,1/2+z
loop_
_atom_site_type_symbol
_atom_site_label
_atom_site_fract_x
_atom_site_fract_y
_atom_site_fract_z
Si Si1 0.576945 0.209972 0.820243
Si Si2 0.334236 0.564056 0.342255
Si Si3 0.329572 0.076688 0.241573
Si Si4 0.120571 0.259772 0.945945
Si Si5 0.727495 0.325673 0.434873
O O1 0.500000 0.205174 0.750000
O O2 0.633449 0.339645 0.765270
O O3 0.617624 0.043171 0.825695
O O4 0.555992 0.249681 0.954166
O O5 0.250000 0.500000 0.312658
O O6 0.388437 0.419221 0.374409
O O7 0.329904 0.671616 0.455996
O O8 0.378338 0.120029 0.354905
O O9 0.313195 0.231953 0.167422
O O10 0.250000 0.000000 0.279198
O O11 0.196850 0.240376 0.022637
O O12 0.750000 0.500000 0.394256
#
# Coordination Sequence:
#
# PCOD8223779 Si02
#       5
#     8   8   8   8   8
#     4  12  28  45  66 104 149 182 224 288 358 421
#     4   9  22  43  73  98 132 180 240 293 331 412
#     4  12  24  39  70  98 140 177 234 290 342 413
#     4  10  24  40  67  97 128 181 232 283 347 396
#     4   9  21  39  70 103 131 171 238 295 333 394
#
# _framework density 22.810621000000001
#
# number of rings (size 3 to 8) (size 9 to 14) (size 15 to 20)
#    0.000    2.000    2.000    2.400   11.200    3.200 
#    0.000    1.000    0.000    0.000    0.000    0.000 
#    0.000    0.000    0.000    0.000    0.000    0.000 
#
# Total GULP energy -495786.955204 kJ/mol
# GULP energy per Si atom -12394.673880 kJ/mol
# Density = 2.275870 g / cm^3
# Si number density = 22.810621 Si / 1000 Ang^3
#
#
#
# Elastic Constant Matrix: (Units=GPa)
#
#
# Indices 1 2 3 4 5 6 
#
# 1 37.4436 21.3712 -4.6295 0.0000 0.0000 0.0000
# 2 21.3712 117.4031 56.0373 0.0000 0.0000 0.0000
# 3 -4.6295 56.0373 131.1000 0.0000 0.0000 0.0000
# 4 0.0000 0.0000 0.0000 21.8250 0.0000 0.0000
# 5 0.0000 0.0000 0.0000 0.0000 -18.7224 0.0000
# 6 0.0000 0.0000 0.0000 0.0000 0.0000 16.0125
#
#
#
# Elastic Compliance Matrix: (Units=1/GPa)
#
#
# Indices 1 2 3 4 5 6 
#
# 1 0.031801 -0.007946 0.004519 0.000000 0.000000 0.000000
# 2 -0.007946 0.012686 -0.005703 0.000000 0.000000 0.000000
# 3 0.004519 -0.005703 0.010225 0.000000 0.000000 0.000000
# 4 0.000000 0.000000 0.000000 0.045819 0.000000 0.000000
# 5 0.000000 0.000000 0.000000 0.000000 -0.053412 0.000000
# 6 0.000000 0.000000 0.000000 0.000000 0.000000 0.062451
#
#
# Mechanical properties :
#
#
# Convention : Reuss Voigt Hill
#
# Bulk Modulus (GPa) = 27.43281 47.94497 37.68889
# Shear Modulus (GPa) = 35.71912 18.03418 26.87665
#
# Velocity S-wave (km/s) = 3.96144 2.81482 3.43629
# Velocity P-wave (km/s) = 5.74251 5.62393 5.68353
#
# Compressibility (1/GPa) = 0.03645271
#
# Stress axis : x y z
#
# Youngs Moduli (GPa) = 31.44573 78.82539 97.79825
#
# Poissons Ratio (x) = 0.62634 -0.44199
# Poissons Ratio (y) = 0.24987 0.55776
# Poissons Ratio (z) = -0.14212 0.44956
#
# Static dielectric constant tensor:
#      x y z
#    x 3.750490 0.000000 0.000000 
#    y 0.000000 4.159760 0.000000 
#    z 0.000000 0.000000 4.541750 
# 
# 
# High freq. dielectric constant tensor:
#      x y z
#    x 1.842750 0.000000 0.000000 
#    y 0.000000 1.905610 0.000000 
#    z 0.000000 0.000000 1.929380 
# 
# From -- ./inp_files/8707.got.cif
#   From: 2010.03.12/outbox.cif.g09.slc.cpg/sg54_5_cif.got.tgz:8707.got - 2010.04.16 15:00:50.
