data_PCOD8223683
_publ_section_title
;
Structure prediction by ZEFSAII (Michael W. Deem and Ramdas Pophale) SiO2 
 PCOD8223683
Probable space group: P C C A
;
_chemical_formula_sum "Si O2"
_cell_formula_units_Z 48
_cell_length_a 8.903659
_cell_length_b 18.127250
_cell_length_c 14.318986
_cell_angle_alpha 90.000000
_cell_angle_beta 90.000000
_cell_angle_gamma 90.000000
_cell_volume 2311.067911
_symmetry_space_group_name_H-M "P C C A"
_symmetry_group_IT_number 54
_symmetry_cell_setting 'orthorhombic'
loop_
_space_group_symop_operation_xyz
x,y,z
1/2-x,-y,z
1/2+x,-y,1/2-z
-x,y,1/2-z
-x,-y,-z
1/2+x,y,-z
1/2-x,y,1/2+z
x,-y,1/2+z
loop_
_atom_site_type_symbol
_atom_site_label
_atom_site_fract_x
_atom_site_fract_y
_atom_site_fract_z
Si Si1 0.867299 0.811026 0.924730
Si Si2 0.280319 0.651131 0.113600
Si Si3 0.717519 0.193651 0.615611
Si Si4 0.171972 0.077890 0.230601
Si Si5 0.652965 0.342101 0.197970
Si Si6 0.010191 0.584728 0.473675
O O1 0.777475 0.739758 0.886932
O O2 0.808218 0.880955 0.867587
O O3 0.044986 0.799929 0.915004
O O4 0.827369 0.826503 0.031335
O O5 0.260629 0.623236 0.220927
O O6 0.151437 0.618154 0.047667
O O7 0.435528 0.624580 0.068333
O O8 0.743479 0.128864 0.689520
O O9 0.765615 0.271848 0.655905
O O10 0.000000 0.062687 0.250000
O O11 0.250000 0.000000 0.225658
O O12 0.500000 0.317622 0.250000
O O13 0.620017 0.401066 0.115508
O O14 0.000000 0.500000 0.500000
#
# Coordination Sequence:
#
# PCOD8223683 Si02
#       6
#     8   8   8   8   8   8
#     4  11  23  40  70 100 132 175 235 277 336 409
#     4  11  22  43  69  95 132 175 228 280 337 409
#     4  11  23  41  68 100 133 178 228 282 336 406
#     4  10  24  44  64  99 141 178 223 281 342 401
#     4  10  23  40  69  99 128 177 237 273 341 412
#     4  11  24  44  66  95 137 172 220 286 347 406
#
# _framework density 20.769617
#
# number of rings (size 3 to 8) (size 9 to 14) (size 15 to 20)
#    0.000    1.333    3.333    1.500    2.333    2.667 
#    0.000   13.333    0.000    0.000    0.000    0.000 
#    0.000    0.000    0.000    0.000    0.000    0.000 
#
# Total GULP energy -595207.053606 kJ/mol
# GULP energy per Si atom -12400.146950 kJ/mol
# Density = 2.072234 g / cm^3
# Si number density = 20.769617 Si / 1000 Ang^3
#
#
#
# Elastic Constant Matrix: (Units=GPa)
#
#
# Indices 1 2 3 4 5 6 
#
# 1 62.4174 61.1756 57.9524 0.0000 0.0000 0.0000
# 2 61.1756 160.6987 72.7858 0.0000 0.0000 0.0000
# 3 57.9524 72.7858 161.2474 0.0000 0.0000 0.0000
# 4 0.0000 0.0000 0.0000 -10.1627 0.0000 0.0000
# 5 0.0000 0.0000 0.0000 0.0000 23.2841 0.0000
# 6 0.0000 0.0000 0.0000 0.0000 0.0000 33.5562
#
#
#
# Elastic Compliance Matrix: (Units=1/GPa)
#
#
# Indices 1 2 3 4 5 6 
#
# 1 0.031252 -0.008560 -0.007368 0.000000 0.000000 0.000000
# 2 -0.008560 0.010167 -0.001513 0.000000 0.000000 0.000000
# 3 -0.007368 -0.001513 0.009533 0.000000 0.000000 0.000000
# 4 0.000000 0.000000 0.000000 -0.098399 0.000000 0.000000
# 5 0.000000 0.000000 0.000000 0.000000 0.042948 0.000000
# 6 0.000000 0.000000 0.000000 0.000000 0.000000 0.029801
#
#
# Mechanical properties :
#
#
# Convention : Reuss Voigt Hill
#
# Bulk Modulus (GPa) = 62.22900 85.35457 73.79179
# Shear Modulus (GPa) = 76.29149 22.16550 49.22850
#
# Velocity S-wave (km/s) = 6.06729 3.27036 4.87377
# Velocity P-wave (km/s) = 8.89434 7.44617 8.20228
#
# Compressibility (1/GPa) = 0.01606968
#
# Stress axis : x y z
#
# Youngs Moduli (GPa) = 31.99832 98.36155 104.90375
#
# Poissons Ratio (x) = 0.84196 0.77293
# Poissons Ratio (y) = 0.27390 0.15869
# Poissons Ratio (z) = 0.23576 0.14879
#
# Static dielectric constant tensor:
#      x y z
#    x 3.887030 0.000000 0.000000 
#    y 0.000000 3.693780 0.000000 
#    z 0.000000 0.000000 4.068720 
# 
# 
# High freq. dielectric constant tensor:
#      x y z
#    x 1.818420 0.000000 0.000000 
#    y 0.000000 1.801170 0.000000 
#    z 0.000000 0.000000 1.833070 
# 
# From -- ./inp_files/11696.got.cif
#   From: 2010.03.12/outbox.cif.g09.slc.cpg/sg54_6_cif.got.tgz:11696.got - 2010.04.16 15:00:50.
