data_PCOD8223081
_publ_section_title
;
Structure prediction by ZEFSAII (Michael W. Deem and Ramdas Pophale) SiO2 
 PCOD8223081
Probable space group: P C C A
;
_chemical_formula_sum "Si O2"
_cell_formula_units_Z 48
_cell_length_a 18.569520
_cell_length_b 9.337145
_cell_length_c 14.084818
_cell_angle_alpha 90.000000
_cell_angle_beta 90.000000
_cell_angle_gamma 90.000000
_cell_volume 2442.114491
_symmetry_space_group_name_H-M "P C C A"
_symmetry_group_IT_number 54
_symmetry_cell_setting 'orthorhombic'
loop_
_space_group_symop_operation_xyz
x,y,z
1/2-x,-y,z
1/2+x,-y,1/2-z
-x,y,1/2-z
-x,-y,-z
1/2+x,y,-z
1/2-x,y,1/2+z
x,-y,1/2+z
loop_
_atom_site_type_symbol
_atom_site_label
_atom_site_fract_x
_atom_site_fract_y
_atom_site_fract_z
Si Si1 0.034465 0.673919 0.920233
Si Si2 0.000000 0.160905 0.250000
Si Si3 0.250000 0.000000 0.827161
Si Si4 0.389752 0.445200 0.522486
Si Si5 0.637829 0.024712 0.828788
Si Si6 0.290944 0.810737 0.995003
Si Si7 0.136976 0.253396 0.570811
O O1 0.049545 0.741632 0.818106
O O2 0.948289 0.655933 0.927292
O O3 0.073610 0.518727 0.929313
O O4 0.067545 0.777071 0.002465
O O5 0.944642 0.068777 0.312138
O O6 0.310643 0.069828 0.758490
O O7 0.206834 0.113612 0.892301
O O8 0.324848 0.346734 0.488245
O O9 0.362907 0.574290 0.593685
O O10 0.669648 0.093233 0.925298
O O11 0.633779 0.850631 0.838104
O O12 0.207752 0.788822 0.014225
#
# Coordination Sequence:
#
# PCOD8223081 Si02
#       7
#     8   4   4   8   8   8   8
#     4   9  21  41  63  91 131 169 212 273 322 399
#     4  12  24  40  64 100 134 170 226 268 338 402
#     4  12  24  42  64 100 130 168 220 280 322 398
#     4   9  21  42  65  91 122 178 213 263 339 383
#     4  12  25  42  65  99 132 171 221 276 332 393
#     4  12  21  43  69  89 133 173 213 278 332 388
#     4  10  20  42  65  92 123 169 218 261 328 394
#
# _framework density 19.655097000000001
#
# number of rings (size 3 to 8) (size 9 to 14) (size 15 to 20)
#    1.000    0.333    5.000    1.500    0.000    2.000 
#    3.000    0.000    0.000    0.000    0.000    0.000 
#    0.000    0.000    0.000    0.000    0.000    0.000 
#
# Total GULP energy -594654.665903 kJ/mol
# GULP energy per Si atom -12388.638873 kJ/mol
# Density = 1.961036 g / cm^3
# Si number density = 19.655097 Si / 1000 Ang^3
#
#
#
# Elastic Constant Matrix: (Units=GPa)
#
#
# Indices 1 2 3 4 5 6 
#
# 1 77.1385 39.7743 37.6378 0.0000 0.0000 0.0000
# 2 39.7743 109.6544 46.3987 0.0000 0.0000 0.0000
# 3 37.6378 46.3987 99.8645 0.0000 0.0000 0.0000
# 4 0.0000 0.0000 0.0000 20.6018 0.0000 0.0000
# 5 0.0000 0.0000 0.0000 0.0000 27.1838 0.0000
# 6 0.0000 0.0000 0.0000 0.0000 0.0000 29.7026
#
#
#
# Elastic Compliance Matrix: (Units=1/GPa)
#
#
# Indices 1 2 3 4 5 6 
#
# 1 0.017447 -0.004414 -0.004525 0.000000 0.000000 0.000000
# 2 -0.004414 0.012468 -0.004129 0.000000 0.000000 0.000000
# 3 -0.004525 -0.004129 0.013637 0.000000 0.000000 0.000000
# 4 0.000000 0.000000 0.000000 0.048539 0.000000 0.000000
# 5 0.000000 0.000000 0.000000 0.000000 0.036787 0.000000
# 6 0.000000 0.000000 0.000000 0.000000 0.000000 0.033667
#
#
# Mechanical properties :
#
#
# Convention : Reuss Voigt Hill
#
# Bulk Modulus (GPa) = 57.41663 59.36434 58.39049
# Shear Modulus (GPa) = 25.70859 26.35409 26.03134
#
# Velocity S-wave (km/s) = 3.62053 3.66570 3.64319
# Velocity P-wave (km/s) = 6.83763 6.94155 6.88979
#
# Compressibility (1/GPa) = 0.01741656
#
# Stress axis : x y z
#
# Youngs Moduli (GPa) = 57.31495 80.20654 73.32747
#
# Poissons Ratio (x) = 0.35403 0.33180
# Poissons Ratio (y) = 0.25299 0.30278
# Poissons Ratio (z) = 0.25935 0.33119
#
# Static dielectric constant tensor:
#      x y z
#    x 3.666270 0.000000 0.000000 
#    y 0.000000 3.773860 0.000000 
#    z 0.000000 0.000000 3.281980 
# 
# 
# High freq. dielectric constant tensor:
#      x y z
#    x 1.777360 0.000000 0.000000 
#    y 0.000000 1.765040 0.000000 
#    z 0.000000 0.000000 1.735470 
# 
# From -- ./inp_files/14568.got.cif
#   From: 2010.03.12/outbox.cif.g09.slc.cpg/sg54_8_cif.got.tgz:14568.got - 2010.04.16 15:00:50.
