data_PCOD8223897
_publ_section_title
;
Structure prediction by ZEFSAII (Michael W. Deem and Ramdas Pophale) SiO2 
 PCOD8223897
Probable space group: P C C A
;
_chemical_formula_sum "Si O2"
_cell_formula_units_Z 40
_cell_length_a 17.507394
_cell_length_b 9.230520
_cell_length_c 9.527375
_cell_angle_alpha 90.000000
_cell_angle_beta 90.000000
_cell_angle_gamma 90.000000
_cell_volume 1539.646194
_symmetry_space_group_name_H-M "P C C A"
_symmetry_group_IT_number 54
_symmetry_cell_setting 'orthorhombic'
loop_
_space_group_symop_operation_xyz
x,y,z
1/2-x,-y,z
1/2+x,-y,1/2-z
-x,y,1/2-z
-x,-y,-z
1/2+x,y,-z
1/2-x,y,1/2+z
x,-y,1/2+z
loop_
_atom_site_type_symbol
_atom_site_label
_atom_site_fract_x
_atom_site_fract_y
_atom_site_fract_z
Si Si1 0.156849 0.914497 0.811347
Si Si2 0.450855 0.712518 0.455578
Si Si3 0.114306 0.781655 0.226992
Si Si4 0.240137 0.202889 0.058790
Si Si5 0.394851 0.599645 0.979867
O O1 0.188682 0.908583 0.651497
O O2 0.125084 0.077779 0.827990
O O3 0.085512 0.805409 0.829700
O O4 0.224810 0.877295 0.921656
O O5 0.446831 0.807020 0.600935
O O6 0.537330 0.664699 0.420437
O O7 0.396300 0.573335 0.483516
O O8 0.194190 0.735049 0.157360
O O9 0.085946 0.648649 0.321266
O O10 0.188128 0.340708 0.019999
#
# Coordination Sequence:
#
# PCOD8223897 Si02
#       5
#     8   8   8   8   8
#     4  11  26  45  74 108 150 193 251 308 380 441
#     4  10  27  50  72 108 150 203 253 310 384 457
#     4  11  25  45  75 105 153 193 252 314 378 452
#     4  11  25  45  75 108 144 195 241 312 374 443
#     4  11  25  49  75 103 154 199 250 314 379 457
#
# _framework density 25.979997000000001
#
# number of rings (size 3 to 8) (size 9 to 14) (size 15 to 20)
#    0.000    1.200    2.000    1.200   11.200    4.800 
#    3.600    0.000    0.000    0.000    0.000    0.000 
#    0.000    0.000    0.000    0.000    0.000    0.000 
#
# Total GULP energy -495936.897042 kJ/mol
# GULP energy per Si atom -12398.422426 kJ/mol
# Density = 2.592086 g / cm^3
# Si number density = 25.979997 Si / 1000 Ang^3
#
#
#
# Elastic Constant Matrix: (Units=GPa)
#
#
# Indices 1 2 3 4 5 6 
#
# 1 94.2467 48.6447 3.2140 0.0000 0.0000 0.0000
# 2 48.6447 122.6252 28.5421 0.0000 0.0000 0.0000
# 3 3.2140 28.5421 93.5294 0.0000 0.0000 0.0000
# 4 0.0000 0.0000 0.0000 30.8577 0.0000 0.0000
# 5 0.0000 0.0000 0.0000 0.0000 28.5147 0.0000
# 6 0.0000 0.0000 0.0000 0.0000 0.0000 39.8010
#
#
#
# Elastic Compliance Matrix: (Units=1/GPa)
#
#
# Indices 1 2 3 4 5 6 
#
# 1 0.013478 -0.005640 0.001258 0.000000 0.000000 0.000000
# 2 -0.005640 0.011138 -0.003205 0.000000 0.000000 0.000000
# 3 0.001258 -0.003205 0.011627 0.000000 0.000000 0.000000
# 4 0.000000 0.000000 0.000000 0.032407 0.000000 0.000000
# 5 0.000000 0.000000 0.000000 0.000000 0.035070 0.000000
# 6 0.000000 0.000000 0.000000 0.000000 0.000000 0.025125
#
#
# Mechanical properties :
#
#
# Convention : Reuss Voigt Hill
#
# Bulk Modulus (GPa) = 47.46221 52.35588 49.90905
# Shear Modulus (GPa) = 33.10343 35.16803 34.13573
#
# Velocity S-wave (km/s) = 3.57345 3.68320 3.62874
# Velocity P-wave (km/s) = 5.94428 6.18741 6.06707
#
# Compressibility (1/GPa) = 0.02106939
#
# Stress axis : x y z
#
# Youngs Moduli (GPa) = 74.19289 89.78148 86.00883
#
# Poissons Ratio (x) = 0.50633 -0.10819
# Poissons Ratio (y) = 0.41842 0.27567
# Poissons Ratio (z) = -0.09332 0.28777
#
# Static dielectric constant tensor:
#      x y z
#    x 4.820410 0.000000 0.000000 
#    y 0.000000 4.434180 0.000000 
#    z 0.000000 0.000000 4.708200 
# 
# 
# High freq. dielectric constant tensor:
#      x y z
#    x 2.046890 0.000000 0.000000 
#    y 0.000000 2.027580 0.000000 
#    z 0.000000 0.000000 2.042490 
# 
# From -- ./inp_files/8737.got.cif
#   From: 2010.03.12/outbox.cif.g09.slc.cpg/sg54_5_cif.got.tgz:8737.got - 2010.04.16 15:00:50.
