data_PCOD8223148
_publ_section_title
;
Structure prediction by ZEFSAII (Michael W. Deem and Ramdas Pophale) SiO2 
 PCOD8223148
Probable space group: P C C A
;
_chemical_formula_sum "Si O2"
_cell_formula_units_Z 40
_cell_length_a 14.413887
_cell_length_b 24.054363
_cell_length_c 5.179689
_cell_angle_alpha 90.000000
_cell_angle_beta 90.000000
_cell_angle_gamma 90.000000
_cell_volume 1795.885558
_symmetry_space_group_name_H-M "P C C A"
_symmetry_group_IT_number 54
_symmetry_cell_setting 'orthorhombic'
loop_
_space_group_symop_operation_xyz
x,y,z
1/2-x,-y,z
1/2+x,-y,1/2-z
-x,y,1/2-z
-x,-y,-z
1/2+x,y,-z
1/2-x,y,1/2+z
x,-y,1/2+z
loop_
_atom_site_type_symbol
_atom_site_label
_atom_site_fract_x
_atom_site_fract_y
_atom_site_fract_z
Si Si1 0.393169 0.027773 0.787559
Si Si2 0.188603 0.263717 0.422069
Si Si3 0.690677 0.142034 0.666974
Si Si4 0.853878 0.523887 0.405472
Si Si5 0.940140 0.364402 0.007412
O O1 0.500000 0.012692 0.750000
O O2 0.383199 0.092614 0.861486
O O3 0.346394 0.009424 0.515863
O O4 0.234922 0.272457 0.700846
O O5 0.143689 0.202239 0.384380
O O6 0.105888 0.307255 0.400512
O O7 0.772192 0.136649 0.457926
O O8 0.750000 0.500000 0.361469
O O9 0.905290 0.509390 0.136465
O O10 0.859515 0.589978 0.452719
O O11 0.000000 0.385695 0.250000
O O12 0.000000 0.354898 0.750000
#
# Coordination Sequence:
#
# PCOD8223148 Si02
#       5
#     8   8   8   8   8
#     4  10  21  36  55  84 121 161 198 243 309 370
#     4  10  23  42  67  88 123 169 208 252 309 382
#     4  10  21  38  59  89 116 154 210 252 295 351
#     4  10  23  40  64  92 122 166 205 235 300 384
#     4  12  26  42  66  99 128 156 206 264 308 357
#
# _framework density 22.273133999999999
#
# number of rings (size 3 to 8) (size 9 to 14) (size 15 to 20)
#    0.000    1.600    0.000    3.600    5.600    5.600 
#    0.000    3.000    0.000    0.000    0.000    0.000 
#    0.000    0.000    0.000    0.000    0.000    0.000 
#
# Total GULP energy -495799.507481 kJ/mol
# GULP energy per Si atom -12394.987687 kJ/mol
# Density = 2.222244 g / cm^3
# Si number density = 22.273134 Si / 1000 Ang^3
#
#
#
# Elastic Constant Matrix: (Units=GPa)
#
#
# Indices 1 2 3 4 5 6 
#
# 1 37.1616 40.5553 10.4152 0.0000 0.0000 0.0000
# 2 40.5553 165.9271 45.7333 0.0000 0.0000 0.0000
# 3 10.4152 45.7333 153.0052 0.0000 0.0000 0.0000
# 4 0.0000 0.0000 0.0000 35.9291 0.0000 0.0000
# 5 0.0000 0.0000 0.0000 0.0000 -84.5518 0.0000
# 6 0.0000 0.0000 0.0000 0.0000 0.0000 28.6201
#
#
#
# Elastic Compliance Matrix: (Units=1/GPa)
#
#
# Indices 1 2 3 4 5 6 
#
# 1 0.036704 -0.009026 0.000199 0.000000 0.000000 0.000000
# 2 -0.009026 0.008787 -0.002012 0.000000 0.000000 0.000000
# 3 0.000199 -0.002012 0.007124 0.000000 0.000000 0.000000
# 4 0.000000 0.000000 0.000000 0.027833 0.000000 0.000000
# 5 0.000000 0.000000 0.000000 0.000000 -0.011827 0.000000
# 6 0.000000 0.000000 0.000000 0.000000 0.000000 0.034940
#
#
# Mechanical properties :
#
#
# Convention : Reuss Voigt Hill
#
# Bulk Modulus (GPa) = 32.32334 61.05573 46.68954
# Shear Modulus (GPa) = 36.88656 13.29218 25.08937
#
# Velocity S-wave (km/s) = 4.07394 2.44556 3.35989
# Velocity P-wave (km/s) = 6.05583 5.95367 6.00496
#
# Compressibility (1/GPa) = 0.03093740
#
# Stress axis : x y z
#
# Youngs Moduli (GPa) = 27.24511 113.79886 140.37868
#
# Poissons Ratio (x) = 1.02715 -0.02799
# Poissons Ratio (y) = 0.24591 0.28246
# Poissons Ratio (z) = -0.00543 0.22898
#
# Static dielectric constant tensor:
#      x y z
#    x 3.521560 0.000000 0.000000 
#    y 0.000000 4.186560 0.000000 
#    z 0.000000 0.000000 4.929770 
# 
# 
# High freq. dielectric constant tensor:
#      x y z
#    x 1.836720 0.000000 0.000000 
#    y 0.000000 1.888340 0.000000 
#    z 0.000000 0.000000 1.914530 
# 
# From -- ./inp_files/517.got.cif
#   From: 2010.03.12/outbox.cif.g09.slc.cpg/sg54_1_cif.got.tgz:517.got - 2010.04.16 15:00:50.
