data_PCOD8223720
_publ_section_title
;
Structure prediction by ZEFSAII (Michael W. Deem and Ramdas Pophale) SiO2 
 PCOD8223720
Probable space group: P C C A
;
_chemical_formula_sum "Si O2"
_cell_formula_units_Z 56
_cell_length_a 9.272498
_cell_length_b 14.311233
_cell_length_c 21.576989
_cell_angle_alpha 90.000000
_cell_angle_beta 90.000000
_cell_angle_gamma 90.000000
_cell_volume 2863.285414
_symmetry_space_group_name_H-M "P C C A"
_symmetry_group_IT_number 54
_symmetry_cell_setting 'orthorhombic'
loop_
_space_group_symop_operation_xyz
x,y,z
1/2-x,-y,z
1/2+x,-y,1/2-z
-x,y,1/2-z
-x,-y,-z
1/2+x,y,-z
1/2-x,y,1/2+z
x,-y,1/2+z
loop_
_atom_site_type_symbol
_atom_site_label
_atom_site_fract_x
_atom_site_fract_y
_atom_site_fract_z
Si Si1 0.025678 0.254253 0.572350
Si Si2 0.267175 0.107895 0.118077
Si Si3 0.667822 0.410092 0.742691
Si Si4 0.974182 0.245715 0.427647
Si Si5 0.250089 0.750036 0.350008
Si Si6 0.332172 0.089906 0.257282
Si Si7 0.767033 0.392083 0.381880
O O1 0.000262 0.250022 0.499976
O O2 0.879074 0.283610 0.606336
O O3 0.082450 0.152178 0.594135
O O4 0.137768 0.335393 0.587689
O O5 0.138147 0.164646 0.087511
O O6 0.260725 0.119453 0.192158
O O7 0.250000 0.000000 0.098091
O O8 0.750000 0.500000 0.716382
O O9 0.500000 0.433912 0.750000
O O10 0.689278 0.330665 0.692888
O O11 0.739246 0.380487 0.807802
O O12 0.917317 0.347783 0.405910
O O13 0.120474 0.216202 0.393470
O O14 0.189256 0.830593 0.307039
O O15 0.500000 0.066083 0.250000
O O16 0.250000 0.000000 0.283611
O O17 0.750000 0.500000 0.401846
#
# Coordination Sequence:
#
# PCOD8223720 Si02
#       7
#     8   8   8   8   8   8   8
#     4  11  24  43  64  93 126 169 217 258 306 378
#     4  10  23  43  65  89 131 165 204 266 322 366
#     4  11  25  41  66  98 127 163 209 261 322 383
#     4  11  24  43  64  93 126 169 217 258 306 378
#     4  12  24  38  68  94 126 166 212 256 322 372
#     4  11  25  41  66  98 127 163 209 261 322 383
#     4  10  23  43  65  89 131 165 204 266 322 366
#
# _framework density 19.557950999999999
#
# number of rings (size 3 to 8) (size 9 to 14) (size 15 to 20)
#    0.000    1.143    2.857    3.429    8.000    1.143 
#    0.000    2.857    0.000    0.000    0.000    0.000 
#    0.000    0.000    0.000    0.000    0.000    0.000 
#
# Total GULP energy -694579.434946 kJ/mol
# GULP energy per Si atom -12403.204195 kJ/mol
# Density = 1.951344 g / cm^3
# Si number density = 19.557951 Si / 1000 Ang^3
#
#
#
# Elastic Constant Matrix: (Units=GPa)
#
#
# Indices 1 2 3 4 5 6 
#
# 1 131.1123 42.8983 28.6338 0.0000 0.0000 0.0000
# 2 42.8983 113.9229 33.1207 0.0000 0.0000 0.0000
# 3 28.6338 33.1207 99.2482 0.0000 0.0000 0.0000
# 4 0.0000 0.0000 0.0000 25.6269 0.0000 0.0000
# 5 0.0000 0.0000 0.0000 0.0000 44.4437 0.0000
# 6 0.0000 0.0000 0.0000 0.0000 0.0000 36.9378
#
#
#
# Elastic Compliance Matrix: (Units=1/GPa)
#
#
# Indices 1 2 3 4 5 6 
#
# 1 0.008925 -0.002893 -0.001610 0.000000 0.000000 0.000000
# 2 -0.002893 0.010659 -0.002722 0.000000 0.000000 0.000000
# 3 -0.001610 -0.002722 0.011449 0.000000 0.000000 0.000000
# 4 0.000000 0.000000 0.000000 0.039021 0.000000 0.000000
# 5 0.000000 0.000000 0.000000 0.000000 0.022500 0.000000
# 6 0.000000 0.000000 0.000000 0.000000 0.000000 0.027073
#
#
# Mechanical properties :
#
#
# Convention : Reuss Voigt Hill
#
# Bulk Modulus (GPa) = 60.30338 61.50990 60.90664
# Shear Modulus (GPa) = 35.81563 37.37705 36.59634
#
# Velocity S-wave (km/s) = 4.28396 4.37635 4.33040
# Velocity P-wave (km/s) = 7.44109 7.55347 7.49749
#
# Compressibility (1/GPa) = 0.01658282
#
# Stress axis : x y z
#
# Youngs Moduli (GPa) = 112.04405 93.82052 87.34684
#
# Poissons Ratio (x) = 0.27141 0.14059
# Poissons Ratio (y) = 0.32412 0.23779
# Poissons Ratio (z) = 0.18034 0.25541
#
# Static dielectric constant tensor:
#      x y z
#    x 3.819520 0.000000 0.000000 
#    y 0.000000 3.816190 0.000000 
#    z 0.000000 0.000000 3.605450 
# 
# 
# High freq. dielectric constant tensor:
#      x y z
#    x 1.776510 0.000000 0.000000 
#    y 0.000000 1.762580 0.000000 
#    z 0.000000 0.000000 1.768180 
# 
# From -- ./inp_files/20529.got.cif
#   From: 2010.03.12/outbox.cif.g09.slc.cpg/sg54_11_cif.got.tgz:20529.got - 2010.04.16 15:00:50.
