data_PCOD8223118
_publ_section_title
;
Structure prediction by ZEFSAII (Michael W. Deem and Ramdas Pophale) SiO2 
 PCOD8223118
Probable space group: P C C A
;
_chemical_formula_sum "Si O2"
_cell_formula_units_Z 40
_cell_length_a 11.627447
_cell_length_b 11.756856
_cell_length_c 13.245939
_cell_angle_alpha 90.000000
_cell_angle_beta 90.000000
_cell_angle_gamma 90.000000
_cell_volume 1810.749268
_symmetry_space_group_name_H-M "P C C A"
_symmetry_group_IT_number 54
_symmetry_cell_setting 'orthorhombic'
loop_
_space_group_symop_operation_xyz
x,y,z
1/2-x,-y,z
1/2+x,-y,1/2-z
-x,y,1/2-z
-x,-y,-z
1/2+x,y,-z
1/2-x,y,1/2+z
x,-y,1/2+z
loop_
_atom_site_type_symbol
_atom_site_label
_atom_site_fract_x
_atom_site_fract_y
_atom_site_fract_z
Si Si1 0.709364 0.749084 0.627563
Si Si2 0.357840 0.217198 0.051603
Si Si3 0.286481 0.373701 0.689070
Si Si4 0.948857 0.375862 0.488096
Si Si5 0.626094 0.063481 0.266283
O O1 0.772019 0.818720 0.538602
O O2 0.800831 0.697362 0.707455
O O3 0.645675 0.641351 0.576039
O O4 0.621947 0.832525 0.686374
O O5 0.313428 0.319403 0.121322
O O6 0.469659 0.266945 0.997964
O O7 0.376559 0.104822 0.117941
O O8 0.250000 0.500000 0.716936
O O9 0.403397 0.368803 0.626185
O O10 0.000000 0.500000 0.500000
O O11 0.500000 0.999205 0.250000
O O12 0.750000 0.000000 0.248205
#
# Coordination Sequence:
#
# PCOD8223118 Si02
#       5
#     8   8   8   8   8
#     4  10  24  42  64  97 141 177 232 301 351 436
#     4  10  22  43  65  95 139 176 227 294 354 431
#     4  10  21  35  58  95 137 182 229 273 347 435
#     4  11  21  38  65  95 138 190 227 281 363 435
#     4  11  24  50  76 102 137 187 243 309 369 421
#
# _framework density 22.090304
#
# number of rings (size 3 to 8) (size 9 to 14) (size 15 to 20)
#    0.000    1.600    4.000    0.000    2.800    1.600 
#   10.800    2.000    0.000    0.000    0.000    0.000 
#    0.000    0.000    0.000    0.000    0.000    0.000 
#
# Total GULP energy -495570.881471 kJ/mol
# GULP energy per Si atom -12389.272037 kJ/mol
# Density = 2.204003 g / cm^3
# Si number density = 22.090304 Si / 1000 Ang^3
#
#
#
# Elastic Constant Matrix: (Units=GPa)
#
#
# Indices 1 2 3 4 5 6 
#
# 1 126.9985 32.2103 49.3402 0.0000 0.0000 0.0000
# 2 32.2103 54.9428 29.4303 0.0000 0.0000 0.0000
# 3 49.3402 29.4303 136.2744 0.0000 0.0000 0.0000
# 4 0.0000 0.0000 0.0000 22.0766 0.0000 0.0000
# 5 0.0000 0.0000 0.0000 0.0000 27.7496 0.0000
# 6 0.0000 0.0000 0.0000 0.0000 0.0000 36.5556
#
#
#
# Elastic Compliance Matrix: (Units=1/GPa)
#
#
# Indices 1 2 3 4 5 6 
#
# 1 0.010043 -0.004455 -0.002674 0.000000 0.000000 0.000000
# 2 -0.004455 0.022558 -0.003259 0.000000 0.000000 0.000000
# 3 -0.002674 -0.003259 0.009010 0.000000 0.000000 0.000000
# 4 0.000000 0.000000 0.000000 0.045297 0.000000 0.000000
# 5 0.000000 0.000000 0.000000 0.000000 0.036037 0.000000
# 6 0.000000 0.000000 0.000000 0.000000 0.000000 0.027356
#
#
# Mechanical properties :
#
#
# Convention : Reuss Voigt Hill
#
# Bulk Modulus (GPa) = 47.99565 60.01971 54.00768
# Shear Modulus (GPa) = 28.08653 31.09203 29.58928
#
# Velocity S-wave (km/s) = 3.56960 3.75573 3.66385
# Velocity P-wave (km/s) = 6.22604 6.78502 6.51153
#
# Compressibility (1/GPa) = 0.02083522
#
# Stress axis : x y z
#
# Youngs Moduli (GPa) = 99.57189 44.32977 110.98723
#
# Poissons Ratio (x) = 0.19751 0.29678
# Poissons Ratio (y) = 0.44363 0.36166
# Poissons Ratio (z) = 0.26626 0.14445
#
# Static dielectric constant tensor:
#      x y z
#    x 4.136040 0.000000 0.000000 
#    y 0.000000 3.664750 0.000000 
#    z 0.000000 0.000000 4.296480 
# 
# 
# High freq. dielectric constant tensor:
#      x y z
#    x 1.866940 0.000000 0.000000 
#    y 0.000000 1.837370 0.000000 
#    z 0.000000 0.000000 1.888320 
# 
# From -- ./inp_files/12475.got.cif
#   From: 2010.03.12/outbox.cif.g09.slc.cpg/sg54_7_cif.got.tgz:12475.got - 2010.04.16 15:00:50.
