data_PCOD8223438
_publ_section_title
;
Structure prediction by ZEFSAII (Michael W. Deem and Ramdas Pophale) SiO2 
 PCOD8223438
Probable space group: P C C A
;
_chemical_formula_sum "Si O2"
_cell_formula_units_Z 36
_cell_length_a 9.747793
_cell_length_b 13.473040
_cell_length_c 12.840637
_cell_angle_alpha 90.000000
_cell_angle_beta 90.000000
_cell_angle_gamma 90.000000
_cell_volume 1686.391739
_symmetry_space_group_name_H-M "P C C A"
_symmetry_group_IT_number 54
_symmetry_cell_setting 'orthorhombic'
loop_
_space_group_symop_operation_xyz
x,y,z
1/2-x,-y,z
1/2+x,-y,1/2-z
-x,y,1/2-z
-x,-y,-z
1/2+x,y,-z
1/2-x,y,1/2+z
x,-y,1/2+z
loop_
_atom_site_type_symbol
_atom_site_label
_atom_site_fract_x
_atom_site_fract_y
_atom_site_fract_z
Si Si1 0.115407 0.330768 0.888846
Si Si2 0.386134 0.065033 0.051902
Si Si3 0.500000 0.630726 0.250000
Si Si4 0.750000 0.500000 0.230796
Si Si5 0.107874 0.275225 0.458076
Si Si6 0.500000 0.830619 0.750000
O O1 0.141628 0.436056 0.835969
O O2 0.238011 0.313795 0.969510
O O3 0.111951 0.240934 0.805007
O O4 0.973430 0.332787 0.951434
O O5 0.421936 0.099058 0.168676
O O6 0.250000 0.000000 0.054939
O O7 0.380789 0.158375 0.974988
O O8 0.500000 0.000000 0.000000
O O9 0.637153 0.569228 0.289314
O O10 0.455562 0.700604 0.345321
#
# Coordination Sequence:
#
# PCOD8223438 Si02
#       6
#     8   8   4   4   8   4
#     4  10  22  40  62  88 126 162 206 251 307 363
#     4  11  24  42  65  91 121 160 209 253 305 374
#     4  10  23  39  62  90 128 162 208 253 309 368
#     4  10  22  38  62  94 120 168 212 250 300 372
#     4  10  23  41  60  90 124 163 199 257 313 357
#     4  10  23  41  64  92 128 164 198 261 315 356
#
# _framework density 21.347352999999998
#
# number of rings (size 3 to 8) (size 9 to 14) (size 15 to 20)
#    0.000    1.778    0.000    3.333    0.000   20.444 
#    0.000    0.000    0.000    0.000    0.000    0.000 
#    0.000    0.000    0.000    0.000    0.000    0.000 
#
# Total GULP energy -446106.493944 kJ/mol
# GULP energy per Si atom -12391.847054 kJ/mol
# Density = 2.129877 g / cm^3
# Si number density = 21.347353 Si / 1000 Ang^3
#
#
#
# Elastic Constant Matrix: (Units=GPa)
#
#
# Indices 1 2 3 4 5 6 
#
# 1 152.4934 59.6145 54.5703 0.0000 0.0000 0.0000
# 2 59.6145 117.8884 48.0833 0.0000 0.0000 0.0000
# 3 54.5703 48.0833 99.3542 0.0000 0.0000 0.0000
# 4 0.0000 0.0000 0.0000 25.7003 0.0000 0.0000
# 5 0.0000 0.0000 0.0000 0.0000 15.8034 0.0000
# 6 0.0000 0.0000 0.0000 0.0000 0.0000 49.0094
#
#
#
# Elastic Compliance Matrix: (Units=1/GPa)
#
#
# Indices 1 2 3 4 5 6 
#
# 1 0.009020 -0.003165 -0.003422 0.000000 0.000000 0.000000
# 2 -0.003165 0.011680 -0.003914 0.000000 0.000000 0.000000
# 3 -0.003422 -0.003914 0.013839 0.000000 0.000000 0.000000
# 4 0.000000 0.000000 0.000000 0.038910 0.000000 0.000000
# 5 0.000000 0.000000 0.000000 0.000000 0.063278 0.000000
# 6 0.000000 0.000000 0.000000 0.000000 0.000000 0.020404
#
#
# Mechanical properties :
#
#
# Convention : Reuss Voigt Hill
#
# Bulk Modulus (GPa) = 73.88084 77.14137 75.51111
# Shear Modulus (GPa) = 27.37556 31.93382 29.65469
#
# Velocity S-wave (km/s) = 3.58493 3.87190 3.73117
# Velocity P-wave (km/s) = 7.19859 7.49690 7.34926
#
# Compressibility (1/GPa) = 0.01353531
#
# Stress axis : x y z
#
# Youngs Moduli (GPa) = 110.86797 85.61909 72.26050
#
# Poissons Ratio (x) = 0.27101 0.24729
# Poissons Ratio (y) = 0.35093 0.28282
# Poissons Ratio (z) = 0.37941 0.33510
#
# Static dielectric constant tensor:
#      x y z
#    x 4.318060 0.000000 0.000000 
#    y 0.000000 6.342400 0.000000 
#    z 0.000000 0.000000 4.621770 
# 
# 
# High freq. dielectric constant tensor:
#      x y z
#    x 1.856630 0.000000 0.000000 
#    y 0.000000 1.848460 0.000000 
#    z 0.000000 0.000000 1.825730 
# 
# From -- ./inp_files/7431.got.cif
#   From: 2010.03.12/outbox.cif.g09.slc.cpg/sg54_4_cif.got.tgz:7431.got - 2010.04.16 15:00:50.
