data_PCOD8223007
_publ_section_title
;
Structure prediction by ZEFSAII (Michael W. Deem and Ramdas Pophale) SiO2 
 PCOD8223007
Probable space group: P C C A
;
_chemical_formula_sum "Si O2"
_cell_formula_units_Z 48
_cell_length_a 9.577227
_cell_length_b 18.414013
_cell_length_c 13.124624
_cell_angle_alpha 90.000000
_cell_angle_beta 90.000000
_cell_angle_gamma 90.000000
_cell_volume 2314.595461
_symmetry_space_group_name_H-M "P C C A"
_symmetry_group_IT_number 54
_symmetry_cell_setting 'orthorhombic'
loop_
_space_group_symop_operation_xyz
x,y,z
1/2-x,-y,z
1/2+x,-y,1/2-z
-x,y,1/2-z
-x,-y,-z
1/2+x,y,-z
1/2-x,y,1/2+z
x,-y,1/2+z
loop_
_atom_site_type_symbol
_atom_site_label
_atom_site_fract_x
_atom_site_fract_y
_atom_site_fract_z
Si Si1 0.769718 0.655376 0.900893
Si Si2 0.758044 0.786432 0.035833
Si Si3 0.091107 0.990915 0.154943
Si Si4 0.493871 0.884297 0.482282
Si Si5 0.362403 0.328348 0.305036
Si Si6 0.004187 0.584287 0.477096
O O1 0.746908 0.644992 0.780351
O O2 0.653162 0.612859 0.967019
O O3 0.761319 0.740302 0.931012
O O4 0.921901 0.623727 0.927316
O O5 0.865322 0.852733 0.030378
O O6 0.793731 0.735204 0.130342
O O7 0.604377 0.818485 0.053841
O O8 0.000000 0.964170 0.250000
O O9 0.250000 0.000000 0.191116
O O10 0.029212 0.066917 0.115256
O O11 0.086876 0.930841 0.066923
O O12 0.500000 0.296204 0.250000
O O13 0.407239 0.396853 0.375053
O O14 0.000000 0.500000 0.500000
#
# Coordination Sequence:
#
# PCOD8223007 Si02
#       6
#     8   8   8   8   8   8
#     4  10  21  40  62  91 127 159 209 262 308 375
#     4  11  22  40  66  91 122 169 204 259 321 371
#     4  11  26  44  65  95 129 166 211 262 311 376
#     4  11  24  43  66  90 128 164 210 257 315 376
#     4   9  20  39  62  91 125 161 208 262 312 369
#     4  10  20  39  63  88 124 169 205 254 316 370
#
# _framework density 20.737966
#
# number of rings (size 3 to 8) (size 9 to 14) (size 15 to 20)
#    0.000    1.667    1.667    3.500    2.333    3.333 
#    0.000   25.000    0.000    0.000    0.000    0.000 
#    0.000    0.000    0.000    0.000    0.000    0.000 
#
# Total GULP energy -595402.816582 kJ/mol
# GULP energy per Si atom -12404.225345 kJ/mol
# Density = 2.069076 g / cm^3
# Si number density = 20.737966 Si / 1000 Ang^3
#
#
#
# Elastic Constant Matrix: (Units=GPa)
#
#
# Indices 1 2 3 4 5 6 
#
# 1 75.7738 20.5191 31.1942 0.0000 0.0000 0.0000
# 2 20.5191 104.3423 25.7270 0.0000 0.0000 0.0000
# 3 31.1942 25.7270 104.6753 0.0000 0.0000 0.0000
# 4 0.0000 0.0000 0.0000 15.0444 0.0000 0.0000
# 5 0.0000 0.0000 0.0000 0.0000 35.5399 0.0000
# 6 0.0000 0.0000 0.0000 0.0000 0.0000 29.9001
#
#
#
# Elastic Compliance Matrix: (Units=1/GPa)
#
#
# Indices 1 2 3 4 5 6 
#
# 1 0.015434 -0.002024 -0.004102 0.000000 0.000000 0.000000
# 2 -0.002024 0.010467 -0.001970 0.000000 0.000000 0.000000
# 3 -0.004102 -0.001970 0.011260 0.000000 0.000000 0.000000
# 4 0.000000 0.000000 0.000000 0.066470 0.000000 0.000000
# 5 0.000000 0.000000 0.000000 0.000000 0.028137 0.000000
# 6 0.000000 0.000000 0.000000 0.000000 0.000000 0.033445
#
#
# Mechanical properties :
#
#
# Convention : Reuss Voigt Hill
#
# Bulk Modulus (GPa) = 47.68596 48.85242 48.26919
# Shear Modulus (GPa) = 26.54013 29.92031 28.23022
#
# Velocity S-wave (km/s) = 3.58129 3.80251 3.69356
# Velocity P-wave (km/s) = 6.33603 6.54881 6.44330
#
# Compressibility (1/GPa) = 0.02097053
#
# Stress axis : x y z
#
# Youngs Moduli (GPa) = 64.79253 95.53445 88.81087
#
# Poissons Ratio (x) = 0.19333 0.36431
# Poissons Ratio (y) = 0.13112 0.17492
# Poissons Ratio (z) = 0.26578 0.18816
#
# Static dielectric constant tensor:
#      x y z
#    x 3.925930 0.000000 0.000000 
#    y 0.000000 3.668890 0.000000 
#    z 0.000000 0.000000 3.753160 
# 
# 
# High freq. dielectric constant tensor:
#      x y z
#    x 1.823950 0.000000 0.000000 
#    y 0.000000 1.808220 0.000000 
#    z 0.000000 0.000000 1.804050 
# 
# From -- ./inp_files/11700.got.cif
#   From: 2010.03.12/outbox.cif.g09.slc.cpg/sg54_6_cif.got.tgz:11700.got - 2010.04.16 15:00:50.
