data_PCOD8223122
_publ_section_title
;
Structure prediction by ZEFSAII (Michael W. Deem and Ramdas Pophale) SiO2 
 PCOD8223122
Probable space group: P C C A
;
_chemical_formula_sum "Si O2"
_cell_formula_units_Z 40
_cell_length_a 17.160209
_cell_length_b 11.013537
_cell_length_c 8.963702
_cell_angle_alpha 90.000000
_cell_angle_beta 90.000000
_cell_angle_gamma 90.000000
_cell_volume 1694.091245
_symmetry_space_group_name_H-M "P C C A"
_symmetry_group_IT_number 54
_symmetry_cell_setting 'orthorhombic'
loop_
_space_group_symop_operation_xyz
x,y,z
1/2-x,-y,z
1/2+x,-y,1/2-z
-x,y,1/2-z
-x,-y,-z
1/2+x,y,-z
1/2-x,y,1/2+z
x,-y,1/2+z
loop_
_atom_site_type_symbol
_atom_site_label
_atom_site_fract_x
_atom_site_fract_y
_atom_site_fract_z
Si Si1 0.786978 0.341345 0.062617
Si Si2 0.397818 0.341320 0.419902
Si Si3 0.921757 0.082359 0.673203
Si Si4 0.864830 0.487281 0.322626
Si Si5 0.671752 0.078400 0.463044
O O1 0.694976 0.326423 0.066937
O O2 0.813279 0.397614 0.220160
O O3 0.822191 0.208213 0.041414
O O4 0.810472 0.430555 0.929068
O O5 0.439741 0.212580 0.402611
O O6 0.418505 0.425078 0.277769
O O7 0.423544 0.406827 0.574343
O O8 0.000000 0.033765 0.750000
O O9 0.898871 0.989172 0.544737
O O10 0.850775 0.095127 0.790244
O O11 0.750000 0.000000 0.473878
#
# Coordination Sequence:
#
# PCOD8223122 Si02
#       5
#     8   8   8   8   8
#     4  11  20  37  65 104 131 166 222 287 333 387
#     4  11  20  37  63  94 134 170 220 277 336 401
#     4  12  28  47  66  97 143 185 223 280 352 408
#     4  10  21  35  64 102 134 168 218 285 344 386
#     4  12  26  45  73 102 131 176 238 285 327 401
#
# _framework density 23.611478999999999
#
# number of rings (size 3 to 8) (size 9 to 14) (size 15 to 20)
#    0.000    0.800    4.000    6.000    2.800    0.000 
#    0.000    1.000    0.000    0.000    0.000    0.000 
#    0.000    0.000    0.000    0.000    0.000    0.000 
#
# Total GULP energy -496071.109346 kJ/mol
# GULP energy per Si atom -12401.777734 kJ/mol
# Density = 2.355774 g / cm^3
# Si number density = 23.611479 Si / 1000 Ang^3
#
#
#
# Elastic Constant Matrix: (Units=GPa)
#
#
# Indices 1 2 3 4 5 6 
#
# 1 33.3727 7.8175 -1.5393 0.0000 0.0000 0.0000
# 2 7.8175 151.3122 52.3648 0.0000 0.0000 0.0000
# 3 -1.5393 52.3648 138.8878 0.0000 0.0000 0.0000
# 4 0.0000 0.0000 0.0000 31.1403 0.0000 0.0000
# 5 0.0000 0.0000 0.0000 0.0000 17.8807 0.0000
# 6 0.0000 0.0000 0.0000 0.0000 0.0000 20.6672
#
#
#
# Elastic Compliance Matrix: (Units=1/GPa)
#
#
# Indices 1 2 3 4 5 6 
#
# 1 0.030470 -0.001945 0.001071 0.000000 0.000000 0.000000
# 2 -0.001945 0.007725 -0.002934 0.000000 0.000000 0.000000
# 3 0.001071 -0.002934 0.008318 0.000000 0.000000 0.000000
# 4 0.000000 0.000000 0.000000 0.032113 0.000000 0.000000
# 5 0.000000 0.000000 0.000000 0.000000 0.055926 0.000000
# 6 0.000000 0.000000 0.000000 0.000000 0.000000 0.048386
#
#
# Mechanical properties :
#
#
# Convention : Reuss Voigt Hill
#
# Bulk Modulus (GPa) = 25.70911 48.98428 37.34669
# Shear Modulus (GPa) = 24.56778 31.59962 28.08370
#
# Velocity S-wave (km/s) = 3.22918 3.66227 3.45252
# Velocity P-wave (km/s) = 4.98152 6.21884 5.63425
#
# Compressibility (1/GPa) = 0.03889672
#
# Stress axis : x y z
#
# Youngs Moduli (GPa) = 32.81957 129.45476 120.21933
#
# Poissons Ratio (x) = 0.25177 -0.12875
# Poissons Ratio (y) = 0.06383 0.35272
# Poissons Ratio (z) = -0.03515 0.37982
#
# Static dielectric constant tensor:
#      x y z
#    x 3.705550 0.000000 0.000000 
#    y 0.000000 4.667940 0.000000 
#    z 0.000000 0.000000 4.769450 
# 
# 
# High freq. dielectric constant tensor:
#      x y z
#    x 1.902390 0.000000 0.000000 
#    y 0.000000 1.949260 0.000000 
#    z 0.000000 0.000000 1.956140 
# 
# From -- ./inp_files/3945.got.cif
#   From: 2010.03.12/outbox.cif.g09.slc.cpg/sg54_2_cif.got.tgz:3945.got - 2010.04.16 15:00:50.
