data_PCOD8223419
_publ_section_title
;
Structure prediction by ZEFSAII (Michael W. Deem and Ramdas Pophale) SiO2 
 PCOD8223419
Probable space group: P C C A
;
_chemical_formula_sum "Si O2"
_cell_formula_units_Z 48
_cell_length_a 16.611908
_cell_length_b 14.422288
_cell_length_c 9.962717
_cell_angle_alpha 90.000000
_cell_angle_beta 90.000000
_cell_angle_gamma 90.000000
_cell_volume 2386.884889
_symmetry_space_group_name_H-M "P C C A"
_symmetry_group_IT_number 54
_symmetry_cell_setting 'orthorhombic'
loop_
_space_group_symop_operation_xyz
x,y,z
1/2-x,-y,z
1/2+x,-y,1/2-z
-x,y,1/2-z
-x,-y,-z
1/2+x,y,-z
1/2-x,y,1/2+z
x,-y,1/2+z
loop_
_atom_site_type_symbol
_atom_site_label
_atom_site_fract_x
_atom_site_fract_y
_atom_site_fract_z
Si Si1 0.592766 0.432003 0.907137
Si Si2 0.805694 0.769075 0.650088
Si Si3 0.597188 0.587932 0.107163
Si Si4 0.663059 0.971649 0.187487
Si Si5 0.579810 0.053147 0.951952
Si Si6 0.839026 0.759605 0.951698
O O1 0.498071 0.413612 0.908181
O O2 0.622633 0.447926 0.754848
O O3 0.625942 0.341066 0.978305
O O4 0.628027 0.518126 0.992181
O O5 0.863681 0.689626 0.587519
O O6 0.849026 0.867593 0.632443
O O7 0.790808 0.757833 0.810026
O O8 0.721065 0.776360 0.574572
O O9 0.599925 0.989842 0.307166
O O10 0.750000 0.000000 0.245666
O O11 0.648545 0.036332 0.060988
O O12 0.586187 0.165989 0.943845
O O13 0.500000 0.000000 0.000000
#
# Coordination Sequence:
#
# PCOD8223419 Si02
#       6
#     8   8   8   8   8   8
#     4   9  19  37  60  84 116 150 197 246 296 356
#     4  10  22  37  59  85 115 156 195 240 300 358
#     4   9  19  37  60  84 113 154 194 241 301 357
#     4  11  22  40  62  86 121 161 200 249 304 372
#     4  11  24  39  61  89 121 158 202 252 307 362
#     4  10  22  39  58  87 119 154 199 246 296 361
#
# _framework density 20.109893
#
# number of rings (size 3 to 8) (size 9 to 14) (size 15 to 20)
#    0.000    2.000    1.667    1.000    4.667    2.000 
#    0.000    3.333    7.333    0.000    0.000    0.000 
#    0.000    0.000    0.000    0.000    0.000    0.000 
#
# Total GULP energy -594704.462462 kJ/mol
# GULP energy per Si atom -12389.676301 kJ/mol
# Density = 2.006412 g / cm^3
# Si number density = 20.109893 Si / 1000 Ang^3
#
#
#
# Elastic Constant Matrix: (Units=GPa)
#
#
# Indices 1 2 3 4 5 6 
#
# 1 61.2210 40.5603 31.7810 0.0000 0.0000 0.0000
# 2 40.5603 120.5495 57.9280 0.0000 0.0000 0.0000
# 3 31.7810 57.9280 100.0495 0.0000 0.0000 0.0000
# 4 0.0000 0.0000 0.0000 32.4030 0.0000 0.0000
# 5 0.0000 0.0000 0.0000 0.0000 35.8837 0.0000
# 6 0.0000 0.0000 0.0000 0.0000 0.0000 34.5862
#
#
#
# Elastic Compliance Matrix: (Units=1/GPa)
#
#
# Indices 1 2 3 4 5 6 
#
# 1 0.021987 -0.005599 -0.003742 0.000000 0.000000 0.000000
# 2 -0.005599 0.012919 -0.005701 0.000000 0.000000 0.000000
# 3 -0.003742 -0.005701 0.014485 0.000000 0.000000 0.000000
# 4 0.000000 0.000000 0.000000 0.030861 0.000000 0.000000
# 5 0.000000 0.000000 0.000000 0.000000 0.027868 0.000000
# 6 0.000000 0.000000 0.000000 0.000000 0.000000 0.028913
#
#
# Mechanical properties :
#
#
# Convention : Reuss Voigt Hill
#
# Bulk Modulus (GPa) = 51.80094 60.26208 56.03151
# Shear Modulus (GPa) = 28.80956 30.67795 29.74375
#
# Velocity S-wave (km/s) = 3.78908 3.91002 3.85003
# Velocity P-wave (km/s) = 6.70505 7.10041 6.90556
#
# Compressibility (1/GPa) = 0.01930467
#
# Stress axis : x y z
#
# Youngs Moduli (GPa) = 45.48225 77.40507 69.03802
#
# Poissons Ratio (x) = 0.43343 0.25834
# Poissons Ratio (y) = 0.25468 0.39361
# Poissons Ratio (z) = 0.17020 0.44131
#
# Static dielectric constant tensor:
#      x y z
#    x 3.356380 0.000000 0.000000 
#    y 0.000000 3.848030 0.000000 
#    z 0.000000 0.000000 3.878700 
# 
# 
# High freq. dielectric constant tensor:
#      x y z
#    x 1.763640 0.000000 0.000000 
#    y 0.000000 1.795100 0.000000 
#    z 0.000000 0.000000 1.795070 
# 
# From -- ./inp_files/4190.got.cif
#   From: 2010.03.12/outbox.cif.g09.slc.cpg/sg54_3_cif.got.tgz:4190.got - 2010.04.16 15:00:50.
