data_PCOD8223137
_publ_section_title
;
Structure prediction by ZEFSAII (Michael W. Deem and Ramdas Pophale) SiO2 
 PCOD8223137
Probable space group: P C C A
;
_chemical_formula_sum "Si O2"
_cell_formula_units_Z 56
_cell_length_a 5.064818
_cell_length_b 32.950644
_cell_length_c 16.683663
_cell_angle_alpha 90.000000
_cell_angle_beta 90.000000
_cell_angle_gamma 90.000000
_cell_volume 2784.320082
_symmetry_space_group_name_H-M "P C C A"
_symmetry_group_IT_number 54
_symmetry_cell_setting 'orthorhombic'
loop_
_space_group_symop_operation_xyz
x,y,z
1/2-x,-y,z
1/2+x,-y,1/2-z
-x,y,1/2-z
-x,-y,-z
1/2+x,y,-z
1/2-x,y,1/2+z
x,-y,1/2+z
loop_
_atom_site_type_symbol
_atom_site_label
_atom_site_fract_x
_atom_site_fract_y
_atom_site_fract_z
Si Si1 0.596758 0.691941 0.051663
Si Si2 0.753714 0.952134 0.301190
Si Si3 0.620382 0.103818 0.445405
Si Si4 0.999276 0.767828 0.656213
Si Si5 0.576006 0.600764 0.051868
Si Si6 0.994115 0.182533 0.844616
Si Si7 0.000906 0.475237 0.344776
O O1 0.552530 0.723635 0.121892
O O2 0.553844 0.646538 0.086256
O O3 0.392051 0.698902 0.979656
O O4 0.500000 0.937447 0.250000
O O5 0.786862 0.932905 0.388617
O O6 0.000000 0.937471 0.250000
O O7 0.750000 0.000000 0.315074
O O8 0.326966 0.101711 0.481669
O O9 0.614863 0.144064 0.392226
O O10 0.781274 0.801207 0.628001
O O11 0.000000 0.762454 0.750000
O O12 0.288405 0.782488 0.630852
O O13 0.507423 0.570404 0.123265
O O14 0.371147 0.593409 0.979694
O O15 0.000000 0.172225 0.750000
O O16 0.750000 0.500000 0.377083
O O17 0.250000 0.500000 0.377333
O O18 0.000000 0.471867 0.250000
#
# Coordination Sequence:
#
# PCOD8223137 Si02
#       7
#     8   8   8   8   8   8   8
#     4  10  21  36  55  79 109 142 176 223 276 326
#     4  10  22  42  66  88 116 160 203 236 285 352
#     4  12  25  38  59  92 123 152 192 244 296 340
#     4  10  21  37  58  82 107 144 191 232 274 328
#     4  10  21  36  54  79 107 139 180 218 264 326
#     4  10  22  39  57  80 114 152 190 231 277 339
#     4  10  21  36  54  78 107 138 174 219 270 318
#
# _framework density 20.112631
#
# number of rings (size 3 to 8) (size 9 to 14) (size 15 to 20)
#    0.000    1.714    0.000    3.857    0.000    8.000 
#    0.000    0.000    0.000   10.286    0.000    0.000 
#    0.000    0.000    0.000    0.000    0.000    0.000 
#
# Total GULP energy -694362.669008 kJ/mol
# GULP energy per Si atom -12399.333375 kJ/mol
# Density = 2.006685 g / cm^3
# Si number density = 20.112631 Si / 1000 Ang^3
#
#
#
# Elastic Constant Matrix: (Units=GPa)
#
#
# Indices 1 2 3 4 5 6 
#
# 1 117.1426 29.3159 29.0991 0.0000 0.0000 0.0000
# 2 29.3159 96.6729 46.3230 0.0000 0.0000 0.0000
# 3 29.0991 46.3230 52.3428 0.0000 0.0000 0.0000
# 4 0.0000 0.0000 0.0000 19.0267 0.0000 0.0000
# 5 0.0000 0.0000 0.0000 0.0000 25.2201 0.0000
# 6 0.0000 0.0000 0.0000 0.0000 0.0000 85.3014
#
#
#
# Elastic Compliance Matrix: (Units=1/GPa)
#
#
# Indices 1 2 3 4 5 6 
#
# 1 0.009927 -0.000635 -0.004956 0.000000 0.000000 0.000000
# 2 -0.000635 0.018001 -0.015578 0.000000 0.000000 0.000000
# 3 -0.004956 -0.015578 0.035646 0.000000 0.000000 0.000000
# 4 0.000000 0.000000 0.000000 0.052558 0.000000 0.000000
# 5 0.000000 0.000000 0.000000 0.000000 0.039651 0.000000
# 6 0.000000 0.000000 0.000000 0.000000 0.000000 0.011723
#
#
# Mechanical properties :
#
#
# Convention : Reuss Voigt Hill
#
# Bulk Modulus (GPa) = 47.09085 52.84825 49.96955
# Shear Modulus (GPa) = 23.04958 36.67100 29.86029
#
# Velocity S-wave (km/s) = 3.38897 4.27462 3.85730
# Velocity P-wave (km/s) = 6.22719 7.12014 6.68858
#
# Compressibility (1/GPa) = 0.02123555
#
# Stress axis : x y z
#
# Youngs Moduli (GPa) = 100.73744 55.55168 28.05331
#
# Poissons Ratio (x) = 0.03529 0.13904
# Poissons Ratio (y) = 0.06400 0.43701
# Poissons Ratio (z) = 0.49929 0.86537
#
# Static dielectric constant tensor:
#      x y z
#    x 4.127140 0.000000 0.000000 
#    y 0.000000 3.705260 0.000000 
#    z 0.000000 0.000000 3.643730 
# 
# 
# High freq. dielectric constant tensor:
#      x y z
#    x 1.808000 0.000000 0.000000 
#    y 0.000000 1.791900 0.000000 
#    z 0.000000 0.000000 1.770300 
# 
# From -- ./inp_files/11004.got.cif
#   From: 2010.03.12/outbox.cif.g09.slc.cpg/sg54_6_cif.got.tgz:11004.got - 2010.04.16 15:00:50.
