data_PCOD8223227
_publ_section_title
;
Structure prediction by ZEFSAII (Michael W. Deem and Ramdas Pophale) SiO2 
 PCOD8223227
Probable space group: P C C A
;
_chemical_formula_sum "Si O2"
_cell_formula_units_Z 60
_cell_length_a 17.267330
_cell_length_b 16.235024
_cell_length_c 9.717739
_cell_angle_alpha 90.000000
_cell_angle_beta 90.000000
_cell_angle_gamma 90.000000
_cell_volume 2724.227386
_symmetry_space_group_name_H-M "P C C A"
_symmetry_group_IT_number 54
_symmetry_cell_setting 'orthorhombic'
loop_
_space_group_symop_operation_xyz
x,y,z
1/2-x,-y,z
1/2+x,-y,1/2-z
-x,y,1/2-z
-x,-y,-z
1/2+x,y,-z
1/2-x,y,1/2+z
x,-y,1/2+z
loop_
_atom_site_type_symbol
_atom_site_label
_atom_site_fract_x
_atom_site_fract_y
_atom_site_fract_z
Si Si1 0.835786 0.227929 0.368177
Si Si2 0.391378 0.600245 0.483499
Si Si3 0.557079 0.074220 0.875984
Si Si4 0.909026 0.471663 0.731367
Si Si5 0.444335 0.334777 0.466081
Si Si6 0.193402 0.232279 0.437680
Si Si7 0.000000 0.794242 0.250000
Si Si8 0.916925 0.897546 0.439075
O O1 0.882176 0.144429 0.341884
O O2 0.893515 0.302845 0.405661
O O3 0.793118 0.246731 0.224561
O O4 0.775380 0.217622 0.491203
O O5 0.371147 0.545388 0.619159
O O6 0.369080 0.549826 0.344915
O O7 0.483408 0.615177 0.473078
O O8 0.346898 0.686194 0.497847
O O9 0.500000 0.054450 0.750000
O O10 0.607229 0.992379 0.913635
O O11 0.504286 0.103166 0.001953
O O12 0.893817 0.392825 0.633415
O O13 0.000000 0.485440 0.750000
O O14 0.475473 0.258585 0.380140
O O15 0.142593 0.150084 0.462410
O O16 0.074389 0.849196 0.205614
#
# Coordination Sequence:
#
# PCOD8223227 Si02
#       8
#     8   8   8   8   8   8   4   8
#     4  12  29  45  69  99 144 187 241 285 349 430
#     4  11  23  41  72 102 138 172 237 284 362 411
#     4  11  22  44  69 109 134 172 234 293 345 412
#     4  10  21  38  66 107 135 166 226 296 351 408
#     4  11  21  40  70  99 134 181 227 296 342 419
#     4  12  28  47  68  96 141 195 230 285 354 428
#     4  12  18  36  68 104 134 176 218 292 342 420
#     4  11  23  40  72 103 137 175 228 286 350 407
#
# _framework density 22.024592999999999
#
# number of rings (size 3 to 8) (size 9 to 14) (size 15 to 20)
#    0.000    0.800    6.667    1.600    7.467    0.533 
#    0.000    2.000    0.000    0.000    0.000    0.000 
#    0.000    0.000    0.000    0.000    0.000    0.000 
#
# Total GULP energy -744001.439482 kJ/mol
# GULP energy per Si atom -12400.023991 kJ/mol
# Density = 2.197446 g / cm^3
# Si number density = 22.024593 Si / 1000 Ang^3
#
#
#
# Elastic Constant Matrix: (Units=GPa)
#
#
# Indices 1 2 3 4 5 6 
#
# 1 55.6009 26.7287 31.0963 0.0000 0.0000 0.0000
# 2 26.7287 116.5921 42.2125 0.0000 0.0000 0.0000
# 3 31.0963 42.2125 128.5267 0.0000 0.0000 0.0000
# 4 0.0000 0.0000 0.0000 29.7099 0.0000 0.0000
# 5 0.0000 0.0000 0.0000 0.0000 33.6030 0.0000
# 6 0.0000 0.0000 0.0000 0.0000 0.0000 7.9344
#
#
#
# Elastic Compliance Matrix: (Units=1/GPa)
#
#
# Indices 1 2 3 4 5 6 
#
# 1 0.022016 -0.003539 -0.004164 0.000000 0.000000 0.000000
# 2 -0.003539 0.010303 -0.002528 0.000000 0.000000 0.000000
# 3 -0.004164 -0.002528 0.009618 0.000000 0.000000 0.000000
# 4 0.000000 0.000000 0.000000 0.033659 0.000000 0.000000
# 5 0.000000 0.000000 0.000000 0.000000 0.029759 0.000000
# 6 0.000000 0.000000 0.000000 0.000000 0.000000 0.126034
#
#
# Mechanical properties :
#
#
# Convention : Reuss Voigt Hill
#
# Bulk Modulus (GPa) = 46.56605 55.64386 51.10495
# Shear Modulus (GPa) = 19.30428 27.62827 23.46628
#
# Velocity S-wave (km/s) = 2.96376 3.54563 3.26768
# Velocity P-wave (km/s) = 5.73590 6.48701 6.12298
#
# Compressibility (1/GPa) = 0.02147487
#
# Stress axis : x y z
#
# Youngs Moduli (GPa) = 45.42211 97.05464 103.97033
#
# Poissons Ratio (x) = 0.34352 0.43294
# Poissons Ratio (y) = 0.16077 0.26280
# Poissons Ratio (z) = 0.18914 0.24532
#
# Static dielectric constant tensor:
#      x y z
#    x 3.508350 0.000000 0.000000 
#    y 0.000000 4.155080 0.000000 
#    z 0.000000 0.000000 4.145520 
# 
# 
# High freq. dielectric constant tensor:
#      x y z
#    x 1.813730 0.000000 0.000000 
#    y 0.000000 1.884680 0.000000 
#    z 0.000000 0.000000 1.881920 
# 
# From -- ./inp_files/4370.got.cif
#   From: 2010.03.12/outbox.cif.g09.slc.cpg/sg54_3_cif.got.tgz:4370.got - 2010.04.16 15:00:50.
