data_PCOD8223699
_publ_section_title
;
Structure prediction by ZEFSAII (Michael W. Deem and Ramdas Pophale) SiO2 
 PCOD8223699
Probable space group: P C C A
;
_chemical_formula_sum "Si O2"
_cell_formula_units_Z 40
_cell_length_a 20.335450
_cell_length_b 5.736369
_cell_length_c 15.532786
_cell_angle_alpha 90.000000
_cell_angle_beta 90.000000
_cell_angle_gamma 90.000000
_cell_volume 1811.925038
_symmetry_space_group_name_H-M "P C C A"
_symmetry_group_IT_number 54
_symmetry_cell_setting 'orthorhombic'
loop_
_space_group_symop_operation_xyz
x,y,z
1/2-x,-y,z
1/2+x,-y,1/2-z
-x,y,1/2-z
-x,-y,-z
1/2+x,y,-z
1/2-x,y,1/2+z
x,-y,1/2+z
loop_
_atom_site_type_symbol
_atom_site_label
_atom_site_fract_x
_atom_site_fract_y
_atom_site_fract_z
Si Si1 0.723000 0.753147 0.415463
Si Si2 0.250000 0.000000 0.747537
Si Si3 0.500000 0.692755 0.750000
Si Si4 0.110367 0.017278 0.827909
Si Si5 0.032046 0.635863 0.894173
Si Si6 0.585051 0.746189 0.493697
O O1 0.750000 0.500000 0.449917
O O2 0.645518 0.749023 0.428736
O O3 0.750000 0.000000 0.458997
O O4 0.738045 0.773088 0.313009
O O5 0.312970 0.958114 0.807560
O O6 0.432998 0.841854 0.758989
O O7 0.509459 0.547631 0.837472
O O8 0.098142 0.085191 0.926863
O O9 0.083450 0.753402 0.827684
O O10 0.073466 0.514432 0.970132
O O11 0.979608 0.815222 0.937430
#
# Coordination Sequence:
#
# PCOD8223699 Si02
#       6
#     8   4   4   8   8   8
#     4  10  26  44  69 100 139 192 233 291 347 432
#     4  10  28  40  66 102 140 188 236 288 362 414
#     4  10  24  38  68 102 136 178 230 290 352 418
#     4  11  24  44  67 101 137 181 233 296 348 435
#     4  10  23  41  69 101 134 184 230 301 351 425
#     4  10  24  42  69 100 137 180 240 286 360 419
#
# _framework density 22.075969000000001
#
# number of rings (size 3 to 8) (size 9 to 14) (size 15 to 20)
#    0.600    1.200    0.000    1.200   12.600    1.600 
#    0.000    0.000    0.000    0.000    0.000    0.000 
#    0.000    0.000    0.000    0.000    0.000    0.000 
#
# Total GULP energy -495560.484784 kJ/mol
# GULP energy per Si atom -12389.012120 kJ/mol
# Density = 2.202572 g / cm^3
# Si number density = 22.075969 Si / 1000 Ang^3
#
#
#
# Elastic Constant Matrix: (Units=GPa)
#
#
# Indices 1 2 3 4 5 6 
#
# 1 186.5110 50.2827 61.4249 0.0000 0.0000 0.0000
# 2 50.2827 100.8870 23.8149 0.0000 0.0000 0.0000
# 3 61.4249 23.8149 79.8715 0.0000 0.0000 0.0000
# 4 0.0000 0.0000 0.0000 20.6911 0.0000 0.0000
# 5 0.0000 0.0000 0.0000 0.0000 47.9993 0.0000
# 6 0.0000 0.0000 0.0000 0.0000 0.0000 25.2898
#
#
#
# Elastic Compliance Matrix: (Units=1/GPa)
#
#
# Indices 1 2 3 4 5 6 
#
# 1 0.007790 -0.002655 -0.005199 0.000000 0.000000 0.000000
# 2 -0.002655 0.011568 -0.001407 0.000000 0.000000 0.000000
# 3 -0.005199 -0.001407 0.016938 0.000000 0.000000 0.000000
# 4 0.000000 0.000000 0.000000 0.048330 0.000000 0.000000
# 5 0.000000 0.000000 0.000000 0.000000 0.020834 0.000000
# 6 0.000000 0.000000 0.000000 0.000000 0.000000 0.039542
#
#
# Mechanical properties :
#
#
# Convention : Reuss Voigt Hill
#
# Bulk Modulus (GPa) = 56.26602 70.92383 63.59493
# Shear Modulus (GPa) = 29.50778 34.24585 31.87682
#
# Velocity S-wave (km/s) = 3.65998 3.94289 3.80407
# Velocity P-wave (km/s) = 6.58813 7.27499 6.94006
#
# Compressibility (1/GPa) = 0.01777272
#
# Stress axis : x y z
#
# Youngs Moduli (GPa) = 128.37586 86.44844 59.03935
#
# Poissons Ratio (x) = 0.22954 0.30694
# Poissons Ratio (y) = 0.34086 0.08307
# Poissons Ratio (z) = 0.66741 0.12164
#
# Static dielectric constant tensor:
#      x y z
#    x 3.893810 0.000000 0.000000 
#    y 0.000000 4.074890 0.000000 
#    z 0.000000 0.000000 3.789680 
# 
# 
# High freq. dielectric constant tensor:
#      x y z
#    x 1.867570 0.000000 0.000000 
#    y 0.000000 1.862500 0.000000 
#    z 0.000000 0.000000 1.863570 
# 
# From -- ./inp_files/18405.got.cif
#   From: 2010.03.12/outbox.cif.g09.slc.cpg/sg54_10_cif.got.tgz:18405.got - 2010.04.16 15:00:50.
