data_PCOD8223740
_publ_section_title
;
Structure prediction by ZEFSAII (Michael W. Deem and Ramdas Pophale) SiO2 
 PCOD8223740
Probable space group: P C C A
;
_chemical_formula_sum "Si O2"
_cell_formula_units_Z 48
_cell_length_a 15.453022
_cell_length_b 8.198944
_cell_length_c 16.951897
_cell_angle_alpha 90.000000
_cell_angle_beta 90.000000
_cell_angle_gamma 90.000000
_cell_volume 2147.779278
_symmetry_space_group_name_H-M "P C C A"
_symmetry_group_IT_number 54
_symmetry_cell_setting 'orthorhombic'
loop_
_space_group_symop_operation_xyz
x,y,z
1/2-x,-y,z
1/2+x,-y,1/2-z
-x,y,1/2-z
-x,-y,-z
1/2+x,y,-z
1/2-x,y,1/2+z
x,-y,1/2+z
loop_
_atom_site_type_symbol
_atom_site_label
_atom_site_fract_x
_atom_site_fract_y
_atom_site_fract_z
Si Si1 0.331431 0.592604 0.946816
Si Si2 0.000000 0.449596 0.750000
Si Si3 0.885131 0.875661 0.947530
Si Si4 0.849993 0.229045 0.709451
Si Si5 0.044943 0.338458 0.396043
Si Si6 0.250000 0.000000 0.678480
Si Si7 0.148227 0.041871 0.402039
O O1 0.250000 0.500000 0.980133
O O2 0.313217 0.646717 0.856469
O O3 0.418553 0.480393 0.954499
O O4 0.330493 0.743818 0.005013
O O5 0.081936 0.330786 0.738869
O O6 0.002508 0.568795 0.823743
O O7 0.832414 0.940018 0.871972
O O8 0.976395 0.792636 0.928107
O O9 0.894179 0.023379 0.010457
O O10 0.777127 0.153756 0.767049
O O11 0.896751 0.081853 0.660690
O O12 0.128887 0.226912 0.373706
O O13 0.250000 0.000000 0.401035
#
# Coordination Sequence:
#
# PCOD8223740 Si02
#       7
#     8   4   8   8   8   4   8
#     4  10  23  44  70  93 134 179 224 272 334 412
#     4  10  26  44  64 104 138 172 228 278 342 400
#     4  11  25  42  63 103 133 173 224 280 332 395
#     4  10  24  43  65  96 133 177 222 275 333 402
#     4  11  24  42  70  96 136 176 222 274 341 398
#     4  12  26  40  70 100 138 170 228 282 334 390
#     4  11  22  44  70  96 131 178 231 269 330 408
#
# _framework density 22.348665
#
# number of rings (size 3 to 8) (size 9 to 14) (size 15 to 20)
#    0.000    1.333    1.667    3.000    4.667    2.667 
#    3.000    0.000    0.000    0.000    0.000    0.000 
#    0.000    0.000    0.000    0.000    0.000    0.000 
#
# Total GULP energy -594738.927336 kJ/mol
# GULP energy per Si atom -12390.394320 kJ/mol
# Density = 2.229780 g / cm^3
# Si number density = 22.348665 Si / 1000 Ang^3
#
#
#
# Elastic Constant Matrix: (Units=GPa)
#
#
# Indices 1 2 3 4 5 6 
#
# 1 91.8805 39.2545 34.5910 0.0000 0.0000 0.0000
# 2 39.2545 108.8254 29.3482 0.0000 0.0000 0.0000
# 3 34.5910 29.3482 87.0794 0.0000 0.0000 0.0000
# 4 0.0000 0.0000 0.0000 25.3503 0.0000 0.0000
# 5 0.0000 0.0000 0.0000 0.0000 21.1671 0.0000
# 6 0.0000 0.0000 0.0000 0.0000 0.0000 48.3363
#
#
#
# Elastic Compliance Matrix: (Units=1/GPa)
#
#
# Indices 1 2 3 4 5 6 
#
# 1 0.014196 -0.003960 -0.004305 0.000000 0.000000 0.000000
# 2 -0.003960 0.011212 -0.002206 0.000000 0.000000 0.000000
# 3 -0.004305 -0.002206 0.013937 0.000000 0.000000 0.000000
# 4 0.000000 0.000000 0.000000 0.039447 0.000000 0.000000
# 5 0.000000 0.000000 0.000000 0.000000 0.047243 0.000000
# 6 0.000000 0.000000 0.000000 0.000000 0.000000 0.020688
#
#
# Mechanical properties :
#
#
# Convention : Reuss Voigt Hill
#
# Bulk Modulus (GPa) = 54.33332 54.90805 54.62069
# Shear Modulus (GPa) = 28.76875 31.27685 30.02280
#
# Velocity S-wave (km/s) = 3.59175 3.74504 3.66919
# Velocity P-wave (km/s) = 6.44711 6.58199 6.51490
#
# Compressibility (1/GPa) = 0.01840491
#
# Stress axis : x y z
#
# Youngs Moduli (GPa) = 70.44211 89.18811 71.75065
#
# Poissons Ratio (x) = 0.35317 0.30886
# Poissons Ratio (y) = 0.27894 0.15827
# Poissons Ratio (z) = 0.30323 0.19674
#
# Static dielectric constant tensor:
#      x y z
#    x 3.862080 0.000000 0.000000 
#    y 0.000000 4.512030 0.000000 
#    z 0.000000 0.000000 4.078370 
# 
# 
# High freq. dielectric constant tensor:
#      x y z
#    x 1.874880 0.000000 0.000000 
#    y 0.000000 1.905210 0.000000 
#    z 0.000000 0.000000 1.865720 
# 
# From -- ./inp_files/18096.got.cif
#   From: 2010.03.12/outbox.cif.g09.slc.cpg/sg54_10_cif.got.tgz:18096.got - 2010.04.16 15:00:50.
