data_PCOD8223785
_publ_section_title
;
Structure prediction by ZEFSAII (Michael W. Deem and Ramdas Pophale) SiO2 
 PCOD8223785
Probable space group: P C C A
;
_chemical_formula_sum "Si O2"
_cell_formula_units_Z 28
_cell_length_a 9.387331
_cell_length_b 14.311184
_cell_length_c 9.125386
_cell_angle_alpha 90.000000
_cell_angle_beta 90.000000
_cell_angle_gamma 90.000000
_cell_volume 1225.939225
_symmetry_space_group_name_H-M "P C C A"
_symmetry_group_IT_number 54
_symmetry_cell_setting 'orthorhombic'
loop_
_space_group_symop_operation_xyz
x,y,z
1/2-x,-y,z
1/2+x,-y,1/2-z
-x,y,1/2-z
-x,-y,-z
1/2+x,y,-z
1/2-x,y,1/2+z
x,-y,1/2+z
loop_
_atom_site_type_symbol
_atom_site_label
_atom_site_fract_x
_atom_site_fract_y
_atom_site_fract_z
Si Si1 0.099373 0.052221 0.389312
Si Si2 0.250000 0.500000 0.203522
Si Si3 0.563555 0.259328 0.588379
Si Si4 0.161159 0.624180 0.448339
O O1 0.000000 0.058406 0.250000
O O2 0.127401 0.157003 0.449530
O O3 0.250000 0.000000 0.361440
O O4 0.000000 0.000000 0.500000
O O5 0.138518 0.558107 0.306121
O O6 0.346209 0.565473 0.099128
O O7 0.500000 0.259181 0.750000
O O8 0.449419 0.290230 0.463913
O O9 0.683356 0.335894 0.576810
#
# Coordination Sequence:
#
# PCOD8223785 Si02
#       4
#     8   4   8   8
#     4  11  24  45  72 104 140 184 232 291 361 429
#     4  10  24  40  70  98 132 192 228 278 344 402
#     4  11  24  44  67  99 138 176 228 282 340 415
#     4  11  23  43  65  99 138 178 231 281 335 402
#
# _framework density 22.839632999999999
#
# number of rings (size 3 to 8) (size 9 to 14) (size 15 to 20)
#    0.000    1.143    2.857    2.571    0.000   10.286 
#    5.143    0.000    0.000    0.000    0.000    0.000 
#    0.000    0.000    0.000    0.000    0.000    0.000 
#
# Total GULP energy -347071.259378 kJ/mol
# GULP energy per Si atom -12395.402121 kJ/mol
# Density = 2.278765 g / cm^3
# Si number density = 22.839633 Si / 1000 Ang^3
#
#
#
# Elastic Constant Matrix: (Units=GPa)
#
#
# Indices 1 2 3 4 5 6 
#
# 1 115.9182 45.2925 18.6157 0.0000 0.0000 0.0000
# 2 45.2925 137.9997 52.2759 0.0000 0.0000 0.0000
# 3 18.6157 52.2759 95.4937 0.0000 0.0000 0.0000
# 4 0.0000 0.0000 0.0000 33.1931 0.0000 0.0000
# 5 0.0000 0.0000 0.0000 0.0000 32.0482 0.0000
# 6 0.0000 0.0000 0.0000 0.0000 0.0000 38.9902
#
#
#
# Elastic Compliance Matrix: (Units=1/GPa)
#
#
# Indices 1 2 3 4 5 6 
#
# 1 0.009899 -0.003177 -0.000191 0.000000 0.000000 0.000000
# 2 -0.003177 0.010162 -0.004944 0.000000 0.000000 0.000000
# 3 -0.000191 -0.004944 0.013215 0.000000 0.000000 0.000000
# 4 0.000000 0.000000 0.000000 0.030127 0.000000 0.000000
# 5 0.000000 0.000000 0.000000 0.000000 0.031203 0.000000
# 6 0.000000 0.000000 0.000000 0.000000 0.000000 0.025647
#
#
# Mechanical properties :
#
#
# Convention : Reuss Voigt Hill
#
# Bulk Modulus (GPa) = 60.04587 64.64221 62.34404
# Shear Modulus (GPa) = 35.10606 36.39479 35.75042
#
# Velocity S-wave (km/s) = 3.92480 3.99619 3.96065
# Velocity P-wave (km/s) = 6.84734 7.04676 6.94776
#
# Compressibility (1/GPa) = 0.01665393
#
# Stress axis : x y z
#
# Youngs Moduli (GPa) = 101.02480 98.40960 75.66994
#
# Poissons Ratio (x) = 0.31260 0.01443
# Poissons Ratio (y) = 0.32091 0.37408
# Poissons Ratio (z) = 0.01927 0.48649
#
# Static dielectric constant tensor:
#      x y z
#    x 4.002320 0.000000 0.000000 
#    y 0.000000 5.026000 0.000000 
#    z 0.000000 0.000000 8.688800 
# 
# 
# High freq. dielectric constant tensor:
#      x y z
#    x 1.896650 0.000000 0.000000 
#    y 0.000000 1.921220 0.000000 
#    z 0.000000 0.000000 1.904130 
# 
# From -- ./inp_files/2454.got.cif
#   From: 2010.03.12/outbox.cif.g09.slc.cpg/sg54_2_cif.got.tgz:2454.got - 2010.04.16 15:00:50.
