data_PCOD8223006
_publ_section_title
;
Structure prediction by ZEFSAII (Michael W. Deem and Ramdas Pophale) SiO2 
 PCOD8223006
Probable space group: P C C A
;
_chemical_formula_sum "Si O2"
_cell_formula_units_Z 60
_cell_length_a 9.333600
_cell_length_b 18.037794
_cell_length_c 15.888157
_cell_angle_alpha 90.000000
_cell_angle_beta 90.000000
_cell_angle_gamma 90.000000
_cell_volume 2674.891251
_symmetry_space_group_name_H-M "P C C A"
_symmetry_group_IT_number 54
_symmetry_cell_setting 'orthorhombic'
loop_
_space_group_symop_operation_xyz
x,y,z
1/2-x,-y,z
1/2+x,-y,1/2-z
-x,y,1/2-z
-x,-y,-z
1/2+x,y,-z
1/2-x,y,1/2+z
x,-y,1/2+z
loop_
_atom_site_type_symbol
_atom_site_label
_atom_site_fract_x
_atom_site_fract_y
_atom_site_fract_z
Si Si1 0.298413 0.779388 0.328190
Si Si2 0.048998 0.066616 0.060280
Si Si3 0.584381 0.656939 0.673491
Si Si4 0.500000 0.107354 0.750000
Si Si5 0.195877 0.692397 0.082057
Si Si6 0.703955 0.844009 0.001626
Si Si7 0.519660 0.349770 0.842614
Si Si8 0.793830 0.420060 0.061785
O O1 0.359016 0.840653 0.262599
O O2 0.227626 0.818362 0.409828
O O3 0.428777 0.725761 0.356885
O O4 0.167529 0.730414 0.291161
O O5 0.024729 0.058114 0.163317
O O6 0.958598 0.136247 0.026717
O O7 0.214387 0.085360 0.039381
O O8 0.000000 0.000000 0.000000
O O9 0.500000 0.620040 0.750000
O O10 0.468126 0.675150 0.602223
O O11 0.694668 0.595125 0.642626
O O12 0.312339 0.669357 0.151892
O O13 0.209342 0.779353 0.066352
O O14 0.243793 0.644804 0.002125
O O15 0.500000 0.382293 0.750000
O O16 0.460501 0.412198 0.908431
O O17 0.750000 0.500000 0.024490
#
# Coordination Sequence:
#
# PCOD8223006 Si02
#       8
#     8   8   8   4   8   8   8   8
#     4  10  20  39  63 103 128 173 219 286 341 414
#     4  11  25  45  69 100 141 186 230 282 352 430
#     4  11  24  38  62  98 140 158 228 295 343 402
#     4  10  22  42  76  94 138 188 232 270 360 426
#     4  12  22  39  68  98 127 175 226 291 343 401
#     4  11  22  39  69  97 133 172 222 286 336 402
#     4  11  22  39  66  91 134 173 227 272 353 418
#     4  11  26  44  62  92 135 182 234 281 347 426
#
# _framework density 22.430817999999999
#
# number of rings (size 3 to 8) (size 9 to 14) (size 15 to 20)
#    0.000    1.067    3.333    5.200    1.867    2.667 
#    0.000    6.667    1.467    0.000    0.000    0.000 
#    0.000    0.000    0.000    0.000    0.000    0.000 
#
# Total GULP energy -743514.489351 kJ/mol
# GULP energy per Si atom -12391.908156 kJ/mol
# Density = 2.237976 g / cm^3
# Si number density = 22.430818 Si / 1000 Ang^3
#
#
#
# Elastic Constant Matrix: (Units=GPa)
#
#
# Indices 1 2 3 4 5 6 
#
# 1 93.7093 4.5959 20.0955 0.0000 0.0000 0.0000
# 2 4.5959 72.3090 18.2422 0.0000 0.0000 0.0000
# 3 20.0955 18.2422 85.7316 0.0000 0.0000 0.0000
# 4 0.0000 0.0000 0.0000 17.9185 0.0000 0.0000
# 5 0.0000 0.0000 0.0000 0.0000 40.0396 0.0000
# 6 0.0000 0.0000 0.0000 0.0000 0.0000 24.5759
#
#
#
# Elastic Compliance Matrix: (Units=1/GPa)
#
#
# Indices 1 2 3 4 5 6 
#
# 1 0.011236 -0.000053 -0.002623 0.000000 0.000000 0.000000
# 2 -0.000053 0.014614 -0.003097 0.000000 0.000000 0.000000
# 3 -0.002623 -0.003097 0.012938 0.000000 0.000000 0.000000
# 4 0.000000 0.000000 0.000000 0.055808 0.000000 0.000000
# 5 0.000000 0.000000 0.000000 0.000000 0.024975 0.000000
# 6 0.000000 0.000000 0.000000 0.000000 0.000000 0.040690
#
#
# Mechanical properties :
#
#
# Convention : Reuss Voigt Hill
#
# Bulk Modulus (GPa) = 36.70576 37.51301 37.10939
# Shear Modulus (GPa) = 27.64132 30.42790 29.03461
#
# Velocity S-wave (km/s) = 3.51421 3.68709 3.60169
# Velocity P-wave (km/s) = 5.73287 5.90647 5.82032
#
# Compressibility (1/GPa) = 0.02724368
#
# Stress axis : x y z
#
# Youngs Moduli (GPa) = 88.99746 68.42624 77.29102
#
# Poissons Ratio (x) = 0.00360 0.20270
# Poissons Ratio (y) = 0.00468 0.23940
# Poissons Ratio (z) = 0.23340 0.21194
#
# Static dielectric constant tensor:
#      x y z
#    x 4.251170 0.000000 0.000000 
#    y 0.000000 3.765890 0.000000 
#    z 0.000000 0.000000 4.121920 
# 
# 
# High freq. dielectric constant tensor:
#      x y z
#    x 1.890930 0.000000 0.000000 
#    y 0.000000 1.850740 0.000000 
#    z 0.000000 0.000000 1.889530 
# 
# From -- ./inp_files/16835.got.cif
#   From: 2010.03.12/outbox.cif.g09.slc.cpg/sg54_9_cif.got.tgz:16835.got - 2010.04.16 15:00:50.
