data_PCOD8223163
_publ_section_title
;
Structure prediction by ZEFSAII (Michael W. Deem and Ramdas Pophale) SiO2 
 PCOD8223163
Probable space group: P C C A
;
_chemical_formula_sum "Si O2"
_cell_formula_units_Z 60
_cell_length_a 10.248454
_cell_length_b 15.752103
_cell_length_c 16.991232
_cell_angle_alpha 90.000000
_cell_angle_beta 90.000000
_cell_angle_gamma 90.000000
_cell_volume 2742.974492
_symmetry_space_group_name_H-M "P C C A"
_symmetry_group_IT_number 54
_symmetry_cell_setting 'orthorhombic'
loop_
_space_group_symop_operation_xyz
x,y,z
1/2-x,-y,z
1/2+x,-y,1/2-z
-x,y,1/2-z
-x,-y,-z
1/2+x,y,-z
1/2-x,y,1/2+z
x,-y,1/2+z
loop_
_atom_site_type_symbol
_atom_site_label
_atom_site_fract_x
_atom_site_fract_y
_atom_site_fract_z
Si Si1 0.943037 0.520158 0.331409
Si Si2 0.635785 0.167828 0.630014
Si Si3 0.707023 0.637206 0.344965
Si Si4 0.931317 0.343144 0.577263
Si Si5 0.182610 0.291600 0.503632
Si Si6 0.599582 0.007218 0.070090
Si Si7 0.500000 0.725208 0.250000
Si Si8 0.917906 0.173192 0.671070
O O1 0.837096 0.593249 0.312034
O O2 0.883882 0.439776 0.379563
O O3 0.000000 0.484786 0.250000
O O4 0.055506 0.566216 0.380827
O O5 0.667310 0.200339 0.540129
O O6 0.581005 0.072434 0.628443
O O7 0.523216 0.222409 0.670278
O O8 0.762571 0.175019 0.686642
O O9 0.747122 0.708512 0.410067
O O10 0.631776 0.674326 0.269661
O O11 0.782369 0.345654 0.549351
O O12 0.963380 0.261025 0.631495
O O13 0.040989 0.336657 0.507805
O O14 0.750000 0.000000 0.040450
O O15 0.560572 0.094123 0.112754
O O16 0.500000 0.000000 0.000000
O O17 0.000000 0.158843 0.750000
#
# Coordination Sequence:
#
# PCOD8223163 Si02
#       8
#     8   8   8   8   8   8   4   8
#     4  10  21  40  62  88 126 166 216 265 332 392
#     4  10  24  41  65  92 133 169 214 276 323 394
#     4  10  23  39  63  90 127 170 213 272 328 394
#     4  10  21  36  64  88 124 167 210 261 320 387
#     4  10  21  40  59  92 127 164 216 259 320 393
#     4  10  22  44  66  96 133 168 213 262 327 393
#     4  12  24  40  62 100 130 164 224 276 328 386
#     4  10  22  40  65  93 126 167 215 260 323 388
#
# _framework density 21.874061999999999
#
# number of rings (size 3 to 8) (size 9 to 14) (size 15 to 20)
#    0.000    1.867    0.667    2.000    8.400    2.667 
#    2.400    2.667    0.000    0.000    0.000    0.000 
#    0.000    0.000    0.000    0.000    0.000    0.000 
#
# Total GULP energy -743398.714574 kJ/mol
# GULP energy per Si atom -12389.978576 kJ/mol
# Density = 2.182428 g / cm^3
# Si number density = 21.874062 Si / 1000 Ang^3
#
#
#
# Elastic Constant Matrix: (Units=GPa)
#
#
# Indices 1 2 3 4 5 6 
#
# 1 76.7268 20.8335 32.8341 0.0000 0.0000 0.0000
# 2 20.8335 87.1614 22.7675 0.0000 0.0000 0.0000
# 3 32.8341 22.7675 74.0546 0.0000 0.0000 0.0000
# 4 0.0000 0.0000 0.0000 26.4706 0.0000 0.0000
# 5 0.0000 0.0000 0.0000 0.0000 40.8380 0.0000
# 6 0.0000 0.0000 0.0000 0.0000 0.0000 23.6964
#
#
#
# Elastic Compliance Matrix: (Units=1/GPa)
#
#
# Indices 1 2 3 4 5 6 
#
# 1 0.016466 -0.002206 -0.006623 0.000000 0.000000 0.000000
# 2 -0.002206 0.012770 -0.002948 0.000000 0.000000 0.000000
# 3 -0.006623 -0.002948 0.017346 0.000000 0.000000 0.000000
# 4 0.000000 0.000000 0.000000 0.037778 0.000000 0.000000
# 5 0.000000 0.000000 0.000000 0.000000 0.024487 0.000000
# 6 0.000000 0.000000 0.000000 0.000000 0.000000 0.042200
#
#
# Mechanical properties :
#
#
# Convention : Reuss Voigt Hill
#
# Bulk Modulus (GPa) = 43.42229 43.42367 43.42298
# Shear Modulus (GPa) = 27.43068 28.96818 28.19943
#
# Velocity S-wave (km/s) = 3.54507 3.64306 3.59440
# Velocity P-wave (km/s) = 6.05399 6.13112 6.09268
#
# Compressibility (1/GPa) = 0.02302965
#
# Stress axis : x y z
#
# Youngs Moduli (GPa) = 60.73028 78.30674 57.64953
#
# Poissons Ratio (x) = 0.17274 0.38179
# Poissons Ratio (y) = 0.13397 0.16995
# Poissons Ratio (z) = 0.40219 0.23085
#
# Static dielectric constant tensor:
#      x y z
#    x 3.922100 0.000000 0.000000 
#    y 0.000000 4.220630 0.000000 
#    z 0.000000 0.000000 3.649480 
# 
# 
# High freq. dielectric constant tensor:
#      x y z
#    x 1.874080 0.000000 0.000000 
#    y 0.000000 1.859600 0.000000 
#    z 0.000000 0.000000 1.833700 
# 
# From -- ./inp_files/12816.got.cif
#   From: 2010.03.12/outbox.cif.g09.slc.cpg/sg54_7_cif.got.tgz:12816.got - 2010.04.16 15:00:50.
