data_PCOD8223444
_publ_section_title
;
Structure prediction by ZEFSAII (Michael W. Deem and Ramdas Pophale) SiO2 
 PCOD8223444
Probable space group: P C C A
;
_chemical_formula_sum "Si O2"
_cell_formula_units_Z 40
_cell_length_a 24.599673
_cell_length_b 5.072720
_cell_length_c 13.266852
_cell_angle_alpha 90.000000
_cell_angle_beta 90.000000
_cell_angle_gamma 90.000000
_cell_volume 1655.534020
_symmetry_space_group_name_H-M "P C C A"
_symmetry_group_IT_number 54
_symmetry_cell_setting 'orthorhombic'
loop_
_space_group_symop_operation_xyz
x,y,z
1/2-x,-y,z
1/2+x,-y,1/2-z
-x,y,1/2-z
-x,-y,-z
1/2+x,y,-z
1/2-x,y,1/2+z
x,-y,1/2+z
loop_
_atom_site_type_symbol
_atom_site_label
_atom_site_fract_x
_atom_site_fract_y
_atom_site_fract_z
Si Si1 0.470758 0.134056 0.853022
Si Si2 0.812402 0.454790 0.290197
Si Si3 0.555711 0.730782 0.491495
Si Si4 0.362654 0.662828 0.410488
Si Si5 0.856282 0.052549 0.899434
O O1 0.500000 0.090935 0.750000
O O2 0.408589 0.219466 0.835644
O O3 0.468956 0.852196 0.907264
O O4 0.502958 0.356003 0.922837
O O5 0.750000 0.500000 0.315696
O O6 0.818870 0.448953 0.168004
O O7 0.851295 0.689452 0.329012
O O8 0.823530 0.181336 0.346883
O O9 0.605720 0.536155 0.513647
O O10 0.581285 0.965411 0.419914
O O11 0.334041 0.871669 0.486756
#
# Coordination Sequence:
#
# PCOD8223444 Si02
#       5
#     8   8   8   8   8
#     4  10  22  38  68 109 150 196 243 295 363 446
#     4  12  28  49  76 110 142 190 255 310 378 440
#     4  10  22  43  68 108 146 198 240 299 367 448
#     4  11  25  45  77 104 155 191 250 306 373 441
#     4  11  25  49  75 104 148 189 240 310 368 440
#
# _framework density 24.161384999999999
#
# number of rings (size 3 to 8) (size 9 to 14) (size 15 to 20)
#    0.000    1.200    2.000    2.400    8.400    1.600 
#    3.600    0.000    0.000    0.000    0.000    0.000 
#    0.000    0.000    0.000    0.000    0.000    0.000 
#
# Total GULP energy -495559.333838 kJ/mol
# GULP energy per Si atom -12388.983346 kJ/mol
# Density = 2.410639 g / cm^3
# Si number density = 24.161385 Si / 1000 Ang^3
#
#
#
# Elastic Constant Matrix: (Units=GPa)
#
#
# Indices 1 2 3 4 5 6 
#
# 1 47.0245 14.3078 39.2754 0.0000 0.0000 0.0000
# 2 14.3078 105.6138 38.6514 0.0000 0.0000 0.0000
# 3 39.2754 38.6514 122.8879 0.0000 0.0000 0.0000
# 4 0.0000 0.0000 0.0000 16.6609 0.0000 0.0000
# 5 0.0000 0.0000 0.0000 0.0000 22.6207 0.0000
# 6 0.0000 0.0000 0.0000 0.0000 0.0000 19.8436
#
#
#
# Elastic Compliance Matrix: (Units=1/GPa)
#
#
# Indices 1 2 3 4 5 6 
#
# 1 0.029044 -0.000607 -0.009091 0.000000 0.000000 0.000000
# 2 -0.000607 0.010713 -0.003175 0.000000 0.000000 0.000000
# 3 -0.009091 -0.003175 0.012042 0.000000 0.000000 0.000000
# 4 0.000000 0.000000 0.000000 0.060021 0.000000 0.000000
# 5 0.000000 0.000000 0.000000 0.000000 0.044207 0.000000
# 6 0.000000 0.000000 0.000000 0.000000 0.000000 0.050394
#
#
# Mechanical properties :
#
#
# Convention : Reuss Voigt Hill
#
# Bulk Modulus (GPa) = 38.38778 51.11060 44.74919
# Shear Modulus (GPa) = 20.75965 24.04447 22.40206
#
# Velocity S-wave (km/s) = 2.93440 3.15804 3.04827
# Velocity P-wave (km/s) = 5.23484 5.87345 5.56331
#
# Compressibility (1/GPa) = 0.02604995
#
# Stress axis : x y z
#
# Youngs Moduli (GPa) = 34.43106 93.34605 83.04379
#
# Poissons Ratio (x) = 0.05670 0.75498
# Poissons Ratio (y) = 0.02092 0.26369
# Poissons Ratio (z) = 0.31302 0.29640
#
# Static dielectric constant tensor:
#      x y z
#    x 4.210520 0.000000 0.000000 
#    y 0.000000 4.640860 0.000000 
#    z 0.000000 0.000000 4.338760 
# 
# 
# High freq. dielectric constant tensor:
#      x y z
#    x 1.944570 0.000000 0.000000 
#    y 0.000000 1.959540 0.000000 
#    z 0.000000 0.000000 1.971110 
# 
# From -- ./inp_files/10136.got.cif
#   From: 2010.03.12/outbox.cif.g09.slc.cpg/sg54_6_cif.got.tgz:10136.got - 2010.04.16 15:00:50.
