data_PCOD8223161
_publ_section_title
;
Structure prediction by ZEFSAII (Michael W. Deem and Ramdas Pophale) SiO2 
 PCOD8223161
Probable space group: P C C A
;
_chemical_formula_sum "Si O2"
_cell_formula_units_Z 64
_cell_length_a 23.559155
_cell_length_b 14.838104
_cell_length_c 9.323053
_cell_angle_alpha 90.000000
_cell_angle_beta 90.000000
_cell_angle_gamma 90.000000
_cell_volume 3259.089397
_symmetry_space_group_name_H-M "P C C A"
_symmetry_group_IT_number 54
_symmetry_cell_setting 'orthorhombic'
loop_
_space_group_symop_operation_xyz
x,y,z
1/2-x,-y,z
1/2+x,-y,1/2-z
-x,y,1/2-z
-x,-y,-z
1/2+x,y,-z
1/2-x,y,1/2+z
x,-y,1/2+z
loop_
_atom_site_type_symbol
_atom_site_label
_atom_site_fract_x
_atom_site_fract_y
_atom_site_fract_z
Si Si1 0.324185 0.501024 0.987688
Si Si2 0.649042 0.619687 0.261553
Si Si3 0.123675 0.100234 0.469413
Si Si4 0.377288 0.894919 0.020154
Si Si5 0.720784 0.619487 0.763549
Si Si6 0.719958 0.094790 0.755043
Si Si7 0.832850 0.196405 0.755755
Si Si8 0.063996 0.214355 0.246621
O O1 0.362811 0.439106 0.882563
O O2 0.285614 0.561932 0.881880
O O3 0.363286 0.562525 0.092743
O O4 0.285408 0.440739 0.093962
O O5 0.714318 0.655227 0.263085
O O6 0.607849 0.704065 0.258487
O O7 0.183439 0.102671 0.388162
O O8 0.132265 0.151261 0.617366
O O9 0.074661 0.153020 0.385827
O O10 0.103983 0.997017 0.487067
O O11 0.318462 0.894269 0.105751
O O12 0.427839 0.848871 0.108219
O O13 0.367734 0.834375 0.881643
O O14 0.671596 0.695592 0.767390
O O15 0.767239 0.170286 0.751507
O O16 0.750000 0.000000 0.761303
O O17 0.000000 0.251474 0.250000
#
# Coordination Sequence:
#
# PCOD8223161 Si02
#       8
#     8   8   8   8   8   8   8   8
#     4  10  21  36  61  88 125 152 174 228 291 370
#     4  11  20  38  58  86 113 152 190 229 293 358
#     4  11  22  38  58  85 119 160 201 239 293 346
#     4  11  22  38  58  85 119 160 201 239 293 346
#     4  11  20  33  55  90 124 155 186 218 285 368
#     4  11  20  34  54  89 132 163 181 221 285 356
#     4  12  22  32  57  94 125 160 195 235 284 361
#     4  11  26  45  61  78 110 154 208 268 303 338
#
# _framework density 19.637387
#
# number of rings (size 3 to 8) (size 9 to 14) (size 15 to 20)
#    0.000    1.000    2.500    7.500    0.000    2.500 
#    0.000    1.250    0.000    0.000    0.000    0.000 
#    0.000    0.000    0.000    0.000    0.000    0.000 
#
# Total GULP energy -793577.843378 kJ/mol
# GULP energy per Si atom -12399.653803 kJ/mol
# Density = 1.959269 g / cm^3
# Si number density = 19.637387 Si / 1000 Ang^3
#
#
#
# Elastic Constant Matrix: (Units=GPa)
#
#
# Indices 1 2 3 4 5 6 
#
# 1 78.9642 32.5254 19.7742 0.0000 0.0000 0.0000
# 2 32.5254 108.1891 21.4642 0.0000 0.0000 0.0000
# 3 19.7742 21.4642 113.8362 0.0000 0.0000 0.0000
# 4 0.0000 0.0000 0.0000 -32.4668 0.0000 0.0000
# 5 0.0000 0.0000 0.0000 0.0000 -22.3859 0.0000
# 6 0.0000 0.0000 0.0000 0.0000 0.0000 17.1833
#
#
#
# Elastic Compliance Matrix: (Units=1/GPa)
#
#
# Indices 1 2 3 4 5 6 
#
# 1 0.014800 -0.004093 -0.001799 0.000000 0.000000 0.000000
# 2 -0.004093 0.010734 -0.001313 0.000000 0.000000 0.000000
# 3 -0.001799 -0.001313 0.009345 0.000000 0.000000 0.000000
# 4 0.000000 0.000000 0.000000 -0.030801 0.000000 0.000000
# 5 0.000000 0.000000 0.000000 0.000000 -0.044671 0.000000
# 6 0.000000 0.000000 0.000000 0.000000 0.000000 0.058196
#
#
# Mechanical properties :
#
#
# Convention : Reuss Voigt Hill
#
# Bulk Modulus (GPa) = 48.85371 49.83524 49.34448
# Shear Modulus (GPa) = 128.74657 7.61448 68.18052
#
# Velocity S-wave (km/s) = 8.10582 1.97128 5.89874
# Velocity P-wave (km/s) = 10.60838 5.53300 8.46025
#
# Compressibility (1/GPa) = 0.02046927
#
# Stress axis : x y z
#
# Youngs Moduli (GPa) = 67.56642 93.16258 107.01290
#
# Poissons Ratio (x) = 0.38127 0.19254
# Poissons Ratio (y) = 0.27652 0.14051
# Poissons Ratio (z) = 0.12157 0.12232
#
# Static dielectric constant tensor:
#      x y z
#    x 3.082980 0.000000 0.000000 
#    y 0.000000 3.689380 0.000000 
#    z 0.000000 0.000000 4.052270 
# 
# 
# High freq. dielectric constant tensor:
#      x y z
#    x 1.706810 0.000000 0.000000 
#    y 0.000000 1.781590 0.000000 
#    z 0.000000 0.000000 1.789810 
# 
# From -- ./inp_files/5314.got.cif
#   From: 2010.03.12/outbox.cif.g09.slc.cpg/sg54_3_cif.got.tgz:5314.got - 2010.04.16 15:00:50.
