data_PCOD8223532
_publ_section_title
;
Structure prediction by ZEFSAII (Michael W. Deem and Ramdas Pophale) SiO2 
 PCOD8223532
Probable space group: P C C A
;
_chemical_formula_sum "Si O2"
_cell_formula_units_Z 44
_cell_length_a 17.518875
_cell_length_b 13.874021
_cell_length_c 9.101575
_cell_angle_alpha 90.000000
_cell_angle_beta 90.000000
_cell_angle_gamma 90.000000
_cell_volume 2212.203696
_symmetry_space_group_name_H-M "P C C A"
_symmetry_group_IT_number 54
_symmetry_cell_setting 'orthorhombic'
loop_
_space_group_symop_operation_xyz
x,y,z
1/2-x,-y,z
1/2+x,-y,1/2-z
-x,y,1/2-z
-x,-y,-z
1/2+x,y,-z
1/2-x,y,1/2+z
x,-y,1/2+z
loop_
_atom_site_type_symbol
_atom_site_label
_atom_site_fract_x
_atom_site_fract_y
_atom_site_fract_z
Si Si1 0.722636 0.708066 0.887903
Si Si2 0.445727 0.461627 0.377177
Si Si3 0.305168 0.586938 0.338992
Si Si4 0.687021 0.875797 0.532028
Si Si5 0.250000 0.000000 0.209128
Si Si6 0.582767 0.257984 0.180352
O O1 0.787870 0.674626 0.772267
O O2 0.645010 0.740432 0.809678
O O3 0.704016 0.618324 0.992912
O O4 0.751404 0.795769 0.986868
O O5 0.500000 0.426290 0.250000
O O6 0.500000 0.500000 0.500000
O O7 0.390529 0.546138 0.321095
O O8 0.406221 0.358439 0.413196
O O9 0.250000 0.500000 0.299956
O O10 0.604571 0.826664 0.563390
O O11 0.684974 0.954296 0.399950
O O12 0.712791 0.919189 0.688668
O O13 0.500000 0.236161 0.250000
#
# Coordination Sequence:
#
# PCOD8223532 Si02
#       6
#     8   8   8   8   4   8
#     4  12  22  39  63  93 125 168 221 266 315 384
#     4  11  25  41  57  87 135 177 218 262 311 360
#     4  12  23  35  61  87 124 171 224 261 300 369
#     4  11  21  42  68  97 124 163 207 271 332 396
#     4  10  22  40  74  98 124 152 218 270 336 408
#     4  11  23  41  63  93 135 171 214 270 326 376
#
# _framework density 19.889669000000001
#
# number of rings (size 3 to 8) (size 9 to 14) (size 15 to 20)
#    0.000    0.727    5.455    2.727    5.091    0.000 
#    0.000    0.909    0.000    0.000    0.000    0.000 
#    0.000    0.000    0.000    0.000    0.000    0.000 
#
# Total GULP energy -545353.059937 kJ/mol
# GULP energy per Si atom -12394.387726 kJ/mol
# Density = 1.984440 g / cm^3
# Si number density = 19.889669 Si / 1000 Ang^3
#
#
#
# Elastic Constant Matrix: (Units=GPa)
#
#
# Indices 1 2 3 4 5 6 
#
# 1 121.5129 57.1523 44.1067 0.0000 0.0000 0.0000
# 2 57.1523 112.6198 61.3472 0.0000 0.0000 0.0000
# 3 44.1067 61.3472 109.1823 0.0000 0.0000 0.0000
# 4 0.0000 0.0000 0.0000 50.7723 0.0000 0.0000
# 5 0.0000 0.0000 0.0000 0.0000 29.0883 0.0000
# 6 0.0000 0.0000 0.0000 0.0000 0.0000 31.1490
#
#
#
# Elastic Compliance Matrix: (Units=1/GPa)
#
#
# Indices 1 2 3 4 5 6 
#
# 1 0.011076 -0.004588 -0.001897 0.000000 0.000000 0.000000
# 2 -0.004588 0.014696 -0.006404 0.000000 0.000000 0.000000
# 3 -0.001897 -0.006404 0.013524 0.000000 0.000000 0.000000
# 4 0.000000 0.000000 0.000000 0.019696 0.000000 0.000000
# 5 0.000000 0.000000 0.000000 0.000000 0.034378 0.000000
# 6 0.000000 0.000000 0.000000 0.000000 0.000000 0.032104
#
#
# Mechanical properties :
#
#
# Convention : Reuss Voigt Hill
#
# Bulk Modulus (GPa) = 73.97202 74.28081 74.12642
# Shear Modulus (GPa) = 32.10151 34.24916 33.17533
#
# Velocity S-wave (km/s) = 4.02179 4.15415 4.08851
# Velocity P-wave (km/s) = 7.67062 7.77411 7.72254
#
# Compressibility (1/GPa) = 0.01351862
#
# Stress axis : x y z
#
# Youngs Moduli (GPa) = 90.28746 68.04548 73.94512
#
# Poissons Ratio (x) = 0.31216 0.14025
# Poissons Ratio (y) = 0.41420 0.47356
# Poissons Ratio (z) = 0.17124 0.43577
#
# Static dielectric constant tensor:
#      x y z
#    x 3.275760 0.000000 0.000000 
#    y 0.000000 3.839360 0.000000 
#    z 0.000000 0.000000 3.756930 
# 
# 
# High freq. dielectric constant tensor:
#      x y z
#    x 1.754140 0.000000 0.000000 
#    y 0.000000 1.786560 0.000000 
#    z 0.000000 0.000000 1.785440 
# 
# From -- ./inp_files/4114.got.cif
#   From: 2010.03.12/outbox.cif.g09.slc.cpg/sg54_3_cif.got.tgz:4114.got - 2010.04.16 15:00:50.
