data_PCOD8223258
_publ_section_title
;
Structure prediction by ZEFSAII (Michael W. Deem and Ramdas Pophale) SiO2 
 PCOD8223258
Probable space group: P C C A
;
_chemical_formula_sum "Si O2"
_cell_formula_units_Z 40
_cell_length_a 5.121794
_cell_length_b 26.236083
_cell_length_c 12.554603
_cell_angle_alpha 90.000000
_cell_angle_beta 90.000000
_cell_angle_gamma 90.000000
_cell_volume 1687.034979
_symmetry_space_group_name_H-M "P C C A"
_symmetry_group_IT_number 54
_symmetry_cell_setting 'orthorhombic'
loop_
_space_group_symop_operation_xyz
x,y,z
1/2-x,-y,z
1/2+x,-y,1/2-z
-x,y,1/2-z
-x,-y,-z
1/2+x,y,-z
1/2-x,y,1/2+z
x,-y,1/2+z
loop_
_atom_site_type_symbol
_atom_site_label
_atom_site_fract_x
_atom_site_fract_y
_atom_site_fract_z
Si Si1 0.250000 0.500000 0.428252
Si Si2 0.713724 0.943960 0.931760
Si Si3 0.000000 0.317398 0.750000
Si Si4 0.248374 0.841497 0.682364
Si Si5 0.269410 0.256154 0.065575
Si Si6 0.303339 0.389879 0.424369
O O1 0.500000 0.500000 0.500000
O O2 0.271795 0.445929 0.366345
O O3 0.770791 0.901023 0.845399
O O4 0.750000 0.000000 0.879209
O O5 0.416980 0.937656 0.971255
O O6 0.806267 0.282136 0.819440
O O7 0.813348 0.351036 0.674049
O O8 0.500000 0.829603 0.750000
O O9 0.263233 0.805416 0.578457
O O10 0.000000 0.825013 0.750000
O O11 0.498869 0.274033 0.986345
O O12 0.562246 0.381641 0.495682
#
# Coordination Sequence:
#
# PCOD8223258 Si02
#       6
#     4   8   4   8   8   8
#     4   8  16  36  64  90 128 168 212 260 324 392
#     4  10  21  39  63  92 129 173 220 273 341 411
#     4  12  26  44  70 102 138 176 238 280 336 414
#     4  12  24  42  66  96 131 170 229 284 335 410
#     4  12  27  46  69  96 136 183 226 286 347 404
#     4  10  22  42  66  98 134 175 217 274 331 391
#
# _framework density 23.710236999999999
#
# number of rings (size 3 to 8) (size 9 to 14) (size 15 to 20)
#    0.000    1.200    1.000    4.800    0.000    3.200 
#    0.000    6.000    0.000    0.000    0.000    0.000 
#    0.000    0.000    0.000    0.000    0.000    0.000 
#
# Total GULP energy -495885.010652 kJ/mol
# GULP energy per Si atom -12397.125266 kJ/mol
# Density = 2.365627 g / cm^3
# Si number density = 23.710237 Si / 1000 Ang^3
#
#
#
# Elastic Constant Matrix: (Units=GPa)
#
#
# Indices 1 2 3 4 5 6 
#
# 1 145.6338 29.9490 32.0505 0.0000 0.0000 0.0000
# 2 29.9490 146.8161 56.0147 0.0000 0.0000 0.0000
# 3 32.0505 56.0147 89.1801 0.0000 0.0000 0.0000
# 4 0.0000 0.0000 0.0000 42.8100 0.0000 0.0000
# 5 0.0000 0.0000 0.0000 0.0000 26.5942 0.0000
# 6 0.0000 0.0000 0.0000 0.0000 0.0000 19.8581
#
#
#
# Elastic Compliance Matrix: (Units=1/GPa)
#
#
# Indices 1 2 3 4 5 6 
#
# 1 0.007505 -0.000660 -0.002283 0.000000 0.000000 0.000000
# 2 -0.000660 0.009016 -0.005426 0.000000 0.000000 0.000000
# 3 -0.002283 -0.005426 0.015442 0.000000 0.000000 0.000000
# 4 0.000000 0.000000 0.000000 0.023359 0.000000 0.000000
# 5 0.000000 0.000000 0.000000 0.000000 0.037602 0.000000
# 6 0.000000 0.000000 0.000000 0.000000 0.000000 0.050357
#
#
# Mechanical properties :
#
#
# Convention : Reuss Voigt Hill
#
# Bulk Modulus (GPa) = 65.67943 68.62872 67.15407
# Shear Modulus (GPa) = 30.28605 35.42685 32.85645
#
# Velocity S-wave (km/s) = 3.57787 3.86963 3.72660
# Velocity P-wave (km/s) = 6.69546 6.99807 6.84844
#
# Compressibility (1/GPa) = 0.01522547
#
# Stress axis : x y z
#
# Youngs Moduli (GPa) = 133.25170 110.91408 64.76021
#
# Poissons Ratio (x) = 0.07320 0.14782
# Poissons Ratio (y) = 0.08795 0.35138
# Poissons Ratio (z) = 0.30415 0.60180
#
# Static dielectric constant tensor:
#      x y z
#    x 4.481770 0.000000 0.000000 
#    y 0.000000 5.180120 0.000000 
#    z 0.000000 0.000000 3.848530 
# 
# 
# High freq. dielectric constant tensor:
#      x y z
#    x 1.955290 0.000000 0.000000 
#    y 0.000000 1.974720 0.000000 
#    z 0.000000 0.000000 1.902340 
# 
# From -- ./inp_files/6470.got.cif
#   From: 2010.03.12/outbox.cif.g09.slc.cpg/sg54_4_cif.got.tgz:6470.got - 2010.04.16 15:00:50.
