data_PCOD8223075
_publ_section_title
;
Structure prediction by ZEFSAII (Michael W. Deem and Ramdas Pophale) SiO2 
 PCOD8223075
Probable space group: P C C A
;
_chemical_formula_sum "Si O2"
_cell_formula_units_Z 60
_cell_length_a 9.467606
_cell_length_b 10.734041
_cell_length_c 26.318884
_cell_angle_alpha 90.000000
_cell_angle_beta 90.000000
_cell_angle_gamma 90.000000
_cell_volume 2674.674246
_symmetry_space_group_name_H-M "P C C A"
_symmetry_group_IT_number 54
_symmetry_cell_setting 'orthorhombic'
loop_
_space_group_symop_operation_xyz
x,y,z
1/2-x,-y,z
1/2+x,-y,1/2-z
-x,y,1/2-z
-x,-y,-z
1/2+x,y,-z
1/2-x,y,1/2+z
x,-y,1/2+z
loop_
_atom_site_type_symbol
_atom_site_label
_atom_site_fract_x
_atom_site_fract_y
_atom_site_fract_z
Si Si1 0.216974 0.645723 0.461113
Si Si2 0.375447 0.751635 0.789959
Si Si3 0.065041 0.354714 0.379154
Si Si4 0.415583 0.140485 0.801459
Si Si5 0.516821 0.243506 0.398167
Si Si6 0.408543 0.021719 0.617828
Si Si7 0.812877 0.272891 0.427704
Si Si8 0.250000 0.500000 0.312489
O O1 0.250000 0.500000 0.467875
O O2 0.322587 0.702781 0.419261
O O3 0.235231 0.716167 0.514226
O O4 0.059199 0.675954 0.441862
O O5 0.500000 0.780876 0.750000
O O6 0.254313 0.859965 0.789754
O O7 0.439020 0.740818 0.845303
O O8 0.294837 0.619177 0.778213
O O9 0.040123 0.261461 0.332924
O O10 0.119947 0.479231 0.351882
O O11 0.920970 0.381894 0.410161
O O12 0.500000 0.141107 0.750000
O O13 0.476578 0.028038 0.835984
O O14 0.676696 0.292044 0.392399
O O15 0.535152 0.097222 0.414248
O O16 0.399009 0.143217 0.581690
O O17 0.250000 0.000000 0.640208
#
# Coordination Sequence:
#
# PCOD8223075 Si02
#       8
#     8   8   8   8   8   8   8   4
#     4  12  23  43  67  95 135 175 223 279 339 405
#     4  11  25  41  66 100 134 177 229 275 341 406
#     4  10  20  42  63  91 133 172 220 276 332 395
#     4  10  22  42  69  95 132 175 216 276 334 402
#     4  11  23  45  66  94 138 171 219 284 337 407
#     4   9  22  44  67  98 136 171 222 281 339 406
#     4  10  24  40  67  98 126 176 226 277 336 406
#     4  10  20  44  60  86 140 178 216 284 328 400
#
# _framework density 22.432638000000001
#
# number of rings (size 3 to 8) (size 9 to 14) (size 15 to 20)
#    0.000    1.600    3.333    0.800    5.600    6.933 
#    0.000    4.000    0.000    0.000    0.000    0.000 
#    0.000    0.000    0.000    0.000    0.000    0.000 
#
# Total GULP energy -743437.210648 kJ/mol
# GULP energy per Si atom -12390.620177 kJ/mol
# Density = 2.238158 g / cm^3
# Si number density = 22.432638 Si / 1000 Ang^3
#
#
#
# Elastic Constant Matrix: (Units=GPa)
#
#
# Indices 1 2 3 4 5 6 
#
# 1 146.7007 45.4131 37.4042 0.0000 0.0000 0.0000
# 2 45.4131 77.3794 26.9957 0.0000 0.0000 0.0000
# 3 37.4042 26.9957 95.1029 0.0000 0.0000 0.0000
# 4 0.0000 0.0000 0.0000 21.1226 0.0000 0.0000
# 5 0.0000 0.0000 0.0000 0.0000 27.3154 0.0000
# 6 0.0000 0.0000 0.0000 0.0000 0.0000 35.2519
#
#
#
# Elastic Compliance Matrix: (Units=1/GPa)
#
#
# Indices 1 2 3 4 5 6 
#
# 1 0.008724 -0.004354 -0.002195 0.000000 0.000000 0.000000
# 2 -0.004354 0.016517 -0.002976 0.000000 0.000000 0.000000
# 3 -0.002195 -0.002976 0.012223 0.000000 0.000000 0.000000
# 4 0.000000 0.000000 0.000000 0.047343 0.000000 0.000000
# 5 0.000000 0.000000 0.000000 0.000000 0.036609 0.000000
# 6 0.000000 0.000000 0.000000 0.000000 0.000000 0.028367
#
#
# Mechanical properties :
#
#
# Convention : Reuss Voigt Hill
#
# Bulk Modulus (GPa) = 54.30834 59.86766 57.08800
# Shear Modulus (GPa) = 28.57593 30.69598 29.63596
#
# Velocity S-wave (km/s) = 3.57298 3.70315 3.63865
# Velocity P-wave (km/s) = 6.42524 6.71045 6.56939
#
# Compressibility (1/GPa) = 0.01841338
#
# Stress axis : x y z
#
# Youngs Moduli (GPa) = 114.62304 60.54346 81.81249
#
# Poissons Ratio (x) = 0.26362 0.17960
# Poissons Ratio (y) = 0.49910 0.24347
# Poissons Ratio (z) = 0.25163 0.18017
#
# Static dielectric constant tensor:
#      x y z
#    x 4.610260 0.000000 0.000000 
#    y 0.000000 4.287790 0.000000 
#    z 0.000000 0.000000 3.864090 
# 
# 
# High freq. dielectric constant tensor:
#      x y z
#    x 1.900870 0.000000 0.000000 
#    y 0.000000 1.878100 0.000000 
#    z 0.000000 0.000000 1.866250 
# 
# From -- ./inp_files/25926.got.cif
#   From: 2010.03.12/outbox.cif.g09.slc.cpg/sg54_13_cif.got.tgz:25926.got - 2010.04.16 15:00:50.
