data_PCOD8223336
_publ_section_title
;
Structure prediction by ZEFSAII (Michael W. Deem and Ramdas Pophale) SiO2 
 PCOD8223336
Probable space group: P C C A
;
_chemical_formula_sum "Si O2"
_cell_formula_units_Z 40
_cell_length_a 16.059515
_cell_length_b 4.989309
_cell_length_c 23.474774
_cell_angle_alpha 90.000000
_cell_angle_beta 90.000000
_cell_angle_gamma 90.000000
_cell_volume 1880.936989
_symmetry_space_group_name_H-M "P C C A"
_symmetry_group_IT_number 54
_symmetry_cell_setting 'orthorhombic'
loop_
_space_group_symop_operation_xyz
x,y,z
1/2-x,-y,z
1/2+x,-y,1/2-z
-x,y,1/2-z
-x,-y,-z
1/2+x,y,-z
1/2-x,y,1/2+z
x,-y,1/2+z
loop_
_atom_site_type_symbol
_atom_site_label
_atom_site_fract_x
_atom_site_fract_y
_atom_site_fract_z
Si Si1 0.057232 0.263701 0.437215
Si Si2 0.446793 0.775069 0.564518
Si Si3 0.845788 0.586814 0.331230
Si Si4 0.193401 0.752272 0.844011
Si Si5 0.593892 0.903927 0.266528
O O1 0.088092 0.180216 0.500693
O O2 0.137514 0.291673 0.398847
O O3 0.017952 0.554889 0.437397
O O4 0.990618 0.047506 0.413204
O O5 0.372251 0.691007 0.606385
O O6 0.750000 0.500000 0.332431
O O7 0.902346 0.331822 0.313803
O O8 0.858948 0.828933 0.287009
O O9 0.250000 0.500000 0.830864
O O10 0.138070 0.795615 0.789030
O O11 0.250000 0.000000 0.858956
O O12 0.500000 0.978855 0.250000
#
# Coordination Sequence:
#
# PCOD8223336 Si02
#       5
#     8   8   8   8   8
#     4  10  22  41  64  90 121 162 206 246 295 359
#     4  10  21  41  65  89 122 161 205 248 294 361
#     4  12  24  40  63  93 126 158 201 256 311 359
#     4  12  24  40  62  90 125 157 199 254 306 356
#     4  12  25  42  64  88 121 165 208 247 301 370
#
# _framework density 21.265996999999999
#
# number of rings (size 3 to 8) (size 9 to 14) (size 15 to 20)
#    0.000    0.800    0.000    9.000    0.000    0.800 
#    0.000    2.000    0.000    0.000    0.000    0.000 
#    0.000    0.000    0.000    0.000    0.000    0.000 
#
# Total GULP energy -496223.982326 kJ/mol
# GULP energy per Si atom -12405.599558 kJ/mol
# Density = 2.121760 g / cm^3
# Si number density = 21.265997 Si / 1000 Ang^3
#
#
#
# Elastic Constant Matrix: (Units=GPa)
#
#
# Indices 1 2 3 4 5 6 
#
# 1 133.6129 43.8530 79.8683 0.0000 0.0000 0.0000
# 2 43.8530 120.2375 42.5541 0.0000 0.0000 0.0000
# 3 79.8683 42.5541 112.8436 0.0000 0.0000 0.0000
# 4 0.0000 0.0000 0.0000 31.5344 0.0000 0.0000
# 5 0.0000 0.0000 0.0000 0.0000 15.7438 0.0000
# 6 0.0000 0.0000 0.0000 0.0000 0.0000 31.7703
#
#
#
# Elastic Compliance Matrix: (Units=1/GPa)
#
#
# Indices 1 2 3 4 5 6 
#
# 1 0.013285 -0.001751 -0.008742 0.000000 0.000000 0.000000
# 2 -0.001751 0.009829 -0.002467 0.000000 0.000000 0.000000
# 3 -0.008742 -0.002467 0.015980 0.000000 0.000000 0.000000
# 4 0.000000 0.000000 0.000000 0.031711 0.000000 0.000000
# 5 0.000000 0.000000 0.000000 0.000000 0.063517 0.000000
# 6 0.000000 0.000000 0.000000 0.000000 0.000000 0.031476
#
#
# Mechanical properties :
#
#
# Convention : Reuss Voigt Hill
#
# Bulk Modulus (GPa) = 75.91723 77.69387 76.80555
# Shear Modulus (GPa) = 25.49591 29.17093 27.33342
#
# Velocity S-wave (km/s) = 3.46628 3.70769 3.58901
# Velocity P-wave (km/s) = 7.19698 7.41235 7.30546
#
# Compressibility (1/GPa) = 0.01317224
#
# Stress axis : x y z
#
# Youngs Moduli (GPa) = 75.27342 101.74301 62.57892
#
# Poissons Ratio (x) = 0.17817 0.54709
# Poissons Ratio (y) = 0.13182 0.15438
# Poissons Ratio (z) = 0.65807 0.25100
#
# Static dielectric constant tensor:
#      x y z
#    x 3.370590 0.000000 0.000000 
#    y 0.000000 4.157810 0.000000 
#    z 0.000000 0.000000 4.065160 
# 
# 
# High freq. dielectric constant tensor:
#      x y z
#    x 1.824650 0.000000 0.000000 
#    y 0.000000 1.857490 0.000000 
#    z 0.000000 0.000000 1.849020 
# 
# From -- ./inp_files/24314.got.cif
#   From: 2010.03.12/outbox.cif.g09.slc.cpg/sg54_13_cif.got.tgz:24314.got - 2010.04.16 15:00:50.
