data_PCOD8223392
_publ_section_title
;
Structure prediction by ZEFSAII (Michael W. Deem and Ramdas Pophale) SiO2 
 PCOD8223392
Probable space group: P C C A
;
_chemical_formula_sum "Si O2"
_cell_formula_units_Z 36
_cell_length_a 23.020197
_cell_length_b 5.420307
_cell_length_c 13.512304
_cell_angle_alpha 90.000000
_cell_angle_beta 90.000000
_cell_angle_gamma 90.000000
_cell_volume 1686.018472
_symmetry_space_group_name_H-M "P C C A"
_symmetry_group_IT_number 54
_symmetry_cell_setting 'orthorhombic'
loop_
_space_group_symop_operation_xyz
x,y,z
1/2-x,-y,z
1/2+x,-y,1/2-z
-x,y,1/2-z
-x,-y,-z
1/2+x,y,-z
1/2-x,y,1/2+z
x,-y,1/2+z
loop_
_atom_site_type_symbol
_atom_site_label
_atom_site_fract_x
_atom_site_fract_y
_atom_site_fract_z
Si Si1 0.750000 0.500000 0.620196
Si Si2 0.406465 0.001679 0.366264
Si Si3 0.808559 0.153093 0.265677
Si Si4 0.160380 0.734248 0.513725
Si Si5 0.944717 0.497539 0.569393
O O1 0.700847 0.376884 0.689269
O O2 0.781126 0.302592 0.549817
O O3 0.362558 0.008931 0.273105
O O4 0.444418 0.750714 0.366455
O O5 0.369450 0.016765 0.469688
O O6 0.446459 0.250816 0.360218
O O7 0.824407 0.257329 0.372159
O O8 0.750000 0.000000 0.274210
O O9 0.114295 0.511021 0.496567
O O10 0.000000 0.500000 0.500000
#
# Coordination Sequence:
#
# PCOD8223392 Si02
#       5
#     4   8   8   8   8
#     4  12  22  44  62  98 136 178 218 286 328 416
#     4  10  22  43  64  96 135 167 223 274 330 399
#     4  12  23  39  64  97 137 180 219 276 346 407
#     4  10  25  37  67  98 132 175 226 270 342 403
#     4  10  21  44  72  90 132 177 221 283 339 384
#
# _framework density 21.352080000000001
#
# number of rings (size 3 to 8) (size 9 to 14) (size 15 to 20)
#    1.333    0.000    4.444    1.333    3.111    1.778 
#    0.000    1.111    0.000    0.000    0.000    0.000 
#    0.000    0.000    0.000    0.000    0.000    0.000 
#
# Total GULP energy -446086.461354 kJ/mol
# GULP energy per Si atom -12391.290593 kJ/mol
# Density = 2.130348 g / cm^3
# Si number density = 21.352080 Si / 1000 Ang^3
#
#
#
# Elastic Constant Matrix: (Units=GPa)
#
#
# Indices 1 2 3 4 5 6 
#
# 1 27.1592 1.8081 16.2067 0.0000 0.0000 0.0000
# 2 1.8081 127.6585 20.7077 0.0000 0.0000 0.0000
# 3 16.2067 20.7077 108.6554 0.0000 0.0000 0.0000
# 4 0.0000 0.0000 0.0000 22.8076 0.0000 0.0000
# 5 0.0000 0.0000 0.0000 0.0000 11.8401 0.0000
# 6 0.0000 0.0000 0.0000 0.0000 0.0000 28.5571
#
#
#
# Elastic Compliance Matrix: (Units=1/GPa)
#
#
# Indices 1 2 3 4 5 6 
#
# 1 0.040439 0.000419 -0.006112 0.000000 0.000000 0.000000
# 2 0.000419 0.008088 -0.001604 0.000000 0.000000 0.000000
# 3 -0.006112 -0.001604 0.010421 0.000000 0.000000 0.000000
# 4 0.000000 0.000000 0.000000 0.043845 0.000000 0.000000
# 5 0.000000 0.000000 0.000000 0.000000 0.084459 0.000000
# 6 0.000000 0.000000 0.000000 0.000000 0.000000 0.035018
#
#
# Mechanical properties :
#
#
# Convention : Reuss Voigt Hill
#
# Bulk Modulus (GPa) = 22.54595 37.87977 30.21286
# Shear Modulus (GPa) = 19.86911 27.62433 23.74672
#
# Velocity S-wave (km/s) = 3.05380 3.60078 3.33851
# Velocity P-wave (km/s) = 4.79753 5.92170 5.38901
#
# Compressibility (1/GPa) = 0.04435386
#
# Stress axis : x y z
#
# Youngs Moduli (GPa) = 24.72859 123.64569 95.96339
#
# Poissons Ratio (x) = -0.05176 0.58648
# Poissons Ratio (y) = -0.01035 0.15391
# Poissons Ratio (z) = 0.15113 0.19830
#
# Static dielectric constant tensor:
#      x y z
#    x 3.730790 0.000000 0.000000 
#    y 0.000000 3.882770 0.000000 
#    z 0.000000 0.000000 3.889030 
# 
# 
# High freq. dielectric constant tensor:
#      x y z
#    x 1.831710 0.000000 0.000000 
#    y 0.000000 1.836990 0.000000 
#    z 0.000000 0.000000 1.815540 
# 
# From -- ./inp_files/9741.got.cif
#   From: 2010.03.12/outbox.cif.g09.slc.cpg/sg54_5_cif.got.tgz:9741.got - 2010.04.16 15:00:50.
