data_PCOD8223786
_publ_section_title
;
Structure prediction by ZEFSAII (Michael W. Deem and Ramdas Pophale) SiO2 
 PCOD8223786
Probable space group: P C C A
;
_chemical_formula_sum "Si O2"
_cell_formula_units_Z 40
_cell_length_a 8.735761
_cell_length_b 18.018414
_cell_length_c 10.794331
_cell_angle_alpha 90.000000
_cell_angle_beta 90.000000
_cell_angle_gamma 90.000000
_cell_volume 1699.076903
_symmetry_space_group_name_H-M "P C C A"
_symmetry_group_IT_number 54
_symmetry_cell_setting 'orthorhombic'
loop_
_space_group_symop_operation_xyz
x,y,z
1/2-x,-y,z
1/2+x,-y,1/2-z
-x,y,1/2-z
-x,-y,-z
1/2+x,y,-z
1/2-x,y,1/2+z
x,-y,1/2+z
loop_
_atom_site_type_symbol
_atom_site_label
_atom_site_fract_x
_atom_site_fract_y
_atom_site_fract_z
Si Si1 0.156047 0.366321 0.628821
Si Si2 0.312318 0.580858 0.888355
Si Si3 0.945652 0.872919 0.984541
Si Si4 0.786264 0.077055 0.161792
Si Si5 0.696338 0.198471 0.349598
O O1 0.246113 0.401289 0.748030
O O2 0.247862 0.367819 0.499516
O O3 0.136926 0.281376 0.672175
O O4 0.995649 0.409294 0.610516
O O5 0.250000 0.500000 0.923716
O O6 0.852830 0.802313 0.929083
O O7 0.034360 0.915736 0.873742
O O8 0.820879 0.929923 0.039243
O O9 0.060728 0.844835 0.086093
O O10 0.731176 0.153334 0.224660
O O11 0.750000 0.000000 0.236193
#
# Coordination Sequence:
#
# PCOD8223786 Si02
#       5
#     8   8   8   8   8
#     4  11  26  44  75 106 149 186 239 292 364 428
#     4  11  25  47  74 107 145 186 237 291 362 439
#     4  10  24  41  65  92 136 175 244 283 363 415
#     4  11  24  42  66  96 136 182 238 298 357 421
#     4  11  24  42  66  97 137 181 232 291 354 429
#
# _framework density 23.542195
#
# number of rings (size 3 to 8) (size 9 to 14) (size 15 to 20)
#    0.000    1.200    0.000    4.200   11.200    8.800 
#    3.600    0.000    0.000    0.000    0.000    0.000 
#    0.000    0.000    0.000    0.000    0.000    0.000 
#
# Total GULP energy -495634.818790 kJ/mol
# GULP energy per Si atom -12390.870470 kJ/mol
# Density = 2.348861 g / cm^3
# Si number density = 23.542195 Si / 1000 Ang^3
#
#
#
# Elastic Constant Matrix: (Units=GPa)
#
#
# Indices 1 2 3 4 5 6 
#
# 1 101.6280 16.4960 34.3840 0.0000 0.0000 0.0000
# 2 16.4960 127.0034 13.7792 0.0000 0.0000 0.0000
# 3 34.3840 13.7792 125.9665 0.0000 0.0000 0.0000
# 4 0.0000 0.0000 0.0000 30.1589 0.0000 0.0000
# 5 0.0000 0.0000 0.0000 0.0000 28.2940 0.0000
# 6 0.0000 0.0000 0.0000 0.0000 0.0000 27.1550
#
#
#
# Elastic Compliance Matrix: (Units=1/GPa)
#
#
# Indices 1 2 3 4 5 6 
#
# 1 0.010995 -0.001116 -0.002879 0.000000 0.000000 0.000000
# 2 -0.001116 0.008082 -0.000579 0.000000 0.000000 0.000000
# 3 -0.002879 -0.000579 0.008788 0.000000 0.000000 0.000000
# 4 0.000000 0.000000 0.000000 0.033158 0.000000 0.000000
# 5 0.000000 0.000000 0.000000 0.000000 0.035343 0.000000
# 6 0.000000 0.000000 0.000000 0.000000 0.000000 0.036826
#
#
# Mechanical properties :
#
#
# Convention : Reuss Voigt Hill
#
# Bulk Modulus (GPa) = 53.43086 53.76848 53.59967
# Shear Modulus (GPa) = 33.65228 36.45083 35.05156
#
# Velocity S-wave (km/s) = 3.78490 3.93914 3.86279
# Velocity P-wave (km/s) = 6.46883 6.60135 6.53542
#
# Compressibility (1/GPa) = 0.01871578
#
# Stress axis : x y z
#
# Youngs Moduli (GPa) = 90.95021 123.73796 113.79271
#
# Poissons Ratio (x) = 0.13806 0.32763
# Poissons Ratio (y) = 0.10148 0.06594
# Poissons Ratio (z) = 0.26186 0.07170
#
# Static dielectric constant tensor:
#      x y z
#    x 4.505020 0.000000 0.000000 
#    y 0.000000 4.070760 0.000000 
#    z 0.000000 0.000000 4.505510 
# 
# 
# High freq. dielectric constant tensor:
#      x y z
#    x 1.941460 0.000000 0.000000 
#    y 0.000000 1.920260 0.000000 
#    z 0.000000 0.000000 1.946800 
# 
# From -- ./inp_files/6860.got.cif
#   From: 2010.03.12/outbox.cif.g09.slc.cpg/sg54_4_cif.got.tgz:6860.got - 2010.04.16 15:00:50.
