data_PCOD8223278
_publ_section_title
;
Structure prediction by ZEFSAII (Michael W. Deem and Ramdas Pophale) SiO2 
 PCOD8223278
Probable space group: P C C A
;
_chemical_formula_sum "Si O2"
_cell_formula_units_Z 56
_cell_length_a 15.229916
_cell_length_b 13.911507
_cell_length_c 12.943942
_cell_angle_alpha 90.000000
_cell_angle_beta 90.000000
_cell_angle_gamma 90.000000
_cell_volume 2742.447010
_symmetry_space_group_name_H-M "P C C A"
_symmetry_group_IT_number 54
_symmetry_cell_setting 'orthorhombic'
loop_
_space_group_symop_operation_xyz
x,y,z
1/2-x,-y,z
1/2+x,-y,1/2-z
-x,y,1/2-z
-x,-y,-z
1/2+x,y,-z
1/2-x,y,1/2+z
x,-y,1/2+z
loop_
_atom_site_type_symbol
_atom_site_label
_atom_site_fract_x
_atom_site_fract_y
_atom_site_fract_z
Si Si1 0.291070 0.908523 0.900293
Si Si2 0.580510 0.961540 0.434063
Si Si3 0.844380 0.229582 0.995178
Si Si4 0.346862 0.454256 0.002892
Si Si5 0.984323 0.553168 0.869555
Si Si6 0.594556 0.866617 0.788211
Si Si7 0.489770 0.231570 0.628669
O O1 0.347890 0.854705 0.814383
O O2 0.250000 0.000000 0.839803
O O3 0.338558 0.970457 0.989716
O O4 0.237468 0.826011 0.957777
O O5 0.579510 0.848994 0.404035
O O6 0.500000 0.000000 0.500000
O O7 0.590521 0.023925 0.330060
O O8 0.825962 0.342252 0.994155
O O9 0.867220 0.200311 0.878232
O O10 0.921301 0.201373 0.072769
O O11 0.250000 0.500000 0.984507
O O12 0.397328 0.489579 0.106520
O O13 0.422267 0.481430 0.918127
O O14 0.961017 0.661798 0.906908
O O15 0.000000 0.547522 0.750000
O O16 0.500000 0.830372 0.750000
O O17 0.500000 0.228986 0.750000
#
# Coordination Sequence:
#
# PCOD8223278 Si02
#       7
#     8   8   8   8   8   8   8
#     4  12  26  41  60  93 134 168 214 271 327 380
#     4  12  22  40  63  91 130 172 218 264 315 393
#     4  11  25  45  61 101 131 164 220 275 326 392
#     4  10  23  45  70  95 134 169 218 278 336 391
#     4   9  21  44  69 100 130 172 216 272 337 398
#     4  12  25  43  66  94 128 179 220 259 327 390
#     4  10  21  39  69  93 128 170 215 260 327 401
#
# _framework density 20.419720000000002
#
# number of rings (size 3 to 8) (size 9 to 14) (size 15 to 20)
#    0.000    1.143    4.286    0.429    6.000    1.143 
#   10.286    0.000    0.000    0.000    0.000    0.000 
#    0.000    0.000    0.000    0.000    0.000    0.000 
#
# Total GULP energy -693868.542204 kJ/mol
# GULP energy per Si atom -12390.509682 kJ/mol
# Density = 2.037324 g / cm^3
# Si number density = 20.419720 Si / 1000 Ang^3
#
#
#
# Elastic Constant Matrix: (Units=GPa)
#
#
# Indices 1 2 3 4 5 6 
#
# 1 120.2733 50.0255 44.5794 0.0000 0.0000 0.0000
# 2 50.0255 109.9837 25.1129 0.0000 0.0000 0.0000
# 3 44.5794 25.1129 95.9949 0.0000 0.0000 0.0000
# 4 0.0000 0.0000 0.0000 0.3108 0.0000 0.0000
# 5 0.0000 0.0000 0.0000 0.0000 31.8940 0.0000
# 6 0.0000 0.0000 0.0000 0.0000 0.0000 38.0364
#
#
#
# Elastic Compliance Matrix: (Units=1/GPa)
#
#
# Indices 1 2 3 4 5 6 
#
# 1 0.011718 -0.004347 -0.004305 0.000000 0.000000 0.000000
# 2 -0.004347 0.011282 -0.000933 0.000000 0.000000 0.000000
# 3 -0.004305 -0.000933 0.012660 0.000000 0.000000 0.000000
# 4 0.000000 0.000000 0.000000 3.217970 0.000000 0.000000
# 5 0.000000 0.000000 0.000000 0.000000 0.031354 0.000000
# 6 0.000000 0.000000 0.000000 0.000000 0.000000 0.026291
#
#
# Mechanical properties :
#
#
# Convention : Reuss Voigt Hill
#
# Bulk Modulus (GPa) = 60.63578 62.85417 61.74498
# Shear Modulus (GPa) = 1.49883 27.81716 14.65799
#
# Velocity S-wave (km/s) = 0.85767 3.69490 2.68215
# Velocity P-wave (km/s) = 5.54437 7.00364 6.31629
#
# Compressibility (1/GPa) = 0.01649191
#
# Stress axis : x y z
#
# Youngs Moduli (GPa) = 85.33938 88.63315 78.98734
#
# Poissons Ratio (x) = 0.38529 0.34000
# Poissons Ratio (y) = 0.37097 0.07368
# Poissons Ratio (z) = 0.36735 0.08268
#
# Static dielectric constant tensor:
#      x y z
#    x 3.697730 0.000000 0.000000 
#    y 0.000000 3.914960 0.000000 
#    z 0.000000 0.000000 3.739810 
# 
# 
# High freq. dielectric constant tensor:
#      x y z
#    x 1.798320 0.000000 0.000000 
#    y 0.000000 1.804810 0.000000 
#    z 0.000000 0.000000 1.804970 
# 
# From -- ./inp_files/8405.got.cif
#   From: 2010.03.12/outbox.cif.g09.slc.cpg/sg54_5_cif.got.tgz:8405.got - 2010.04.16 15:00:50.
