data_PCOD8223331
_publ_section_title
;
Structure prediction by ZEFSAII (Michael W. Deem and Ramdas Pophale) SiO2 
 PCOD8223331
Probable space group: P C C A
;
_chemical_formula_sum "Si O2"
_cell_formula_units_Z 40
_cell_length_a 5.054325
_cell_length_b 26.538274
_cell_length_c 13.579733
_cell_angle_alpha 90.000000
_cell_angle_beta 90.000000
_cell_angle_gamma 90.000000
_cell_volume 1821.491165
_symmetry_space_group_name_H-M "P C C A"
_symmetry_group_IT_number 54
_symmetry_cell_setting 'orthorhombic'
loop_
_space_group_symop_operation_xyz
x,y,z
1/2-x,-y,z
1/2+x,-y,1/2-z
-x,y,1/2-z
-x,-y,-z
1/2+x,y,-z
1/2-x,y,1/2+z
x,-y,1/2+z
loop_
_atom_site_type_symbol
_atom_site_label
_atom_site_fract_x
_atom_site_fract_y
_atom_site_fract_z
Si Si1 0.621213 0.216221 0.565957
Si Si2 0.500000 0.032611 0.750000
Si Si3 0.000000 0.532163 0.250000
Si Si4 0.829818 0.597778 0.064631
Si Si5 0.260173 0.308652 0.812209
Si Si6 0.399795 0.898346 0.433098
O O1 0.377927 0.227576 0.496782
O O2 0.622411 0.254743 0.656102
O O3 0.608725 0.159112 0.605956
O O4 0.605007 0.066353 0.661079
O O5 0.750000 0.000000 0.786145
O O6 0.250000 0.500000 0.210998
O O7 0.114201 0.565577 0.338313
O O8 0.821782 0.656411 0.095677
O O9 0.546427 0.584981 0.017956
O O10 0.500000 0.334787 0.750000
O O11 0.000000 0.298707 0.750000
O O12 0.650357 0.910330 0.499716
#
# Coordination Sequence:
#
# PCOD8223331 Si02
#       6
#     8   4   4   8   8   8
#     4  10  21  41  63  94 132 174 221 265 327 405
#     4  12  26  42  66  98 126 170 228 276 334 394
#     4  12  28  48  74 104 140 176 234 296 336 402
#     4  12  26  46  74 102 140 183 226 278 342 405
#     4  12  24  40  67 103 139 180 222 274 333 397
#     4  10  23  43  66  94 132 171 215 273 333 393
#
# _framework density 21.96003
#
# number of rings (size 3 to 8) (size 9 to 14) (size 15 to 20)
#    0.000    0.800    1.000    6.000    2.800    4.800 
#    1.800    0.000    0.000    0.000    0.000    0.000 
#    0.000    0.000    0.000    0.000    0.000    0.000 
#
# Total GULP energy -496158.494865 kJ/mol
# GULP energy per Si atom -12403.962372 kJ/mol
# Density = 2.191005 g / cm^3
# Si number density = 21.960030 Si / 1000 Ang^3
#
#
#
# Elastic Constant Matrix: (Units=GPa)
#
#
# Indices 1 2 3 4 5 6 
#
# 1 170.6036 40.5472 45.4849 0.0000 0.0000 0.0000
# 2 40.5472 104.2922 54.9636 0.0000 0.0000 0.0000
# 3 45.4849 54.9636 106.5564 0.0000 0.0000 0.0000
# 4 0.0000 0.0000 0.0000 19.9995 0.0000 0.0000
# 5 0.0000 0.0000 0.0000 0.0000 153.6259 0.0000
# 6 0.0000 0.0000 0.0000 0.0000 0.0000 37.0426
#
#
#
# Elastic Compliance Matrix: (Units=1/GPa)
#
#
# Indices 1 2 3 4 5 6 
#
# 1 0.006787 -0.001527 -0.002109 0.000000 0.000000 0.000000
# 2 -0.001527 0.013512 -0.006318 0.000000 0.000000 0.000000
# 3 -0.002109 -0.006318 0.013544 0.000000 0.000000 0.000000
# 4 0.000000 0.000000 0.000000 0.050001 0.000000 0.000000
# 5 0.000000 0.000000 0.000000 0.000000 0.006509 0.000000
# 6 0.000000 0.000000 0.000000 0.000000 0.000000 0.026996
#
#
# Mechanical properties :
#
#
# Convention : Reuss Voigt Hill
#
# Bulk Modulus (GPa) = 71.76580 73.71599 72.74089
# Shear Modulus (GPa) = 35.23564 58.16404 46.69984
#
# Velocity S-wave (km/s) = 4.01001 5.15207 4.61649
# Velocity P-wave (km/s) = 7.36148 8.30860 7.84934
#
# Compressibility (1/GPa) = 0.01393421
#
# Stress axis : x y z
#
# Youngs Moduli (GPa) = 147.34393 74.01031 73.83377
#
# Poissons Ratio (x) = 0.11301 0.15575
# Poissons Ratio (y) = 0.22498 0.46646
# Poissons Ratio (z) = 0.31081 0.46758
#
# Static dielectric constant tensor:
#      x y z
#    x 4.202050 0.000000 0.000000 
#    y 0.000000 4.106480 0.000000 
#    z 0.000000 0.000000 3.854910 
# 
# 
# High freq. dielectric constant tensor:
#      x y z
#    x 1.889880 0.000000 0.000000 
#    y 0.000000 1.868980 0.000000 
#    z 0.000000 0.000000 1.862230 
# 
# From -- ./inp_files/6461.got.cif
#   From: 2010.03.12/outbox.cif.g09.slc.cpg/sg54_4_cif.got.tgz:6461.got - 2010.04.16 15:00:50.
