data_PCOD8223512
_publ_section_title
;
Structure prediction by ZEFSAII (Michael W. Deem and Ramdas Pophale) SiO2 
 PCOD8223512
Probable space group: P C C A
;
_chemical_formula_sum "Si O2"
_cell_formula_units_Z 64
_cell_length_a 16.200814
_cell_length_b 13.047615
_cell_length_c 14.427585
_cell_angle_alpha 90.000000
_cell_angle_beta 90.000000
_cell_angle_gamma 90.000000
_cell_volume 3049.731538
_symmetry_space_group_name_H-M "P C C A"
_symmetry_group_IT_number 54
_symmetry_cell_setting 'orthorhombic'
loop_
_space_group_symop_operation_xyz
x,y,z
1/2-x,-y,z
1/2+x,-y,1/2-z
-x,y,1/2-z
-x,-y,-z
1/2+x,y,-z
1/2-x,y,1/2+z
x,-y,1/2+z
loop_
_atom_site_type_symbol
_atom_site_label
_atom_site_fract_x
_atom_site_fract_y
_atom_site_fract_z
Si Si1 0.591274 0.416894 0.765361
Si Si2 0.628861 0.199444 0.720115
Si Si3 0.458691 0.113117 0.406222
Si Si4 0.329015 0.445399 0.371339
Si Si5 0.565847 0.709716 0.826618
Si Si6 0.018121 0.890046 0.619839
Si Si7 0.311739 0.779463 0.817372
Si Si8 0.586747 0.517629 0.952111
O O1 0.500000 0.375578 0.750000
O O2 0.646193 0.320721 0.734480
O O3 0.601905 0.521586 0.704790
O O4 0.606629 0.435078 0.873385
O O5 0.563496 0.179938 0.637076
O O6 0.592891 0.141827 0.811240
O O7 0.722031 0.166280 0.692504
O O8 0.526066 0.194511 0.376920
O O9 0.448673 0.119312 0.516398
O O10 0.368898 0.134586 0.363757
O O11 0.490038 0.006483 0.364104
O O12 0.250000 0.500000 0.327294
O O13 0.317342 0.323527 0.381358
O O14 0.344451 0.499911 0.469949
O O15 0.500000 0.667916 0.750000
O O16 0.652205 0.745834 0.782276
O O17 0.587472 0.629217 0.906647
O O18 0.500000 0.500000 0.000000
#
# Coordination Sequence:
#
# PCOD8223512 Si02
#       8
#     8   8   8   8   8   8   8   8
#     4  12  23  42  63  92 132 179 224 277 319 413
#     4  11  25  41  72  95 137 176 230 273 348 412
#     4  10  24  45  72  94 137 166 229 287 342 402
#     4  12  26  41  61  96 143 174 218 275 334 390
#     4  10  22  40  65  96 131 180 223 280 336 405
#     4  10  24  48  68  99 127 181 220 285 346 408
#     4  11  24  44  67 102 134 181 222 286 338 404
#     4  12  24  36  66  96 128 181 231 263 328 406
#
# _framework density 20.985454000000001
#
# number of rings (size 3 to 8) (size 9 to 14) (size 15 to 20)
#    0.000    1.000    5.000    1.875   10.500    2.000 
#    2.250    0.000    0.000    0.000    0.000    0.000 
#    0.000    0.000    0.000    0.000    0.000    0.000 
#
# Total GULP energy -793389.146439 kJ/mol
# GULP energy per Si atom -12396.705413 kJ/mol
# Density = 2.093769 g / cm^3
# Si number density = 20.985454 Si / 1000 Ang^3
#
#
#
# Elastic Constant Matrix: (Units=GPa)
#
#
# Indices 1 2 3 4 5 6 
#
# 1 117.5875 46.0983 39.5799 0.0000 0.0000 0.0000
# 2 46.0983 114.6770 43.7490 0.0000 0.0000 0.0000
# 3 39.5799 43.7490 117.5755 0.0000 0.0000 0.0000
# 4 0.0000 0.0000 0.0000 38.3697 0.0000 0.0000
# 5 0.0000 0.0000 0.0000 0.0000 19.0825 0.0000
# 6 0.0000 0.0000 0.0000 0.0000 0.0000 29.1530
#
#
#
# Elastic Compliance Matrix: (Units=1/GPa)
#
#
# Indices 1 2 3 4 5 6 
#
# 1 0.010609 -0.003382 -0.002313 0.000000 0.000000 0.000000
# 2 -0.003382 0.011241 -0.003044 0.000000 0.000000 0.000000
# 3 -0.002313 -0.003044 0.010416 0.000000 0.000000 0.000000
# 4 0.000000 0.000000 0.000000 0.026062 0.000000 0.000000
# 5 0.000000 0.000000 0.000000 0.000000 0.052404 0.000000
# 6 0.000000 0.000000 0.000000 0.000000 0.000000 0.034302
#
#
# Mechanical properties :
#
#
# Convention : Reuss Voigt Hill
#
# Bulk Modulus (GPa) = 67.62253 67.63271 67.62762
# Shear Modulus (GPa) = 29.86111 32.01522 30.93816
#
# Velocity S-wave (km/s) = 3.77628 3.91012 3.84378
# Velocity P-wave (km/s) = 7.16291 7.25835 7.21079
#
# Compressibility (1/GPa) = 0.01478797
#
# Stress axis : x y z
#
# Youngs Moduli (GPa) = 94.26201 88.95942 96.00212
#
# Poissons Ratio (x) = 0.30088 0.22203
# Poissons Ratio (y) = 0.31882 0.29225
# Poissons Ratio (z) = 0.21800 0.27081
#
# Static dielectric constant tensor:
#      x y z
#    x 3.789880 0.000000 0.000000 
#    y 0.000000 3.862060 0.000000 
#    z 0.000000 0.000000 3.929760 
# 
# 
# High freq. dielectric constant tensor:
#      x y z
#    x 1.819010 0.000000 0.000000 
#    y 0.000000 1.825530 0.000000 
#    z 0.000000 0.000000 1.823660 
# 
# From -- ./inp_files/14335.got.cif
#   From: 2010.03.12/outbox.cif.g09.slc.cpg/sg54_8_cif.got.tgz:14335.got - 2010.04.16 15:00:50.
