data_PCOD8223860
_publ_section_title
;
Structure prediction by ZEFSAII (Michael W. Deem and Ramdas Pophale) SiO2 
 PCOD8223860
Probable space group: P C C A
;
_chemical_formula_sum "Si O2"
_cell_formula_units_Z 40
_cell_length_a 15.321628
_cell_length_b 10.651241
_cell_length_c 11.344436
_cell_angle_alpha 90.000000
_cell_angle_beta 90.000000
_cell_angle_gamma 90.000000
_cell_volume 1851.347886
_symmetry_space_group_name_H-M "P C C A"
_symmetry_group_IT_number 54
_symmetry_cell_setting 'orthorhombic'
loop_
_space_group_symop_operation_xyz
x,y,z
1/2-x,-y,z
1/2+x,-y,1/2-z
-x,y,1/2-z
-x,-y,-z
1/2+x,y,-z
1/2-x,y,1/2+z
x,-y,1/2+z
loop_
_atom_site_type_symbol
_atom_site_label
_atom_site_fract_x
_atom_site_fract_y
_atom_site_fract_z
Si Si1 0.101460 0.985253 0.027686
Si Si2 0.876575 0.745335 0.917638
Si Si3 0.076121 0.648998 0.327877
Si Si4 0.299969 0.217520 0.171022
Si Si5 0.500000 0.590984 0.250000
Si Si6 0.250000 0.000000 0.336968
O O1 0.161330 0.995131 0.912241
O O2 0.120626 0.105893 0.108520
O O3 0.126572 0.856471 0.094799
O O4 0.000000 0.000000 0.000000
O O5 0.773121 0.713864 0.910485
O O6 0.932471 0.676393 0.819157
O O7 0.915389 0.711094 0.044807
O O8 0.161613 0.669895 0.248996
O O9 0.000000 0.715904 0.250000
O O10 0.055016 0.499582 0.339318
O O11 0.251319 0.123464 0.258519
#
# Coordination Sequence:
#
# PCOD8223860 Si02
#       6
#     8   8   8   8   4   4
#     4  12  25  40  71 106 143 186 225 295 374 444
#     4  12  23  47  71 104 143 182 244 297 362 439
#     4  10  24  49  71  95 144 189 243 295 351 423
#     4  12  23  43  71 106 145 183 228 302 361 440
#     4  10  28  46  72 102 132 196 250 300 338 440
#     4  12  22  44  62 112 150 172 234 286 362 454
#
# _framework density 21.605881
#
# number of rings (size 3 to 8) (size 9 to 14) (size 15 to 20)
#    0.600    0.000    6.000    1.800    2.800    0.800 
#    3.600    2.000    0.000    0.000    0.000    0.000 
#    0.000    0.000    0.000    0.000    0.000    0.000 
#
# Total GULP energy -495645.976344 kJ/mol
# GULP energy per Si atom -12391.149409 kJ/mol
# Density = 2.155670 g / cm^3
# Si number density = 21.605881 Si / 1000 Ang^3
#
#
#
# Elastic Constant Matrix: (Units=GPa)
#
#
# Indices 1 2 3 4 5 6 
#
# 1 167.1489 28.8254 56.0866 0.0000 0.0000 0.0000
# 2 28.8254 62.1561 20.9448 0.0000 0.0000 0.0000
# 3 56.0866 20.9448 78.4739 0.0000 0.0000 0.0000
# 4 0.0000 0.0000 0.0000 22.7278 0.0000 0.0000
# 5 0.0000 0.0000 0.0000 0.0000 38.2732 0.0000
# 6 0.0000 0.0000 0.0000 0.0000 0.0000 37.5089
#
#
#
# Elastic Compliance Matrix: (Units=1/GPa)
#
#
# Indices 1 2 3 4 5 6 
#
# 1 0.008086 -0.001981 -0.005251 0.000000 0.000000 0.000000
# 2 -0.001981 0.018164 -0.003432 0.000000 0.000000 0.000000
# 3 -0.005251 -0.003432 0.017412 0.000000 0.000000 0.000000
# 4 0.000000 0.000000 0.000000 0.043999 0.000000 0.000000
# 5 0.000000 0.000000 0.000000 0.000000 0.026128 0.000000
# 6 0.000000 0.000000 0.000000 0.000000 0.000000 0.026660
#
#
# Mechanical properties :
#
#
# Convention : Reuss Voigt Hill
#
# Bulk Modulus (GPa) = 44.77384 57.72140 51.24762
# Shear Modulus (GPa) = 29.54718 33.16345 31.35531
#
# Velocity S-wave (km/s) = 3.70206 3.92206 3.81365
# Velocity P-wave (km/s) = 6.24833 6.87632 6.56983
#
# Compressibility (1/GPa) = 0.02233447
#
# Stress axis : x y z
#
# Youngs Moduli (GPa) = 123.66881 55.05500 57.43203
#
# Poissons Ratio (x) = 0.10905 0.30155
# Poissons Ratio (y) = 0.24495 0.19712
# Poissons Ratio (z) = 0.64934 0.18896
#
# Static dielectric constant tensor:
#      x y z
#    x 4.433750 0.000000 0.000000 
#    y 0.000000 2.021010 0.000000 
#    z 0.000000 0.000000 3.859020 
# 
# 
# High freq. dielectric constant tensor:
#      x y z
#    x 1.865040 0.000000 0.000000 
#    y 0.000000 1.835560 0.000000 
#    z 0.000000 0.000000 1.846310 
# 
# From -- ./inp_files/8258.got.cif
#   From: 2010.03.12/outbox.cif.g09.slc.cpg/sg54_5_cif.got.tgz:8258.got - 2010.04.16 15:00:50.
