data_PCOD8223717
_publ_section_title
;
Structure prediction by ZEFSAII (Michael W. Deem and Ramdas Pophale) SiO2 
 PCOD8223717
Probable space group: P C C A
;
_chemical_formula_sum "Si O2"
_cell_formula_units_Z 48
_cell_length_a 8.959446
_cell_length_b 8.545013
_cell_length_c 30.258011
_cell_angle_alpha 90.000000
_cell_angle_beta 90.000000
_cell_angle_gamma 90.000000
_cell_volume 2316.510433
_symmetry_space_group_name_H-M "P C C A"
_symmetry_group_IT_number 54
_symmetry_cell_setting 'orthorhombic'
loop_
_space_group_symop_operation_xyz
x,y,z
1/2-x,-y,z
1/2+x,-y,1/2-z
-x,y,1/2-z
-x,-y,-z
1/2+x,y,-z
1/2-x,y,1/2+z
x,-y,1/2+z
loop_
_atom_site_type_symbol
_atom_site_label
_atom_site_fract_x
_atom_site_fract_y
_atom_site_fract_z
Si Si1 0.750000 0.000000 0.832083
Si Si2 0.387406 0.107825 0.524564
Si Si3 0.493800 0.808422 0.117324
Si Si4 0.996944 0.213827 0.700517
Si Si5 0.105623 0.597173 0.468014
Si Si6 0.750000 0.000000 0.161396
Si Si7 0.923824 0.464822 0.628444
O O1 0.646875 0.107111 0.862070
O O2 0.852572 0.112206 0.802709
O O3 0.473789 0.187468 0.564847
O O4 0.340139 0.242097 0.490096
O O5 0.250000 0.000000 0.540178
O O6 0.500000 0.000000 0.500000
O O7 0.650129 0.890008 0.129939
O O8 0.490445 0.628851 0.132119
O O9 0.993505 0.355752 0.666114
O O10 0.000000 0.283169 0.750000
O O11 0.852919 0.104826 0.692879
O O12 0.250000 0.500000 0.457285
O O13 0.037482 0.620767 0.418643
O O14 0.000000 0.500000 0.500000
O O15 0.750000 0.500000 0.636583
#
# Coordination Sequence:
#
# PCOD8223717 Si02
#       7
#     4   8   8   8   8   4   8
#     4  10  25  44  69 100 132 172 216 285 343 390
#     4  12  27  40  64  98 134 176 229 276 325 393
#     4  11  23  45  64 101 135 178 221 278 335 402
#     4  11  24  46  71 101 131 173 224 279 341 406
#     4  11  24  42  63  91 131 175 216 264 325 388
#     4  10  23  42  75  92 134 178 222 273 335 416
#     4  11  24  44  69  97 135 179 225 269 338 408
#
# _framework density 20.720821999999998
#
# number of rings (size 3 to 8) (size 9 to 14) (size 15 to 20)
#    0.000    1.000    4.167    1.500    8.167    2.000 
#    3.000    0.833    0.000    0.000    0.000    0.000 
#    0.000    0.000    0.000    0.000    0.000    0.000 
#
# Total GULP energy -595249.624737 kJ/mol
# GULP energy per Si atom -12401.033849 kJ/mol
# Density = 2.067366 g / cm^3
# Si number density = 20.720822 Si / 1000 Ang^3
#
#
#
# Elastic Constant Matrix: (Units=GPa)
#
#
# Indices 1 2 3 4 5 6 
#
# 1 100.6700 38.4560 44.9589 0.0000 0.0000 0.0000
# 2 38.4560 142.4933 75.4087 0.0000 0.0000 0.0000
# 3 44.9589 75.4087 172.1279 0.0000 0.0000 0.0000
# 4 0.0000 0.0000 0.0000 35.2729 0.0000 0.0000
# 5 0.0000 0.0000 0.0000 0.0000 18.1408 0.0000
# 6 0.0000 0.0000 0.0000 0.0000 0.0000 22.1080
#
#
#
# Elastic Compliance Matrix: (Units=1/GPa)
#
#
# Indices 1 2 3 4 5 6 
#
# 1 0.011667 -0.002000 -0.002171 0.000000 0.000000 0.000000
# 2 -0.002000 0.009479 -0.003630 0.000000 0.000000 0.000000
# 3 -0.002171 -0.003630 0.007967 0.000000 0.000000 0.000000
# 4 0.000000 0.000000 0.000000 0.028350 0.000000 0.000000
# 5 0.000000 0.000000 0.000000 0.000000 0.055124 0.000000
# 6 0.000000 0.000000 0.000000 0.000000 0.000000 0.045232
#
#
# Mechanical properties :
#
#
# Convention : Reuss Voigt Hill
#
# Bulk Modulus (GPa) = 74.01691 81.43761 77.72726
# Shear Modulus (GPa) = 28.10156 32.20219 30.15187
#
# Velocity S-wave (km/s) = 3.68666 3.94648 3.81878
# Velocity P-wave (km/s) = 7.34306 7.75590 7.55230
#
# Compressibility (1/GPa) = 0.01351043
#
# Stress axis : x y z
#
# Youngs Moduli (GPa) = 85.71180 105.49960 125.51454
#
# Poissons Ratio (x) = 0.21096 0.27254
# Poissons Ratio (y) = 0.17139 0.45566
# Poissons Ratio (z) = 0.18611 0.38300
#
# Static dielectric constant tensor:
#      x y z
#    x 3.641050 0.000000 0.000000 
#    y 0.000000 3.809580 0.000000 
#    z 0.000000 0.000000 3.496440 
# 
# 
# High freq. dielectric constant tensor:
#      x y z
#    x 1.815840 0.000000 0.000000 
#    y 0.000000 1.821540 0.000000 
#    z 0.000000 0.000000 1.811250 
# 
# From -- ./inp_files/27817.got.cif
#   From: 2010.03.12/outbox.cif.g09.slc.cpg/sg54_14_cif.got.tgz:27817.got - 2010.04.16 15:00:50.
