data_PCOD8223802
_publ_section_title
;
Structure prediction by ZEFSAII (Michael W. Deem and Ramdas Pophale) SiO2 
 PCOD8223802
Probable space group: P C C A
;
_chemical_formula_sum "Si O2"
_cell_formula_units_Z 40
_cell_length_a 13.680181
_cell_length_b 11.332267
_cell_length_c 11.884007
_cell_angle_alpha 90.000000
_cell_angle_beta 90.000000
_cell_angle_gamma 90.000000
_cell_volume 1842.347464
_symmetry_space_group_name_H-M "P C C A"
_symmetry_group_IT_number 54
_symmetry_cell_setting 'orthorhombic'
loop_
_space_group_symop_operation_xyz
x,y,z
1/2-x,-y,z
1/2+x,-y,1/2-z
-x,y,1/2-z
-x,-y,-z
1/2+x,y,-z
1/2-x,y,1/2+z
x,-y,1/2+z
loop_
_atom_site_type_symbol
_atom_site_label
_atom_site_fract_x
_atom_site_fract_y
_atom_site_fract_z
Si Si1 0.107941 0.213441 0.745305
Si Si2 0.607302 0.207875 0.799577
Si Si3 0.250064 0.637956 0.099878
Si Si4 0.103456 0.017058 0.559619
Si Si5 0.736254 0.823154 0.085694
O O1 0.174656 0.318116 0.695091
O O2 0.095071 0.099757 0.667260
O O3 0.150905 0.168485 0.867571
O O4 0.000000 0.270025 0.750000
O O5 0.500000 0.212614 0.750000
O O6 0.639735 0.329870 0.858798
O O7 0.676302 0.179424 0.698369
O O8 0.632370 0.112670 0.896720
O O9 0.250000 0.500000 0.078732
O O10 0.222253 0.702697 0.983743
O O11 0.191220 0.064556 0.480711
O O12 0.000000 0.000000 0.500000
#
# Coordination Sequence:
#
# PCOD8223802 Si02
#       5
#     8   8   8   8   8
#     4  10  24  43  67 101 138 176 222 274 343 409
#     4  11  23  41  68 100 132 172 218 275 339 405
#     4  10  25  45  66  94 129 177 236 282 334 396
#     4  11  23  41  69 101 139 170 218 272 340 421
#     4  10  24  43  65  95 139 175 217 271 342 394
#
# _framework density 21.711431999999999
#
# number of rings (size 3 to 8) (size 9 to 14) (size 15 to 20)
#    0.000    1.600    2.000    0.600    2.800   12.800 
#    0.000    2.000    0.000    0.000    0.000    0.000 
#    0.000    0.000    0.000    0.000    0.000    0.000 
#
# Total GULP energy -495627.989161 kJ/mol
# GULP energy per Si atom -12390.699729 kJ/mol
# Density = 2.166202 g / cm^3
# Si number density = 21.711432 Si / 1000 Ang^3
#
#
#
# Elastic Constant Matrix: (Units=GPa)
#
#
# Indices 1 2 3 4 5 6 
#
# 1 142.6210 71.1470 59.3686 0.0000 0.0000 0.0000
# 2 71.1470 150.7937 59.3316 0.0000 0.0000 0.0000
# 3 59.3686 59.3316 126.0932 0.0000 0.0000 0.0000
# 4 0.0000 0.0000 0.0000 19.2596 0.0000 0.0000
# 5 0.0000 0.0000 0.0000 0.0000 43.4487 0.0000
# 6 0.0000 0.0000 0.0000 0.0000 0.0000 26.2094
#
#
#
# Elastic Compliance Matrix: (Units=1/GPa)
#
#
# Indices 1 2 3 4 5 6 
#
# 1 0.010053 -0.003535 -0.003070 0.000000 0.000000 0.000000
# 2 -0.003535 0.009382 -0.002750 0.000000 0.000000 0.000000
# 3 -0.003070 -0.002750 0.010670 0.000000 0.000000 0.000000
# 4 0.000000 0.000000 0.000000 0.051922 0.000000 0.000000
# 5 0.000000 0.000000 0.000000 0.000000 0.023016 0.000000
# 6 0.000000 0.000000 0.000000 0.000000 0.000000 0.038154
#
#
# Mechanical properties :
#
#
# Convention : Reuss Voigt Hill
#
# Bulk Modulus (GPa) = 87.76090 88.80026 88.28058
# Shear Modulus (GPa) = 30.17413 33.09423 31.63418
#
# Velocity S-wave (km/s) = 3.73202 3.90843 3.82125
# Velocity P-wave (km/s) = 7.68635 7.83306 7.76005
#
# Compressibility (1/GPa) = 0.01139460
#
# Stress axis : x y z
#
# Youngs Moduli (GPa) = 99.47206 106.59189 93.72171
#
# Poissons Ratio (x) = 0.37684 0.28771
# Poissons Ratio (y) = 0.35167 0.25772
# Poissons Ratio (z) = 0.30536 0.29311
#
# Static dielectric constant tensor:
#      x y z
#    x 4.880570 0.000000 0.000000 
#    y 0.000000 3.612610 0.000000 
#    z 0.000000 0.000000 4.074590 
# 
# 
# High freq. dielectric constant tensor:
#      x y z
#    x 1.871670 0.000000 0.000000 
#    y 0.000000 1.823950 0.000000 
#    z 0.000000 0.000000 1.879300 
# 
# From -- ./inp_files/8233.got.cif
#   From: 2010.03.12/outbox.cif.g09.slc.cpg/sg54_5_cif.got.tgz:8233.got - 2010.04.16 15:00:50.
