data_PCOD8223610
_publ_section_title
;
Structure prediction by ZEFSAII (Michael W. Deem and Ramdas Pophale) SiO2 
 PCOD8223610
Probable space group: P C C A
;
_chemical_formula_sum "Si O2"
_cell_formula_units_Z 32
_cell_length_a 12.062218
_cell_length_b 14.515169
_cell_length_c 8.509407
_cell_angle_alpha 90.000000
_cell_angle_beta 90.000000
_cell_angle_gamma 90.000000
_cell_volume 1489.870655
_symmetry_space_group_name_H-M "P C C A"
_symmetry_group_IT_number 54
_symmetry_cell_setting 'orthorhombic'
loop_
_space_group_symop_operation_xyz
x,y,z
1/2-x,-y,z
1/2+x,-y,1/2-z
-x,y,1/2-z
-x,-y,-z
1/2+x,y,-z
1/2-x,y,1/2+z
x,-y,1/2+z
loop_
_atom_site_type_symbol
_atom_site_label
_atom_site_fract_x
_atom_site_fract_y
_atom_site_fract_z
Si Si1 0.000000 0.227822 0.250000
Si Si2 0.382107 0.575807 0.797232
Si Si3 0.592539 0.928219 0.056379
Si Si4 0.661201 0.615932 0.342439
Si Si5 0.250000 0.000000 0.682813
O O1 0.966059 0.168534 0.095600
O O2 0.895787 0.288885 0.298625
O O3 0.500000 0.618934 0.750000
O O4 0.383192 0.465899 0.768645
O O5 0.292271 0.627230 0.688544
O O6 0.358349 0.590535 0.978589
O O7 0.649946 0.956963 0.219625
O O8 0.500000 0.000000 0.000000
O O9 0.691039 0.921943 0.927029
#
# Coordination Sequence:
#
# PCOD8223610 Si02
#       5
#     4   8   8   8   4
#     4  12  26  42  72 106 150 176 262 296 344 444
#     4  11  23  45  72  97 149 195 232 291 384 416
#     4  11  22  46  70 102 137 186 223 298 362 424
#     4  11  25  42  72 105 139 193 244 301 354 440
#     4  10  22  42  78  94 130 190 232 266 380 436
#
# _framework density 21.478375
#
# number of rings (size 3 to 8) (size 9 to 14) (size 15 to 20)
#    0.000    1.000    3.750    3.750    3.500    2.000 
#    0.000    0.000    0.000    0.000    0.000    0.000 
#    0.000    0.000    0.000    0.000    0.000    0.000 
#
# Total GULP energy -396770.598191 kJ/mol
# GULP energy per Si atom -12399.081193 kJ/mol
# Density = 2.142949 g / cm^3
# Si number density = 21.478375 Si / 1000 Ang^3
#
#
#
# Elastic Constant Matrix: (Units=GPa)
#
#
# Indices 1 2 3 4 5 6 
#
# 1 193.1518 77.4753 79.8287 0.0000 0.0000 0.0000
# 2 77.4753 129.0363 65.2251 0.0000 0.0000 0.0000
# 3 79.8287 65.2251 157.6468 0.0000 0.0000 0.0000
# 4 0.0000 0.0000 0.0000 3.9180 0.0000 0.0000
# 5 0.0000 0.0000 0.0000 0.0000 47.6752 0.0000
# 6 0.0000 0.0000 0.0000 0.0000 0.0000 33.9335
#
#
#
# Elastic Compliance Matrix: (Units=1/GPa)
#
#
# Indices 1 2 3 4 5 6 
#
# 1 0.007498 -0.003266 -0.002446 0.000000 0.000000 0.000000
# 2 -0.003266 0.011221 -0.002989 0.000000 0.000000 0.000000
# 3 -0.002446 -0.002989 0.008818 0.000000 0.000000 0.000000
# 4 0.000000 0.000000 0.000000 0.255231 0.000000 0.000000
# 5 0.000000 0.000000 0.000000 0.000000 0.020975 0.000000
# 6 0.000000 0.000000 0.000000 0.000000 0.000000 0.029469
#
#
# Mechanical properties :
#
#
# Convention : Reuss Voigt Hill
#
# Bulk Modulus (GPa) = 98.64884 102.76592 100.70738
# Shear Modulus (GPa) = 14.12457 34.25907 24.19182
#
# Velocity S-wave (km/s) = 2.56719 3.99814 3.35973
# Velocity P-wave (km/s) = 7.40381 8.32248 7.87655
#
# Compressibility (1/GPa) = 0.01013697
#
# Stress axis : x y z
#
# Youngs Moduli (GPa) = 133.36998 89.11503 113.39873
#
# Poissons Ratio (x) = 0.29102 0.27733
# Poissons Ratio (y) = 0.43554 0.33896
# Poissons Ratio (z) = 0.32618 0.26638
#
# Static dielectric constant tensor:
#      x y z
#    x 4.310590 0.000000 0.000000 
#    y 0.000000 3.623740 0.000000 
#    z 0.000000 0.000000 4.109330 
# 
# 
# High freq. dielectric constant tensor:
#      x y z
#    x 1.875660 0.000000 0.000000 
#    y 0.000000 1.804970 0.000000 
#    z 0.000000 0.000000 1.856540 
# 
# From -- ./inp_files/2822.got.cif
#   From: 2010.03.12/outbox.cif.g09.slc.cpg/sg54_2_cif.got.tgz:2822.got - 2010.04.16 15:00:50.
