data_PCOD8223362
_publ_section_title
;
Structure prediction by ZEFSAII (Michael W. Deem and Ramdas Pophale) SiO2 
 PCOD8223362
Probable space group: P C C A
;
_chemical_formula_sum "Si O2"
_cell_formula_units_Z 60
_cell_length_a 8.695741
_cell_length_b 17.422509
_cell_length_c 18.444655
_cell_angle_alpha 90.000000
_cell_angle_beta 90.000000
_cell_angle_gamma 90.000000
_cell_volume 2794.395220
_symmetry_space_group_name_H-M "P C C A"
_symmetry_group_IT_number 54
_symmetry_cell_setting 'orthorhombic'
loop_
_space_group_symop_operation_xyz
x,y,z
1/2-x,-y,z
1/2+x,-y,1/2-z
-x,y,1/2-z
-x,-y,-z
1/2+x,y,-z
1/2-x,y,1/2+z
x,-y,1/2+z
loop_
_atom_site_type_symbol
_atom_site_label
_atom_site_fract_x
_atom_site_fract_y
_atom_site_fract_z
Si Si1 0.750000 0.000000 0.627953
Si Si2 0.637708 0.308879 0.915539
Si Si3 0.782652 0.725145 0.563166
Si Si4 0.766474 0.143609 0.398867
Si Si5 0.840066 0.421779 0.287450
Si Si6 0.337022 0.291347 0.288531
Si Si7 0.909034 0.114858 0.032529
Si Si8 0.679288 0.127104 0.244710
O O1 0.623824 0.034631 0.573399
O O2 0.801202 0.067421 0.680719
O O3 0.454957 0.301057 0.920481
O O4 0.726795 0.234857 0.880788
O O5 0.661136 0.383845 0.866982
O O6 0.715693 0.319200 0.993721
O O7 0.656491 0.704397 0.624202
O O8 0.791788 0.817613 0.556340
O O9 0.618172 0.113203 0.445020
O O10 0.756374 0.099649 0.321176
O O11 0.914317 0.128444 0.448861
O O12 0.750000 0.500000 0.295394
O O13 0.765253 0.362400 0.232970
O O14 0.000000 0.442578 0.250000
O O15 0.500000 0.298628 0.250000
O O16 0.249027 0.210557 0.272802
O O17 0.500000 0.141987 0.250000
#
# Coordination Sequence:
#
# PCOD8223362 Si02
#       8
#     4   8   8   8   8   8   8   8
#     4  12  26  42  60 100 140 182 230 298 348 408
#     4  10  22  41  72 100 136 176 230 279 341 406
#     4  10  21  42  67 102 130 179 232 284 331 414
#     4  10  23  44  69  97 132 180 233 286 345 415
#     4  12  25  46  71 107 142 181 225 276 342 410
#     4  11  23  42  72  99 135 180 230 284 345 410
#     4  10  24  41  68  94 135 181 229 284 352 406
#     4  11  26  41  66  99 137 176 235 294 348 407
#
# _framework density 21.471551999999999
#
# number of rings (size 3 to 8) (size 9 to 14) (size 15 to 20)
#    0.000    1.333    4.000    0.400    5.600    3.200 
#    0.000    1.333    0.000    0.000    0.000    0.000 
#    0.000    0.000    0.000    0.000    0.000    0.000 
#
# Total GULP energy -743380.737906 kJ/mol
# GULP energy per Si atom -12389.678965 kJ/mol
# Density = 2.142268 g / cm^3
# Si number density = 21.471552 Si / 1000 Ang^3
#
#
#
# Elastic Constant Matrix: (Units=GPa)
#
#
# Indices 1 2 3 4 5 6 
#
# 1 70.2870 26.7882 31.7302 0.0000 0.0000 0.0000
# 2 26.7882 123.0218 43.5300 0.0000 0.0000 0.0000
# 3 31.7302 43.5300 140.0989 0.0000 0.0000 0.0000
# 4 0.0000 0.0000 0.0000 49.0398 0.0000 0.0000
# 5 0.0000 0.0000 0.0000 0.0000 29.0532 0.0000
# 6 0.0000 0.0000 0.0000 0.0000 0.0000 21.8599
#
#
#
# Elastic Compliance Matrix: (Units=1/GPa)
#
#
# Indices 1 2 3 4 5 6 
#
# 1 0.016534 -0.002556 -0.002950 0.000000 0.000000 0.000000
# 2 -0.002556 0.009528 -0.002381 0.000000 0.000000 0.000000
# 3 -0.002950 -0.002381 0.008546 0.000000 0.000000 0.000000
# 4 0.000000 0.000000 0.000000 0.020392 0.000000 0.000000
# 5 0.000000 0.000000 0.000000 0.000000 0.034420 0.000000
# 6 0.000000 0.000000 0.000000 0.000000 0.000000 0.045746
#
#
# Mechanical properties :
#
#
# Convention : Reuss Voigt Hill
#
# Bulk Modulus (GPa) = 53.10305 59.72272 56.41288
# Shear Modulus (GPa) = 31.80307 35.41455 33.60881
#
# Velocity S-wave (km/s) = 3.85278 4.06565 3.96064
# Velocity P-wave (km/s) = 6.67663 7.06502 6.87357
#
# Compressibility (1/GPa) = 0.01883131
#
# Stress axis : x y z
#
# Youngs Moduli (GPa) = 60.48320 104.95461 117.01437
#
# Poissons Ratio (x) = 0.26829 0.34523
# Poissons Ratio (y) = 0.15461 0.27867
# Poissons Ratio (z) = 0.17845 0.24995
#
# Static dielectric constant tensor:
#      x y z
#    x 3.547950 0.000000 0.000000 
#    y 0.000000 3.835110 0.000000 
#    z 0.000000 0.000000 4.364720 
# 
# 
# High freq. dielectric constant tensor:
#      x y z
#    x 1.836780 0.000000 0.000000 
#    y 0.000000 1.823940 0.000000 
#    z 0.000000 0.000000 1.863530 
# 
# From -- ./inp_files/16820.got.cif
#   From: 2010.03.12/outbox.cif.g09.slc.cpg/sg54_9_cif.got.tgz:16820.got - 2010.04.16 15:00:50.
