data_PCOD8223468
_publ_section_title
;
Structure prediction by ZEFSAII (Michael W. Deem and Ramdas Pophale) SiO2 
 PCOD8223468
Probable space group: P C C A
;
_chemical_formula_sum "Si O2"
_cell_formula_units_Z 40
_cell_length_a 23.823575
_cell_length_b 8.224764
_cell_length_c 10.108422
_cell_angle_alpha 90.000000
_cell_angle_beta 90.000000
_cell_angle_gamma 90.000000
_cell_volume 1980.677383
_symmetry_space_group_name_H-M "P C C A"
_symmetry_group_IT_number 54
_symmetry_cell_setting 'orthorhombic'
loop_
_space_group_symop_operation_xyz
x,y,z
1/2-x,-y,z
1/2+x,-y,1/2-z
-x,y,1/2-z
-x,-y,-z
1/2+x,y,-z
1/2-x,y,1/2+z
x,-y,1/2+z
loop_
_atom_site_type_symbol
_atom_site_label
_atom_site_fract_x
_atom_site_fract_y
_atom_site_fract_z
Si Si1 0.604475 0.833574 0.414353
Si Si2 0.611083 0.122247 0.618570
Si Si3 0.717430 0.337571 0.917112
Si Si4 0.493612 0.649503 0.402166
Si Si5 0.234132 0.177049 0.344731
O O1 0.604044 0.927240 0.273116
O O2 0.649245 0.680931 0.406696
O O3 0.543111 0.768461 0.442285
O O4 0.614077 0.960956 0.531038
O O5 0.564301 0.252842 0.573935
O O6 0.671201 0.207000 0.603850
O O7 0.750000 0.500000 0.964570
O O8 0.746635 0.295266 0.778368
O O9 0.726215 0.207161 0.031811
O O10 0.500000 0.590777 0.250000
O O11 0.500000 0.500000 0.500000
O O12 0.250000 0.000000 0.290133
#
# Coordination Sequence:
#
# PCOD8223468 Si02
#       5
#     8   8   8   8   8
#     4  10  22  41  62  90 120 161 207 257 308 369
#     4  10  22  39  63  89 120 158 207 258 301 370
#     4  11  24  39  60  91 128 162 203 260 317 371
#     4  10  23  42  61  90 125 158 205 256 313 371
#     4  11  22  40  62  90 123 164 210 252 309 376
#
# _framework density 20.195111000000001
#
# number of rings (size 3 to 8) (size 9 to 14) (size 15 to 20)
#    0.000    1.600    2.000    1.800    5.600    1.600 
#    3.600    0.000    0.000    0.000    0.000    0.000 
#    0.000    0.000    0.000    0.000    0.000    0.000 
#
# Total GULP energy -495617.355046 kJ/mol
# GULP energy per Si atom -12390.433876 kJ/mol
# Density = 2.014915 g / cm^3
# Si number density = 20.195111 Si / 1000 Ang^3
#
#
#
# Elastic Constant Matrix: (Units=GPa)
#
#
# Indices 1 2 3 4 5 6 
#
# 1 94.5751 29.9895 21.7079 0.0000 0.0000 0.0000
# 2 29.9895 84.9789 38.2795 0.0000 0.0000 0.0000
# 3 21.7079 38.2795 101.7788 0.0000 0.0000 0.0000
# 4 0.0000 0.0000 0.0000 37.1669 0.0000 0.0000
# 5 0.0000 0.0000 0.0000 0.0000 27.9451 0.0000
# 6 0.0000 0.0000 0.0000 0.0000 0.0000 29.8830
#
#
#
# Elastic Compliance Matrix: (Units=1/GPa)
#
#
# Indices 1 2 3 4 5 6 
#
# 1 0.012020 -0.003717 -0.001166 0.000000 0.000000 0.000000
# 2 -0.003717 0.015317 -0.004968 0.000000 0.000000 0.000000
# 3 -0.001166 -0.004968 0.011942 0.000000 0.000000 0.000000
# 4 0.000000 0.000000 0.000000 0.026906 0.000000 0.000000
# 5 0.000000 0.000000 0.000000 0.000000 0.035784 0.000000
# 6 0.000000 0.000000 0.000000 0.000000 0.000000 0.033464
#
#
# Mechanical properties :
#
#
# Convention : Reuss Voigt Hill
#
# Bulk Modulus (GPa) = 51.07742 51.25407 51.16574
# Shear Modulus (GPa) = 30.92898 31.75606 31.34252
#
# Velocity S-wave (km/s) = 3.91769 3.96973 3.94380
# Velocity P-wave (km/s) = 6.76841 6.81515 6.79182
#
# Compressibility (1/GPa) = 0.01957812
#
# Stress axis : x y z
#
# Youngs Moduli (GPa) = 83.19646 65.28598 83.73507
#
# Poissons Ratio (x) = 0.24265 0.09761
# Poissons Ratio (y) = 0.30922 0.41601
# Poissons Ratio (z) = 0.09699 0.32435
#
# Static dielectric constant tensor:
#      x y z
#    x 4.130220 0.000000 0.000000 
#    y 0.000000 3.194630 0.000000 
#    z 0.000000 0.000000 3.834300 
# 
# 
# High freq. dielectric constant tensor:
#      x y z
#    x 1.806340 0.000000 0.000000 
#    y 0.000000 1.763080 0.000000 
#    z 0.000000 0.000000 1.804460 
# 
# From -- ./inp_files/5004.got.cif
#   From: 2010.03.12/outbox.cif.g09.slc.cpg/sg54_3_cif.got.tgz:5004.got - 2010.04.16 15:00:50.
