data_PCOD8223141
_publ_section_title
;
Structure prediction by ZEFSAII (Michael W. Deem and Ramdas Pophale) SiO2 
 PCOD8223141
Probable space group: P C C A
;
_chemical_formula_sum "Si O2"
_cell_formula_units_Z 32
_cell_length_a 5.140986
_cell_length_b 17.332177
_cell_length_c 16.888182
_cell_angle_alpha 90.000000
_cell_angle_beta 90.000000
_cell_angle_gamma 90.000000
_cell_volume 1504.812664
_symmetry_space_group_name_H-M "P C C A"
_symmetry_group_IT_number 54
_symmetry_cell_setting 'orthorhombic'
loop_
_space_group_symop_operation_xyz
x,y,z
1/2-x,-y,z
1/2+x,-y,1/2-z
-x,y,1/2-z
-x,-y,-z
1/2+x,y,-z
1/2-x,y,1/2+z
x,-y,1/2+z
loop_
_atom_site_type_symbol
_atom_site_label
_atom_site_fract_x
_atom_site_fract_y
_atom_site_fract_z
Si Si1 0.724704 0.912475 0.050309
Si Si2 0.080591 0.584685 0.467627
Si Si3 0.744021 0.370273 0.699326
Si Si4 0.741821 0.806359 0.199591
O O1 0.779806 0.855213 0.121338
O O2 0.750000 0.000000 0.081601
O O3 0.436762 0.896682 0.017627
O O4 0.299425 0.627136 0.524230
O O5 0.202506 0.581018 0.380090
O O6 0.000000 0.500000 0.500000
O O7 0.500000 0.403949 0.750000
O O8 0.687603 0.282080 0.675139
O O9 0.000000 0.378036 0.750000
O O10 0.500000 0.838858 0.250000
O O11 0.000000 0.814494 0.250000
#
# Coordination Sequence:
#
# PCOD8223141 Si02
#       4
#     8   8   8   8
#     4  10  21  36  54  80 114 151 192 238 289 342
#     4  10  21  38  58  84 113 143 183 228 274 335
#     4  10  21  38  59  84 115 150 188 234 286 341
#     4  10  21  36  56  83 112 147 193 237 284 341
#
# _framework density 21.265103
#
# number of rings (size 3 to 8) (size 9 to 14) (size 15 to 20)
#    0.000    2.000    0.000    3.000    0.000    3.000 
#    0.000   10.000    0.000    0.000    0.000    0.000 
#    0.000    0.000    0.000    0.000    0.000    0.000 
#
# Total GULP energy -396594.258155 kJ/mol
# GULP energy per Si atom -12393.570567 kJ/mol
# Density = 2.121670 g / cm^3
# Si number density = 21.265103 Si / 1000 Ang^3
#
#
#
# Elastic Constant Matrix: (Units=GPa)
#
#
# Indices 1 2 3 4 5 6 
#
# 1 173.6597 19.5826 45.4999 0.0000 0.0000 0.0000
# 2 19.5826 65.0694 52.9498 0.0000 0.0000 0.0000
# 3 45.4999 52.9498 130.5048 0.0000 0.0000 0.0000
# 4 0.0000 0.0000 0.0000 66.7514 0.0000 0.0000
# 5 0.0000 0.0000 0.0000 0.0000 32.5704 0.0000
# 6 0.0000 0.0000 0.0000 0.0000 0.0000 2.4828
#
#
#
# Elastic Compliance Matrix: (Units=1/GPa)
#
#
# Indices 1 2 3 4 5 6 
#
# 1 0.006338 -0.000163 -0.002144 0.000000 0.000000 0.000000
# 2 -0.000163 0.022947 -0.009254 0.000000 0.000000 0.000000
# 3 -0.002144 -0.009254 0.012164 0.000000 0.000000 0.000000
# 4 0.000000 0.000000 0.000000 0.014981 0.000000 0.000000
# 5 0.000000 0.000000 0.000000 0.000000 0.030703 0.000000
# 6 0.000000 0.000000 0.000000 0.000000 0.000000 0.402774
#
#
# Mechanical properties :
#
#
# Convention : Reuss Voigt Hill
#
# Bulk Modulus (GPa) = 54.55718 67.25539 60.90629
# Shear Modulus (GPa) = 9.63135 37.10771 23.36953
#
# Velocity S-wave (km/s) = 2.13050 4.18186 3.31866
# Velocity P-wave (km/s) = 5.63591 7.41708 6.58697
#
# Compressibility (1/GPa) = 0.01832939
#
# Stress axis : x y z
#
# Youngs Moduli (GPa) = 157.76751 43.57812 82.20721
#
# Poissons Ratio (x) = 0.00711 0.17623
# Poissons Ratio (y) = 0.02574 0.76071
# Poissons Ratio (z) = 0.33820 0.40325
#
# Static dielectric constant tensor:
#      x y z
#    x -34.746770 0.000000 0.000000 
#    y 0.000000 3.273320 0.000000 
#    z 0.000000 0.000000 2.433560 
# 
# 
# High freq. dielectric constant tensor:
#      x y z
#    x 1.873660 0.000000 0.000000 
#    y 0.000000 1.807110 0.000000 
#    z 0.000000 0.000000 1.830300 
# 
# From -- ./inp_files/6264.got.cif
#   From: 2010.03.12/outbox.cif.g09.slc.cpg/sg54_4_cif.got.tgz:6264.got - 2010.04.16 15:00:50.
