data_PCOD8223758
_publ_section_title
;
Structure prediction by ZEFSAII (Michael W. Deem and Ramdas Pophale) SiO2 
 PCOD8223758
Probable space group: P C C A
;
_chemical_formula_sum "Si O2"
_cell_formula_units_Z 56
_cell_length_a 14.806242
_cell_length_b 20.493417
_cell_length_c 8.769109
_cell_angle_alpha 90.000000
_cell_angle_beta 90.000000
_cell_angle_gamma 90.000000
_cell_volume 2660.815054
_symmetry_space_group_name_H-M "P C C A"
_symmetry_group_IT_number 54
_symmetry_cell_setting 'orthorhombic'
loop_
_space_group_symop_operation_xyz
x,y,z
1/2-x,-y,z
1/2+x,-y,1/2-z
-x,y,1/2-z
-x,-y,-z
1/2+x,y,-z
1/2-x,y,1/2+z
x,-y,1/2+z
loop_
_atom_site_type_symbol
_atom_site_label
_atom_site_fract_x
_atom_site_fract_y
_atom_site_fract_z
Si Si1 0.347011 0.879808 0.634461
Si Si2 0.663053 0.141072 0.012038
Si Si3 0.001620 0.221087 0.574432
Si Si4 0.501739 0.646693 0.430568
Si Si5 0.351158 0.437799 0.077884
Si Si6 0.928909 0.982668 0.880065
Si Si7 0.166138 0.578514 0.441607
O O1 0.263981 0.846175 0.546161
O O2 0.331601 0.871954 0.811128
O O3 0.434790 0.842769 0.568321
O O4 0.358056 0.957552 0.623009
O O5 0.594922 0.202109 0.998587
O O6 0.629155 0.080822 0.912072
O O7 0.035545 0.281233 0.471889
O O8 0.000000 0.244996 0.750000
O O9 0.500000 0.635379 0.250000
O O10 0.442083 0.594423 0.519213
O O11 0.602334 0.636848 0.498639
O O12 0.340909 0.431077 0.260043
O O13 0.358907 0.513468 0.034639
O O14 0.268389 0.403167 0.988748
O O15 0.000000 0.968998 0.750000
O O16 0.000000 0.000000 0.000000
#
# Coordination Sequence:
#
# PCOD8223758 Si02
#       7
#     8   8   8   8   8   8   8
#     4  11  24  42  63  92 125 162 208 255 317 372
#     4  11  25  41  65  93 124 163 205 257 312 380
#     4  10  23  46  62  83 123 167 210 263 313 367
#     4  12  25  41  64  93 125 167 217 259 316 377
#     4  11  22  40  65  96 131 167 207 260 315 372
#     4  12  22  40  66  92 126 161 198 255 312 368
#     4  11  22  40  65  96 131 167 207 260 316 372
#
# _framework density 21.046181000000001
#
# number of rings (size 3 to 8) (size 9 to 14) (size 15 to 20)
#    0.000    0.857    2.857    6.000    2.000    4.000 
#    0.000    2.857    0.000    0.000    0.000    0.000 
#    0.000    0.000    0.000    0.000    0.000    0.000 
#
# Total GULP energy -693999.587962 kJ/mol
# GULP energy per Si atom -12392.849785 kJ/mol
# Density = 2.099828 g / cm^3
# Si number density = 21.046181 Si / 1000 Ang^3
#
#
#
# Elastic Constant Matrix: (Units=GPa)
#
#
# Indices 1 2 3 4 5 6 
#
# 1 93.2370 13.2161 29.0259 0.0000 0.0000 0.0000
# 2 13.2161 64.3518 26.6388 0.0000 0.0000 0.0000
# 3 29.0259 26.6388 129.6872 0.0000 0.0000 0.0000
# 4 0.0000 0.0000 0.0000 30.1862 0.0000 0.0000
# 5 0.0000 0.0000 0.0000 0.0000 45.3283 0.0000
# 6 0.0000 0.0000 0.0000 0.0000 0.0000 17.4658
#
#
#
# Elastic Compliance Matrix: (Units=1/GPa)
#
#
# Indices 1 2 3 4 5 6 
#
# 1 0.011649 -0.001435 -0.002312 0.000000 0.000000 0.000000
# 2 -0.001435 0.017160 -0.003204 0.000000 0.000000 0.000000
# 3 -0.002312 -0.003204 0.008886 0.000000 0.000000 0.000000
# 4 0.000000 0.000000 0.000000 0.033128 0.000000 0.000000
# 5 0.000000 0.000000 0.000000 0.000000 0.022061 0.000000
# 6 0.000000 0.000000 0.000000 0.000000 0.000000 0.057255
#
#
# Mechanical properties :
#
#
# Convention : Reuss Voigt Hill
#
# Bulk Modulus (GPa) = 42.02869 47.22641 44.62755
# Shear Modulus (GPa) = 29.07439 33.15575 31.11507
#
# Velocity S-wave (km/s) = 3.72083 3.97341 3.84919
# Velocity P-wave (km/s) = 6.20262 6.59839 6.40357
#
# Compressibility (1/GPa) = 0.02379327
#
# Stress axis : x y z
#
# Youngs Moduli (GPa) = 85.84689 58.27337 112.53068
#
# Poissons Ratio (x) = 0.08363 0.26021
# Poissons Ratio (y) = 0.12320 0.36052
# Poissons Ratio (z) = 0.19851 0.18669
#
# Static dielectric constant tensor:
#      x y z
#    x 2.932180 0.000000 0.000000 
#    y 0.000000 3.525420 0.000000 
#    z 0.000000 0.000000 3.904760 
# 
# 
# High freq. dielectric constant tensor:
#      x y z
#    x 1.836020 0.000000 0.000000 
#    y 0.000000 1.814170 0.000000 
#    z 0.000000 0.000000 1.840050 
# 
# From -- ./inp_files/3677.got.cif
#   From: 2010.03.12/outbox.cif.g09.slc.cpg/sg54_2_cif.got.tgz:3677.got - 2010.04.16 15:00:50.
