data_PCOD8223154
_publ_section_title
;
Structure prediction by ZEFSAII (Michael W. Deem and Ramdas Pophale) SiO2 
 PCOD8223154
Probable space group: P C C A
;
_chemical_formula_sum "Si O2"
_cell_formula_units_Z 40
_cell_length_a 12.429923
_cell_length_b 9.360294
_cell_length_c 17.197630
_cell_angle_alpha 90.000000
_cell_angle_beta 90.000000
_cell_angle_gamma 90.000000
_cell_volume 2000.905275
_symmetry_space_group_name_H-M "P C C A"
_symmetry_group_IT_number 54
_symmetry_cell_setting 'orthorhombic'
loop_
_space_group_symop_operation_xyz
x,y,z
1/2-x,-y,z
1/2+x,-y,1/2-z
-x,y,1/2-z
-x,-y,-z
1/2+x,y,-z
1/2-x,y,1/2+z
x,-y,1/2+z
loop_
_atom_site_type_symbol
_atom_site_label
_atom_site_fract_x
_atom_site_fract_y
_atom_site_fract_z
Si Si1 0.000000 0.267427 0.750000
Si Si2 0.130552 0.045583 0.824867
Si Si3 0.458876 0.846135 0.979943
Si Si4 0.389456 0.361865 0.104647
Si Si5 0.500000 0.194917 0.750000
Si Si6 0.855933 0.318105 0.382734
O O1 0.897710 0.162760 0.739957
O O2 0.971213 0.364758 0.822776
O O3 0.116893 0.128907 0.905870
O O4 0.250000 0.000000 0.810700
O O5 0.058420 0.903191 0.814826
O O6 0.557876 0.736925 0.962494
O O7 0.388880 0.794216 0.052008
O O8 0.500000 0.000000 0.000000
O O9 0.382981 0.527102 0.080255
O O10 0.272233 0.303280 0.129299
O O11 0.415840 0.291044 0.700115
#
# Coordination Sequence:
#
# PCOD8223154 Si02
#       6
#     4   8   8   8   4   8
#     4   9  19  40  60  84 128 158 194 252 300 354
#     4  10  21  36  57  89 118 153 200 247 301 356
#     4  11  23  40  59  87 122 158 200 252 296 356
#     4  10  23  41  61  91 123 163 202 246 307 357
#     4  11  21  38  60  90 120 156 202 250 300 360
#     4  11  23  39  64  90 122 161 204 250 301 364
#
# _framework density 19.990950999999999
#
# number of rings (size 3 to 8) (size 9 to 14) (size 15 to 20)
#    0.000    1.600    2.000    2.400    2.800    0.000 
#    0.000    0.000    0.000    9.600    0.000    0.000 
#    0.000    0.000    0.000    0.000    0.000    0.000 
#
# Total GULP energy -495784.929651 kJ/mol
# GULP energy per Si atom -12394.623241 kJ/mol
# Density = 1.994545 g / cm^3
# Si number density = 19.990951 Si / 1000 Ang^3
#
#
#
# Elastic Constant Matrix: (Units=GPa)
#
#
# Indices 1 2 3 4 5 6 
#
# 1 105.9304 30.2971 23.2735 0.0000 0.0000 0.0000
# 2 30.2971 99.7752 27.6722 0.0000 0.0000 0.0000
# 3 23.2735 27.6722 77.3090 0.0000 0.0000 0.0000
# 4 0.0000 0.0000 0.0000 17.7381 0.0000 0.0000
# 5 0.0000 0.0000 0.0000 0.0000 25.2906 0.0000
# 6 0.0000 0.0000 0.0000 0.0000 0.0000 27.4590
#
#
#
# Elastic Compliance Matrix: (Units=1/GPa)
#
#
# Indices 1 2 3 4 5 6 
#
# 1 0.010689 -0.002613 -0.002283 0.000000 0.000000 0.000000
# 2 -0.002613 0.011766 -0.003425 0.000000 0.000000 0.000000
# 3 -0.002283 -0.003425 0.014848 0.000000 0.000000 0.000000
# 4 0.000000 0.000000 0.000000 0.056376 0.000000 0.000000
# 5 0.000000 0.000000 0.000000 0.000000 0.039540 0.000000
# 6 0.000000 0.000000 0.000000 0.000000 0.000000 0.036418
#
#
# Mechanical properties :
#
#
# Convention : Reuss Voigt Hill
#
# Bulk Modulus (GPa) = 48.39711 49.50003 48.94857
# Shear Modulus (GPa) = 25.88458 27.54898 26.71678
#
# Velocity S-wave (km/s) = 3.60226 3.71627 3.65971
# Velocity P-wave (km/s) = 6.44700 6.57489 6.51126
#
# Compressibility (1/GPa) = 0.02066239
#
# Stress axis : x y z
#
# Youngs Moduli (GPa) = 93.55484 84.99239 67.34807
#
# Poissons Ratio (x) = 0.22205 0.15373
# Poissons Ratio (y) = 0.24443 0.23066
# Poissons Ratio (z) = 0.21355 0.29109
#
# Static dielectric constant tensor:
#      x y z
#    x 3.713970 0.000000 0.000000 
#    y 0.000000 3.775970 0.000000 
#    z 0.000000 0.000000 6.568670 
# 
# 
# High freq. dielectric constant tensor:
#      x y z
#    x 1.777870 0.000000 0.000000 
#    y 0.000000 1.790080 0.000000 
#    z 0.000000 0.000000 1.776020 
# 
# From -- ./inp_files/17126.got.cif
#   From: 2010.03.12/outbox.cif.g09.slc.cpg/sg54_9_cif.got.tgz:17126.got - 2010.04.16 15:00:50.
