data_PCOD8223962
_publ_section_title
;
Structure prediction by ZEFSAII (Michael W. Deem and Ramdas Pophale) SiO2 
 PCOD8223962
Probable space group: P C C A
;
_chemical_formula_sum "Si O2"
_cell_formula_units_Z 32
_cell_length_a 5.314685
_cell_length_b 16.422994
_cell_length_c 17.442848
_cell_angle_alpha 90.000000
_cell_angle_beta 90.000000
_cell_angle_gamma 90.000000
_cell_volume 1522.464797
_symmetry_space_group_name_H-M "P C C A"
_symmetry_group_IT_number 54
_symmetry_cell_setting 'orthorhombic'
loop_
_space_group_symop_operation_xyz
x,y,z
1/2-x,-y,z
1/2+x,-y,1/2-z
-x,y,1/2-z
-x,-y,-z
1/2+x,y,-z
1/2-x,y,1/2+z
x,-y,1/2+z
loop_
_atom_site_type_symbol
_atom_site_label
_atom_site_fract_x
_atom_site_fract_y
_atom_site_fract_z
Si Si1 0.250000 0.500000 0.150246
Si Si2 0.360451 0.258225 0.330879
Si Si3 0.000000 0.369157 0.250000
Si Si4 0.000204 0.619521 0.450773
Si Si5 0.249160 0.087735 0.800356
O O1 0.193737 0.424908 0.204906
O O2 0.476736 0.465608 0.096871
O O3 0.500000 0.251984 0.250000
O O4 0.120029 0.315113 0.316964
O O5 0.526990 0.300354 0.396725
O O6 0.274456 0.166652 0.356235
O O7 0.770307 0.622686 0.509760
O O8 0.500000 0.099781 0.750000
O O9 0.000000 0.084321 0.750000
O O10 0.250000 0.000000 0.844954
#
# Coordination Sequence:
#
# PCOD8223962 Si02
#       5
#     4   8   4   8   8
#     4  12  24  42  62  88 124 168 218 270 312 368
#     4  11  22  41  65  91 124 161 210 259 311 374
#     4  12  22  40  64  94 122 154 222 268 316 356
#     4  12  27  44  62  89 127 170 212 260 316 372
#     4   9  18  33  60  95 125 152 193 255 314 365
#
# _framework density 21.018547000000002
#
# number of rings (size 3 to 8) (size 9 to 14) (size 15 to 20)
#    0.000    1.000    3.750    3.750    0.000    2.000 
#    0.000    0.000    0.000    1.500    0.000    0.000 
#    0.000    0.000    0.000    0.000    0.000    0.000 
#
# Total GULP energy -396454.054052 kJ/mol
# GULP energy per Si atom -12389.189189 kJ/mol
# Density = 2.097071 g / cm^3
# Si number density = 21.018547 Si / 1000 Ang^3
#
#
#
# Elastic Constant Matrix: (Units=GPa)
#
#
# Indices 1 2 3 4 5 6 
#
# 1 84.2108 17.6902 11.1430 0.0000 0.0000 0.0000
# 2 17.6902 192.7268 34.7457 0.0000 0.0000 0.0000
# 3 11.1430 34.7457 63.9911 0.0000 0.0000 0.0000
# 4 0.0000 0.0000 0.0000 10.1209 0.0000 0.0000
# 5 0.0000 0.0000 0.0000 0.0000 20.2871 0.0000
# 6 0.0000 0.0000 0.0000 0.0000 0.0000 32.9470
#
#
#
# Elastic Compliance Matrix: (Units=1/GPa)
#
#
# Indices 1 2 3 4 5 6 
#
# 1 0.012271 -0.000822 -0.001691 0.000000 0.000000 0.000000
# 2 -0.000822 0.005807 -0.003010 0.000000 0.000000 0.000000
# 3 -0.001691 -0.003010 0.017556 0.000000 0.000000 0.000000
# 4 0.000000 0.000000 0.000000 0.098806 0.000000 0.000000
# 5 0.000000 0.000000 0.000000 0.000000 0.049292 0.000000
# 6 0.000000 0.000000 0.000000 0.000000 0.000000 0.030352
#
#
# Mechanical properties :
#
#
# Convention : Reuss Voigt Hill
#
# Bulk Modulus (GPa) = 40.66770 52.00961 46.33866
# Shear Modulus (GPa) = 21.42936 31.16099 26.29517
#
# Velocity S-wave (km/s) = 3.19650 3.85456 3.54085
# Velocity P-wave (km/s) = 5.74578 6.67896 6.22987
#
# Compressibility (1/GPa) = 0.02458954
#
# Stress axis : x y z
#
# Youngs Moduli (GPa) = 81.49117 172.21379 56.96100
#
# Poissons Ratio (x) = 0.14148 0.09631
# Poissons Ratio (y) = 0.06695 0.17145
# Poissons Ratio (z) = 0.13778 0.51834
#
# Static dielectric constant tensor:
#      x y z
#    x 3.848610 0.000000 0.000000 
#    y 0.000000 4.985990 0.000000 
#    z 0.000000 0.000000 3.693320 
# 
# 
# High freq. dielectric constant tensor:
#      x y z
#    x 1.835690 0.000000 0.000000 
#    y 0.000000 1.846420 0.000000 
#    z 0.000000 0.000000 1.776060 
# 
# From -- ./inp_files/10739.got.cif
#   From: 2010.03.12/outbox.cif.g09.slc.cpg/sg54_6_cif.got.tgz:10739.got - 2010.04.16 15:00:50.
