data_PCOD8223540
_publ_section_title
;
Structure prediction by ZEFSAII (Michael W. Deem and Ramdas Pophale) SiO2 
 PCOD8223540
Probable space group: P C C A
;
_chemical_formula_sum "Si O2"
_cell_formula_units_Z 40
_cell_length_a 4.965130
_cell_length_b 28.119846
_cell_length_c 13.187382
_cell_angle_alpha 90.000000
_cell_angle_beta 90.000000
_cell_angle_gamma 90.000000
_cell_volume 1841.205012
_symmetry_space_group_name_H-M "P C C A"
_symmetry_group_IT_number 54
_symmetry_cell_setting 'orthorhombic'
loop_
_space_group_symop_operation_xyz
x,y,z
1/2-x,-y,z
1/2+x,-y,1/2-z
-x,y,1/2-z
-x,-y,-z
1/2+x,y,-z
1/2-x,y,1/2+z
x,-y,1/2+z
loop_
_atom_site_type_symbol
_atom_site_label
_atom_site_fract_x
_atom_site_fract_y
_atom_site_fract_z
Si Si1 0.968782 0.900794 0.566475
Si Si2 0.500000 0.337332 0.250000
Si Si3 0.912392 0.406655 0.569155
Si Si4 0.000000 0.725460 0.750000
Si Si5 0.750000 0.500000 0.683521
Si Si6 0.500000 0.031770 0.750000
Si Si7 0.966456 0.207357 0.066530
O O1 0.268295 0.910646 0.526688
O O2 0.900236 0.935693 0.657871
O O3 0.934334 0.846743 0.605574
O O4 0.381621 0.368815 0.341268
O O5 0.749135 0.305796 0.288304
O O6 0.705577 0.399174 0.477959
O O7 0.872795 0.458993 0.614080
O O8 0.896716 0.757910 0.658231
O O9 0.500000 0.479894 0.750000
O O10 0.250000 0.000000 0.714397
O O11 0.265508 0.217304 0.026412
#
# Coordination Sequence:
#
# PCOD8223540 Si02
#       7
#     8   4   8   4   4   4   8
#     4  10  22  41  63  89 123 162 210 267 317 369
#     4  12  28  44  64  98 136 174 208 264 316 390
#     4  12  26  46  70  98 132 176 217 261 322 378
#     4  12  25  42  67  94 130 169 210 259 328 378
#     4  12  24  44  76 100 134 168 218 282 314 374
#     4  12  25  38  59  90 126 169 210 253 314 386
#     4  10  22  41  67  94 121 161 214 267 317 376
#
# _framework density 21.724900999999999
#
# number of rings (size 3 to 8) (size 9 to 14) (size 15 to 20)
#    0.000    0.800    1.000    6.000    1.400    7.200 
#    0.000    8.000    0.000    0.000    0.000    0.000 
#    0.000    0.000    0.000    0.000    0.000    0.000 
#
# Total GULP energy -496305.733584 kJ/mol
# GULP energy per Si atom -12407.643340 kJ/mol
# Density = 2.167545 g / cm^3
# Si number density = 21.724901 Si / 1000 Ang^3
#
#
#
# Elastic Constant Matrix: (Units=GPa)
#
#
# Indices 1 2 3 4 5 6 
#
# 1 97.5742 29.1071 9.6936 0.0000 0.0000 0.0000
# 2 29.1071 117.3451 56.4601 0.0000 0.0000 0.0000
# 3 9.6936 56.4601 91.3802 0.0000 0.0000 0.0000
# 4 0.0000 0.0000 0.0000 -83.6268 0.0000 0.0000
# 5 0.0000 0.0000 0.0000 0.0000 35.5686 0.0000
# 6 0.0000 0.0000 0.0000 0.0000 0.0000 31.7163
#
#
#
# Elastic Compliance Matrix: (Units=1/GPa)
#
#
# Indices 1 2 3 4 5 6 
#
# 1 0.011103 -0.003113 0.000745 0.000000 0.000000 0.000000
# 2 -0.003113 0.013000 -0.007702 0.000000 0.000000 0.000000
# 3 0.000745 -0.007702 0.015623 0.000000 0.000000 0.000000
# 4 0.000000 0.000000 0.000000 -0.011958 0.000000 0.000000
# 5 0.000000 0.000000 0.000000 0.000000 0.028115 0.000000
# 6 0.000000 0.000000 0.000000 0.000000 0.000000 0.031530
#
#
# Mechanical properties :
#
#
# Convention : Reuss Voigt Hill
#
# Bulk Modulus (GPa) = 51.05317 55.20234 53.12775
# Shear Modulus (GPa) = 43.82919 10.80087 27.31503
#
# Velocity S-wave (km/s) = 4.49649 2.23214 3.54971
# Velocity P-wave (km/s) = 7.10695 5.66640 6.42716
#
# Compressibility (1/GPa) = 0.01958742
#
# Stress axis : x y z
#
# Youngs Moduli (GPa) = 90.06478 76.92511 64.00890
#
# Poissons Ratio (x) = 0.23945 -0.04771
# Poissons Ratio (y) = 0.28035 0.49298
# Poissons Ratio (z) = -0.06714 0.59246
#
# Static dielectric constant tensor:
#      x y z
#    x 4.043340 0.000000 0.000000 
#    y 0.000000 4.011980 0.000000 
#    z 0.000000 0.000000 3.716800 
# 
# 
# High freq. dielectric constant tensor:
#      x y z
#    x 1.868210 0.000000 0.000000 
#    y 0.000000 1.861910 0.000000 
#    z 0.000000 0.000000 1.851040 
# 
# From -- ./inp_files/6481.got.cif
#   From: 2010.03.12/outbox.cif.g09.slc.cpg/sg54_4_cif.got.tgz:6481.got - 2010.04.16 15:00:50.
