data_PCOD8223551
_publ_section_title
;
Structure prediction by ZEFSAII (Michael W. Deem and Ramdas Pophale) SiO2 
 PCOD8223551
Probable space group: P C C A
;
_chemical_formula_sum "Si O2"
_cell_formula_units_Z 64
_cell_length_a 33.346776
_cell_length_b 5.149459
_cell_length_c 17.837322
_cell_angle_alpha 90.000000
_cell_angle_beta 90.000000
_cell_angle_gamma 90.000000
_cell_volume 3062.986687
_symmetry_space_group_name_H-M "P C C A"
_symmetry_group_IT_number 54
_symmetry_cell_setting 'orthorhombic'
loop_
_space_group_symop_operation_xyz
x,y,z
1/2-x,-y,z
1/2+x,-y,1/2-z
-x,y,1/2-z
-x,-y,-z
1/2+x,y,-z
1/2-x,y,1/2+z
x,-y,1/2+z
loop_
_atom_site_type_symbol
_atom_site_label
_atom_site_fract_x
_atom_site_fract_y
_atom_site_fract_z
Si Si1 0.422556 0.856025 0.782853
Si Si2 0.722871 0.243295 0.459291
Si Si3 0.158043 0.709484 0.328768
Si Si4 0.724818 0.753892 0.791556
Si Si5 0.458522 0.642497 0.218527
Si Si6 0.849683 0.206190 0.071713
Si Si7 0.516113 0.294643 0.941668
Si Si8 0.436495 0.972767 0.441966
O O1 0.377120 0.769184 0.769062
O O2 0.452186 0.646868 0.748219
O O3 0.426699 0.836630 0.873287
O O4 0.426661 0.142355 0.746302
O O5 0.750000 0.500000 0.469515
O O6 0.706770 0.192117 0.374507
O O7 0.682135 0.268358 0.507002
O O8 0.750000 0.000000 0.485815
O O9 0.195803 0.689342 0.275859
O O10 0.151209 0.433571 0.367662
O O11 0.162743 0.935020 0.390399
O O12 0.750000 0.500000 0.804205
O O13 0.750000 0.000000 0.764356
O O14 0.500000 0.751872 0.250000
O O15 0.458933 0.601826 0.128855
O O16 0.895828 0.190448 0.039713
O O17 0.474825 0.179903 0.909095
O O18 0.500000 0.500000 0.000000
O O19 0.547635 0.104440 0.982076
#
# Coordination Sequence:
#
# PCOD8223551 Si02
#       8
#     8   8   8   8   8   8   8   8
#     4  11  24  43  63  92 129 165 215 265 322 381
#     4  10  22  42  65  95 131 171 212 263 322 390
#     4  11  24  41  65  96 128 170 210 269 322 379
#     4  10  22  41  65  93 131 169 207 261 320 379
#     4  12  24  40  66  92 120 169 214 267 318 380
#     4  11  24  41  67  95 130 171 212 267 326 382
#     4  11  25  42  66  93 128 172 222 270 326 392
#     4  10  24  43  63  92 132 172 211 274 327 382
#
# _framework density 20.894638
#
# number of rings (size 3 to 8) (size 9 to 14) (size 15 to 20)
#    0.000    1.250    1.250    4.125    7.000    4.000 
#    0.000    1.250    0.000    0.000    0.000    0.000 
#    0.000    0.000    0.000    0.000    0.000    0.000 
#
# Total GULP energy -793177.760058 kJ/mol
# GULP energy per Si atom -12393.402501 kJ/mol
# Density = 2.084708 g / cm^3
# Si number density = 20.894638 Si / 1000 Ang^3
#
#
#
# Elastic Constant Matrix: (Units=GPa)
#
#
# Indices 1 2 3 4 5 6 
#
# 1 113.8100 32.4362 61.5644 0.0000 0.0000 0.0000
# 2 32.4362 103.5856 22.1911 0.0000 0.0000 0.0000
# 3 61.5644 22.1911 92.5644 0.0000 0.0000 0.0000
# 4 0.0000 0.0000 0.0000 30.5322 0.0000 0.0000
# 5 0.0000 0.0000 0.0000 0.0000 37.7336 0.0000
# 6 0.0000 0.0000 0.0000 0.0000 0.0000 28.6496
#
#
#
# Elastic Compliance Matrix: (Units=1/GPa)
#
#
# Indices 1 2 3 4 5 6 
#
# 1 0.014351 -0.002582 -0.008926 0.000000 0.000000 0.000000
# 2 -0.002582 0.010641 -0.000834 0.000000 0.000000 0.000000
# 3 -0.008926 -0.000834 0.016940 0.000000 0.000000 0.000000
# 4 0.000000 0.000000 0.000000 0.032752 0.000000 0.000000
# 5 0.000000 0.000000 0.000000 0.000000 0.026502 0.000000
# 6 0.000000 0.000000 0.000000 0.000000 0.000000 0.034904
#
#
# Mechanical properties :
#
#
# Convention : Reuss Voigt Hill
#
# Bulk Modulus (GPa) = 57.97539 60.26037 59.11788
# Shear Modulus (GPa) = 30.02615 32.30097 31.16356
#
# Velocity S-wave (km/s) = 3.79493 3.93606 3.86613
# Velocity P-wave (km/s) = 6.85629 7.03985 6.94867
#
# Compressibility (1/GPa) = 0.01724870
#
# Stress axis : x y z
#
# Youngs Moduli (GPa) = 69.68368 93.97713 59.03301
#
# Poissons Ratio (x) = 0.24260 0.52691
# Poissons Ratio (y) = 0.17989 0.04924
# Poissons Ratio (z) = 0.62197 0.07838
#
# Static dielectric constant tensor:
#      x y z
#    x 3.882180 0.000000 0.000000 
#    y 0.000000 3.774600 0.000000 
#    z 0.000000 0.000000 3.738060 
# 
# 
# High freq. dielectric constant tensor:
#      x y z
#    x 1.818680 0.000000 0.000000 
#    y 0.000000 1.827300 0.000000 
#    z 0.000000 0.000000 1.821280 
# 
# From -- ./inp_files/19347.got.cif
#   From: 2010.03.12/outbox.cif.g09.slc.cpg/sg54_10_cif.got.tgz:19347.got - 2010.04.16 15:00:50.
