data_PCOD8223773
_publ_section_title
;
Structure prediction by ZEFSAII (Michael W. Deem and Ramdas Pophale) SiO2 
 PCOD8223773
Probable space group: P C C A
;
_chemical_formula_sum "Si O2"
_cell_formula_units_Z 36
_cell_length_a 9.181451
_cell_length_b 9.143904
_cell_length_c 21.167746
_cell_angle_alpha 90.000000
_cell_angle_beta 90.000000
_cell_angle_gamma 90.000000
_cell_volume 1777.123436
_symmetry_space_group_name_H-M "P C C A"
_symmetry_group_IT_number 54
_symmetry_cell_setting 'orthorhombic'
loop_
_space_group_symop_operation_xyz
x,y,z
1/2-x,-y,z
1/2+x,-y,1/2-z
-x,y,1/2-z
-x,-y,-z
1/2+x,y,-z
1/2-x,y,1/2+z
x,-y,1/2+z
loop_
_atom_site_type_symbol
_atom_site_label
_atom_site_fract_x
_atom_site_fract_y
_atom_site_fract_z
Si Si1 0.917910 0.459724 0.064299
Si Si2 0.397492 0.592540 0.809948
Si Si3 0.750000 0.000000 0.980281
Si Si4 0.105614 0.069345 0.806879
Si Si5 0.977870 0.872315 0.575145
O O1 0.750000 0.500000 0.053224
O O2 0.978232 0.549862 0.124588
O O3 0.943876 0.295476 0.088673
O O4 0.000000 0.500000 0.000000
O O5 0.250000 0.500000 0.800761
O O6 0.500000 0.563180 0.750000
O O7 0.362676 0.761946 0.820478
O O8 0.849528 0.888014 0.939885
O O9 0.632382 0.907763 0.018669
O O10 0.000000 0.044938 0.750000
O O11 0.250000 0.000000 0.780117
O O12 0.053869 0.983869 0.868635
#
# Coordination Sequence:
#
# PCOD8223773 Si02
#       5
#     8   8   4   8   8
#     4  11  24  40  64  96 128 166 209 263 323 385
#     4  10  24  44  63  90 126 169 213 261 324 384
#     4  10  24  38  66  90 126 168 204 258 324 380
#     4  11  24  42  65  93 126 167 218 267 313 385
#     4  11  23  42  64  93 128 165 213 264 318 389
#
# _framework density 20.257453999999999
#
# number of rings (size 3 to 8) (size 9 to 14) (size 15 to 20)
#    0.000    1.333    1.111    4.000    7.778    4.444 
#    4.000    0.000    0.000    0.000    0.000    0.000 
#    0.000    0.000    0.000    0.000    0.000    0.000 
#
# Total GULP energy -446150.276166 kJ/mol
# GULP energy per Si atom -12393.063227 kJ/mol
# Density = 2.021135 g / cm^3
# Si number density = 20.257454 Si / 1000 Ang^3
#
#
#
# Elastic Constant Matrix: (Units=GPa)
#
#
# Indices 1 2 3 4 5 6 
#
# 1 130.4202 89.9882 59.6349 0.0000 0.0000 0.0000
# 2 89.9882 156.7701 93.7224 0.0000 0.0000 0.0000
# 3 59.6349 93.7224 141.7275 0.0000 0.0000 0.0000
# 4 0.0000 0.0000 0.0000 32.7621 0.0000 0.0000
# 5 0.0000 0.0000 0.0000 0.0000 62.6141 0.0000
# 6 0.0000 0.0000 0.0000 0.0000 0.0000 39.1979
#
#
#
# Elastic Compliance Matrix: (Units=1/GPa)
#
#
# Indices 1 2 3 4 5 6 
#
# 1 0.012760 -0.006805 -0.000869 0.000000 0.000000 0.000000
# 2 -0.006805 0.014178 -0.006513 0.000000 0.000000 0.000000
# 3 -0.000869 -0.006513 0.011728 0.000000 0.000000 0.000000
# 4 0.000000 0.000000 0.000000 0.030523 0.000000 0.000000
# 5 0.000000 0.000000 0.000000 0.000000 0.015971 0.000000
# 6 0.000000 0.000000 0.000000 0.000000 0.000000 0.025512
#
#
# Mechanical properties :
#
#
# Convention : Reuss Voigt Hill
#
# Bulk Modulus (GPa) = 97.14954 101.73429 99.44191
# Shear Modulus (GPa) = 35.09341 39.28632 37.18987
#
# Velocity S-wave (km/s) = 4.16669 4.40858 4.28934
# Velocity P-wave (km/s) = 8.43860 8.73177 8.58644
#
# Compressibility (1/GPa) = 0.01029341
#
# Stress axis : x y z
#
# Youngs Moduli (GPa) = 78.36822 70.52992 85.26456
#
# Poissons Ratio (x) = 0.47995 0.07411
# Poissons Ratio (y) = 0.53329 0.55530
# Poissons Ratio (z) = 0.06811 0.45933
#
# Static dielectric constant tensor:
#      x y z
#    x 3.766200 0.000000 0.000000 
#    y 0.000000 3.864600 0.000000 
#    z 0.000000 0.000000 4.026490 
# 
# 
# High freq. dielectric constant tensor:
#      x y z
#    x 1.796750 0.000000 0.000000 
#    y 0.000000 1.807940 0.000000 
#    z 0.000000 0.000000 1.801810 
# 
# From -- ./inp_files/20118.got.cif
#   From: 2010.03.12/outbox.cif.g09.slc.cpg/sg54_11_cif.got.tgz:20118.got - 2010.04.16 15:00:50.
