data_PCOD8223491
_publ_section_title
;
Structure prediction by ZEFSAII (Michael W. Deem and Ramdas Pophale) SiO2 
 PCOD8223491
Probable space group: P C C A
;
_chemical_formula_sum "Si O2"
_cell_formula_units_Z 40
_cell_length_a 24.257619
_cell_length_b 5.104967
_cell_length_c 15.575831
_cell_angle_alpha 90.000000
_cell_angle_beta 90.000000
_cell_angle_gamma 90.000000
_cell_volume 1928.822822
_symmetry_space_group_name_H-M "P C C A"
_symmetry_group_IT_number 54
_symmetry_cell_setting 'orthorhombic'
loop_
_space_group_symop_operation_xyz
x,y,z
1/2-x,-y,z
1/2+x,-y,1/2-z
-x,y,1/2-z
-x,-y,-z
1/2+x,y,-z
1/2-x,y,1/2+z
x,-y,1/2+z
loop_
_atom_site_type_symbol
_atom_site_label
_atom_site_fract_x
_atom_site_fract_y
_atom_site_fract_z
Si Si1 0.472467 0.684997 0.163561
Si Si2 0.920084 0.451024 0.078599
Si Si3 0.903797 0.949440 0.966389
Si Si4 0.685896 0.018889 0.832814
Si Si5 0.634181 0.481836 0.256673
O O1 0.500000 0.803649 0.250000
O O2 0.516978 0.514011 0.110846
O O3 0.450059 0.933480 0.109025
O O4 0.421968 0.492248 0.187332
O O5 0.877553 0.474204 0.156625
O O6 0.904084 0.663919 0.008956
O O7 0.916779 0.164385 0.037101
O O8 0.844286 0.003649 0.924738
O O9 0.663655 0.795538 0.768905
O O10 0.750000 0.000000 0.852069
O O11 0.675606 0.294751 0.787570
#
# Coordination Sequence:
#
# PCOD8223491 Si02
#       5
#     8   8   8   8   8
#     4   9  20  37  60  89 125 164 196 232 287 359
#     4  11  22  38  60  91 126 152 188 245 300 352
#     4  11  22  38  60  90 122 156 197 242 295 350
#     4  11  23  43  63  82 113 158 203 247 293 348
#     4  10  22  40  62  88 115 154 202 240 289 359
#
# _framework density 20.738036000000001
#
# number of rings (size 3 to 8) (size 9 to 14) (size 15 to 20)
#    0.000    1.600    0.000    5.400    0.000    3.200 
#    0.000   22.000    0.000    0.000    0.000    0.000 
#    0.000    0.000    0.000    0.000    0.000    0.000 
#
# Total GULP energy -496124.118230 kJ/mol
# GULP energy per Si atom -12403.102956 kJ/mol
# Density = 2.069084 g / cm^3
# Si number density = 20.738036 Si / 1000 Ang^3
#
#
#
# Elastic Constant Matrix: (Units=GPa)
#
#
# Indices 1 2 3 4 5 6 
#
# 1 143.1776 20.9838 51.6183 0.0000 0.0000 0.0000
# 2 20.9838 63.6441 23.0132 0.0000 0.0000 0.0000
# 3 51.6183 23.0132 113.8607 0.0000 0.0000 0.0000
# 4 0.0000 0.0000 0.0000 27.9291 0.0000 0.0000
# 5 0.0000 0.0000 0.0000 0.0000 15.5995 0.0000
# 6 0.0000 0.0000 0.0000 0.0000 0.0000 19.0586
#
#
#
# Elastic Compliance Matrix: (Units=1/GPa)
#
#
# Indices 1 2 3 4 5 6 
#
# 1 0.008483 -0.001517 -0.003539 0.000000 0.000000 0.000000
# 2 -0.001517 0.017223 -0.002793 0.000000 0.000000 0.000000
# 3 -0.003539 -0.002793 0.010952 0.000000 0.000000 0.000000
# 4 0.000000 0.000000 0.000000 0.035805 0.000000 0.000000
# 5 0.000000 0.000000 0.000000 0.000000 0.064105 0.000000
# 6 0.000000 0.000000 0.000000 0.000000 0.000000 0.052470
#
#
# Mechanical properties :
#
#
# Convention : Reuss Voigt Hill
#
# Bulk Modulus (GPa) = 47.71386 56.87921 52.29653
# Shear Modulus (GPa) = 23.61604 27.52191 25.56897
#
# Velocity S-wave (km/s) = 3.37824 3.64692 3.51515
# Velocity P-wave (km/s) = 6.18664 6.72461 6.46123
#
# Compressibility (1/GPa) = 0.02095827
#
# Stress axis : x y z
#
# Youngs Moduli (GPa) = 117.88965 58.06338 91.31122
#
# Poissons Ratio (x) = 0.08809 0.32314
# Poissons Ratio (y) = 0.17885 0.25505
# Poissons Ratio (z) = 0.41720 0.16218
#
# Static dielectric constant tensor:
#      x y z
#    x 3.720810 0.000000 0.000000 
#    y 0.000000 3.570740 0.000000 
#    z 0.000000 0.000000 4.001550 
# 
# 
# High freq. dielectric constant tensor:
#      x y z
#    x 1.800390 0.000000 0.000000 
#    y 0.000000 1.810790 0.000000 
#    z 0.000000 0.000000 1.824970 
# 
# From -- ./inp_files/14816.got.cif
#   From: 2010.03.12/outbox.cif.g09.slc.cpg/sg54_8_cif.got.tgz:14816.got - 2010.04.16 15:00:50.
