data_PCOD8223179
_publ_section_title
;
Structure prediction by ZEFSAII (Michael W. Deem and Ramdas Pophale) SiO2 
 PCOD8223179
Probable space group: P C C A
;
_chemical_formula_sum "Si O2"
_cell_formula_units_Z 56
_cell_length_a 5.049788
_cell_length_b 15.205784
_cell_length_c 33.653670
_cell_angle_alpha 90.000000
_cell_angle_beta 90.000000
_cell_angle_gamma 90.000000
_cell_volume 2584.130219
_symmetry_space_group_name_H-M "P C C A"
_symmetry_group_IT_number 54
_symmetry_cell_setting 'orthorhombic'
loop_
_space_group_symop_operation_xyz
x,y,z
1/2-x,-y,z
1/2+x,-y,1/2-z
-x,y,1/2-z
-x,-y,-z
1/2+x,y,-z
1/2-x,y,1/2+z
x,-y,1/2+z
loop_
_atom_site_type_symbol
_atom_site_label
_atom_site_fract_x
_atom_site_fract_y
_atom_site_fract_z
Si Si1 0.310034 0.403082 0.090557
Si Si2 0.248094 0.396321 0.274787
Si Si3 0.708766 0.652236 0.135893
Si Si4 0.680924 0.849991 0.128491
Si Si5 0.673534 0.902799 0.917288
Si Si6 0.003055 0.938768 0.793557
Si Si7 0.665122 0.253349 0.473884
O O1 0.250000 0.500000 0.073001
O O2 0.575500 0.412319 0.116673
O O3 0.368429 0.335862 0.055226
O O4 0.081487 0.370911 0.120207
O O5 0.250000 0.500000 0.281422
O O6 0.500000 0.363582 0.250000
O O7 0.228206 0.351104 0.317038
O O8 0.000000 0.363856 0.250000
O O9 0.786768 0.751402 0.124491
O O10 0.435118 0.858795 0.099585
O O11 0.563237 0.868392 0.172249
O O12 0.931224 0.910581 0.114818
O O13 0.592270 0.840031 0.953624
O O14 0.750000 0.000000 0.932387
O O15 0.000000 0.891607 0.750000
O O16 0.250000 0.000000 0.791526
O O17 0.750000 0.000000 0.803515
O O18 0.464054 0.260102 0.510500
#
# Coordination Sequence:
#
# PCOD8223179 Si02
#       7
#     8   8   8   8   8   8   8
#     4  12  25  45  71 100 132 176 221 264 328 395
#     4  10  21  37  58  89 129 172 220 273 327 381
#     4  12  23  42  67  96 134 174 226 278 322 383
#     4  12  22  41  66  96 132 173 225 276 320 382
#     4  12  25  44  70  99 132 175 220 262 326 393
#     4  10  21  37  58  89 129 173 222 274 327 381
#     4  12  26  46  71 101 138 164 210 272 330 394
#
# _framework density 21.670736999999999
#
# number of rings (size 3 to 8) (size 9 to 14) (size 15 to 20)
#    0.000    0.571    2.857    6.429    0.000    2.857 
#    0.000    2.143    0.000    0.000    0.000    0.000 
#    0.000    0.000    0.000    0.000    0.000    0.000 
#
# Total GULP energy -694475.406330 kJ/mol
# GULP energy per Si atom -12401.346542 kJ/mol
# Density = 2.162141 g / cm^3
# Si number density = 21.670737 Si / 1000 Ang^3
#
#
#
# Elastic Constant Matrix: (Units=GPa)
#
#
# Indices 1 2 3 4 5 6 
#
# 1 136.7793 19.9182 36.2280 0.0000 0.0000 0.0000
# 2 19.9182 100.4762 46.1615 0.0000 0.0000 0.0000
# 3 36.2280 46.1615 105.9618 0.0000 0.0000 0.0000
# 4 0.0000 0.0000 0.0000 18.3890 0.0000 0.0000
# 5 0.0000 0.0000 0.0000 0.0000 41.7610 0.0000
# 6 0.0000 0.0000 0.0000 0.0000 0.0000 24.1482
#
#
#
# Elastic Compliance Matrix: (Units=1/GPa)
#
#
# Indices 1 2 3 4 5 6 
#
# 1 0.008053 -0.000414 -0.002573 0.000000 0.000000 0.000000
# 2 -0.000414 0.012464 -0.005288 0.000000 0.000000 0.000000
# 3 -0.002573 -0.005288 0.012621 0.000000 0.000000 0.000000
# 4 0.000000 0.000000 0.000000 0.054380 0.000000 0.000000
# 5 0.000000 0.000000 0.000000 0.000000 0.023946 0.000000
# 6 0.000000 0.000000 0.000000 0.000000 0.000000 0.041411
#
#
# Mechanical properties :
#
#
# Convention : Reuss Voigt Hill
#
# Bulk Modulus (GPa) = 60.28783 60.87030 60.57907
# Shear Modulus (GPa) = 28.57880 32.92028 30.74954
#
# Velocity S-wave (km/s) = 3.63543 3.90181 3.77097
# Velocity P-wave (km/s) = 6.74553 6.96049 6.85385
#
# Compressibility (1/GPa) = 0.01658709
#
# Stress axis : x y z
#
# Youngs Moduli (GPa) = 124.18019 80.22873 79.23437
#
# Poissons Ratio (x) = 0.03325 0.20385
# Poissons Ratio (y) = 0.05146 0.41902
# Poissons Ratio (z) = 0.31948 0.42428
#
# Static dielectric constant tensor:
#      x y z
#    x 4.090240 0.000000 0.000000 
#    y 0.000000 3.849490 0.000000 
#    z 0.000000 0.000000 -14.936690 
# 
# 
# High freq. dielectric constant tensor:
#      x y z
#    x 1.873450 0.000000 0.000000 
#    y 0.000000 1.845160 0.000000 
#    z 0.000000 0.000000 1.854270 
# 
# From -- ./inp_files/27212.got.cif
#   From: 2010.03.12/outbox.cif.g09.slc.cpg/sg54_14_cif.got.tgz:27212.got - 2010.04.16 15:00:50.
