data_PCOD8223182
_publ_section_title
;
Structure prediction by ZEFSAII (Michael W. Deem and Ramdas Pophale) SiO2 
 PCOD8223182
Probable space group: P C C A
;
_chemical_formula_sum "Si O2"
_cell_formula_units_Z 56
_cell_length_a 21.244565
_cell_length_b 13.756849
_cell_length_c 8.669237
_cell_angle_alpha 90.000000
_cell_angle_beta 90.000000
_cell_angle_gamma 90.000000
_cell_volume 2533.656232
_symmetry_space_group_name_H-M "P C C A"
_symmetry_group_IT_number 54
_symmetry_cell_setting 'orthorhombic'
loop_
_space_group_symop_operation_xyz
x,y,z
1/2-x,-y,z
1/2+x,-y,1/2-z
-x,y,1/2-z
-x,-y,-z
1/2+x,y,-z
1/2-x,y,1/2+z
x,-y,1/2+z
loop_
_atom_site_type_symbol
_atom_site_label
_atom_site_fract_x
_atom_site_fract_y
_atom_site_fract_z
Si Si1 0.674365 0.296212 0.333525
Si Si2 0.486372 0.821650 0.076450
Si Si3 0.069985 0.562223 0.257463
Si Si4 0.138899 0.910775 0.637177
Si Si5 0.078491 0.628601 0.585088
Si Si6 0.699193 0.734151 0.474311
Si Si7 0.617455 0.886193 0.999932
O O1 0.621113 0.379996 0.346415
O O2 0.739151 0.325282 0.419707
O O3 0.652528 0.204355 0.429100
O O4 0.688793 0.272385 0.156394
O O5 0.500000 0.851452 0.250000
O O6 0.420404 0.872276 0.034384
O O7 0.479684 0.704102 0.062572
O O8 0.542647 0.865634 0.972399
O O9 0.091428 0.565650 0.433294
O O10 0.065048 0.448418 0.218524
O O11 0.000000 0.609525 0.250000
O O12 0.199446 0.848411 0.577563
O O13 0.132694 0.897214 0.820101
O O14 0.144332 0.023450 0.596281
O O15 0.141411 0.688483 0.623387
#
# Coordination Sequence:
#
# PCOD8223182 Si02
#       7
#     8   8   8   8   8   8   8
#     4  11  24  41  64  89 125 167 211 267 318 389
#     4   9  19  36  59  89 125 165 207 258 316 373
#     4  11  23  39  63  95 124 161 207 258 320 379
#     4  10  21  37  60  89 124 163 208 259 308 377
#     4  10  22  39  62  89 125 161 205 261 312 379
#     4  10  23  43  60  88 121 163 213 258 320 379
#     4  11  21  37  61  91 123 164 207 256 317 370
#
# _framework density 22.102447000000002
#
# number of rings (size 3 to 8) (size 9 to 14) (size 15 to 20)
#    0.000    1.714    0.000    3.857    0.000    5.714 
#    0.000   12.143    0.000    0.000    0.000    0.000 
#    0.000    0.000    0.000    0.000    0.000    0.000 
#
# Total GULP energy -694113.564294 kJ/mol
# GULP energy per Si atom -12394.885077 kJ/mol
# Density = 2.205214 g / cm^3
# Si number density = 22.102447 Si / 1000 Ang^3
#
#
#
# Elastic Constant Matrix: (Units=GPa)
#
#
# Indices 1 2 3 4 5 6 
#
# 1 97.8371 1.2415 3.5317 0.0000 0.0000 0.0000
# 2 1.2415 74.3934 0.1499 0.0000 0.0000 0.0000
# 3 3.5317 0.1499 57.0688 0.0000 0.0000 0.0000
# 4 0.0000 0.0000 0.0000 31.5493 0.0000 0.0000
# 5 0.0000 0.0000 0.0000 0.0000 26.5835 0.0000
# 6 0.0000 0.0000 0.0000 0.0000 0.0000 26.4976
#
#
#
# Elastic Compliance Matrix: (Units=1/GPa)
#
#
# Indices 1 2 3 4 5 6 
#
# 1 0.010246 -0.000170 -0.000634 0.000000 0.000000 0.000000
# 2 -0.000170 0.013445 -0.000025 0.000000 0.000000 0.000000
# 3 -0.000634 -0.000025 0.017562 0.000000 0.000000 0.000000
# 4 0.000000 0.000000 0.000000 0.031696 0.000000 0.000000
# 5 0.000000 0.000000 0.000000 0.000000 0.037617 0.000000
# 6 0.000000 0.000000 0.000000 0.000000 0.000000 0.037739
#
#
# Mechanical properties :
#
#
# Convention : Reuss Voigt Hill
#
# Bulk Modulus (GPa) = 25.25464 26.57172 25.91318
# Shear Modulus (GPa) = 30.64453 31.88449 31.26451
#
# Velocity S-wave (km/s) = 3.72758 3.80225 3.76510
# Velocity P-wave (km/s) = 5.47517 5.59681 5.53632
#
# Compressibility (1/GPa) = 0.03959669
#
# Stress axis : x y z
#
# Youngs Moduli (GPa) = 97.59809 74.37740 56.94114
#
# Poissons Ratio (x) = 0.01262 0.03608
# Poissons Ratio (y) = 0.01656 0.00141
# Poissons Ratio (z) = 0.06184 0.00185
#
# Static dielectric constant tensor:
#      x y z
#    x 4.385000 0.000000 0.000000 
#    y 0.000000 4.009700 0.000000 
#    z 0.000000 0.000000 3.776270 
# 
# 
# High freq. dielectric constant tensor:
#      x y z
#    x 1.871910 0.000000 0.000000 
#    y 0.000000 1.866380 0.000000 
#    z 0.000000 0.000000 1.862470 
# 
# From -- ./inp_files/4816.got.cif
#   From: 2010.03.12/outbox.cif.g09.slc.cpg/sg54_3_cif.got.tgz:4816.got - 2010.04.16 15:00:50.
