data_PCOD8223021
_publ_section_title
;
Structure prediction by ZEFSAII (Michael W. Deem and Ramdas Pophale) SiO2 
 PCOD8223021
Probable space group: P C C A
;
_chemical_formula_sum "Si O2"
_cell_formula_units_Z 52
_cell_length_a 15.920634
_cell_length_b 8.734809
_cell_length_c 19.034249
_cell_angle_alpha 90.000000
_cell_angle_beta 90.000000
_cell_angle_gamma 90.000000
_cell_volume 2646.973038
_symmetry_space_group_name_H-M "P C C A"
_symmetry_group_IT_number 54
_symmetry_cell_setting 'orthorhombic'
loop_
_space_group_symop_operation_xyz
x,y,z
1/2-x,-y,z
1/2+x,-y,1/2-z
-x,y,1/2-z
-x,-y,-z
1/2+x,y,-z
1/2-x,y,1/2+z
x,-y,1/2+z
loop_
_atom_site_type_symbol
_atom_site_label
_atom_site_fract_x
_atom_site_fract_y
_atom_site_fract_z
Si Si1 0.826074 0.903962 0.470262
Si Si2 0.667007 0.601335 0.219364
Si Si3 0.873747 0.082859 0.605099
Si Si4 0.241064 0.329808 0.423755
Si Si5 0.054955 0.854390 0.156815
Si Si6 0.163929 0.938250 0.752466
Si Si7 0.500000 0.415478 0.250000
O O1 0.795144 0.755000 0.509742
O O2 0.882053 0.843903 0.407509
O O3 0.750000 0.000000 0.436472
O O4 0.870560 0.011375 0.527755
O O5 0.750000 0.500000 0.240788
O O6 0.675590 0.658947 0.139961
O O7 0.659571 0.756860 0.265317
O O8 0.578554 0.514324 0.223392
O O9 0.826984 0.248473 0.604552
O O10 0.969653 0.088970 0.624278
O O11 0.831841 0.973076 0.663678
O O12 0.250000 0.500000 0.453020
O O13 0.040233 0.687155 0.188752
O O14 0.086137 0.972282 0.216845
O O15 0.250000 0.000000 0.718487
#
# Coordination Sequence:
#
# PCOD8223021 Si02
#       7
#     8   8   8   8   8   8   4
#     4  10  22  41  63  92 121 163 214 265 317 377
#     4  11  23  40  63  95 125 170 219 266 317 387
#     4  11  20  41  65  93 116 167 220 263 310 387
#     4  10  20  39  68  86 120 163 219 252 321 386
#     4  12  24  40  61  94 135 162 210 268 326 372
#     4  12  21  39  67  93 121 170 218 265 320 380
#     4  12  26  40  60  96 142 170 208 262 336 388
#
# _framework density 19.64508
#
# number of rings (size 3 to 8) (size 9 to 14) (size 15 to 20)
#    0.000    0.923    4.615    4.154    2.154    0.000 
#    0.000    8.462    0.000    0.000    0.000    0.000 
#    0.000    0.000    0.000    0.000    0.000    0.000 
#
# Total GULP energy -644470.425693 kJ/mol
# GULP energy per Si atom -12393.662033 kJ/mol
# Density = 1.960037 g / cm^3
# Si number density = 19.645080 Si / 1000 Ang^3
#
#
#
# Elastic Constant Matrix: (Units=GPa)
#
#
# Indices 1 2 3 4 5 6 
#
# 1 154.2638 73.5942 55.9843 0.0000 0.0000 0.0000
# 2 73.5942 164.7677 38.8184 0.0000 0.0000 0.0000
# 3 55.9843 38.8184 89.0703 0.0000 0.0000 0.0000
# 4 0.0000 0.0000 0.0000 -4.7932 0.0000 0.0000
# 5 0.0000 0.0000 0.0000 0.0000 30.5740 0.0000
# 6 0.0000 0.0000 0.0000 0.0000 0.0000 36.0690
#
#
#
# Elastic Compliance Matrix: (Units=1/GPa)
#
#
# Indices 1 2 3 4 5 6 
#
# 1 0.009737 -0.003240 -0.004708 0.000000 0.000000 0.000000
# 2 -0.003240 0.007842 -0.001381 0.000000 0.000000 0.000000
# 3 -0.004708 -0.001381 0.014788 0.000000 0.000000 0.000000
# 4 0.000000 0.000000 0.000000 -0.208627 0.000000 0.000000
# 5 0.000000 0.000000 0.000000 0.000000 0.032708 0.000000
# 6 0.000000 0.000000 0.000000 0.000000 0.000000 0.027725
#
#
# Mechanical properties :
#
#
# Convention : Reuss Voigt Hill
#
# Bulk Modulus (GPa) = 72.94667 82.76620 77.85644
# Shear Modulus (GPa) = -53.99471 28.35028 -12.82222
#
# Velocity S-wave (km/s) = -5.24831 3.80297 -2.55756
# Velocity P-wave (km/s) = 0.69752 7.84255 5.56741
#
# Compressibility (1/GPa) = 0.01370865
#
# Stress axis : x y z
#
# Youngs Moduli (GPa) = 102.70622 127.52520 67.62174
#
# Poissons Ratio (x) = 0.41314 0.31835
# Poissons Ratio (y) = 0.33274 0.09340
# Poissons Ratio (z) = 0.48353 0.17614
#
# Static dielectric constant tensor:
#      x y z
#    x 3.678820 0.000000 0.000000 
#    y 0.000000 3.990520 0.000000 
#    z 0.000000 0.000000 3.515540 
# 
# 
# High freq. dielectric constant tensor:
#      x y z
#    x 1.774670 0.000000 0.000000 
#    y 0.000000 1.775280 0.000000 
#    z 0.000000 0.000000 1.754800 
# 
# From -- ./inp_files/21517.got.cif
#   From: 2010.03.12/outbox.cif.g09.slc.cpg/sg54_11_cif.got.tgz:21517.got - 2010.04.16 15:00:50.
