data_PCOD8223058
_publ_section_title
;
Structure prediction by ZEFSAII (Michael W. Deem and Ramdas Pophale) SiO2 
 PCOD8223058
Probable space group: P C C A
;
_chemical_formula_sum "Si O2"
_cell_formula_units_Z 40
_cell_length_a 9.790858
_cell_length_b 8.388069
_cell_length_c 24.572099
_cell_angle_alpha 90.000000
_cell_angle_beta 90.000000
_cell_angle_gamma 90.000000
_cell_volume 2018.017846
_symmetry_space_group_name_H-M "P C C A"
_symmetry_group_IT_number 54
_symmetry_cell_setting 'orthorhombic'
loop_
_space_group_symop_operation_xyz
x,y,z
1/2-x,-y,z
1/2+x,-y,1/2-z
-x,y,1/2-z
-x,-y,-z
1/2+x,y,-z
1/2-x,y,1/2+z
x,-y,1/2+z
loop_
_atom_site_type_symbol
_atom_site_label
_atom_site_fract_x
_atom_site_fract_y
_atom_site_fract_z
Si Si1 0.339468 0.258046 0.364009
Si Si2 0.117963 0.104510 0.974269
Si Si3 0.054094 0.597750 0.855339
Si Si4 0.500000 0.800657 0.250000
Si Si5 0.750000 0.000000 0.218026
Si Si6 0.609398 0.412158 0.962017
O O1 0.419215 0.188751 0.416639
O O2 0.416168 0.413339 0.340396
O O3 0.185943 0.311684 0.380102
O O4 0.336744 0.123097 0.318214
O O5 0.250000 0.000000 0.963071
O O6 0.147066 0.237216 0.018452
O O7 0.000000 0.000000 0.000000
O O8 0.000581 0.688079 0.802396
O O9 0.938122 0.601961 0.900343
O O10 0.362533 0.907614 0.245851
O O11 0.750000 0.500000 0.964616
O O12 0.500000 0.500000 0.000000
#
# Coordination Sequence:
#
# PCOD8223058 Si02
#       6
#     8   8   8   4   4   8
#     4  10  20  40  71  92 122 178 214 260 323 399
#     4  12  24  38  63  96 133 170 213 262 322 388
#     4  10  22  43  67  94 127 170 225 265 321 391
#     4  10  24  46  68  96 126 174 218 274 324 390
#     4  10  22  44  70  92 130 166 218 272 330 386
#     4  12  24  42  65  96 132 173 215 269 325 389
#
# _framework density 19.821429999999999
#
# number of rings (size 3 to 8) (size 9 to 14) (size 15 to 20)
#    0.000    1.200    3.000    3.600    2.800    0.800 
#   12.600    0.000    0.000    0.000    0.000    0.000 
#    0.000    0.000    0.000    0.000    0.000    0.000 
#
# Total GULP energy -496036.479765 kJ/mol
# GULP energy per Si atom -12400.911994 kJ/mol
# Density = 1.977632 g / cm^3
# Si number density = 19.821430 Si / 1000 Ang^3
#
#
#
# Elastic Constant Matrix: (Units=GPa)
#
#
# Indices 1 2 3 4 5 6 
#
# 1 102.6189 51.7083 71.0973 0.0000 0.0000 0.0000
# 2 51.7083 149.3151 75.3275 0.0000 0.0000 0.0000
# 3 71.0973 75.3275 123.9554 0.0000 0.0000 0.0000
# 4 0.0000 0.0000 0.0000 39.1129 0.0000 0.0000
# 5 0.0000 0.0000 0.0000 0.0000 35.4764 0.0000
# 6 0.0000 0.0000 0.0000 0.0000 0.0000 40.9443
#
#
#
# Elastic Compliance Matrix: (Units=1/GPa)
#
#
# Indices 1 2 3 4 5 6 
#
# 1 0.016356 -0.001343 -0.008565 0.000000 0.000000 0.000000
# 2 -0.001343 0.009769 -0.005166 0.000000 0.000000 0.000000
# 3 -0.008565 -0.005166 0.016119 0.000000 0.000000 0.000000
# 4 0.000000 0.000000 0.000000 0.025567 0.000000 0.000000
# 5 0.000000 0.000000 0.000000 0.000000 0.028188 0.000000
# 6 0.000000 0.000000 0.000000 0.000000 0.000000 0.024423
#
#
# Mechanical properties :
#
#
# Convention : Reuss Voigt Hill
#
# Bulk Modulus (GPa) = 82.67513 85.79508 84.23511
# Shear Modulus (GPa) = 32.34124 34.95714 33.64919
#
# Velocity S-wave (km/s) = 4.04373 4.20408 4.12468
# Velocity P-wave (km/s) = 7.97514 8.18191 8.07919
#
# Compressibility (1/GPa) = 0.01209554
#
# Stress axis : x y z
#
# Youngs Moduli (GPa) = 61.14121 102.36965 62.03725
#
# Poissons Ratio (x) = 0.13749 0.53134
# Poissons Ratio (y) = 0.08212 0.32048
# Poissons Ratio (z) = 0.52367 0.52884
#
# Static dielectric constant tensor:
#      x y z
#    x 5.824170 0.000000 0.000000 
#    y 0.000000 4.021930 0.000000 
#    z 0.000000 0.000000 3.489740 
# 
# 
# High freq. dielectric constant tensor:
#      x y z
#    x 1.762790 0.000000 0.000000 
#    y 0.000000 1.803770 0.000000 
#    z 0.000000 0.000000 1.764880 
# 
# From -- ./inp_files/25756.got.cif
#   From: 2010.03.12/outbox.cif.g09.slc.cpg/sg54_13_cif.got.tgz:25756.got - 2010.04.16 15:00:50.
