data_PCOD8223556
_publ_section_title
;
Structure prediction by ZEFSAII (Michael W. Deem and Ramdas Pophale) SiO2 
 PCOD8223556
Probable space group: P C C A
;
_chemical_formula_sum "Si O2"
_cell_formula_units_Z 48
_cell_length_a 8.614788
_cell_length_b 7.941035
_cell_length_c 30.132542
_cell_angle_alpha 90.000000
_cell_angle_beta 90.000000
_cell_angle_gamma 90.000000
_cell_volume 2061.377233
_symmetry_space_group_name_H-M "P C C A"
_symmetry_group_IT_number 54
_symmetry_cell_setting 'orthorhombic'
loop_
_space_group_symop_operation_xyz
x,y,z
1/2-x,-y,z
1/2+x,-y,1/2-z
-x,y,1/2-z
-x,-y,-z
1/2+x,y,-z
1/2-x,y,1/2+z
x,-y,1/2+z
loop_
_atom_site_type_symbol
_atom_site_label
_atom_site_fract_x
_atom_site_fract_y
_atom_site_fract_z
Si Si1 0.069791 0.801537 0.702901
Si Si2 0.068699 0.298688 0.882241
Si Si3 0.411739 0.314049 0.887218
Si Si4 0.573912 0.197490 0.295283
Si Si5 0.355648 0.834330 0.544004
Si Si6 0.942245 0.676538 0.978292
O O1 0.248151 0.747831 0.702639
O O2 0.000000 0.739029 0.750000
O O3 0.989949 0.718965 0.660237
O O4 0.048965 0.000031 0.697983
O O5 0.023502 0.297894 0.831216
O O6 0.932036 0.199560 0.907886
O O7 0.242580 0.224076 0.887846
O O8 0.087045 0.488442 0.897859
O O9 0.503527 0.252235 0.930172
O O10 0.500000 0.260648 0.250000
O O11 0.244753 0.680776 0.526412
O O12 0.500700 0.828972 0.510228
O O13 0.250000 0.000000 0.545482
O O14 0.000000 0.500000 0.000000
#
# Coordination Sequence:
#
# PCOD8223556 Si02
#       6
#     8   8   8   8   8   8
#     4  10  22  42  70 101 137 181 231 285 351 414
#     4  11  25  43  68  99 139 178 234 284 350 412
#     4  11  25  44  68 101 133 186 231 285 343 419
#     4  10  22  41  67 100 139 181 227 287 351 417
#     4  12  27  46  70 103 139 182 235 297 354 420
#     4  12  25  45  72  98 139 184 232 286 353 420
#
# _framework density 23.285402000000001
#
# number of rings (size 3 to 8) (size 9 to 14) (size 15 to 20)
#    0.000    1.000    1.667    4.000    7.000    4.667 
#    0.000    0.000    0.000    0.000    0.000    0.000 
#    0.000    0.000    0.000    0.000    0.000    0.000 
#
# Total GULP energy -594836.136493 kJ/mol
# GULP energy per Si atom -12392.419510 kJ/mol
# Density = 2.323240 g / cm^3
# Si number density = 23.285402 Si / 1000 Ang^3
#
#
#
# Elastic Constant Matrix: (Units=GPa)
#
#
# Indices 1 2 3 4 5 6 
#
# 1 145.7832 15.9553 54.2559 0.0000 0.0000 0.0000
# 2 15.9553 47.9957 13.5372 0.0000 0.0000 0.0000
# 3 54.2559 13.5372 173.7876 0.0000 0.0000 0.0000
# 4 0.0000 0.0000 0.0000 33.7532 0.0000 0.0000
# 5 0.0000 0.0000 0.0000 0.0000 53.6305 0.0000
# 6 0.0000 0.0000 0.0000 0.0000 0.0000 31.4007
#
#
#
# Elastic Compliance Matrix: (Units=1/GPa)
#
#
# Indices 1 2 3 4 5 6 
#
# 1 0.007942 -0.001984 -0.002325 0.000000 0.000000 0.000000
# 2 -0.001984 0.021799 -0.001079 0.000000 0.000000 0.000000
# 3 -0.002325 -0.001079 0.006564 0.000000 0.000000 0.000000
# 4 0.000000 0.000000 0.000000 0.029627 0.000000 0.000000
# 5 0.000000 0.000000 0.000000 0.000000 0.018646 0.000000
# 6 0.000000 0.000000 0.000000 0.000000 0.000000 0.031846
#
#
# Mechanical properties :
#
#
# Convention : Reuss Voigt Hill
#
# Bulk Modulus (GPa) = 39.17056 59.45149 49.31103
# Shear Modulus (GPa) = 36.84334 42.67808 39.76071
#
# Velocity S-wave (km/s) = 3.98207 4.28580 4.13672
# Velocity P-wave (km/s) = 6.16449 7.07657 6.63622
#
# Compressibility (1/GPa) = 0.02552937
#
# Stress axis : x y z
#
# Youngs Moduli (GPa) = 125.91396 45.87351 152.34665
#
# Poissons Ratio (x) = 0.09103 0.35419
# Poissons Ratio (y) = 0.24987 0.16431
# Poissons Ratio (z) = 0.29273 0.04948
#
# Static dielectric constant tensor:
#      x y z
#    x 4.455470 0.000000 0.000000 
#    y 0.000000 3.881530 0.000000 
#    z 0.000000 0.000000 4.275540 
# 
# 
# High freq. dielectric constant tensor:
#      x y z
#    x 1.940300 0.000000 0.000000 
#    y 0.000000 1.903450 0.000000 
#    z 0.000000 0.000000 1.938950 
# 
# From -- ./inp_files/27736.got.cif
#   From: 2010.03.12/outbox.cif.g09.slc.cpg/sg54_14_cif.got.tgz:27736.got - 2010.04.16 15:00:50.
