data_PCOD8223908
_publ_section_title
;
Structure prediction by ZEFSAII (Michael W. Deem and Ramdas Pophale) SiO2 
 PCOD8223908
Probable space group: P C C A
;
_chemical_formula_sum "Si O2"
_cell_formula_units_Z 40
_cell_length_a 12.999564
_cell_length_b 9.526170
_cell_length_c 14.262787
_cell_angle_alpha 90.000000
_cell_angle_beta 90.000000
_cell_angle_gamma 90.000000
_cell_volume 1766.247298
_symmetry_space_group_name_H-M "P C C A"
_symmetry_group_IT_number 54
_symmetry_cell_setting 'orthorhombic'
loop_
_space_group_symop_operation_xyz
x,y,z
1/2-x,-y,z
1/2+x,-y,1/2-z
-x,y,1/2-z
-x,-y,-z
1/2+x,y,-z
1/2-x,y,1/2+z
x,-y,1/2+z
loop_
_atom_site_type_symbol
_atom_site_label
_atom_site_fract_x
_atom_site_fract_y
_atom_site_fract_z
Si Si1 0.548880 0.231668 0.347049
Si Si2 0.777196 0.692807 0.858401
Si Si3 0.250000 0.500000 0.299731
Si Si4 0.845234 0.716301 0.056778
Si Si5 0.750000 0.000000 0.613928
Si Si6 0.394874 0.936478 0.223622
O O1 0.500000 0.286767 0.250000
O O2 0.653396 0.316911 0.367757
O O3 0.466216 0.250798 0.430810
O O4 0.575528 0.067955 0.340634
O O5 0.817463 0.595195 0.772607
O O6 0.812042 0.849874 0.834619
O O7 0.828728 0.643750 0.955738
O O8 0.315667 0.393998 0.362572
O O9 0.772717 0.856951 0.055701
O O10 0.649729 0.013485 0.677638
O O11 0.500000 0.852643 0.250000
#
# Coordination Sequence:
#
# PCOD8223908 Si02
#       6
#     8   8   4   8   4   8
#     4  11  20  46  73 100 148 195 228 300 381 420
#     4  12  26  45  73 106 144 194 248 297 360 446
#     4  12  24  54  70  98 160 192 236 302 370 442
#     4  12  27  44  76 108 143 193 246 306 367 435
#     4  12  20  42  68 106 144 184 236 304 362 418
#     4  11  20  40  71 103 143 190 233 294 373 423
#
# _framework density 22.646885999999999
#
# number of rings (size 3 to 8) (size 9 to 14) (size 15 to 20)
#    0.000    0.400   10.000    0.600    2.800    2.400 
#    3.600    2.000    0.000    0.000    0.000    0.000 
#    0.000    0.000    0.000    0.000    0.000    0.000 
#
# Total GULP energy -495782.498355 kJ/mol
# GULP energy per Si atom -12394.562459 kJ/mol
# Density = 2.259534 g / cm^3
# Si number density = 22.646886 Si / 1000 Ang^3
#
#
#
# Elastic Constant Matrix: (Units=GPa)
#
#
# Indices 1 2 3 4 5 6 
#
# 1 110.1933 20.4716 18.3365 0.0000 0.0000 0.0000
# 2 20.4716 81.6268 29.6490 0.0000 0.0000 0.0000
# 3 18.3365 29.6490 125.7403 0.0000 0.0000 0.0000
# 4 0.0000 0.0000 0.0000 5.9576 0.0000 0.0000
# 5 0.0000 0.0000 0.0000 0.0000 38.4874 0.0000
# 6 0.0000 0.0000 0.0000 0.0000 0.0000 17.6199
#
#
#
# Elastic Compliance Matrix: (Units=1/GPa)
#
#
# Indices 1 2 3 4 5 6 
#
# 1 0.009613 -0.002080 -0.000911 0.000000 0.000000 0.000000
# 2 -0.002080 0.013848 -0.002962 0.000000 0.000000 0.000000
# 3 -0.000911 -0.002962 0.008784 0.000000 0.000000 0.000000
# 4 0.000000 0.000000 0.000000 0.167852 0.000000 0.000000
# 5 0.000000 0.000000 0.000000 0.000000 0.025983 0.000000
# 6 0.000000 0.000000 0.000000 0.000000 0.000000 0.056754
#
#
# Mechanical properties :
#
#
# Convention : Reuss Voigt Hill
#
# Bulk Modulus (GPa) = 49.16676 50.49719 49.83197
# Shear Modulus (GPa) = 16.58259 29.01986 22.80122
#
# Velocity S-wave (km/s) = 2.70890 3.58356 3.17648
# Velocity P-wave (km/s) = 5.61618 6.28240 5.95861
#
# Compressibility (1/GPa) = 0.02033895
#
# Stress axis : x y z
#
# Youngs Moduli (GPa) = 104.02565 72.21045 113.83990
#
# Poissons Ratio (x) = 0.15019 0.10376
# Poissons Ratio (y) = 0.21636 0.33720
# Poissons Ratio (z) = 0.09481 0.21389
#
# Static dielectric constant tensor:
#      x y z
#    x 4.255720 0.000000 0.000000 
#    y 0.000000 4.090750 0.000000 
#    z 0.000000 0.000000 4.028920 
# 
# 
# High freq. dielectric constant tensor:
#      x y z
#    x 1.892660 0.000000 0.000000 
#    y 0.000000 1.887010 0.000000 
#    z 0.000000 0.000000 1.885150 
# 
# From -- ./inp_files/13276.got.cif
#   From: 2010.03.12/outbox.cif.g09.slc.cpg/sg54_7_cif.got.tgz:13276.got - 2010.04.16 15:00:50.
