data_PCOD8223523
_publ_section_title
;
Structure prediction by ZEFSAII (Michael W. Deem and Ramdas Pophale) SiO2 
 PCOD8223523
Probable space group: P C C A
;
_chemical_formula_sum "Si O2"
_cell_formula_units_Z 48
_cell_length_a 23.484121
_cell_length_b 5.333548
_cell_length_c 18.115252
_cell_angle_alpha 90.000000
_cell_angle_beta 90.000000
_cell_angle_gamma 90.000000
_cell_volume 2269.002097
_symmetry_space_group_name_H-M "P C C A"
_symmetry_group_IT_number 54
_symmetry_cell_setting 'orthorhombic'
loop_
_space_group_symop_operation_xyz
x,y,z
1/2-x,-y,z
1/2+x,-y,1/2-z
-x,y,1/2-z
-x,-y,-z
1/2+x,y,-z
1/2-x,y,1/2+z
x,-y,1/2+z
loop_
_atom_site_type_symbol
_atom_site_label
_atom_site_fract_x
_atom_site_fract_y
_atom_site_fract_z
Si Si1 0.439881 0.766532 0.871742
Si Si2 0.128680 0.950745 0.493795
Si Si3 0.544575 0.662332 0.953207
Si Si4 0.750000 0.000000 0.489437
Si Si5 0.250000 0.500000 0.605263
Si Si6 0.437273 0.252889 0.780710
Si Si7 0.368754 0.658370 0.138401
O O1 0.504399 0.824734 0.898631
O O2 0.434795 0.516087 0.823643
O O3 0.419238 0.015474 0.829898
O O4 0.398558 0.730290 0.943640
O O5 0.138540 0.884048 0.579866
O O6 0.083217 0.177757 0.490612
O O7 0.191958 0.007011 0.461466
O O8 0.584402 0.517709 0.897329
O O9 0.500000 0.500000 0.000000
O O10 0.753882 0.747211 0.443106
O O11 0.191835 0.519697 0.653043
O O12 0.500000 0.208366 0.750000
O O13 0.390729 0.245777 0.716339
#
# Coordination Sequence:
#
# PCOD8223523 Si02
#       7
#     8   8   8   4   4   8   8
#     4  12  26  41  63  97 137 169 211 264 341 393
#     4  11  24  42  68  96 130 171 226 272 330 389
#     4  12  22  40  65 103 131 170 217 281 332 401
#     4  10  22  40  68  96 128 166 224 280 324 382
#     4  10  22  42  66  98 126 170 228 278 320 384
#     4  12  26  42  61  95 134 174 209 265 331 399
#     4  11  24  42  69  95 132 175 225 273 328 392
#
# _framework density 21.154672000000001
#
# number of rings (size 3 to 8) (size 9 to 14) (size 15 to 20)
#    0.000    0.667    5.000    3.000    2.333    0.000 
#    0.000    1.667    0.000    0.000    0.000    0.000 
#    0.000    0.000    0.000    0.000    0.000    0.000 
#
# Total GULP energy -594870.667225 kJ/mol
# GULP energy per Si atom -12393.138901 kJ/mol
# Density = 2.110652 g / cm^3
# Si number density = 21.154672 Si / 1000 Ang^3
#
#
#
# Elastic Constant Matrix: (Units=GPa)
#
#
# Indices 1 2 3 4 5 6 
#
# 1 188.3029 33.4197 44.4615 0.0000 0.0000 0.0000
# 2 33.4197 105.5831 24.9772 0.0000 0.0000 0.0000
# 3 44.4615 24.9772 75.5443 0.0000 0.0000 0.0000
# 4 0.0000 0.0000 0.0000 14.8731 0.0000 0.0000
# 5 0.0000 0.0000 0.0000 0.0000 21.3004 0.0000
# 6 0.0000 0.0000 0.0000 0.0000 0.0000 25.0385
#
#
#
# Elastic Compliance Matrix: (Units=1/GPa)
#
#
# Indices 1 2 3 4 5 6 
#
# 1 0.006308 -0.001213 -0.003311 0.000000 0.000000 0.000000
# 2 -0.001213 0.010508 -0.002760 0.000000 0.000000 0.000000
# 3 -0.003311 -0.002760 0.016099 0.000000 0.000000 0.000000
# 4 0.000000 0.000000 0.000000 0.067236 0.000000 0.000000
# 5 0.000000 0.000000 0.000000 0.000000 0.046948 0.000000
# 6 0.000000 0.000000 0.000000 0.000000 0.000000 0.039938
#
#
# Mechanical properties :
#
#
# Convention : Reuss Voigt Hill
#
# Bulk Modulus (GPa) = 54.51041 63.90523 59.20782
# Shear Modulus (GPa) = 24.07075 30.01386 27.04230
#
# Velocity S-wave (km/s) = 3.37686 3.77076 3.57923
# Velocity P-wave (km/s) = 6.40529 7.01657 6.71789
#
# Compressibility (1/GPa) = 0.01834512
#
# Stress axis : x y z
#
# Youngs Moduli (GPa) = 158.53466 95.16363 62.11662
#
# Poissons Ratio (x) = 0.11546 0.20569
# Poissons Ratio (y) = 0.19234 0.17146
# Poissons Ratio (z) = 0.52496 0.26268
#
# Static dielectric constant tensor:
#      x y z
#    x 4.512380 0.000000 0.000000 
#    y 0.000000 7.265690 0.000000 
#    z 0.000000 0.000000 4.011060 
# 
# 
# High freq. dielectric constant tensor:
#      x y z
#    x 1.847640 0.000000 0.000000 
#    y 0.000000 1.835600 0.000000 
#    z 0.000000 0.000000 1.805330 
# 
# From -- ./inp_files/19097.got.cif
#   From: 2010.03.12/outbox.cif.g09.slc.cpg/sg54_10_cif.got.tgz:19097.got - 2010.04.16 15:00:50.
