data_PCOD8223047
_publ_section_title
;
Structure prediction by ZEFSAII (Michael W. Deem and Ramdas Pophale) SiO2 
 PCOD8223047
Probable space group: P C C A
;
_chemical_formula_sum "Si O2"
_cell_formula_units_Z 56
_cell_length_a 13.424233
_cell_length_b 11.541371
_cell_length_c 16.366717
_cell_angle_alpha 90.000000
_cell_angle_beta 90.000000
_cell_angle_gamma 90.000000
_cell_volume 2535.761806
_symmetry_space_group_name_H-M "P C C A"
_symmetry_group_IT_number 54
_symmetry_cell_setting 'orthorhombic'
loop_
_space_group_symop_operation_xyz
x,y,z
1/2-x,-y,z
1/2+x,-y,1/2-z
-x,y,1/2-z
-x,-y,-z
1/2+x,y,-z
1/2-x,y,1/2+z
x,-y,1/2+z
loop_
_atom_site_type_symbol
_atom_site_label
_atom_site_fract_x
_atom_site_fract_y
_atom_site_fract_z
Si Si1 0.031497 0.366958 0.506244
Si Si2 0.186254 0.890270 0.403815
Si Si3 0.974970 0.959567 0.655877
Si Si4 0.089164 0.417164 0.682848
Si Si5 0.653917 0.731962 0.132934
Si Si6 0.188080 0.647928 0.698177
Si Si7 0.378386 0.181970 0.566755
O O1 0.059350 0.346030 0.601406
O O2 0.126612 0.345581 0.446404
O O3 0.000000 0.500000 0.500000
O O4 0.947223 0.275944 0.479880
O O5 0.230042 0.771988 0.365206
O O6 0.196528 0.870542 0.500710
O O7 0.250000 0.000000 0.375463
O O8 0.074165 0.918994 0.373765
O O9 0.909874 0.847854 0.635042
O O10 0.000000 0.971966 0.750000
O O11 0.072151 0.934863 0.602399
O O12 0.119920 0.548282 0.656534
O O13 0.195229 0.371694 0.716732
O O14 0.000000 0.408937 0.750000
O O15 0.633347 0.660431 0.214628
O O16 0.180384 0.760047 0.641329
#
# Coordination Sequence:
#
# PCOD8223047 Si02
#       7
#     8   8   8   8   8   8   8
#     4  11  22  40  68  95 131 174 220 273 325 414
#     4  10  23  43  60  92 130 165 222 279 335 398
#     4  10  20  40  67  93 123 169 224 273 330 400
#     4  11  25  42  61 100 140 176 221 272 329 396
#     4  10  22  41  66  91 128 178 218 272 335 394
#     4  11  23  42  66  95 134 180 222 270 328 410
#     4  11  22  40  70  95 128 175 222 270 346 397
#
# _framework density 22.084092999999999
#
# number of rings (size 3 to 8) (size 9 to 14) (size 15 to 20)
#    0.000    1.429    2.857    2.143    4.000    0.000 
#    5.143    0.000    0.000    0.000    0.000    0.000 
#    0.000    0.000    0.000    0.000    0.000    0.000 
#
# Total GULP energy -693824.182076 kJ/mol
# GULP energy per Si atom -12389.717537 kJ/mol
# Density = 2.203383 g / cm^3
# Si number density = 22.084093 Si / 1000 Ang^3
#
#
#
# Elastic Constant Matrix: (Units=GPa)
#
#
# Indices 1 2 3 4 5 6 
#
# 1 69.4817 30.6693 22.7694 0.0000 0.0000 0.0000
# 2 30.6693 73.5862 33.0162 0.0000 0.0000 0.0000
# 3 22.7694 33.0162 137.5834 0.0000 0.0000 0.0000
# 4 0.0000 0.0000 0.0000 27.7909 0.0000 0.0000
# 5 0.0000 0.0000 0.0000 0.0000 37.7847 0.0000
# 6 0.0000 0.0000 0.0000 0.0000 0.0000 -16.5326
#
#
#
# Elastic Compliance Matrix: (Units=1/GPa)
#
#
# Indices 1 2 3 4 5 6 
#
# 1 0.017845 -0.006850 -0.001309 0.000000 0.000000 0.000000
# 2 -0.006850 0.017859 -0.003152 0.000000 0.000000 0.000000
# 3 -0.001309 -0.003152 0.008241 0.000000 0.000000 0.000000
# 4 0.000000 0.000000 0.000000 0.035983 0.000000 0.000000
# 5 0.000000 0.000000 0.000000 0.000000 0.026466 0.000000
# 6 0.000000 0.000000 0.000000 0.000000 0.000000 -0.060486
#
#
# Mechanical properties :
#
#
# Convention : Reuss Voigt Hill
#
# Bulk Modulus (GPa) = 46.89917 50.39566 48.64742
# Shear Modulus (GPa) = 66.10495 22.75502 44.42999
#
# Velocity S-wave (km/s) = 5.47707 3.21344 4.49024
# Velocity P-wave (km/s) = 7.82818 6.05291 6.99707
#
# Compressibility (1/GPa) = 0.02132234
#
# Stress axis : x y z
#
# Youngs Moduli (GPa) = 56.03832 55.99550 121.33851
#
# Poissons Ratio (x) = 0.38356 0.15889
# Poissons Ratio (y) = 0.38386 0.38245
# Poissons Ratio (z) = 0.07338 0.17649
#
# Static dielectric constant tensor:
#      x y z
#    x 4.088130 0.000000 0.000000 
#    y 0.000000 4.071120 0.000000 
#    z 0.000000 0.000000 4.001550 
# 
# 
# High freq. dielectric constant tensor:
#      x y z
#    x 1.862940 0.000000 0.000000 
#    y 0.000000 1.860970 0.000000 
#    z 0.000000 0.000000 1.877200 
# 
# From -- ./inp_files/13501.got.cif
#   From: 2010.03.12/outbox.cif.g09.slc.cpg/sg54_7_cif.got.tgz:13501.got - 2010.04.16 15:00:50.
