data_PCOD8223862
_publ_section_title
;
Structure prediction by ZEFSAII (Michael W. Deem and Ramdas Pophale) SiO2 
 PCOD8223862
Probable space group: P C C A
;
_chemical_formula_sum "Si O2"
_cell_formula_units_Z 32
_cell_length_a 8.477402
_cell_length_b 5.768578
_cell_length_c 26.333850
_cell_angle_alpha 90.000000
_cell_angle_beta 90.000000
_cell_angle_gamma 90.000000
_cell_volume 1287.792539
_symmetry_space_group_name_H-M "P C C A"
_symmetry_group_IT_number 54
_symmetry_cell_setting 'orthorhombic'
loop_
_space_group_symop_operation_xyz
x,y,z
1/2-x,-y,z
1/2+x,-y,1/2-z
-x,y,1/2-z
-x,-y,-z
1/2+x,y,-z
1/2-x,y,1/2+z
x,-y,1/2+z
loop_
_atom_site_type_symbol
_atom_site_label
_atom_site_fract_x
_atom_site_fract_y
_atom_site_fract_z
Si Si1 0.010489 0.667445 0.340450
Si Si2 0.250000 0.000000 0.871181
Si Si3 0.250000 0.500000 0.516350
Si Si4 0.971372 0.327290 0.068596
Si Si5 0.500000 0.314729 0.750000
Si Si6 0.750000 0.000000 0.298409
O O1 0.024400 0.469074 0.299167
O O2 0.854602 0.827980 0.333764
O O3 0.024805 0.556018 0.396112
O O4 0.169923 0.815030 0.334211
O O5 0.397715 0.104476 0.903372
O O6 0.368634 0.642848 0.481627
O O7 0.346000 0.309834 0.550547
O O8 0.351883 0.152706 0.739687
#
# Coordination Sequence:
#
# PCOD8223862 Si02
#       6
#     8   4   4   8   4   4
#     4  12  28  49  76 114 156 198 253 319 372 466
#     4  12  26  47  77 112 154 208 253 310 401 448
#     4  10  24  50  74 106 156 200 260 326 380 436
#     4  11  25  48  74 111 154 201 256 326 371 461
#     4  12  30  52  78 112 152 196 254 314 378 468
#     4  12  30  49  79 112 148 208 251 306 399 456
#
# _framework density 24.848721000000001
#
# number of rings (size 3 to 8) (size 9 to 14) (size 15 to 20)
#    0.000    0.500    2.500    3.000    7.000   16.000 
#    0.000    0.000    0.000    0.000    0.000    0.000 
#    0.000    0.000    0.000    0.000    0.000    0.000 
#
# Total GULP energy -396623.135508 kJ/mol
# GULP energy per Si atom -12394.472985 kJ/mol
# Density = 2.479216 g / cm^3
# Si number density = 24.848721 Si / 1000 Ang^3
#
#
#
# Elastic Constant Matrix: (Units=GPa)
#
#
# Indices 1 2 3 4 5 6 
#
# 1 181.2286 84.6903 81.8357 0.0000 0.0000 0.0000
# 2 84.6903 145.9075 61.4360 0.0000 0.0000 0.0000
# 3 81.8357 61.4360 84.2078 0.0000 0.0000 0.0000
# 4 0.0000 0.0000 0.0000 16.5462 0.0000 0.0000
# 5 0.0000 0.0000 0.0000 0.0000 47.5269 0.0000
# 6 0.0000 0.0000 0.0000 0.0000 0.0000 50.6866
#
#
#
# Elastic Compliance Matrix: (Units=1/GPa)
#
#
# Indices 1 2 3 4 5 6 
#
# 1 0.010469 -0.002588 -0.008286 0.000000 0.000000 0.000000
# 2 -0.002588 0.010532 -0.005169 0.000000 0.000000 0.000000
# 3 -0.008286 -0.005169 0.023699 0.000000 0.000000 0.000000
# 4 0.000000 0.000000 0.000000 0.060437 0.000000 0.000000
# 5 0.000000 0.000000 0.000000 0.000000 0.021041 0.000000
# 6 0.000000 0.000000 0.000000 0.000000 0.000000 0.019729
#
#
# Mechanical properties :
#
#
# Convention : Reuss Voigt Hill
#
# Bulk Modulus (GPa) = 79.27399 96.36311 87.81855
# Shear Modulus (GPa) = 27.44268 35.17738 31.31003
#
# Velocity S-wave (km/s) = 3.32684 3.76661 3.55354
# Velocity P-wave (km/s) = 6.83587 7.60135 7.22875
#
# Compressibility (1/GPa) = 0.01261448
#
# Stress axis : x y z
#
# Youngs Moduli (GPa) = 95.52265 94.94697 42.19500
#
# Poissons Ratio (x) = 0.24568 0.34963
# Poissons Ratio (y) = 0.24717 0.21812
# Poissons Ratio (z) = 0.79150 0.49082
#
# Static dielectric constant tensor:
#      x y z
#    x 4.961110 0.000000 0.000000 
#    y 0.000000 4.675090 0.000000 
#    z 0.000000 0.000000 4.570650 
# 
# 
# High freq. dielectric constant tensor:
#      x y z
#    x 2.011280 0.000000 0.000000 
#    y 0.000000 1.983490 0.000000 
#    z 0.000000 0.000000 2.001280 
# 
# From -- ./inp_files/27459.got.cif
#   From: 2010.03.12/outbox.cif.g09.slc.cpg/sg54_14_cif.got.tgz:27459.got - 2010.04.16 15:00:50.
