data_PCOD8223680
_publ_section_title
;
Structure prediction by ZEFSAII (Michael W. Deem and Ramdas Pophale) SiO2 
 PCOD8223680
Probable space group: P C C A
;
_chemical_formula_sum "Si O2"
_cell_formula_units_Z 60
_cell_length_a 23.745818
_cell_length_b 8.528269
_cell_length_c 13.823867
_cell_angle_alpha 90.000000
_cell_angle_beta 90.000000
_cell_angle_gamma 90.000000
_cell_volume 2799.481308
_symmetry_space_group_name_H-M "P C C A"
_symmetry_group_IT_number 54
_symmetry_cell_setting 'orthorhombic'
loop_
_space_group_symop_operation_xyz
x,y,z
1/2-x,-y,z
1/2+x,-y,1/2-z
-x,y,1/2-z
-x,-y,-z
1/2+x,y,-z
1/2-x,y,1/2+z
x,-y,1/2+z
loop_
_atom_site_type_symbol
_atom_site_label
_atom_site_fract_x
_atom_site_fract_y
_atom_site_fract_z
Si Si1 0.250000 0.500000 0.175621
Si Si2 0.473630 0.668871 0.649866
Si Si3 0.163218 0.944132 0.518517
Si Si4 0.664568 0.749354 0.289169
Si Si5 0.190716 0.951798 0.309186
Si Si6 0.454240 0.676868 0.180022
Si Si7 0.957010 0.136564 0.506165
Si Si8 0.658063 0.254376 0.360053
O O1 0.216870 0.366532 0.237348
O O2 0.199714 0.595584 0.117367
O O3 0.500000 0.733817 0.750000
O O4 0.480822 0.483428 0.642420
O O5 0.516990 0.727632 0.570119
O O6 0.408573 0.711252 0.629962
O O7 0.174520 0.812599 0.600334
O O8 0.103280 0.929525 0.461895
O O9 0.201643 0.918355 0.423344
O O10 0.172891 0.115881 0.564619
O O11 0.654595 0.890938 0.213397
O O12 0.607785 0.646427 0.275660
O O13 0.250000 0.000000 0.260796
O O14 0.166959 0.801760 0.251057
O O15 0.500000 0.755438 0.250000
O O16 0.444128 0.805183 0.100167
O O17 0.000000 0.000000 0.500000
#
# Coordination Sequence:
#
# PCOD8223680 Si02
#       8
#     4   8   8   8   8   8   8   8
#     4  12  22  42  66  86 128 162 208 252 306 372
#     4  11  22  40  64  89 124 166 201 252 314 368
#     4  10  24  42  63  91 123 162 209 251 313 368
#     4  10  23  42  64  88 123 164 201 256 309 364
#     4  11  23  40  62  87 118 160 206 255 299 361
#     4  10  23  40  63  89 125 163 203 247 312 371
#     4  11  22  39  60  94 122 157 202 257 301 370
#     4  11  23  42  63  90 124 163 203 257 308 366
#
# _framework density 21.432542000000002
#
# number of rings (size 3 to 8) (size 9 to 14) (size 15 to 20)
#    0.000    1.333    4.000    1.200    3.733    0.533 
#    0.000    2.667    0.000    0.000    0.000    0.000 
#    0.000    0.000    0.000    0.000    0.000    0.000 
#
# Total GULP energy -743299.762575 kJ/mol
# GULP energy per Si atom -12388.329376 kJ/mol
# Density = 2.138376 g / cm^3
# Si number density = 21.432542 Si / 1000 Ang^3
#
#
#
# Elastic Constant Matrix: (Units=GPa)
#
#
# Indices 1 2 3 4 5 6 
#
# 1 113.6425 21.7099 9.1768 0.0000 0.0000 0.0000
# 2 21.7099 83.3383 13.4262 0.0000 0.0000 0.0000
# 3 9.1768 13.4262 81.2196 0.0000 0.0000 0.0000
# 4 0.0000 0.0000 0.0000 40.6705 0.0000 0.0000
# 5 0.0000 0.0000 0.0000 0.0000 25.5548 0.0000
# 6 0.0000 0.0000 0.0000 0.0000 0.0000 46.1915
#
#
#
# Elastic Compliance Matrix: (Units=1/GPa)
#
#
# Indices 1 2 3 4 5 6 
#
# 1 0.009295 -0.002314 -0.000668 0.000000 0.000000 0.000000
# 2 -0.002314 0.012904 -0.001872 0.000000 0.000000 0.000000
# 3 -0.000668 -0.001872 0.012697 0.000000 0.000000 0.000000
# 4 0.000000 0.000000 0.000000 0.024588 0.000000 0.000000
# 5 0.000000 0.000000 0.000000 0.000000 0.039132 0.000000
# 6 0.000000 0.000000 0.000000 0.000000 0.000000 0.021649
#
#
# Mechanical properties :
#
#
# Convention : Reuss Voigt Hill
#
# Bulk Modulus (GPa) = 39.69890 40.75848 40.22869
# Shear Modulus (GPa) = 36.13557 38.07586 37.10572
#
# Velocity S-wave (km/s) = 4.11056 4.21948 4.16538
# Velocity P-wave (km/s) = 6.41030 6.54195 6.47646
#
# Compressibility (1/GPa) = 0.02518961
#
# Stress axis : x y z
#
# Youngs Moduli (GPa) = 107.57900 77.49777 78.75789
#
# Poissons Ratio (x) = 0.17932 0.05259
# Poissons Ratio (y) = 0.24893 0.14740
# Poissons Ratio (z) = 0.07184 0.14505
#
# Static dielectric constant tensor:
#      x y z
#    x 4.091800 0.000000 0.000000 
#    y 0.000000 3.760680 0.000000 
#    z 0.000000 0.000000 3.275260 
# 
# 
# High freq. dielectric constant tensor:
#      x y z
#    x 1.867500 0.000000 0.000000 
#    y 0.000000 1.843230 0.000000 
#    z 0.000000 0.000000 1.809600 
# 
# From -- ./inp_files/14973.got.cif
#   From: 2010.03.12/outbox.cif.g09.slc.cpg/sg54_8_cif.got.tgz:14973.got - 2010.04.16 15:00:50.
