data_PCOD8223191
_publ_section_title
;
Structure prediction by ZEFSAII (Michael W. Deem and Ramdas Pophale) SiO2 
 PCOD8223191
Probable space group: P C C A
;
_chemical_formula_sum "Si O2"
_cell_formula_units_Z 56
_cell_length_a 22.779580
_cell_length_b 5.338941
_cell_length_c 19.966797
_cell_angle_alpha 90.000000
_cell_angle_beta 90.000000
_cell_angle_gamma 90.000000
_cell_volume 2428.338562
_symmetry_space_group_name_H-M "P C C A"
_symmetry_group_IT_number 54
_symmetry_cell_setting 'orthorhombic'
loop_
_space_group_symop_operation_xyz
x,y,z
1/2-x,-y,z
1/2+x,-y,1/2-z
-x,y,1/2-z
-x,-y,-z
1/2+x,y,-z
1/2-x,y,1/2+z
x,-y,1/2+z
loop_
_atom_site_type_symbol
_atom_site_label
_atom_site_fract_x
_atom_site_fract_y
_atom_site_fract_z
Si Si1 0.999353 0.406115 0.149671
Si Si2 0.812018 0.558589 0.368116
Si Si3 0.079631 0.783713 0.079211
Si Si4 0.808632 0.141408 0.734616
Si Si5 0.894804 0.164441 0.306016
Si Si6 0.618800 0.604861 0.632381
Si Si7 0.914846 0.885292 0.570031
O O1 0.032761 0.565351 0.092472
O O2 0.047137 0.338421 0.208737
O O3 0.942612 0.566516 0.174325
O O4 0.975324 0.153989 0.112029
O O5 0.750000 0.500000 0.403292
O O6 0.854198 0.673093 0.423933
O O7 0.797741 0.751264 0.308029
O O8 0.840876 0.311176 0.337940
O O9 0.078357 0.972143 0.141186
O O10 0.067854 0.907292 0.007773
O O11 0.826626 0.364560 0.683755
O O12 0.750000 0.000000 0.709341
O O13 0.867289 0.960157 0.738765
O O14 0.627414 0.357659 0.585627
O O15 0.616889 0.856284 0.588200
#
# Coordination Sequence:
#
# PCOD8223191 Si02
#       7
#     8   8   8   8   8   8   8
#     4   9  21  39  63  97 133 171 216 271 335 406
#     4  10  21  39  63  96 123 167 223 284 341 387
#     4  10  21  37  64 100 131 171 216 273 341 401
#     4  11  23  43  68  93 128 182 235 286 333 405
#     4  10  21  37  67  96 128 168 222 281 340 393
#     4  10  25  41  64  95 131 178 223 269 330 401
#     4  10  23  42  66  96 137 177 218 265 334 410
#
# _framework density 23.061036000000001
#
# number of rings (size 3 to 8) (size 9 to 14) (size 15 to 20)
#    0.857    1.143    1.429    1.286    6.000    1.143 
#    0.000   18.571    0.000    0.000    0.000    0.000 
#    0.000    0.000    0.000    0.000    0.000    0.000 
#
# Total GULP energy -693774.112152 kJ/mol
# GULP energy per Si atom -12388.823431 kJ/mol
# Density = 2.300855 g / cm^3
# Si number density = 23.061036 Si / 1000 Ang^3
#
#
#
# Elastic Constant Matrix: (Units=GPa)
#
#
# Indices 1 2 3 4 5 6 
#
# 1 112.8242 5.4884 8.5235 0.0000 0.0000 0.0000
# 2 5.4884 87.0492 0.0003 0.0000 0.0000 0.0000
# 3 8.5235 0.0003 33.4520 0.0000 0.0000 0.0000
# 4 0.0000 0.0000 0.0000 22.7524 0.0000 0.0000
# 5 0.0000 0.0000 0.0000 0.0000 17.7882 0.0000
# 6 0.0000 0.0000 0.0000 0.0000 0.0000 40.0719
#
#
#
# Elastic Compliance Matrix: (Units=1/GPa)
#
#
# Indices 1 2 3 4 5 6 
#
# 1 0.009066 -0.000572 -0.002310 0.000000 0.000000 0.000000
# 2 -0.000572 0.011524 0.000146 0.000000 0.000000 0.000000
# 3 -0.002310 0.000146 0.030482 0.000000 0.000000 0.000000
# 4 0.000000 0.000000 0.000000 0.043951 0.000000 0.000000
# 5 0.000000 0.000000 0.000000 0.000000 0.056217 0.000000
# 6 0.000000 0.000000 0.000000 0.000000 0.000000 0.024955
#
#
# Mechanical properties :
#
#
# Convention : Reuss Voigt Hill
#
# Bulk Modulus (GPa) = 21.92998 29.03888 25.48443
# Shear Modulus (GPa) = 25.39787 30.74338 28.07063
#
# Velocity S-wave (km/s) = 3.32223 3.65517 3.49267
# Velocity P-wave (km/s) = 4.92407 5.51663 5.22875
#
# Compressibility (1/GPa) = 0.04559967
#
# Stress axis : x y z
#
# Youngs Moduli (GPa) = 110.30642 86.77696 32.80611
#
# Poissons Ratio (x) = 0.04960 0.07578
# Poissons Ratio (y) = 0.06305 -0.00477
# Poissons Ratio (z) = 0.25480 -0.01263
#
# Static dielectric constant tensor:
#      x y z
#    x 4.208890 0.000000 0.000000 
#    y 0.000000 4.366230 0.000000 
#    z 0.000000 0.000000 3.570720 
# 
# 
# High freq. dielectric constant tensor:
#      x y z
#    x 1.910620 0.000000 0.000000 
#    y 0.000000 1.921790 0.000000 
#    z 0.000000 0.000000 1.866880 
# 
# From -- ./inp_files/24816.got.cif
#   From: 2010.03.12/outbox.cif.g09.slc.cpg/sg54_13_cif.got.tgz:24816.got - 2010.04.16 15:00:50.
