data_PCOD8223663
_publ_section_title
;
Structure prediction by ZEFSAII (Michael W. Deem and Ramdas Pophale) SiO2 
 PCOD8223663
Probable space group: P C C A
;
_chemical_formula_sum "Si O2"
_cell_formula_units_Z 40
_cell_length_a 15.733665
_cell_length_b 11.787117
_cell_length_c 9.257641
_cell_angle_alpha 90.000000
_cell_angle_beta 90.000000
_cell_angle_gamma 90.000000
_cell_volume 1716.871648
_symmetry_space_group_name_H-M "P C C A"
_symmetry_group_IT_number 54
_symmetry_cell_setting 'orthorhombic'
loop_
_space_group_symop_operation_xyz
x,y,z
1/2-x,-y,z
1/2+x,-y,1/2-z
-x,y,1/2-z
-x,-y,-z
1/2+x,y,-z
1/2-x,y,1/2+z
x,-y,1/2+z
loop_
_atom_site_type_symbol
_atom_site_label
_atom_site_fract_x
_atom_site_fract_y
_atom_site_fract_z
Si Si1 0.500000 0.530404 0.750000
Si Si2 0.606098 0.413489 0.991703
Si Si3 0.720771 0.272802 0.819280
Si Si4 0.750000 0.500000 0.654136
Si Si5 0.907163 0.102204 0.193901
Si Si6 0.831342 0.927942 0.404216
O O1 0.434027 0.450096 0.662561
O O2 0.460028 0.609484 0.876796
O O3 0.667239 0.513040 0.052102
O O4 0.664058 0.302711 0.961990
O O5 0.757282 0.387937 0.751253
O O6 0.659127 0.204437 0.713322
O O7 0.801896 0.198311 0.862564
O O8 0.000000 0.138518 0.250000
O O9 0.874652 0.988030 0.268939
O O10 0.905622 0.077497 0.023612
O O11 0.750000 0.000000 0.460587
#
# Coordination Sequence:
#
# PCOD8223663 Si02
#       6
#     4   8   8   4   8   8
#     4  10  24  42  66  92 144 192 228 296 344 408
#     4  11  23  43  66  97 141 191 238 286 347 416
#     4  11  24  42  72 103 141 189 241 286 349 423
#     4  12  24  44  70 108 142 200 242 284 332 438
#     4  11  24  43  75 104 136 176 231 305 362 417
#     4  10  22  46  73  99 135 179 236 292 359 427
#
# _framework density 23.298186999999999
#
# number of rings (size 3 to 8) (size 9 to 14) (size 15 to 20)
#    0.000    1.200    2.000    4.200    1.400    1.600 
#    3.600    0.000    8.800    0.000    0.000    0.000 
#    0.000    0.000    0.000    0.000    0.000    0.000 
#
# Total GULP energy -495872.378284 kJ/mol
# GULP energy per Si atom -12396.809457 kJ/mol
# Density = 2.324516 g / cm^3
# Si number density = 23.298187 Si / 1000 Ang^3
#
#
#
# Elastic Constant Matrix: (Units=GPa)
#
#
# Indices 1 2 3 4 5 6 
#
# 1 101.0865 33.1484 42.5752 0.0000 0.0000 0.0000
# 2 33.1484 132.5527 57.0461 0.0000 0.0000 0.0000
# 3 42.5752 57.0461 135.3174 0.0000 0.0000 0.0000
# 4 0.0000 0.0000 0.0000 20.2241 0.0000 0.0000
# 5 0.0000 0.0000 0.0000 0.0000 50.3475 0.0000
# 6 0.0000 0.0000 0.0000 0.0000 0.0000 31.3044
#
#
#
# Elastic Compliance Matrix: (Units=1/GPa)
#
#
# Indices 1 2 3 4 5 6 
#
# 1 0.011687 -0.001637 -0.002987 0.000000 0.000000 0.000000
# 2 -0.001637 0.009446 -0.003467 0.000000 0.000000 0.000000
# 3 -0.002987 -0.003467 0.009791 0.000000 0.000000 0.000000
# 4 0.000000 0.000000 0.000000 0.049446 0.000000 0.000000
# 5 0.000000 0.000000 0.000000 0.000000 0.019862 0.000000
# 6 0.000000 0.000000 0.000000 0.000000 0.000000 0.031944
#
#
# Mechanical properties :
#
#
# Convention : Reuss Voigt Hill
#
# Bulk Modulus (GPa) = 67.83268 70.49956 69.16612
# Shear Modulus (GPa) = 32.62150 36.12100 34.37125
#
# Velocity S-wave (km/s) = 3.74595 3.94176 3.84510
# Velocity P-wave (km/s) = 6.92010 7.14436 7.03312
#
# Compressibility (1/GPa) = 0.01474216
#
# Stress axis : x y z
#
# Youngs Moduli (GPa) = 85.56166 105.86889 102.13053
#
# Poissons Ratio (x) = 0.17333 0.30507
# Poissons Ratio (y) = 0.14009 0.35408
# Poissons Ratio (z) = 0.25557 0.36704
#
# Static dielectric constant tensor:
#      x y z
#    x 4.378330 0.000000 0.000000 
#    y 0.000000 3.989840 0.000000 
#    z 0.000000 0.000000 4.277690 
# 
# 
# High freq. dielectric constant tensor:
#      x y z
#    x 1.925770 0.000000 0.000000 
#    y 0.000000 1.899570 0.000000 
#    z 0.000000 0.000000 1.934350 
# 
# From -- ./inp_files/4014.got.cif
#   From: 2010.03.12/outbox.cif.g09.slc.cpg/sg54_3_cif.got.tgz:4014.got - 2010.04.16 15:00:50.
