data_PCOD8223413
_publ_section_title
;
Structure prediction by ZEFSAII (Michael W. Deem and Ramdas Pophale) SiO2 
 PCOD8223413
Probable space group: P C C A
;
_chemical_formula_sum "Si O2"
_cell_formula_units_Z 32
_cell_length_a 5.449054
_cell_length_b 16.328649
_cell_length_c 16.990093
_cell_angle_alpha 90.000000
_cell_angle_beta 90.000000
_cell_angle_gamma 90.000000
_cell_volume 1511.705250
_symmetry_space_group_name_H-M "P C C A"
_symmetry_group_IT_number 54
_symmetry_cell_setting 'orthorhombic'
loop_
_space_group_symop_operation_xyz
x,y,z
1/2-x,-y,z
1/2+x,-y,1/2-z
-x,y,1/2-z
-x,-y,-z
1/2+x,y,-z
1/2-x,y,1/2+z
x,-y,1/2+z
loop_
_atom_site_type_symbol
_atom_site_label
_atom_site_fract_x
_atom_site_fract_y
_atom_site_fract_z
Si Si1 0.000000 0.292864 0.750000
Si Si2 0.750000 0.000000 0.200598
Si Si3 0.637731 0.417761 0.827688
Si Si4 0.651401 0.174613 0.669723
Si Si5 0.482125 0.701647 0.450892
O O1 0.173338 0.348076 0.697034
O O2 0.123491 0.235504 0.815446
O O3 0.734439 0.917809 0.147457
O O4 0.500000 0.008944 0.250000
O O5 0.750000 0.500000 0.866073
O O6 0.500000 0.448669 0.750000
O O7 0.459879 0.375723 0.891391
O O8 0.500000 0.171439 0.750000
O O9 0.502816 0.212208 0.596498
O O10 0.736955 0.696255 0.497595
#
# Coordination Sequence:
#
# PCOD8223413 Si02
#       5
#     4   4   8   8   8
#     4  12  18  40  70  96 128 164 226 282 326 392
#     4  10  22  36  66 108 130 160 220 296 332 374
#     4  12  25  41  69  98 128 173 233 286 332 393
#     4  11  22  41  70  98 130 175 227 280 329 399
#     4  12  27  44  66  97 140 184 220 267 339 406
#
# _framework density 21.168146
#
# number of rings (size 3 to 8) (size 9 to 14) (size 15 to 20)
#    0.000    0.500    7.500    1.500    0.000    1.000 
#    0.000    1.250    0.000    0.000    0.000    0.000 
#    0.000    0.000    0.000    0.000    0.000    0.000 
#
# Total GULP energy -396682.600004 kJ/mol
# GULP energy per Si atom -12396.331250 kJ/mol
# Density = 2.111997 g / cm^3
# Si number density = 21.168146 Si / 1000 Ang^3
#
#
#
# Elastic Constant Matrix: (Units=GPa)
#
#
# Indices 1 2 3 4 5 6 
#
# 1 116.9671 41.0635 39.0741 0.0000 0.0000 0.0000
# 2 41.0635 192.7437 47.8396 0.0000 0.0000 0.0000
# 3 39.0741 47.8396 95.9191 0.0000 0.0000 0.0000
# 4 0.0000 0.0000 0.0000 -11.0928 0.0000 0.0000
# 5 0.0000 0.0000 0.0000 0.0000 38.6129 0.0000
# 6 0.0000 0.0000 0.0000 0.0000 0.0000 66.7127
#
#
#
# Elastic Compliance Matrix: (Units=1/GPa)
#
#
# Indices 1 2 3 4 5 6 
#
# 1 0.010174 -0.001300 -0.003496 0.000000 0.000000 0.000000
# 2 -0.001300 0.006087 -0.002507 0.000000 0.000000 0.000000
# 3 -0.003496 -0.002507 0.013100 0.000000 0.000000 0.000000
# 4 0.000000 0.000000 0.000000 -0.090148 0.000000 0.000000
# 5 0.000000 0.000000 0.000000 0.000000 0.025898 0.000000
# 6 0.000000 0.000000 0.000000 0.000000 0.000000 0.014990
#
#
# Mechanical properties :
#
#
# Convention : Reuss Voigt Hill
#
# Bulk Modulus (GPa) = 67.76973 73.50938 70.63955
# Shear Modulus (GPa) = -13283.19638 37.35674 -6622.91982
#
# Velocity S-wave (km/s) = -79.30139 4.20546 -55.99564
# Velocity P-wave (km/s) = 91.39399 7.64088 64.39906
#
# Compressibility (1/GPa) = 0.01475585
#
# Stress axis : x y z
#
# Youngs Moduli (GPa) = 98.29334 164.27719 76.33699
#
# Poissons Ratio (x) = 0.21351 0.26689
# Poissons Ratio (y) = 0.12775 0.19134
# Poissons Ratio (z) = 0.34365 0.41177
#
# Static dielectric constant tensor:
#      x y z
#    x 3.958150 0.000000 0.000000 
#    y 0.000000 4.421330 0.000000 
#    z 0.000000 0.000000 3.871370 
# 
# 
# High freq. dielectric constant tensor:
#      x y z
#    x 1.840460 0.000000 0.000000 
#    y 0.000000 1.849040 0.000000 
#    z 0.000000 0.000000 1.802250 
# 
# From -- ./inp_files/10743.got.cif
#   From: 2010.03.12/outbox.cif.g09.slc.cpg/sg54_6_cif.got.tgz:10743.got - 2010.04.16 15:00:50.
