data_PCOD8223325
_publ_section_title
;
Structure prediction by ZEFSAII (Michael W. Deem and Ramdas Pophale) SiO2 
 PCOD8223325
Probable space group: P C C A
;
_chemical_formula_sum "Si O2"
_cell_formula_units_Z 48
_cell_length_a 15.178892
_cell_length_b 16.599896
_cell_length_c 9.443688
_cell_angle_alpha 90.000000
_cell_angle_beta 90.000000
_cell_angle_gamma 90.000000
_cell_volume 2379.507448
_symmetry_space_group_name_H-M "P C C A"
_symmetry_group_IT_number 54
_symmetry_cell_setting 'orthorhombic'
loop_
_space_group_symop_operation_xyz
x,y,z
1/2-x,-y,z
1/2+x,-y,1/2-z
-x,y,1/2-z
-x,-y,-z
1/2+x,y,-z
1/2-x,y,1/2+z
x,-y,1/2+z
loop_
_atom_site_type_symbol
_atom_site_label
_atom_site_fract_x
_atom_site_fract_y
_atom_site_fract_z
Si Si1 0.092873 0.069789 0.686466
Si Si2 0.667247 0.054530 0.610583
Si Si3 0.091067 0.409616 0.435275
Si Si4 0.395694 0.430235 0.609374
Si Si5 0.254271 0.308378 0.505263
Si Si6 0.765032 0.198116 0.738815
O O1 0.096492 0.059777 0.516696
O O2 0.152090 0.143193 0.733972
O O3 0.000000 0.093559 0.750000
O O4 0.123620 0.985771 0.753177
O O5 0.691046 0.144695 0.659777
O O6 0.750000 0.000000 0.558106
O O7 0.104909 0.480622 0.546977
O O8 0.118400 0.437582 0.277822
O O9 0.151824 0.335321 0.487433
O O10 0.987516 0.384987 0.431031
O O11 0.313453 0.384102 0.543970
O O12 0.268144 0.235037 0.614142
O O13 0.290210 0.274236 0.357320
#
# Coordination Sequence:
#
# PCOD8223325 Si02
#       6
#     8   8   8   8   8   8
#     4  11  23  40  63  91 121 157 210 255 302 362
#     4  10  21  41  63  86 120 164 202 249 304 375
#     4  10  23  42  64  89 126 161 214 254 304 369
#     4  10  23  42  63  91 121 167 208 259 304 365
#     4  12  23  41  64  92 124 169 200 255 316 373
#     4  11  24  40  62  88 127 160 204 248 314 372
#
# _framework density 20.172243000000002
#
# number of rings (size 3 to 8) (size 9 to 14) (size 15 to 20)
#    0.000    1.333    3.333    2.500    4.667    2.667 
#    0.000    0.000    0.000    0.000    0.000    0.000 
#    0.000    0.000    0.000    0.000    0.000    0.000 
#
# Total GULP energy -595207.195492 kJ/mol
# GULP energy per Si atom -12400.149906 kJ/mol
# Density = 2.012633 g / cm^3
# Si number density = 20.172243 Si / 1000 Ang^3
#
#
#
# Elastic Constant Matrix: (Units=GPa)
#
#
# Indices 1 2 3 4 5 6 
#
# 1 51.4906 16.5692 33.2003 0.0000 0.0000 0.0000
# 2 16.5692 65.3416 33.5715 0.0000 0.0000 0.0000
# 3 33.2003 33.5715 104.4483 0.0000 0.0000 0.0000
# 4 0.0000 0.0000 0.0000 36.2807 0.0000 0.0000
# 5 0.0000 0.0000 0.0000 0.0000 23.9398 0.0000
# 6 0.0000 0.0000 0.0000 0.0000 0.0000 7.7081
#
#
#
# Elastic Compliance Matrix: (Units=1/GPa)
#
#
# Indices 1 2 3 4 5 6 
#
# 1 0.024814 -0.002683 -0.007025 0.000000 0.000000 0.000000
# 2 -0.002683 0.018621 -0.005132 0.000000 0.000000 0.000000
# 3 -0.007025 -0.005132 0.013457 0.000000 0.000000 0.000000
# 4 0.000000 0.000000 0.000000 0.027563 0.000000 0.000000
# 5 0.000000 0.000000 0.000000 0.000000 0.041771 0.000000
# 6 0.000000 0.000000 0.000000 0.000000 0.000000 0.129733
#
#
# Mechanical properties :
#
#
# Convention : Reuss Voigt Hill
#
# Bulk Modulus (GPa) = 36.74940 43.10696 39.92818
# Shear Modulus (GPa) = 16.96576 22.78169 19.87373
#
# Velocity S-wave (km/s) = 2.90322 3.36424 3.14220
# Velocity P-wave (km/s) = 5.43099 6.04207 5.74466
#
# Compressibility (1/GPa) = 0.02721133
#
# Stress axis : x y z
#
# Youngs Moduli (GPa) = 40.29975 53.70138 74.31169
#
# Poissons Ratio (x) = 0.14407 0.52205
# Poissons Ratio (y) = 0.10812 0.38140
# Poissons Ratio (z) = 0.28311 0.27562
#
# Static dielectric constant tensor:
#      x y z
#    x 4.893040 0.000000 0.000000 
#    y 0.000000 3.651640 0.000000 
#    z 0.000000 0.000000 3.815710 
# 
# 
# High freq. dielectric constant tensor:
#      x y z
#    x 1.776720 0.000000 0.000000 
#    y 0.000000 1.784410 0.000000 
#    z 0.000000 0.000000 1.807280 
# 
# From -- ./inp_files/3574.got.cif
#   From: 2010.03.12/outbox.cif.g09.slc.cpg/sg54_2_cif.got.tgz:3574.got - 2010.04.16 15:00:50.
