data_PCOD8223615
_publ_section_title
;
Structure prediction by ZEFSAII (Michael W. Deem and Ramdas Pophale) SiO2 
 PCOD8223615
Probable space group: P C C A
;
_chemical_formula_sum "Si O2"
_cell_formula_units_Z 36
_cell_length_a 16.245915
_cell_length_b 4.887817
_cell_length_c 19.535258
_cell_angle_alpha 90.000000
_cell_angle_beta 90.000000
_cell_angle_gamma 90.000000
_cell_volume 1551.237395
_symmetry_space_group_name_H-M "P C C A"
_symmetry_group_IT_number 54
_symmetry_cell_setting 'orthorhombic'
loop_
_space_group_symop_operation_xyz
x,y,z
1/2-x,-y,z
1/2+x,-y,1/2-z
-x,y,1/2-z
-x,-y,-z
1/2+x,y,-z
1/2-x,y,1/2+z
x,-y,1/2+z
loop_
_atom_site_type_symbol
_atom_site_label
_atom_site_fract_x
_atom_site_fract_y
_atom_site_fract_z
Si Si1 0.437602 0.721019 0.927468
Si Si2 0.750000 0.500000 0.413279
Si Si3 0.392164 0.781398 0.510567
Si Si4 0.827878 0.654141 0.782318
Si Si5 0.412699 0.164963 0.272185
O O1 0.414869 0.410437 0.945928
O O2 0.405507 0.792070 0.852767
O O3 0.389385 0.909966 0.982385
O O4 0.536333 0.761259 0.931885
O O5 0.696445 0.294244 0.459013
O O6 0.689048 0.679511 0.364261
O O7 0.750000 0.500000 0.746166
O O8 0.904755 0.454813 0.767043
O O9 0.841706 0.955290 0.752108
O O10 0.500000 0.038028 0.250000
#
# Coordination Sequence:
#
# PCOD8223615 Si02
#       5
#     8   4   8   8   8
#     4  10  23  41  65  95 130 166 219 270 321 387
#     4  10  24  44  66  94 128 180 216 266 334 392
#     4  10  22  43  65  94 129 172 217 269 321 392
#     4  10  25  42  64  95 133 171 216 273 321 393
#     4  12  23  43  69  99 129 176 217 271 333 393
#
# _framework density 23.207280999999998
#
# number of rings (size 3 to 8) (size 9 to 14) (size 15 to 20)
#    0.667    0.889    0.000    4.000    0.000    9.778 
#   12.000    0.000    0.000    0.000    0.000    0.000 
#    0.000    0.000    0.000    0.000    0.000    0.000 
#
# Total GULP energy -446476.406885 kJ/mol
# GULP energy per Si atom -12402.122413 kJ/mol
# Density = 2.315446 g / cm^3
# Si number density = 23.207281 Si / 1000 Ang^3
#
#
#
# Elastic Constant Matrix: (Units=GPa)
#
#
# Indices 1 2 3 4 5 6 
#
# 1 90.8917 9.4533 35.2765 0.0000 0.0000 0.0000
# 2 9.4533 84.5695 8.7574 0.0000 0.0000 0.0000
# 3 35.2765 8.7574 92.4853 0.0000 0.0000 0.0000
# 4 0.0000 0.0000 0.0000 16.7365 0.0000 0.0000
# 5 0.0000 0.0000 0.0000 0.0000 32.2900 0.0000
# 6 0.0000 0.0000 0.0000 0.0000 0.0000 41.3451
#
#
#
# Elastic Compliance Matrix: (Units=1/GPa)
#
#
# Indices 1 2 3 4 5 6 
#
# 1 0.012989 -0.000948 -0.004864 0.000000 0.000000 0.000000
# 2 -0.000948 0.012011 -0.000776 0.000000 0.000000 0.000000
# 3 -0.004864 -0.000776 0.012741 0.000000 0.000000 0.000000
# 4 0.000000 0.000000 0.000000 0.059750 0.000000 0.000000
# 5 0.000000 0.000000 0.000000 0.000000 0.030969 0.000000
# 6 0.000000 0.000000 0.000000 0.000000 0.000000 0.024187
#
#
# Mechanical properties :
#
#
# Convention : Reuss Voigt Hill
#
# Bulk Modulus (GPa) = 40.70925 41.65787 41.18356
# Shear Modulus (GPa) = 28.73373 32.37160 30.55267
#
# Velocity S-wave (km/s) = 3.52253 3.73887 3.63231
# Velocity P-wave (km/s) = 5.84157 6.05213 5.94778
#
# Compressibility (1/GPa) = 0.02456444
#
# Stress axis : x y z
#
# Youngs Moduli (GPa) = 76.99001 83.25775 78.48416
#
# Poissons Ratio (x) = 0.07894 0.38178
# Poissons Ratio (y) = 0.07300 0.06088
# Poissons Ratio (z) = 0.37452 0.06458
#
# Static dielectric constant tensor:
#      x y z
#    x 4.076810 0.000000 0.000000 
#    y 0.000000 4.049340 0.000000 
#    z 0.000000 0.000000 3.811790 
# 
# 
# High freq. dielectric constant tensor:
#      x y z
#    x 1.915430 0.000000 0.000000 
#    y 0.000000 1.923210 0.000000 
#    z 0.000000 0.000000 1.902540 
# 
# From -- ./inp_files/21347.got.cif
#   From: 2010.03.12/outbox.cif.g09.slc.cpg/sg54_11_cif.got.tgz:21347.got - 2010.04.16 15:00:50.
