data_PCOD8223678
_publ_section_title
;
Structure prediction by ZEFSAII (Michael W. Deem and Ramdas Pophale) SiO2 
 PCOD8223678
Probable space group: P C C A
;
_chemical_formula_sum "Si O2"
_cell_formula_units_Z 40
_cell_length_a 8.484981
_cell_length_b 16.016776
_cell_length_c 13.505202
_cell_angle_alpha 90.000000
_cell_angle_beta 90.000000
_cell_angle_gamma 90.000000
_cell_volume 1835.384503
_symmetry_space_group_name_H-M "P C C A"
_symmetry_group_IT_number 54
_symmetry_cell_setting 'orthorhombic'
loop_
_space_group_symop_operation_xyz
x,y,z
1/2-x,-y,z
1/2+x,-y,1/2-z
-x,y,1/2-z
-x,-y,-z
1/2+x,y,-z
1/2-x,y,1/2+z
x,-y,1/2+z
loop_
_atom_site_type_symbol
_atom_site_label
_atom_site_fract_x
_atom_site_fract_y
_atom_site_fract_z
Si Si1 0.142581 0.168739 0.085899
Si Si2 0.626160 0.940200 0.049831
Si Si3 0.235452 0.404772 0.365142
Si Si4 0.159980 0.719402 0.200219
Si Si5 0.003836 0.668775 0.491801
O O1 0.219854 0.203180 0.187421
O O2 0.981221 0.120345 0.117264
O O3 0.272617 0.112436 0.030053
O O4 0.088129 0.243646 0.014254
O O5 0.750000 0.000000 0.109835
O O6 0.500000 0.000000 0.000000
O O7 0.250000 0.500000 0.330971
O O8 0.262063 0.351248 0.266857
O O9 0.369021 0.393773 0.447236
O O10 0.068373 0.376200 0.411332
O O11 0.000000 0.753108 0.250000
O O12 0.131625 0.683696 0.090156
#
# Coordination Sequence:
#
# PCOD8223678 Si02
#       5
#     8   8   8   8   8
#     4  11  18  39  65  96 136 170 221 266 318 417
#     4   9  19  33  65 111 125 167 217 264 333 391
#     4  11  24  42  63  94 133 172 226 287 330 383
#     4  10  23  40  62  98 131 174 226 274 334 380
#     4  11  21  42  66  94 122 183 227 263 339 384
#
# _framework density 21.793796
#
# number of rings (size 3 to 8) (size 9 to 14) (size 15 to 20)
#    0.000    1.600    4.000    0.600    0.000    1.600 
#   10.800    0.000    0.000    0.000   78.000    0.000 
#    0.000    0.000    0.000    0.000    0.000    0.000 
#
# Total GULP energy -495656.308174 kJ/mol
# GULP energy per Si atom -12391.407704 kJ/mol
# Density = 2.174419 g / cm^3
# Si number density = 21.793796 Si / 1000 Ang^3
#
#
#
# Elastic Constant Matrix: (Units=GPa)
#
#
# Indices 1 2 3 4 5 6 
#
# 1 136.8977 89.1079 49.7081 0.0000 0.0000 0.0000
# 2 89.1079 151.8145 53.0159 0.0000 0.0000 0.0000
# 3 49.7081 53.0159 86.6381 0.0000 0.0000 0.0000
# 4 0.0000 0.0000 0.0000 20.7219 0.0000 0.0000
# 5 0.0000 0.0000 0.0000 0.0000 35.3719 0.0000
# 6 0.0000 0.0000 0.0000 0.0000 0.0000 45.3568
#
#
#
# Elastic Compliance Matrix: (Units=1/GPa)
#
#
# Indices 1 2 3 4 5 6 
#
# 1 0.012575 -0.006183 -0.003432 0.000000 0.000000 0.000000
# 2 -0.006183 0.011417 -0.003439 0.000000 0.000000 0.000000
# 3 -0.003432 -0.003439 0.015616 0.000000 0.000000 0.000000
# 4 0.000000 0.000000 0.000000 0.048258 0.000000 0.000000
# 5 0.000000 0.000000 0.000000 0.000000 0.028271 0.000000
# 6 0.000000 0.000000 0.000000 0.000000 0.000000 0.022047
#
#
# Mechanical properties :
#
#
# Convention : Reuss Voigt Hill
#
# Bulk Modulus (GPa) = 74.06836 84.33490 79.20163
# Shear Modulus (GPa) = 29.62248 32.52468 31.07358
#
# Velocity S-wave (km/s) = 3.69075 3.86733 3.78007
# Velocity P-wave (km/s) = 7.22648 7.66305 7.44797
#
# Compressibility (1/GPa) = 0.01350104
#
# Stress axis : x y z
#
# Youngs Moduli (GPa) = 79.52250 87.59003 64.03889
#
# Poissons Ratio (x) = 0.54153 0.21975
# Poissons Ratio (y) = 0.49166 0.22023
# Poissons Ratio (z) = 0.27289 0.30122
#
# Static dielectric constant tensor:
#      x y z
#    x 4.598390 0.000000 0.000000 
#    y 0.000000 4.191460 0.000000 
#    z 0.000000 0.000000 3.522530 
# 
# 
# High freq. dielectric constant tensor:
#      x y z
#    x 1.887560 0.000000 0.000000 
#    y 0.000000 1.861890 0.000000 
#    z 0.000000 0.000000 1.816470 
# 
# From -- ./inp_files/11511.got.cif
#   From: 2010.03.12/outbox.cif.g09.slc.cpg/sg54_6_cif.got.tgz:11511.got - 2010.04.16 15:00:50.
