data_PCOD8223525
_publ_section_title
;
Structure prediction by ZEFSAII (Michael W. Deem and Ramdas Pophale) SiO2 
 PCOD8223525
Probable space group: P C C A
;
_chemical_formula_sum "Si O2"
_cell_formula_units_Z 48
_cell_length_a 17.070417
_cell_length_b 9.043407
_cell_length_c 13.232271
_cell_angle_alpha 90.000000
_cell_angle_beta 90.000000
_cell_angle_gamma 90.000000
_cell_volume 2042.728244
_symmetry_space_group_name_H-M "P C C A"
_symmetry_group_IT_number 54
_symmetry_cell_setting 'orthorhombic'
loop_
_space_group_symop_operation_xyz
x,y,z
1/2-x,-y,z
1/2+x,-y,1/2-z
-x,y,1/2-z
-x,-y,-z
1/2+x,y,-z
1/2-x,y,1/2+z
x,-y,1/2+z
loop_
_atom_site_type_symbol
_atom_site_label
_atom_site_fract_x
_atom_site_fract_y
_atom_site_fract_z
Si Si1 0.688935 0.690346 0.672731
Si Si2 0.471228 0.333124 0.996082
Si Si3 0.363818 0.633710 0.313795
Si Si4 0.741604 0.840588 0.476884
Si Si5 0.089881 0.829469 0.639292
Si Si6 0.607265 0.159550 0.345222
O O1 0.636985 0.543678 0.688932
O O2 0.776492 0.683214 0.716094
O O3 0.704904 0.722480 0.554692
O O4 0.638687 0.812325 0.732094
O O5 0.394216 0.317304 0.924299
O O6 0.539898 0.229601 0.953895
O O7 0.500000 0.500000 0.000000
O O8 0.456311 0.276426 0.110836
O O9 0.420685 0.714726 0.232752
O O10 0.681171 0.845635 0.385174
O O11 0.824679 0.807911 0.426857
O O12 0.750000 0.000000 0.532428
O O13 0.065667 0.999341 0.661594
#
# Coordination Sequence:
#
# PCOD8223525 Si02
#       6
#     8   8   8   8   8   8
#     4  11  23  41  68 100 133 175 239 282 346 403
#     4  12  25  46  68 101 145 184 230 283 357 422
#     4  11  24  42  66 100 136 183 227 291 341 413
#     4  10  22  40  68  98 133 173 231 287 338 406
#     4  11  24  43  69 100 138 180 227 286 355 417
#     4  11  24  43  70  99 135 182 233 289 346 417
#
# _framework density 23.497983999999999
#
# number of rings (size 3 to 8) (size 9 to 14) (size 15 to 20)
#    0.000    1.000    3.333    3.000    2.333    0.000 
#    0.000    7.500    0.000    0.000    0.000    0.000 
#    0.000    0.000    0.000    0.000    0.000    0.000 
#
# Total GULP energy -594711.886691 kJ/mol
# GULP energy per Si atom -12389.830973 kJ/mol
# Density = 2.344450 g / cm^3
# Si number density = 23.497984 Si / 1000 Ang^3
#
#
#
# Elastic Constant Matrix: (Units=GPa)
#
#
# Indices 1 2 3 4 5 6 
#
# 1 55.0396 27.6604 6.5518 0.0000 0.0000 0.0000
# 2 27.6604 139.1696 23.4204 0.0000 0.0000 0.0000
# 3 6.5518 23.4204 74.9294 0.0000 0.0000 0.0000
# 4 0.0000 0.0000 0.0000 36.1755 0.0000 0.0000
# 5 0.0000 0.0000 0.0000 0.0000 48.4544 0.0000
# 6 0.0000 0.0000 0.0000 0.0000 0.0000 32.1836
#
#
#
# Elastic Compliance Matrix: (Units=1/GPa)
#
#
# Indices 1 2 3 4 5 6 
#
# 1 0.020206 -0.003925 -0.000540 0.000000 0.000000 0.000000
# 2 -0.003925 0.008347 -0.002266 0.000000 0.000000 0.000000
# 3 -0.000540 -0.002266 0.014101 0.000000 0.000000 0.000000
# 4 0.000000 0.000000 0.000000 0.027643 0.000000 0.000000
# 5 0.000000 0.000000 0.000000 0.000000 0.020638 0.000000
# 6 0.000000 0.000000 0.000000 0.000000 0.000000 0.031072
#
#
# Mechanical properties :
#
#
# Convention : Reuss Voigt Hill
#
# Bulk Modulus (GPa) = 34.25562 42.71153 38.48357
# Shear Modulus (GPa) = 34.43555 37.46307 35.94931
#
# Velocity S-wave (km/s) = 3.83230 3.99721 3.91562
# Velocity P-wave (km/s) = 5.84737 6.28647 6.07089
#
# Compressibility (1/GPa) = 0.02919229
#
# Stress axis : x y z
#
# Youngs Moduli (GPa) = 49.49130 119.80507 70.91539
#
# Poissons Ratio (x) = 0.47024 0.03829
# Poissons Ratio (y) = 0.19426 0.16068
# Poissons Ratio (z) = 0.02672 0.27145
#
# Static dielectric constant tensor:
#      x y z
#    x 4.212110 0.000000 0.000000 
#    y 0.000000 4.268450 0.000000 
#    z 0.000000 0.000000 3.983380 
# 
# 
# High freq. dielectric constant tensor:
#      x y z
#    x 1.938770 0.000000 0.000000 
#    y 0.000000 1.930270 0.000000 
#    z 0.000000 0.000000 1.920540 
# 
# From -- ./inp_files/14110.got.cif
#   From: 2010.03.12/outbox.cif.g09.slc.cpg/sg54_8_cif.got.tgz:14110.got - 2010.04.16 15:00:50.
