data_PCOD8223064
_publ_section_title
;
Structure prediction by ZEFSAII (Michael W. Deem and Ramdas Pophale) SiO2 
 PCOD8223064
Probable space group: P C C A
;
_chemical_formula_sum "Si O2"
_cell_formula_units_Z 64
_cell_length_a 26.225409
_cell_length_b 9.127569
_cell_length_c 13.435253
_cell_angle_alpha 90.000000
_cell_angle_beta 90.000000
_cell_angle_gamma 90.000000
_cell_volume 3216.053344
_symmetry_space_group_name_H-M "P C C A"
_symmetry_group_IT_number 54
_symmetry_cell_setting 'orthorhombic'
loop_
_space_group_symop_operation_xyz
x,y,z
1/2-x,-y,z
1/2+x,-y,1/2-z
-x,y,1/2-z
-x,-y,-z
1/2+x,y,-z
1/2-x,y,1/2+z
x,-y,1/2+z
loop_
_atom_site_type_symbol
_atom_site_label
_atom_site_fract_x
_atom_site_fract_y
_atom_site_fract_z
Si Si1 0.131190 0.511161 0.156383
Si Si2 0.443685 0.054420 0.794156
Si Si3 0.180035 0.736027 0.014138
Si Si4 0.580692 0.077673 0.481358
Si Si5 0.289658 0.382194 0.808484
Si Si6 0.614603 0.194091 0.873328
Si Si7 0.947252 0.242857 0.795132
Si Si8 0.767638 0.841990 0.851258
O O1 0.164248 0.588654 0.071481
O O2 0.166512 0.461005 0.246334
O O3 0.104919 0.367058 0.106898
O O4 0.089718 0.619280 0.202918
O O5 0.500000 0.077796 0.750000
O O6 0.403563 0.160341 0.739488
O O7 0.425468 0.886451 0.776049
O O8 0.443944 0.092881 0.910490
O O9 0.137809 0.860972 0.026881
O O10 0.233687 0.794270 0.054787
O O11 0.184591 0.703211 0.898329
O O12 0.545315 0.170776 0.405193
O O13 0.582521 0.906401 0.449778
O O14 0.250000 0.500000 0.851310
O O15 0.258598 0.269090 0.739597
O O16 0.674016 0.157280 0.885420
O O17 0.000000 0.301305 0.750000
O O18 0.750000 0.000000 0.812665
#
# Coordination Sequence:
#
# PCOD8223064 Si02
#       8
#     8   8   8   8   8   8   8   8
#     4  10  22  42  59  89 130 162 204 259 306 369
#     4  10  22  41  66  91 122 159 205 263 315 373
#     4  11  23  41  59  89 127 165 206 256 305 371
#     4  10  20  41  63  90 121 155 208 255 306 369
#     4  11  24  37  61  88 123 173 205 249 310 368
#     4  10  22  37  63  91 118 164 204 252 307 369
#     4   9  21  39  65  91 122 161 199 253 317 372
#     4  11  22  42  60  88 128 163 208 259 306 361
#
# _framework density 19.900167
#
# number of rings (size 3 to 8) (size 9 to 14) (size 15 to 20)
#    0.000    1.750    2.500    1.500    3.500    6.500 
#    2.250    0.000    0.000    6.750    0.000    0.000 
#    0.000    0.000    0.000    0.000    0.000    0.000 
#
# Total GULP energy -793648.461006 kJ/mol
# GULP energy per Si atom -12400.757203 kJ/mol
# Density = 1.985487 g / cm^3
# Si number density = 19.900167 Si / 1000 Ang^3
#
#
#
# Elastic Constant Matrix: (Units=GPa)
#
#
# Indices 1 2 3 4 5 6 
#
# 1 92.9397 46.9570 45.6826 0.0000 0.0000 0.0000
# 2 46.9570 128.3628 34.7427 0.0000 0.0000 0.0000
# 3 45.6826 34.7427 135.6012 0.0000 0.0000 0.0000
# 4 0.0000 0.0000 0.0000 13.3549 0.0000 0.0000
# 5 0.0000 0.0000 0.0000 0.0000 32.3758 0.0000
# 6 0.0000 0.0000 0.0000 0.0000 0.0000 26.5542
#
#
#
# Elastic Compliance Matrix: (Units=1/GPa)
#
#
# Indices 1 2 3 4 5 6 
#
# 1 0.014893 -0.004395 -0.003891 0.000000 0.000000 0.000000
# 2 -0.004395 0.009668 -0.000996 0.000000 0.000000 0.000000
# 3 -0.003891 -0.000996 0.008941 0.000000 0.000000 0.000000
# 4 0.000000 0.000000 0.000000 0.074879 0.000000 0.000000
# 5 0.000000 0.000000 0.000000 0.000000 0.030887 0.000000
# 6 0.000000 0.000000 0.000000 0.000000 0.000000 0.037659
#
#
# Mechanical properties :
#
#
# Convention : Reuss Voigt Hill
#
# Bulk Modulus (GPa) = 66.95044 67.96313 67.45679
# Shear Modulus (GPa) = 24.94137 29.75841 27.34989
#
# Velocity S-wave (km/s) = 3.54407 3.87122 3.71125
# Velocity P-wave (km/s) = 7.10376 7.36260 7.23434
#
# Compressibility (1/GPa) = 0.01493642
#
# Stress axis : x y z
#
# Youngs Moduli (GPa) = 67.14687 103.43617 111.84710
#
# Poissons Ratio (x) = 0.45458 0.43522
# Poissons Ratio (y) = 0.29510 0.11145
# Poissons Ratio (z) = 0.26128 0.10307
#
# Static dielectric constant tensor:
#      x y z
#    x 3.515740 0.000000 0.000000 
#    y 0.000000 3.902170 0.000000 
#    z 0.000000 0.000000 3.500050 
# 
# 
# High freq. dielectric constant tensor:
#      x y z
#    x 1.774610 0.000000 0.000000 
#    y 0.000000 1.785510 0.000000 
#    z 0.000000 0.000000 1.769480 
# 
# From -- ./inp_files/10536.got.cif
#   From: 2010.03.12/outbox.cif.g09.slc.cpg/sg54_6_cif.got.tgz:10536.got - 2010.04.16 15:00:50.
