data_PCOD8223904
_publ_section_title
;
Structure prediction by ZEFSAII (Michael W. Deem and Ramdas Pophale) SiO2 
 PCOD8223904
Probable space group: P C C A
;
_chemical_formula_sum "Si O2"
_cell_formula_units_Z 28
_cell_length_a 9.227726
_cell_length_b 7.556684
_cell_length_c 19.479521
_cell_angle_alpha 90.000000
_cell_angle_beta 90.000000
_cell_angle_gamma 90.000000
_cell_volume 1358.326662
_symmetry_space_group_name_H-M "P C C A"
_symmetry_group_IT_number 54
_symmetry_cell_setting 'orthorhombic'
loop_
_space_group_symop_operation_xyz
x,y,z
1/2-x,-y,z
1/2+x,-y,1/2-z
-x,y,1/2-z
-x,-y,-z
1/2+x,y,-z
1/2-x,y,1/2+z
x,-y,1/2+z
loop_
_atom_site_type_symbol
_atom_site_label
_atom_site_fract_x
_atom_site_fract_y
_atom_site_fract_z
Si Si1 0.648579 0.356873 0.022999
Si Si2 0.250000 0.500000 0.344559
Si Si3 0.372519 0.857159 0.303174
Si Si4 0.584441 0.853875 0.041226
O O1 0.750000 0.500000 0.983601
O O2 0.627536 0.417974 0.103176
O O3 0.744089 0.171500 0.025380
O O4 0.498568 0.329240 0.982036
O O5 0.312270 0.656009 0.296935
O O6 0.500000 0.885708 0.250000
O O7 0.437825 0.889733 0.378657
O O8 0.250000 0.000000 0.285585
O O9 0.500000 0.000000 0.000000
#
# Coordination Sequence:
#
# PCOD8223904 Si02
#       4
#     8   4   8   8
#     4   9  19  34  59  87 122 150 201 255 305 362
#     4   8  20  42  62  86 124 166 202 260 318 360
#     4  11  25  44  64  91 130 169 211 262 316 379
#     4  11  20  37  62  92 122 162 202 259 313 368
#
# _framework density 20.613596999999999
#
# number of rings (size 3 to 8) (size 9 to 14) (size 15 to 20)
#    0.857    1.143    0.000    5.143    0.000    3.429 
#    2.571    0.000    0.000    0.000    0.000    0.000 
#    0.000    0.000    0.000    0.000    0.000    0.000 
#
# Total GULP energy -346867.265430 kJ/mol
# GULP energy per Si atom -12388.116623 kJ/mol
# Density = 2.056668 g / cm^3
# Si number density = 20.613597 Si / 1000 Ang^3
#
#
#
# Elastic Constant Matrix: (Units=GPa)
#
#
# Indices 1 2 3 4 5 6 
#
# 1 122.6486 34.5286 68.1928 0.0000 0.0000 0.0000
# 2 34.5286 102.4842 30.4959 0.0000 0.0000 0.0000
# 3 68.1928 30.4959 104.3608 0.0000 0.0000 0.0000
# 4 0.0000 0.0000 0.0000 17.7419 0.0000 0.0000
# 5 0.0000 0.0000 0.0000 0.0000 31.7713 0.0000
# 6 0.0000 0.0000 0.0000 0.0000 0.0000 34.2432
#
#
#
# Elastic Compliance Matrix: (Units=1/GPa)
#
#
# Indices 1 2 3 4 5 6 
#
# 1 0.013191 -0.002058 -0.008018 0.000000 0.000000 0.000000
# 2 -0.002058 0.011008 -0.001872 0.000000 0.000000 0.000000
# 3 -0.008018 -0.001872 0.015368 0.000000 0.000000 0.000000
# 4 0.000000 0.000000 0.000000 0.056364 0.000000 0.000000
# 5 0.000000 0.000000 0.000000 0.000000 0.031475 0.000000
# 6 0.000000 0.000000 0.000000 0.000000 0.000000 0.029203
#
#
# Mechanical properties :
#
#
# Convention : Reuss Voigt Hill
#
# Bulk Modulus (GPa) = 63.81115 66.21423 65.01269
# Shear Modulus (GPa) = 26.92110 29.83639 28.37874
#
# Velocity S-wave (km/s) = 3.61777 3.80862 3.71442
# Velocity P-wave (km/s) = 6.96233 7.17859 7.07128
#
# Compressibility (1/GPa) = 0.01567124
#
# Stress axis : x y z
#
# Youngs Moduli (GPa) = 75.81071 90.84255 65.06957
#
# Poissons Ratio (x) = 0.18699 0.52171
# Poissons Ratio (y) = 0.15605 0.12179
# Poissons Ratio (z) = 0.60783 0.17003
#
# Static dielectric constant tensor:
#      x y z
#    x 3.894820 0.000000 0.000000 
#    y 0.000000 5.703050 0.000000 
#    z 0.000000 0.000000 3.360450 
# 
# 
# High freq. dielectric constant tensor:
#      x y z
#    x 1.800180 0.000000 0.000000 
#    y 0.000000 1.848320 0.000000 
#    z 0.000000 0.000000 1.761870 
# 
# From -- ./inp_files/19957.got.cif
#   From: 2010.03.12/outbox.cif.g09.slc.cpg/sg54_10_cif.got.tgz:19957.got - 2010.04.16 15:00:50.
