data_PCOD8223198
_publ_section_title
;
Structure prediction by ZEFSAII (Michael W. Deem and Ramdas Pophale) SiO2 
 PCOD8223198
Probable space group: P C C A
;
_chemical_formula_sum "Si O2"
_cell_formula_units_Z 32
_cell_length_a 5.207160
_cell_length_b 7.872230
_cell_length_c 34.312619
_cell_angle_alpha 90.000000
_cell_angle_beta 90.000000
_cell_angle_gamma 90.000000
_cell_volume 1406.541546
_symmetry_space_group_name_H-M "P C C A"
_symmetry_group_IT_number 54
_symmetry_cell_setting 'orthorhombic'
loop_
_space_group_symop_operation_xyz
x,y,z
1/2-x,-y,z
1/2+x,-y,1/2-z
-x,y,1/2-z
-x,-y,-z
1/2+x,y,-z
1/2-x,y,1/2+z
x,-y,1/2+z
loop_
_atom_site_type_symbol
_atom_site_label
_atom_site_fract_x
_atom_site_fract_y
_atom_site_fract_z
Si Si1 0.248448 0.805120 0.230991
Si Si2 0.250710 0.300836 0.403161
Si Si3 0.245547 0.301866 0.144372
Si Si4 0.070135 0.811380 0.984478
O O1 0.500000 0.716056 0.250000
O O2 0.230013 0.796267 0.184612
O O3 0.000000 0.714267 0.250000
O O4 0.250000 0.000000 0.244192
O O5 0.250000 0.500000 0.413994
O O6 0.524656 0.247639 0.384906
O O7 0.028672 0.251882 0.373051
O O8 0.188893 0.190450 0.441379
O O9 0.250000 0.500000 0.153465
O O10 0.790784 0.719880 0.988245
O O11 0.000000 0.000000 0.000000
#
# Coordination Sequence:
#
# PCOD8223198 Si02
#       4
#     8   8   8   8
#     4  10  21  38  58  84 120 154 193 236 286 342
#     4  10  21  38  59  83 117 153 192 241 295 349
#     4  10  21  38  59  88 117 151 197 239 287 349
#     4  10  21  38  56  81 115 147 189 246 285 350
#
# _framework density 22.750838999999999
#
# number of rings (size 3 to 8) (size 9 to 14) (size 15 to 20)
#    0.000    2.000    0.000    3.000    0.000    2.000 
#   13.500    0.000    0.000    0.000    0.000    0.000 
#    0.000    0.000    0.000    0.000    0.000    0.000 
#
# Total GULP energy -396551.368641 kJ/mol
# GULP energy per Si atom -12392.230270 kJ/mol
# Density = 2.269906 g / cm^3
# Si number density = 22.750839 Si / 1000 Ang^3
#
#
#
# Elastic Constant Matrix: (Units=GPa)
#
#
# Indices 1 2 3 4 5 6 
#
# 1 218.5697 22.1760 61.4501 0.0000 0.0000 0.0000
# 2 22.1760 29.7735 24.8220 0.0000 0.0000 0.0000
# 3 61.4501 24.8220 142.9820 0.0000 0.0000 0.0000
# 4 0.0000 0.0000 0.0000 -1.0882 0.0000 0.0000
# 5 0.0000 0.0000 0.0000 0.0000 47.0558 0.0000
# 6 0.0000 0.0000 0.0000 0.0000 0.0000 9.2364
#
#
#
# Elastic Compliance Matrix: (Units=1/GPa)
#
#
# Indices 1 2 3 4 5 6 
#
# 1 0.005349 -0.002417 -0.001879 0.000000 0.000000 0.000000
# 2 -0.002417 0.040363 -0.005968 0.000000 0.000000 0.000000
# 3 -0.001879 -0.005968 0.008838 0.000000 0.000000 0.000000
# 4 0.000000 0.000000 0.000000 -0.918953 0.000000 0.000000
# 5 0.000000 0.000000 0.000000 0.000000 0.021251 0.000000
# 6 0.000000 0.000000 0.000000 0.000000 0.000000 0.108267
#
#
# Mechanical properties :
#
#
# Convention : Reuss Voigt Hill
#
# Bulk Modulus (GPa) = 29.39440 67.58017 48.48729
# Shear Modulus (GPa) = -7.11222 29.89928 11.39353
#
# Velocity S-wave (km/s) = -1.77001 3.62913 2.24028
# Velocity P-wave (km/s) = 2.96158 6.87966 5.29626
#
# Compressibility (1/GPa) = 0.03402009
#
# Stress axis : x y z
#
# Youngs Moduli (GPa) = 186.95916 24.77518 113.15303
#
# Poissons Ratio (x) = 0.05989 0.21263
# Poissons Ratio (y) = 0.45193 0.67532
# Poissons Ratio (z) = 0.35132 0.14786
#
# Static dielectric constant tensor:
#      x y z
#    x 43.996820 0.000000 0.000000 
#    y 0.000000 4.082000 0.000000 
#    z 0.000000 0.000000 3.884360 
# 
# 
# High freq. dielectric constant tensor:
#      x y z
#    x 1.938120 0.000000 0.000000 
#    y 0.000000 1.858000 0.000000 
#    z 0.000000 0.000000 1.896780 
# 
# From -- ./inp_files/26848.got.cif
#   From: 2010.03.12/outbox.cif.g09.slc.cpg/sg54_14_cif.got.tgz:26848.got - 2010.04.16 15:00:50.
