data_PCOD8223835
_publ_section_title
;
Structure prediction by ZEFSAII (Michael W. Deem and Ramdas Pophale) SiO2 
 PCOD8223835
Probable space group: P C C A
;
_chemical_formula_sum "Si O2"
_cell_formula_units_Z 36
_cell_length_a 8.912909
_cell_length_b 18.250154
_cell_length_c 9.735977
_cell_angle_alpha 90.000000
_cell_angle_beta 90.000000
_cell_angle_gamma 90.000000
_cell_volume 1583.673119
_symmetry_space_group_name_H-M "P C C A"
_symmetry_group_IT_number 54
_symmetry_cell_setting 'orthorhombic'
loop_
_space_group_symop_operation_xyz
x,y,z
1/2-x,-y,z
1/2+x,-y,1/2-z
-x,y,1/2-z
-x,-y,-z
1/2+x,y,-z
1/2-x,y,1/2+z
x,-y,1/2+z
loop_
_atom_site_type_symbol
_atom_site_label
_atom_site_fract_x
_atom_site_fract_y
_atom_site_fract_z
Si Si1 0.250000 0.500000 0.003962
Si Si2 0.288094 0.168671 0.993952
Si Si3 0.962942 0.735125 0.087831
Si Si4 0.317393 0.078064 0.249107
Si Si5 0.506837 0.599917 0.100562
O O1 0.371742 0.541389 0.097582
O O2 0.334429 0.441228 0.908848
O O3 0.457816 0.197579 0.007121
O O4 0.250069 0.137629 0.144307
O O5 0.207751 0.243518 0.943526
O O6 0.256498 0.101132 0.893061
O O7 0.000000 0.734008 0.250000
O O8 0.997208 0.656290 0.025060
O O9 0.500000 0.077055 0.250000
O O10 0.250000 0.000000 0.208584
O O11 0.500000 0.639177 0.250000
#
# Coordination Sequence:
#
# PCOD8223835 Si02
#       5
#     4   8   8   8   8
#     4  10  24  46  68 106 150 174 230 296 342 416
#     4  12  24  48  70  98 148 178 234 292 348 406
#     4  12  27  47  67 105 141 186 238 291 341 418
#     4  12  28  48  72 108 138 181 234 290 348 419
#     4  11  25  43  74 105 139 188 235 282 354 410
#
# _framework density 22.731964999999999
#
# number of rings (size 3 to 8) (size 9 to 14) (size 15 to 20)
#    0.000    0.444    4.444    2.667    6.222   10.667 
#    0.000    0.000    0.000    0.000    0.000    0.000 
#    0.000    0.000    0.000    0.000    0.000    0.000 
#
# Total GULP energy -446179.656952 kJ/mol
# GULP energy per Si atom -12393.879360 kJ/mol
# Density = 2.268023 g / cm^3
# Si number density = 22.731965 Si / 1000 Ang^3
#
#
#
# Elastic Constant Matrix: (Units=GPa)
#
#
# Indices 1 2 3 4 5 6 
#
# 1 61.6166 18.8167 36.5773 0.0000 0.0000 0.0000
# 2 18.8167 104.6777 31.0500 0.0000 0.0000 0.0000
# 3 36.5773 31.0500 126.9421 0.0000 0.0000 0.0000
# 4 0.0000 0.0000 0.0000 31.1250 0.0000 0.0000
# 5 0.0000 0.0000 0.0000 0.0000 23.2959 0.0000
# 6 0.0000 0.0000 0.0000 0.0000 0.0000 31.6940
#
#
#
# Elastic Compliance Matrix: (Units=1/GPa)
#
#
# Indices 1 2 3 4 5 6 
#
# 1 0.019971 -0.002030 -0.005258 0.000000 0.000000 0.000000
# 2 -0.002030 0.010507 -0.001985 0.000000 0.000000 0.000000
# 3 -0.005258 -0.001985 0.009878 0.000000 0.000000 0.000000
# 4 0.000000 0.000000 0.000000 0.032129 0.000000 0.000000
# 5 0.000000 0.000000 0.000000 0.000000 0.042926 0.000000
# 6 0.000000 0.000000 0.000000 0.000000 0.000000 0.031552
#
#
# Mechanical properties :
#
#
# Convention : Reuss Voigt Hill
#
# Bulk Modulus (GPa) = 45.85149 51.79160 48.82155
# Shear Modulus (GPa) = 28.93893 31.00913 29.97403
#
# Velocity S-wave (km/s) = 3.57185 3.69741 3.63517
# Velocity P-wave (km/s) = 6.10124 6.40787 6.25643
#
# Compressibility (1/GPa) = 0.02180954
#
# Stress axis : x y z
#
# Youngs Moduli (GPa) = 50.07371 95.17567 101.23403
#
# Poissons Ratio (x) = 0.19324 0.53226
# Poissons Ratio (y) = 0.10166 0.20095
# Poissons Ratio (z) = 0.26327 0.18892
#
# Static dielectric constant tensor:
#      x y z
#    x 4.229350 0.000000 0.000000 
#    y 0.000000 4.048880 0.000000 
#    z 0.000000 0.000000 4.023570 
# 
# 
# High freq. dielectric constant tensor:
#      x y z
#    x 1.904890 0.000000 0.000000 
#    y 0.000000 1.903340 0.000000 
#    z 0.000000 0.000000 1.900320 
# 
# From -- ./inp_files/2493.got.cif
#   From: 2010.03.12/outbox.cif.g09.slc.cpg/sg54_2_cif.got.tgz:2493.got - 2010.04.16 15:00:50.
