data_PCOD8223777
_publ_section_title
;
Structure prediction by ZEFSAII (Michael W. Deem and Ramdas Pophale) SiO2 
 PCOD8223777
Probable space group: P C C A
;
_chemical_formula_sum "Si O2"
_cell_formula_units_Z 40
_cell_length_a 8.757883
_cell_length_b 20.165734
_cell_length_c 10.177016
_cell_angle_alpha 90.000000
_cell_angle_beta 90.000000
_cell_angle_gamma 90.000000
_cell_volume 1797.354033
_symmetry_space_group_name_H-M "P C C A"
_symmetry_group_IT_number 54
_symmetry_cell_setting 'orthorhombic'
loop_
_space_group_symop_operation_xyz
x,y,z
1/2-x,-y,z
1/2+x,-y,1/2-z
-x,y,1/2-z
-x,-y,-z
1/2+x,y,-z
1/2-x,y,1/2+z
x,-y,1/2+z
loop_
_atom_site_type_symbol
_atom_site_label
_atom_site_fract_x
_atom_site_fract_y
_atom_site_fract_z
Si Si1 0.592975 0.877003 0.440377
Si Si2 0.481923 0.556832 0.893759
Si Si3 0.995269 0.735691 0.895756
Si Si4 0.259699 0.646175 0.505416
Si Si5 0.712874 0.925333 0.178901
O O1 0.547179 0.801154 0.477001
O O2 0.710705 0.882850 0.315849
O O3 0.446836 0.920412 0.398928
O O4 0.657076 0.901877 0.578611
O O5 0.500000 0.524280 0.750000
O O6 0.615405 0.611071 0.903960
O O7 0.500000 0.500000 0.000000
O O8 0.317047 0.592328 0.907523
O O9 0.874037 0.676043 0.905178
O O10 0.000000 0.763213 0.750000
O O11 0.162117 0.707275 0.930140
O O12 0.750000 0.000000 0.220757
#
# Coordination Sequence:
#
# PCOD8223777 Si02
#       5
#     8   8   8   8   8
#     4  11  24  42  65  97 127 176 218 270 333 382
#     4  11  24  43  66  99 131 168 214 259 321 382
#     4  11  21  41  64  88 130 165 221 265 319 386
#     4  10  24  40  65  94 127 172 211 267 318 376
#     4  11  23  42  65  95 133 168 221 271 329 393
#
# _framework density 22.254937999999999
#
# number of rings (size 3 to 8) (size 9 to 14) (size 15 to 20)
#    0.000    1.200    2.000    4.200    0.000    8.800 
#    0.000    0.000    0.000    0.000    0.000    0.000 
#    0.000    0.000    0.000    0.000    0.000    0.000 
#
# Total GULP energy -495964.380466 kJ/mol
# GULP energy per Si atom -12399.109512 kJ/mol
# Density = 2.220428 g / cm^3
# Si number density = 22.254938 Si / 1000 Ang^3
#
#
#
# Elastic Constant Matrix: (Units=GPa)
#
#
# Indices 1 2 3 4 5 6 
#
# 1 86.6514 33.0914 15.6130 0.0000 0.0000 0.0000
# 2 33.0914 127.1139 40.9504 0.0000 0.0000 0.0000
# 3 15.6130 40.9504 92.4623 0.0000 0.0000 0.0000
# 4 0.0000 0.0000 0.0000 28.8169 0.0000 0.0000
# 5 0.0000 0.0000 0.0000 0.0000 28.7646 0.0000
# 6 0.0000 0.0000 0.0000 0.0000 0.0000 35.1074
#
#
#
# Elastic Compliance Matrix: (Units=1/GPa)
#
#
# Indices 1 2 3 4 5 6 
#
# 1 0.012865 -0.003090 -0.000804 0.000000 0.000000 0.000000
# 2 -0.003090 0.009919 -0.003871 0.000000 0.000000 0.000000
# 3 -0.000804 -0.003871 0.012665 0.000000 0.000000 0.000000
# 4 0.000000 0.000000 0.000000 0.034702 0.000000 0.000000
# 5 0.000000 0.000000 0.000000 0.000000 0.034765 0.000000
# 6 0.000000 0.000000 0.000000 0.000000 0.000000 0.028484
#
#
# Mechanical properties :
#
#
# Convention : Reuss Voigt Hill
#
# Bulk Modulus (GPa) = 50.20274 53.94858 52.07566
# Shear Modulus (GPa) = 32.13987 32.97596 32.55791
#
# Velocity S-wave (km/s) = 3.80434 3.85351 3.82901
# Velocity P-wave (km/s) = 6.47336 6.64027 6.55734
#
# Compressibility (1/GPa) = 0.01991923
#
# Stress axis : x y z
#
# Youngs Moduli (GPa) = 77.72733 100.82159 78.95562
#
# Poissons Ratio (x) = 0.31157 0.06346
# Poissons Ratio (y) = 0.24020 0.30563
# Poissons Ratio (z) = 0.06248 0.39028
#
# Static dielectric constant tensor:
#      x y z
#    x 4.272970 0.000000 0.000000 
#    y 0.000000 3.938680 0.000000 
#    z 0.000000 0.000000 3.895790 
# 
# 
# High freq. dielectric constant tensor:
#      x y z
#    x 1.883290 0.000000 0.000000 
#    y 0.000000 1.884090 0.000000 
#    z 0.000000 0.000000 1.865640 
# 
# From -- ./inp_files/6858.got.cif
#   From: 2010.03.12/outbox.cif.g09.slc.cpg/sg54_4_cif.got.tgz:6858.got - 2010.04.16 15:00:50.
