data_PCOD8223558
_publ_section_title
;
Structure prediction by ZEFSAII (Michael W. Deem and Ramdas Pophale) SiO2 
 PCOD8223558
Probable space group: P C C A
;
_chemical_formula_sum "Si O2"
_cell_formula_units_Z 48
_cell_length_a 16.729763
_cell_length_b 15.015338
_cell_length_c 8.945786
_cell_angle_alpha 90.000000
_cell_angle_beta 90.000000
_cell_angle_gamma 90.000000
_cell_volume 2247.208693
_symmetry_space_group_name_H-M "P C C A"
_symmetry_group_IT_number 54
_symmetry_cell_setting 'orthorhombic'
loop_
_space_group_symop_operation_xyz
x,y,z
1/2-x,-y,z
1/2+x,-y,1/2-z
-x,y,1/2-z
-x,-y,-z
1/2+x,y,-z
1/2-x,y,1/2+z
x,-y,1/2+z
loop_
_atom_site_type_symbol
_atom_site_label
_atom_site_fract_x
_atom_site_fract_y
_atom_site_fract_z
Si Si1 0.583932 0.573120 0.164818
Si Si2 0.911267 0.919689 0.440370
Si Si3 0.649857 0.240711 0.610972
Si Si4 0.667300 0.450053 0.958189
Si Si5 0.902372 0.910258 0.107645
Si Si6 0.814959 0.751715 0.957021
O O1 0.500000 0.572775 0.250000
O O2 0.599936 0.668492 0.087976
O O3 0.654362 0.549239 0.280820
O O4 0.591682 0.498519 0.036659
O O5 0.906474 0.839291 0.559030
O O6 0.869764 0.906934 0.278170
O O7 0.003957 0.927970 0.402935
O O8 0.867734 0.005207 0.515985
O O9 0.677565 0.233484 0.780916
O O10 0.724285 0.230557 0.500486
O O11 0.750000 0.500000 0.996360
O O12 0.665774 0.348155 0.012754
O O13 0.877073 0.817293 0.035158
#
# Coordination Sequence:
#
# PCOD8223558 Si02
#       6
#     8   8   8   8   8   8
#     4  11  25  42  65  97 130 172 223 279 341 401
#     4  10  22  41  67  96 134 173 210 275 320 404
#     4  11  24  40  65  93 132 169 220 273 331 394
#     4  11  23  43  66  92 131 177 219 274 331 405
#     4  10  22  42  66  98 131 173 220 258 337 388
#     4  11  24  40  64  95 126 175 219 273 327 399
#
# _framework density 21.359832999999998
#
# number of rings (size 3 to 8) (size 9 to 14) (size 15 to 20)
#    0.000    1.333    1.667    3.000    7.000    3.333 
#    3.000    3.333    0.000    0.000    0.000    0.000 
#    0.000    0.000    0.000    0.000    0.000    0.000 
#
# Total GULP energy -595100.235654 kJ/mol
# GULP energy per Si atom -12397.921576 kJ/mol
# Density = 2.131122 g / cm^3
# Si number density = 21.359833 Si / 1000 Ang^3
#
#
#
# Elastic Constant Matrix: (Units=GPa)
#
#
# Indices 1 2 3 4 5 6 
#
# 1 50.0880 23.8924 20.6221 0.0000 0.0000 0.0000
# 2 23.8924 172.3292 72.4970 0.0000 0.0000 0.0000
# 3 20.6221 72.4970 116.7551 0.0000 0.0000 0.0000
# 4 0.0000 0.0000 0.0000 38.5839 0.0000 0.0000
# 5 0.0000 0.0000 0.0000 0.0000 34.0098 0.0000
# 6 0.0000 0.0000 0.0000 0.0000 0.0000 33.9232
#
#
#
# Elastic Compliance Matrix: (Units=1/GPa)
#
#
# Indices 1 2 3 4 5 6 
#
# 1 0.021988 -0.001915 -0.002695 0.000000 0.000000 0.000000
# 2 -0.001915 0.008021 -0.004643 0.000000 0.000000 0.000000
# 3 -0.002695 -0.004643 0.011924 0.000000 0.000000 0.000000
# 4 0.000000 0.000000 0.000000 0.025918 0.000000 0.000000
# 5 0.000000 0.000000 0.000000 0.000000 0.029403 0.000000
# 6 0.000000 0.000000 0.000000 0.000000 0.000000 0.029478
#
#
# Mechanical properties :
#
#
# Convention : Reuss Voigt Hill
#
# Bulk Modulus (GPa) = 42.68283 63.68837 53.18560
# Shear Modulus (GPa) = 32.67006 36.11411 34.39209
#
# Velocity S-wave (km/s) = 3.91514 4.11633 4.01699
# Velocity P-wave (km/s) = 6.36112 7.24389 6.81681
#
# Compressibility (1/GPa) = 0.02342863
#
# Stress axis : x y z
#
# Youngs Moduli (GPa) = 45.48005 124.66671 83.86748
#
# Poissons Ratio (x) = 0.23872 0.22599
# Poissons Ratio (y) = 0.08709 0.38936
# Poissons Ratio (z) = 0.12255 0.57877
#
# Static dielectric constant tensor:
#      x y z
#    x 3.580160 0.000000 0.000000 
#    y 0.000000 4.034810 0.000000 
#    z 0.000000 0.000000 4.161670 
# 
# 
# High freq. dielectric constant tensor:
#      x y z
#    x 1.823020 0.000000 0.000000 
#    y 0.000000 1.850080 0.000000 
#    z 0.000000 0.000000 1.851210 
# 
# From -- ./inp_files/4206.got.cif
#   From: 2010.03.12/outbox.cif.g09.slc.cpg/sg54_3_cif.got.tgz:4206.got - 2010.04.16 15:00:50.
