data_PCOD8223715
_publ_section_title
;
Structure prediction by ZEFSAII (Michael W. Deem and Ramdas Pophale) SiO2 
 PCOD8223715
Probable space group: P C C A
;
_chemical_formula_sum "Si O2"
_cell_formula_units_Z 64
_cell_length_a 16.369477
_cell_length_b 14.754254
_cell_length_c 11.723371
_cell_angle_alpha 90.000000
_cell_angle_beta 90.000000
_cell_angle_gamma 90.000000
_cell_volume 2831.421782
_symmetry_space_group_name_H-M "P C C A"
_symmetry_group_IT_number 54
_symmetry_cell_setting 'orthorhombic'
loop_
_space_group_symop_operation_xyz
x,y,z
1/2-x,-y,z
1/2+x,-y,1/2-z
-x,y,1/2-z
-x,-y,-z
1/2+x,y,-z
1/2-x,y,1/2+z
x,-y,1/2+z
loop_
_atom_site_type_symbol
_atom_site_label
_atom_site_fract_x
_atom_site_fract_y
_atom_site_fract_z
Si Si1 0.904153 0.605210 0.530959
Si Si2 0.191819 0.918590 0.643664
Si Si3 0.067716 0.201160 0.535306
Si Si4 0.429561 0.942659 0.335660
Si Si5 0.208149 0.592571 0.765278
Si Si6 0.901538 0.867040 0.076517
Si Si7 0.557047 0.528977 0.350478
Si Si8 0.807073 0.776082 0.267927
O O1 0.898644 0.712821 0.531313
O O2 0.826342 0.577349 0.606789
O O3 0.895628 0.555385 0.409191
O O4 0.996108 0.582320 0.568233
O O5 0.154261 0.943048 0.765795
O O6 0.125708 0.902992 0.546307
O O7 0.237300 0.824381 0.660298
O O8 0.250000 0.000000 0.603683
O O9 0.082586 0.115075 0.451976
O O10 0.111895 0.205867 0.657816
O O11 0.971372 0.208802 0.561870
O O12 0.500000 0.905321 0.250000
O O13 0.446195 0.047263 0.365061
O O14 0.250000 0.500000 0.727686
O O15 0.125407 0.602423 0.689449
O O16 0.273830 0.673716 0.751262
O O17 0.826066 0.823027 0.145926
O O18 0.500000 0.488651 0.250000
#
# Coordination Sequence:
#
# PCOD8223715 Si02
#       8
#     8   8   8   8   8   8   8   8
#     4  10  23  42  72 101 136 186 240 293 362 440
#     4  12  27  46  72 103 145 188 231 304 360 427
#     4  12  26  45  74 101 142 189 244 296 351 438
#     4  12  25  47  71 101 139 189 243 291 363 432
#     4  11  25  45  70 103 145 187 237 304 365 434
#     4  12  28  47  71 103 141 193 242 294 362 436
#     4   9  21  44  71 100 137 183 236 294 371 438
#     4  12  28  45  72 106 146 185 243 300 367 431
#
# _framework density 22.603486
#
# number of rings (size 3 to 8) (size 9 to 14) (size 15 to 20)
#    0.000    0.750    2.500    3.750    7.000    7.000 
#    0.000    0.000    0.000    0.000    0.000    0.000 
#    0.000    0.000    0.000    0.000    0.000    0.000 
#
# Total GULP energy -793250.763645 kJ/mol
# GULP energy per Si atom -12394.543182 kJ/mol
# Density = 2.255204 g / cm^3
# Si number density = 22.603486 Si / 1000 Ang^3
#
#
#
# Elastic Constant Matrix: (Units=GPa)
#
#
# Indices 1 2 3 4 5 6 
#
# 1 88.4578 12.8828 34.8687 0.0000 0.0000 0.0000
# 2 12.8828 91.5211 28.6729 0.0000 0.0000 0.0000
# 3 34.8687 28.6729 104.1314 0.0000 0.0000 0.0000
# 4 0.0000 0.0000 0.0000 33.3647 0.0000 0.0000
# 5 0.0000 0.0000 0.0000 0.0000 -18.0200 0.0000
# 6 0.0000 0.0000 0.0000 0.0000 0.0000 35.2878
#
#
#
# Elastic Compliance Matrix: (Units=1/GPa)
#
#
# Indices 1 2 3 4 5 6 
#
# 1 0.013046 -0.000512 -0.004227 0.000000 0.000000 0.000000
# 2 -0.000512 0.011978 -0.003127 0.000000 0.000000 0.000000
# 3 -0.004227 -0.003127 0.011880 0.000000 0.000000 0.000000
# 4 0.000000 0.000000 0.000000 0.029972 0.000000 0.000000
# 5 0.000000 0.000000 0.000000 0.000000 -0.055494 0.000000
# 6 0.000000 0.000000 0.000000 0.000000 0.000000 0.028338
#
#
# Mechanical properties :
#
#
# Convention : Reuss Voigt Hill
#
# Bulk Modulus (GPa) = 47.23369 48.55101 47.89235
# Shear Modulus (GPa) = 79.98782 23.97222 51.98002
#
# Velocity S-wave (km/s) = 5.95518 3.26015 4.80067
# Velocity P-wave (km/s) = 8.26000 5.97474 7.20851
#
# Compressibility (1/GPa) = 0.02117133
#
# Stress axis : x y z
#
# Youngs Moduli (GPa) = 76.65311 83.48571 84.17649
#
# Poissons Ratio (x) = 0.04274 0.35585
# Poissons Ratio (y) = 0.03924 0.26320
# Poissons Ratio (z) = 0.32405 0.26104
#
# Static dielectric constant tensor:
#      x y z
#    x 4.223790 0.000000 0.000000 
#    y 0.000000 3.944730 0.000000 
#    z 0.000000 0.000000 4.234030 
# 
# 
# High freq. dielectric constant tensor:
#      x y z
#    x 1.901590 0.000000 0.000000 
#    y 0.000000 1.880850 0.000000 
#    z 0.000000 0.000000 1.901450 
# 
# From -- ./inp_files/9092.got.cif
#   From: 2010.03.12/outbox.cif.g09.slc.cpg/sg54_5_cif.got.tgz:9092.got - 2010.04.16 15:00:50.
