data_PCOD8223089
_publ_section_title
;
Structure prediction by ZEFSAII (Michael W. Deem and Ramdas Pophale) SiO2 
 PCOD8223089
Probable space group: P C C A
;
_chemical_formula_sum "Si O2"
_cell_formula_units_Z 32
_cell_length_a 8.107744
_cell_length_b 8.644769
_cell_length_c 19.620992
_cell_angle_alpha 90.000000
_cell_angle_beta 90.000000
_cell_angle_gamma 90.000000
_cell_volume 1375.226971
_symmetry_space_group_name_H-M "P C C A"
_symmetry_group_IT_number 54
_symmetry_cell_setting 'orthorhombic'
loop_
_space_group_symop_operation_xyz
x,y,z
1/2-x,-y,z
1/2+x,-y,1/2-z
-x,y,1/2-z
-x,-y,-z
1/2+x,y,-z
1/2-x,y,1/2+z
x,-y,1/2+z
loop_
_atom_site_type_symbol
_atom_site_label
_atom_site_fract_x
_atom_site_fract_y
_atom_site_fract_z
Si Si1 0.000000 0.277778 0.750000
Si Si2 0.861197 0.857073 0.013090
Si Si3 0.417084 0.738745 0.397764
Si Si4 0.250000 0.500000 0.809706
Si Si5 0.940118 0.964747 0.363904
O O1 0.836104 0.378639 0.740492
O O2 0.989901 0.176408 0.817315
O O3 0.755602 0.748984 0.062598
O O4 0.015680 0.924976 0.056865
O O5 0.750000 0.000000 0.986358
O O6 0.927532 0.748670 0.950783
O O7 0.396217 0.580718 0.354856
O O8 0.447835 0.883656 0.346022
O O9 0.750000 0.000000 0.353412
#
# Coordination Sequence:
#
# PCOD8223089 Si02
#       5
#     4   8   8   4   8
#     4  12  30  50  68  98 142 196 242 294 340 428
#     4  10  20  42  72 110 141 173 240 294 350 414
#     4  11  23  44  73 106 141 182 230 299 354 427
#     4  12  30  50  64 104 148 186 236 294 362 418
#     4  11  24  43  76 103 132 190 242 287 344 417
#
# _framework density 23.268885999999998
#
# number of rings (size 3 to 8) (size 9 to 14) (size 15 to 20)
#    0.000    1.000    2.500    5.250    7.000    1.000 
#    0.000    0.000    0.000    0.000    0.000    0.000 
#    0.000    0.000    0.000    0.000    0.000    0.000 
#
# Total GULP energy -396586.001965 kJ/mol
# GULP energy per Si atom -12393.312561 kJ/mol
# Density = 2.321592 g / cm^3
# Si number density = 23.268886 Si / 1000 Ang^3
#
#
#
# Elastic Constant Matrix: (Units=GPa)
#
#
# Indices 1 2 3 4 5 6 
#
# 1 113.3537 42.2981 49.2283 0.0000 0.0000 0.0000
# 2 42.2981 124.5905 66.5309 0.0000 0.0000 0.0000
# 3 49.2283 66.5309 92.5564 0.0000 0.0000 0.0000
# 4 0.0000 0.0000 0.0000 -311.9328 0.0000 0.0000
# 5 0.0000 0.0000 0.0000 0.0000 21.0868 0.0000
# 6 0.0000 0.0000 0.0000 0.0000 0.0000 43.5758
#
#
#
# Elastic Compliance Matrix: (Units=1/GPa)
#
#
# Indices 1 2 3 4 5 6 
#
# 1 0.011554 -0.001040 -0.005398 0.000000 0.000000 0.000000
# 2 -0.001040 0.013120 -0.008878 0.000000 0.000000 0.000000
# 3 -0.005398 -0.008878 0.020056 0.000000 0.000000 0.000000
# 4 0.000000 0.000000 0.000000 -0.003206 0.000000 0.000000
# 5 0.000000 0.000000 0.000000 0.000000 0.047423 0.000000
# 6 0.000000 0.000000 0.000000 0.000000 0.000000 0.022949
#
#
# Mechanical properties :
#
#
# Convention : Reuss Voigt Hill
#
# Bulk Modulus (GPa) = 70.92343 71.84614 71.38479
# Shear Modulus (GPa) = 33.96106 -37.95783 -1.99838
#
# Velocity S-wave (km/s) = 3.82449 -4.04328 -0.92773
# Velocity P-wave (km/s) = 7.07449 3.02424 5.44033
#
# Compressibility (1/GPa) = 0.01409971
#
# Stress axis : x y z
#
# Youngs Moduli (GPa) = 86.54807 76.21900 49.85935
#
# Poissons Ratio (x) = 0.07929 0.26912
# Poissons Ratio (y) = 0.09004 0.44263
# Poissons Ratio (z) = 0.46715 0.67664
#
# Static dielectric constant tensor:
#      x y z
#    x 4.615910 0.000000 0.000000 
#    y 0.000000 4.103970 0.000000 
#    z 0.000000 0.000000 4.192700 
# 
# 
# High freq. dielectric constant tensor:
#      x y z
#    x 1.943790 0.000000 0.000000 
#    y 0.000000 1.897960 0.000000 
#    z 0.000000 0.000000 1.918980 
# 
# From -- ./inp_files/20083.got.cif
#   From: 2010.03.12/outbox.cif.g09.slc.cpg/sg54_11_cif.got.tgz:20083.got - 2010.04.16 15:00:50.
