data_PCOD8223445
_publ_section_title
;
Structure prediction by ZEFSAII (Michael W. Deem and Ramdas Pophale) SiO2 
 PCOD8223445
Probable space group: P C C A
;
_chemical_formula_sum "Si O2"
_cell_formula_units_Z 48
_cell_length_a 30.050293
_cell_length_b 9.001732
_cell_length_c 8.239211
_cell_angle_alpha 90.000000
_cell_angle_beta 90.000000
_cell_angle_gamma 90.000000
_cell_volume 2228.745169
_symmetry_space_group_name_H-M "P C C A"
_symmetry_group_IT_number 54
_symmetry_cell_setting 'orthorhombic'
loop_
_space_group_symop_operation_xyz
x,y,z
1/2-x,-y,z
1/2+x,-y,1/2-z
-x,y,1/2-z
-x,-y,-z
1/2+x,y,-z
1/2-x,y,1/2+z
x,-y,1/2+z
loop_
_atom_site_type_symbol
_atom_site_label
_atom_site_fract_x
_atom_site_fract_y
_atom_site_fract_z
Si Si1 0.607343 0.957298 0.329574
Si Si2 0.084293 0.468483 0.674101
Si Si3 0.063412 0.190533 0.471192
Si Si4 0.000000 0.669489 0.750000
Si Si5 0.690930 0.135219 0.197822
Si Si6 0.750000 0.000000 0.937415
Si Si7 0.372315 0.318305 0.464578
O O1 0.594549 0.857758 0.177311
O O2 0.615862 0.850094 0.483744
O O3 0.567103 0.068412 0.385384
O O4 0.650844 0.050981 0.287315
O O5 0.080463 0.349210 0.531536
O O6 0.126663 0.573171 0.621572
O O7 0.090926 0.385375 0.843587
O O8 0.040301 0.569082 0.685997
O O9 0.014055 0.221046 0.399283
O O10 0.674271 0.299097 0.136373
O O11 0.732409 0.137493 0.323907
O O12 0.707502 0.050392 0.038171
#
# Coordination Sequence:
#
# PCOD8223445 Si02
#       7
#     8   8   8   4   8   4   8
#     4  12  22  42  68 102 129 173 228 282 326 401
#     4  12  25  44  67  92 130 189 230 271 334 398
#     4  12  24  42  65  95 134 173 233 279 344 384
#     4  12  26  42  66  90 136 176 242 282 338 396
#     4  11  21  40  69 104 134 161 215 264 331 403
#     4  10  22  38  68 110 136 166 190 280 346 388
#     4  12  23  43  69  98 131 180 230 265 328 409
#
# _framework density 21.536781999999999
#
# number of rings (size 3 to 8) (size 9 to 14) (size 15 to 20)
#    0.000    0.333    8.333    0.500    0.000    0.667 
#    0.000    1.667    0.000    3.000    0.000    0.000 
#    0.000    0.000    0.000    0.000    0.000    0.000 
#
# Total GULP energy -594633.021404 kJ/mol
# GULP energy per Si atom -12388.187946 kJ/mol
# Density = 2.148776 g / cm^3
# Si number density = 21.536782 Si / 1000 Ang^3
#
#
#
# Elastic Constant Matrix: (Units=GPa)
#
#
# Indices 1 2 3 4 5 6 
#
# 1 70.5721 40.9364 41.3010 0.0000 0.0000 0.0000
# 2 40.9364 87.0295 41.4292 0.0000 0.0000 0.0000
# 3 41.3010 41.4292 101.8137 0.0000 0.0000 0.0000
# 4 0.0000 0.0000 0.0000 41.8448 0.0000 0.0000
# 5 0.0000 0.0000 0.0000 0.0000 35.3600 0.0000
# 6 0.0000 0.0000 0.0000 0.0000 0.0000 30.5479
#
#
#
# Elastic Compliance Matrix: (Units=1/GPa)
#
#
# Indices 1 2 3 4 5 6 
#
# 1 0.021968 -0.007554 -0.005837 0.000000 0.000000 0.000000
# 2 -0.007554 0.016849 -0.003791 0.000000 0.000000 0.000000
# 3 -0.005837 -0.003791 0.013733 0.000000 0.000000 0.000000
# 4 0.000000 0.000000 0.000000 0.023898 0.000000 0.000000
# 5 0.000000 0.000000 0.000000 0.000000 0.028281 0.000000
# 6 0.000000 0.000000 0.000000 0.000000 0.000000 0.032735
#
#
# Mechanical properties :
#
#
# Convention : Reuss Voigt Hill
#
# Bulk Modulus (GPa) = 54.99702 56.30538 55.65120
# Shear Modulus (GPa) = 28.10709 30.60043 29.35376
#
# Velocity S-wave (km/s) = 3.61650 3.77350 3.69583
# Velocity P-wave (km/s) = 6.55977 6.72208 6.64142
#
# Compressibility (1/GPa) = 0.01818280
#
# Stress axis : x y z
#
# Youngs Moduli (GPa) = 45.52028 59.35198 72.81925
#
# Poissons Ratio (x) = 0.44837 0.42508
# Poissons Ratio (y) = 0.34388 0.27609
# Poissons Ratio (z) = 0.26572 0.22503
#
# Static dielectric constant tensor:
#      x y z
#    x 3.791600 0.000000 0.000000 
#    y 0.000000 4.106190 0.000000 
#    z 0.000000 0.000000 4.308760 
# 
# 
# High freq. dielectric constant tensor:
#      x y z
#    x 1.815130 0.000000 0.000000 
#    y 0.000000 1.835450 0.000000 
#    z 0.000000 0.000000 1.877740 
# 
# From -- ./inp_files/5883.got.cif
#   From: 2010.03.12/outbox.cif.g09.slc.cpg/sg54_3_cif.got.tgz:5883.got - 2010.04.16 15:00:50.
