data_PCOD8223484
_publ_section_title
;
Structure prediction by ZEFSAII (Michael W. Deem and Ramdas Pophale) SiO2 
 PCOD8223484
Probable space group: P C C A
;
_chemical_formula_sum "Si O2"
_cell_formula_units_Z 28
_cell_length_a 11.780628
_cell_length_b 9.235262
_cell_length_c 11.975580
_cell_angle_alpha 90.000000
_cell_angle_beta 90.000000
_cell_angle_gamma 90.000000
_cell_volume 1302.909406
_symmetry_space_group_name_H-M "P C C A"
_symmetry_group_IT_number 54
_symmetry_cell_setting 'orthorhombic'
loop_
_space_group_symop_operation_xyz
x,y,z
1/2-x,-y,z
1/2+x,-y,1/2-z
-x,y,1/2-z
-x,-y,-z
1/2+x,y,-z
1/2-x,y,1/2+z
x,-y,1/2+z
loop_
_atom_site_type_symbol
_atom_site_label
_atom_site_fract_x
_atom_site_fract_y
_atom_site_fract_z
Si Si1 0.177917 0.866365 0.595453
Si Si2 0.830336 0.630546 0.322028
Si Si3 0.500000 0.018993 0.250000
Si Si4 0.932698 0.720140 0.108780
O O1 0.264816 0.781319 0.672847
O O2 0.078572 0.917089 0.675953
O O3 0.128494 0.748285 0.508210
O O4 0.250000 0.000000 0.541123
O O5 0.750000 0.500000 0.362264
O O6 0.864687 0.611478 0.191569
O O7 0.941333 0.648590 0.402585
O O8 0.567204 0.121478 0.165016
#
# Coordination Sequence:
#
# PCOD8223484 Si02
#       4
#     8   8   4   8
#     4  12  23  38  71  97 130 175 214 278 342 383
#     4  10  24  44  62  91 134 175 214 273 329 391
#     4  10  22  40  60 102 126 162 218 276 316 404
#     4  10  23  41  64  96 134 162 231 272 319 407
#
# _framework density 21.490368
#
# number of rings (size 3 to 8) (size 9 to 14) (size 15 to 20)
#    0.000    1.714    5.714    0.857    4.000    4.571 
#    0.000    0.000    0.000    0.000    0.000    0.000 
#    0.000    0.000    0.000    0.000    0.000    0.000 
#
# Total GULP energy -346939.092230 kJ/mol
# GULP energy per Si atom -12390.681865 kJ/mol
# Density = 2.144145 g / cm^3
# Si number density = 21.490368 Si / 1000 Ang^3
#
#
#
# Elastic Constant Matrix: (Units=GPa)
#
#
# Indices 1 2 3 4 5 6 
#
# 1 121.9048 44.2839 53.8645 0.0000 0.0000 0.0000
# 2 44.2839 80.5089 13.1787 0.0000 0.0000 0.0000
# 3 53.8645 13.1787 56.5618 0.0000 0.0000 0.0000
# 4 0.0000 0.0000 0.0000 -0.2221 0.0000 0.0000
# 5 0.0000 0.0000 0.0000 0.0000 25.1553 0.0000
# 6 0.0000 0.0000 0.0000 0.0000 0.0000 38.6439
#
#
#
# Elastic Compliance Matrix: (Units=1/GPa)
#
#
# Indices 1 2 3 4 5 6 
#
# 1 0.017360 -0.007114 -0.014874 0.000000 0.000000 0.000000
# 2 -0.007114 0.015829 0.003087 0.000000 0.000000 0.000000
# 3 -0.014874 0.003087 0.031126 0.000000 0.000000 0.000000
# 4 0.000000 0.000000 0.000000 -4.502802 0.000000 0.000000
# 5 0.000000 0.000000 0.000000 0.000000 0.039753 0.000000
# 6 0.000000 0.000000 0.000000 0.000000 0.000000 0.025877
#
#
# Mechanical properties :
#
#
# Convention : Reuss Voigt Hill
#
# Bulk Modulus (GPa) = 37.72049 53.51439 45.61744
# Shear Modulus (GPa) = -1.15574 22.55867 10.70146
#
# Velocity S-wave (km/s) = -0.73414 3.24344 2.23393
# Velocity P-wave (km/s) = 4.10753 6.24357 5.28460
#
# Compressibility (1/GPa) = 0.02651079
#
# Stress axis : x y z
#
# Youngs Moduli (GPa) = 57.60480 63.17631 32.12793
#
# Poissons Ratio (x) = 0.44943 0.47788
# Poissons Ratio (y) = 0.40979 -0.09917
# Poissons Ratio (z) = 0.85683 -0.19500
#
# Static dielectric constant tensor:
#      x y z
#    x 5.646200 0.000000 0.000000 
#    y 0.000000 3.678030 0.000000 
#    z 0.000000 0.000000 3.769100 
# 
# 
# High freq. dielectric constant tensor:
#      x y z
#    x 1.859450 0.000000 0.000000 
#    y 0.000000 1.833950 0.000000 
#    z 0.000000 0.000000 1.821650 
# 
# From -- ./inp_files/12114.got.cif
#   From: 2010.03.12/outbox.cif.g09.slc.cpg/sg54_7_cif.got.tgz:12114.got - 2010.04.16 15:00:50.
