data_PCOD8223586
_publ_section_title
;
Structure prediction by ZEFSAII (Michael W. Deem and Ramdas Pophale) SiO2 
 PCOD8223586
Probable space group: P C C A
;
_chemical_formula_sum "Si O2"
_cell_formula_units_Z 40
_cell_length_a 11.903146
_cell_length_b 7.061816
_cell_length_c 23.185291
_cell_angle_alpha 90.000000
_cell_angle_beta 90.000000
_cell_angle_gamma 90.000000
_cell_volume 1948.905177
_symmetry_space_group_name_H-M "P C C A"
_symmetry_group_IT_number 54
_symmetry_cell_setting 'orthorhombic'
loop_
_space_group_symop_operation_xyz
x,y,z
1/2-x,-y,z
1/2+x,-y,1/2-z
-x,y,1/2-z
-x,-y,-z
1/2+x,y,-z
1/2-x,y,1/2+z
x,-y,1/2+z
loop_
_atom_site_type_symbol
_atom_site_label
_atom_site_fract_x
_atom_site_fract_y
_atom_site_fract_z
Si Si1 0.074847 0.308549 0.160704
Si Si2 0.750000 0.500000 0.924964
Si Si3 0.068979 0.694548 0.008943
Si Si4 0.844431 0.349489 0.213539
Si Si5 0.250000 0.000000 0.849628
Si Si6 0.035916 0.010791 0.411775
O O1 0.146828 0.419696 0.112750
O O2 0.146160 0.306275 0.218773
O O3 0.957908 0.412283 0.179428
O O4 0.048443 0.095543 0.137246
O O5 0.805161 0.345248 0.967721
O O6 0.072101 0.804199 0.948665
O O7 0.017819 0.838032 0.055033
O O8 0.000000 0.500000 0.000000
O O9 0.750000 0.500000 0.200509
O O10 0.804225 0.153264 0.190251
O O11 0.350873 0.916724 0.887833
#
# Coordination Sequence:
#
# PCOD8223586 Si02
#       6
#     8   4   8   8   4   8
#     4  10  22  44  62 100 130 170 223 266 332 398
#     4  12  24  40  70  96 132 176 214 276 334 392
#     4  11  25  42  64  97 130 173 223 269 330 400
#     4  10  22  42  67  94 134 169 223 272 322 403
#     4  10  24  38  66  96 124 178 208 272 336 378
#     4  10  24  44  63  93 136 170 223 272 328 399
#
# _framework density 20.524342999999998
#
# number of rings (size 3 to 8) (size 9 to 14) (size 15 to 20)
#    0.000    1.600    3.000    0.000    5.600    2.400 
#    1.800    2.000    0.000    0.000    0.000    0.000 
#    0.000    0.000    0.000    0.000    0.000    0.000 
#
# Total GULP energy -495666.199247 kJ/mol
# GULP energy per Si atom -12391.654981 kJ/mol
# Density = 2.047763 g / cm^3
# Si number density = 20.524343 Si / 1000 Ang^3
#
#
#
# Elastic Constant Matrix: (Units=GPa)
#
#
# Indices 1 2 3 4 5 6 
#
# 1 106.4096 35.6614 32.9869 0.0000 0.0000 0.0000
# 2 35.6614 73.4226 23.0716 0.0000 0.0000 0.0000
# 3 32.9869 23.0716 59.5253 0.0000 0.0000 0.0000
# 4 0.0000 0.0000 0.0000 18.1116 0.0000 0.0000
# 5 0.0000 0.0000 0.0000 0.0000 32.2698 0.0000
# 6 0.0000 0.0000 0.0000 0.0000 0.0000 32.9175
#
#
#
# Elastic Compliance Matrix: (Units=1/GPa)
#
#
# Indices 1 2 3 4 5 6 
#
# 1 0.012498 -0.004434 -0.005207 0.000000 0.000000 0.000000
# 2 -0.004434 0.017082 -0.004164 0.000000 0.000000 0.000000
# 3 -0.005207 -0.004164 0.021299 0.000000 0.000000 0.000000
# 4 0.000000 0.000000 0.000000 0.055213 0.000000 0.000000
# 5 0.000000 0.000000 0.000000 0.000000 0.030989 0.000000
# 6 0.000000 0.000000 0.000000 0.000000 0.000000 0.030379
#
#
# Mechanical properties :
#
#
# Convention : Reuss Voigt Hill
#
# Bulk Modulus (GPa) = 42.97582 46.97748 44.97665
# Shear Modulus (GPa) = 24.65171 26.50228 25.57700
#
# Velocity S-wave (km/s) = 3.46944 3.59731 3.53396
# Velocity P-wave (km/s) = 6.08554 6.33976 6.21395
#
# Compressibility (1/GPa) = 0.02326890
#
# Stress axis : x y z
#
# Youngs Moduli (GPa) = 80.01360 58.54230 46.95028
#
# Poissons Ratio (x) = 0.25957 0.24449
# Poissons Ratio (y) = 0.35477 0.19548
# Poissons Ratio (z) = 0.41666 0.24375
#
# Static dielectric constant tensor:
#      x y z
#    x 4.334780 0.000000 0.000000 
#    y 0.000000 3.499940 0.000000 
#    z 0.000000 0.000000 3.824900 
# 
# 
# High freq. dielectric constant tensor:
#      x y z
#    x 1.814820 0.000000 0.000000 
#    y 0.000000 1.787360 0.000000 
#    z 0.000000 0.000000 1.823290 
# 
# From -- ./inp_files/26063.got.cif
#   From: 2010.03.12/outbox.cif.g09.slc.cpg/sg54_14_cif.got.tgz:26063.got - 2010.04.16 15:00:50.
