data_PCOD8223691
_publ_section_title
;
Structure prediction by ZEFSAII (Michael W. Deem and Ramdas Pophale) SiO2 
 PCOD8223691
Probable space group: P C C A
;
_chemical_formula_sum "Si O2"
_cell_formula_units_Z 56
_cell_length_a 13.820113
_cell_length_b 13.319719
_cell_length_c 14.222529
_cell_angle_alpha 90.000000
_cell_angle_beta 90.000000
_cell_angle_gamma 90.000000
_cell_volume 2618.083447
_symmetry_space_group_name_H-M "P C C A"
_symmetry_group_IT_number 54
_symmetry_cell_setting 'orthorhombic'
loop_
_space_group_symop_operation_xyz
x,y,z
1/2-x,-y,z
1/2+x,-y,1/2-z
-x,y,1/2-z
-x,-y,-z
1/2+x,y,-z
1/2-x,y,1/2+z
x,-y,1/2+z
loop_
_atom_site_type_symbol
_atom_site_label
_atom_site_fract_x
_atom_site_fract_y
_atom_site_fract_z
Si Si1 0.503843 0.011234 0.888662
Si Si2 0.262610 0.275158 0.210875
Si Si3 0.582113 0.378641 0.999437
Si Si4 0.447601 0.233860 0.657428
Si Si5 0.846171 0.064936 0.750555
Si Si6 0.618382 0.411924 0.432552
Si Si7 0.263134 0.382822 0.895550
O O1 0.503886 0.126938 0.860245
O O2 0.601158 0.961290 0.848499
O O3 0.411461 0.958908 0.840508
O O4 0.500000 0.000000 0.000000
O O5 0.169930 0.230069 0.156859
O O6 0.328190 0.183722 0.246214
O O7 0.328022 0.355244 0.152807
O O8 0.212661 0.330592 0.298049
O O9 0.498534 0.410290 0.073381
O O10 0.665674 0.331061 0.063415
O O11 0.527691 0.303473 0.930251
O O12 0.637619 0.467514 0.939417
O O13 0.500000 0.278443 0.750000
O O14 0.750000 0.000000 0.740874
O O15 0.651521 0.361630 0.530593
O O16 0.250000 0.500000 0.875799
#
# Coordination Sequence:
#
# PCOD8223691 Si02
#       7
#     8   8   8   8   8   8   8
#     4  11  26  45  70  94 135 176 221 290 352 403
#     4  12  25  40  75  96 136 182 228 277 343 408
#     4  10  23  42  67  94 146 174 224 281 334 407
#     4  12  23  44  70  99 129 181 230 275 345 408
#     4  11  24  48  64 101 135 168 233 291 334 413
#     4  10  23  44  62 103 139 180 224 282 332 404
#     4  10  23  41  65 100 139 178 223 272 329 402
#
# _framework density 21.389693000000001
#
# number of rings (size 3 to 8) (size 9 to 14) (size 15 to 20)
#    0.000    1.143    4.286    0.857    6.000    2.286 
#    0.000    0.000    0.000    0.000    0.000    0.000 
#    0.000    0.000    0.000    0.000    0.000    0.000 
#
# Total GULP energy -694137.974251 kJ/mol
# GULP energy per Si atom -12395.320969 kJ/mol
# Density = 2.134101 g / cm^3
# Si number density = 21.389693 Si / 1000 Ang^3
#
#
#
# Elastic Constant Matrix: (Units=GPa)
#
#
# Indices 1 2 3 4 5 6 
#
# 1 103.7636 18.2086 24.8243 0.0000 0.0000 0.0000
# 2 18.2086 80.8519 24.5948 0.0000 0.0000 0.0000
# 3 24.8243 24.5948 111.1963 0.0000 0.0000 0.0000
# 4 0.0000 0.0000 0.0000 28.6854 0.0000 0.0000
# 5 0.0000 0.0000 0.0000 0.0000 32.6324 0.0000
# 6 0.0000 0.0000 0.0000 0.0000 0.0000 33.3597
#
#
#
# Elastic Compliance Matrix: (Units=1/GPa)
#
#
# Indices 1 2 3 4 5 6 
#
# 1 0.010408 -0.001755 -0.001935 0.000000 0.000000 0.000000
# 2 -0.001755 0.013557 -0.002607 0.000000 0.000000 0.000000
# 3 -0.001935 -0.002607 0.010002 0.000000 0.000000 0.000000
# 4 0.000000 0.000000 0.000000 0.034861 0.000000 0.000000
# 5 0.000000 0.000000 0.000000 0.000000 0.030644 0.000000
# 6 0.000000 0.000000 0.000000 0.000000 0.000000 0.029976
#
#
# Mechanical properties :
#
#
# Convention : Reuss Voigt Hill
#
# Bulk Modulus (GPa) = 46.79032 47.89636 47.34334
# Shear Modulus (GPa) = 33.51952 34.14777 33.83365
#
# Velocity S-wave (km/s) = 3.96294 3.99991 3.98147
# Velocity P-wave (km/s) = 6.54695 6.61613 6.58163
#
# Compressibility (1/GPa) = 0.02137194
#
# Stress axis : x y z
#
# Youngs Moduli (GPa) = 96.07681 73.76524 99.98289
#
# Poissons Ratio (x) = 0.12948 0.19351
# Poissons Ratio (y) = 0.16865 0.26062
# Poissons Ratio (z) = 0.18595 0.19228
#
# Static dielectric constant tensor:
#      x y z
#    x 4.136450 0.000000 0.000000 
#    y 0.000000 3.835350 0.000000 
#    z 0.000000 0.000000 4.830130 
# 
# 
# High freq. dielectric constant tensor:
#      x y z
#    x 1.857880 0.000000 0.000000 
#    y 0.000000 1.833050 0.000000 
#    z 0.000000 0.000000 1.829810 
# 
# From -- ./inp_files/13487.got.cif
#   From: 2010.03.12/outbox.cif.g09.slc.cpg/sg54_7_cif.got.tgz:13487.got - 2010.04.16 15:00:50.
