data_PCOD8223967
_publ_section_title
;
Structure prediction by ZEFSAII (Michael W. Deem and Ramdas Pophale) SiO2 
 PCOD8223967
Probable space group: P C C A
;
_chemical_formula_sum "Si O2"
_cell_formula_units_Z 48
_cell_length_a 17.434273
_cell_length_b 13.468921
_cell_length_c 9.176406
_cell_angle_alpha 90.000000
_cell_angle_beta 90.000000
_cell_angle_gamma 90.000000
_cell_volume 2154.811418
_symmetry_space_group_name_H-M "P C C A"
_symmetry_group_IT_number 54
_symmetry_cell_setting 'orthorhombic'
loop_
_space_group_symop_operation_xyz
x,y,z
1/2-x,-y,z
1/2+x,-y,1/2-z
-x,y,1/2-z
-x,-y,-z
1/2+x,y,-z
1/2-x,y,1/2+z
x,-y,1/2+z
loop_
_atom_site_type_symbol
_atom_site_label
_atom_site_fract_x
_atom_site_fract_y
_atom_site_fract_z
Si Si1 0.087453 0.718044 0.776467
Si Si2 0.837664 0.687154 0.299356
Si Si3 0.831839 0.086256 0.151807
Si Si4 0.083825 0.549460 0.009911
Si Si5 0.325280 0.906727 0.677125
Si Si6 0.185251 0.360124 0.027639
O O1 0.116990 0.815855 0.856667
O O2 0.100265 0.618565 0.870443
O O3 0.127473 0.706958 0.620526
O O4 0.000000 0.737457 0.750000
O O5 0.909883 0.616322 0.342205
O O6 0.866057 0.799641 0.325867
O O7 0.769434 0.649970 0.404965
O O8 0.809873 0.680962 0.134775
O O9 0.756092 0.109270 0.244355
O O10 0.872365 0.991157 0.232104
O O11 0.812755 0.055130 0.987071
O O12 0.152982 0.471307 0.018514
O O13 0.000000 0.500000 0.000000
#
# Coordination Sequence:
#
# PCOD8223967 Si02
#       6
#     8   8   8   8   8   8
#     4  12  25  47  72 101 145 196 243 300 367 447
#     4  12  25  44  72 109 141 190 249 311 357 434
#     4  11  23  41  72 105 140 183 235 305 372 432
#     4  12  26  48  69 101 146 194 240 292 367 438
#     4  11  22  41  71 103 140 176 237 300 371 426
#     4  12  26  43  72 103 147 188 248 300 365 429
#
# _framework density 22.275731
#
# number of rings (size 3 to 8) (size 9 to 14) (size 15 to 20)
#    0.000    0.333    5.000    5.500    2.333    1.333 
#    0.000    0.833    3.667    0.000    0.000    0.000 
#    0.000    0.000    0.000    0.000    0.000    0.000 
#
# Total GULP energy -595053.564939 kJ/mol
# GULP energy per Si atom -12396.949270 kJ/mol
# Density = 2.222503 g / cm^3
# Si number density = 22.275731 Si / 1000 Ang^3
#
#
#
# Elastic Constant Matrix: (Units=GPa)
#
#
# Indices 1 2 3 4 5 6 
#
# 1 52.0694 36.0914 28.5937 0.0000 0.0000 0.0000
# 2 36.0914 179.2508 51.7110 0.0000 0.0000 0.0000
# 3 28.5937 51.7110 177.5714 0.0000 0.0000 0.0000
# 4 0.0000 0.0000 0.0000 11.0861 0.0000 0.0000
# 5 0.0000 0.0000 0.0000 0.0000 18.6330 0.0000
# 6 0.0000 0.0000 0.0000 0.0000 0.0000 30.8855
#
#
#
# Elastic Compliance Matrix: (Units=1/GPa)
#
#
# Indices 1 2 3 4 5 6 
#
# 1 0.023381 -0.003954 -0.002614 0.000000 0.000000 0.000000
# 2 -0.003954 0.006759 -0.001332 0.000000 0.000000 0.000000
# 3 -0.002614 -0.001332 0.006440 0.000000 0.000000 0.000000
# 4 0.000000 0.000000 0.000000 0.090203 0.000000 0.000000
# 5 0.000000 0.000000 0.000000 0.000000 0.053668 0.000000
# 6 0.000000 0.000000 0.000000 0.000000 0.000000 0.032378
#
#
# Mechanical properties :
#
#
# Convention : Reuss Voigt Hill
#
# Bulk Modulus (GPa) = 48.11808 71.29818 59.70813
# Shear Modulus (GPa) = 21.22652 31.62062 26.42357
#
# Velocity S-wave (km/s) = 3.09026 3.77173 3.44787
# Velocity P-wave (km/s) = 5.86352 7.14454 6.53550
#
# Compressibility (1/GPa) = 0.02078221
#
# Stress axis : x y z
#
# Youngs Moduli (GPa) = 42.77013 147.95107 155.27496
#
# Poissons Ratio (x) = 0.58495 0.40582
# Poissons Ratio (y) = 0.16910 0.20677
# Poissons Ratio (z) = 0.11178 0.19702
#
# Static dielectric constant tensor:
#      x y z
#    x 3.766800 0.000000 0.000000 
#    y 0.000000 4.656730 0.000000 
#    z 0.000000 0.000000 4.979320 
# 
# 
# High freq. dielectric constant tensor:
#      x y z
#    x 1.840770 0.000000 0.000000 
#    y 0.000000 1.901460 0.000000 
#    z 0.000000 0.000000 1.898510 
# 
# From -- ./inp_files/4161.got.cif
#   From: 2010.03.12/outbox.cif.g09.slc.cpg/sg54_3_cif.got.tgz:4161.got - 2010.04.16 15:00:50.
