data_PCOD8223290
_publ_section_title
;
Structure prediction by ZEFSAII (Michael W. Deem and Ramdas Pophale) SiO2 
 PCOD8223290
Probable space group: P C C A
;
_chemical_formula_sum "Si O2"
_cell_formula_units_Z 40
_cell_length_a 14.931941
_cell_length_b 13.570275
_cell_length_c 9.749126
_cell_angle_alpha 90.000000
_cell_angle_beta 90.000000
_cell_angle_gamma 90.000000
_cell_volume 1975.470721
_symmetry_space_group_name_H-M "P C C A"
_symmetry_group_IT_number 54
_symmetry_cell_setting 'orthorhombic'
loop_
_space_group_symop_operation_xyz
x,y,z
1/2-x,-y,z
1/2+x,-y,1/2-z
-x,y,1/2-z
-x,-y,-z
1/2+x,y,-z
1/2-x,y,1/2+z
x,-y,1/2+z
loop_
_atom_site_type_symbol
_atom_site_label
_atom_site_fract_x
_atom_site_fract_y
_atom_site_fract_z
Si Si1 0.682155 0.711639 0.646320
Si Si2 0.844171 0.043918 0.959630
Si Si3 0.988606 0.596065 0.090367
Si Si4 0.593056 0.916822 0.681387
Si Si5 0.656825 0.276164 0.455568
O O1 0.610239 0.640582 0.574020
O O2 0.649106 0.823696 0.627652
O O3 0.775609 0.687120 0.572542
O O4 0.697065 0.693432 0.807823
O O5 0.856552 0.019824 0.799110
O O6 0.854532 0.160211 0.976279
O O7 0.750000 0.000000 0.010918
O O8 0.919644 0.990621 0.053361
O O9 0.059642 0.674916 0.031949
O O10 0.000000 0.570226 0.250000
O O11 0.000000 0.500000 0.000000
O O12 0.500000 0.879454 0.750000
#
# Coordination Sequence:
#
# PCOD8223290 Si02
#       5
#     8   8   8   8   8
#     4  10  21  40  62  88 123 161 205 252 313 368
#     4  11  21  36  58  86 124 163 205 246 300 366
#     4  10  23  44  65  88 119 158 204 262 317 371
#     4  11  22  36  57  87 124 167 207 254 302 364
#     4  10  22  39  63  89 125 164 201 256 312 368
#
# _framework density 20.248339000000001
#
# number of rings (size 3 to 8) (size 9 to 14) (size 15 to 20)
#    0.000    1.600    2.000    4.200    2.800    2.400 
#    0.000    5.000    0.000    0.000    0.000    0.000 
#    0.000    0.000    0.000    0.000    0.000    0.000 
#
# Total GULP energy -495870.282498 kJ/mol
# GULP energy per Si atom -12396.757062 kJ/mol
# Density = 2.020225 g / cm^3
# Si number density = 20.248339 Si / 1000 Ang^3
#
#
#
# Elastic Constant Matrix: (Units=GPa)
#
#
# Indices 1 2 3 4 5 6 
#
# 1 50.5956 7.2646 13.1811 0.0000 0.0000 0.0000
# 2 7.2646 82.8443 37.7799 0.0000 0.0000 0.0000
# 3 13.1811 37.7799 68.2791 0.0000 0.0000 0.0000
# 4 0.0000 0.0000 0.0000 39.7697 0.0000 0.0000
# 5 0.0000 0.0000 0.0000 0.0000 39.2124 0.0000
# 6 0.0000 0.0000 0.0000 0.0000 0.0000 25.1081
#
#
#
# Elastic Compliance Matrix: (Units=1/GPa)
#
#
# Indices 1 2 3 4 5 6 
#
# 1 0.020811 0.000010 -0.004023 0.000000 0.000000 0.000000
# 2 0.000010 0.016145 -0.008935 0.000000 0.000000 0.000000
# 3 -0.004023 -0.008935 0.020366 0.000000 0.000000 0.000000
# 4 0.000000 0.000000 0.000000 0.025145 0.000000 0.000000
# 5 0.000000 0.000000 0.000000 0.000000 0.025502 0.000000
# 6 0.000000 0.000000 0.000000 0.000000 0.000000 0.039828
#
#
# Mechanical properties :
#
#
# Convention : Reuss Voigt Hill
#
# Bulk Modulus (GPa) = 31.82107 35.35223 33.58665
# Shear Modulus (GPa) = 27.14906 30.38425 28.76665
#
# Velocity S-wave (km/s) = 3.66567 3.87793 3.77330
# Velocity P-wave (km/s) = 5.80222 6.12767 5.96716
#
# Compressibility (1/GPa) = 0.03142572
#
# Stress axis : x y z
#
# Youngs Moduli (GPa) = 48.05098 61.94014 49.10090
#
# Poissons Ratio (x) = -0.00060 0.19753
# Poissons Ratio (y) = -0.00046 0.43871
# Poissons Ratio (z) = 0.19330 0.55343
#
# Static dielectric constant tensor:
#      x y z
#    x 3.827160 0.000000 0.000000 
#    y 0.000000 3.473010 0.000000 
#    z 0.000000 0.000000 3.963110 
# 
# 
# High freq. dielectric constant tensor:
#      x y z
#    x 1.795640 0.000000 0.000000 
#    y 0.000000 1.776860 0.000000 
#    z 0.000000 0.000000 1.795460 
# 
# From -- ./inp_files/3409.got.cif
#   From: 2010.03.12/outbox.cif.g09.slc.cpg/sg54_2_cif.got.tgz:3409.got - 2010.04.16 15:00:50.
