data_PCOD8223245
_publ_section_title
;
Structure prediction by ZEFSAII (Michael W. Deem and Ramdas Pophale) SiO2 
 PCOD8223245
Probable space group: P C C A
;
_chemical_formula_sum "Si O2"
_cell_formula_units_Z 48
_cell_length_a 5.538571
_cell_length_b 14.231154
_cell_length_c 30.576657
_cell_angle_alpha 90.000000
_cell_angle_beta 90.000000
_cell_angle_gamma 90.000000
_cell_volume 2410.059958
_symmetry_space_group_name_H-M "P C C A"
_symmetry_group_IT_number 54
_symmetry_cell_setting 'orthorhombic'
loop_
_space_group_symop_operation_xyz
x,y,z
1/2-x,-y,z
1/2+x,-y,1/2-z
-x,y,1/2-z
-x,-y,-z
1/2+x,y,-z
1/2-x,y,1/2+z
x,-y,1/2+z
loop_
_atom_site_type_symbol
_atom_site_label
_atom_site_fract_x
_atom_site_fract_y
_atom_site_fract_z
Si Si1 0.500000 0.189644 0.750000
Si Si2 0.868094 0.746883 0.311954
Si Si3 0.405008 0.333210 0.526390
Si Si4 0.745154 0.890981 0.168763
Si Si5 0.126917 0.406108 0.857250
Si Si6 0.485843 0.255379 0.887364
Si Si7 0.750000 0.500000 0.419650
O O1 0.273632 0.254664 0.734664
O O2 0.441159 0.124924 0.791463
O O3 0.696533 0.731990 0.352877
O O4 0.999229 0.847957 0.316344
O O5 0.049554 0.658073 0.315417
O O6 0.646464 0.321732 0.497496
O O7 0.412602 0.250882 0.563339
O O8 0.415777 0.435206 0.549408
O O9 0.660710 0.839172 0.124441
O O10 0.750000 0.000000 0.157819
O O11 0.250000 0.500000 0.838047
O O12 0.316760 0.347183 0.885557
O O13 0.909397 0.431878 0.889577
#
# Coordination Sequence:
#
# PCOD8223245 Si02
#       7
#     4   8   8   8   8   8   4
#     4  10  22  36  62 102 124 156 196 266 334 382
#     4  10  21  39  61  92 127 166 207 258 323 391
#     4  12  25  38  61  96 137 172 224 283 338 383
#     4  10  23  39  67  97 127 158 202 264 332 404
#     4  11  19  35  62  89 126 178 223 256 310 383
#     4  10  22  39  59  91 125 177 212 256 321 394
#     4  12  22  36  58  94 130 170 216 274 324 390
#
# _framework density 19.916516000000001
#
# number of rings (size 3 to 8) (size 9 to 14) (size 15 to 20)
#    0.000    1.333    3.333    2.000    4.667    2.000 
#    0.000    0.000    0.000    1.000  294.667    0.000 
#    0.000    0.000    0.000    0.000    0.000    0.000 
#
# Total GULP energy -595000.455858 kJ/mol
# GULP energy per Si atom -12395.842830 kJ/mol
# Density = 1.987118 g / cm^3
# Si number density = 19.916516 Si / 1000 Ang^3
#
#
#
# Elastic Constant Matrix: (Units=GPa)
#
#
# Indices 1 2 3 4 5 6 
#
# 1 108.1856 50.4994 33.8215 0.0000 0.0000 0.0000
# 2 50.4994 135.2615 59.7455 0.0000 0.0000 0.0000
# 3 33.8215 59.7455 93.6867 0.0000 0.0000 0.0000
# 4 0.0000 0.0000 0.0000 11.5990 0.0000 0.0000
# 5 0.0000 0.0000 0.0000 0.0000 23.1377 0.0000
# 6 0.0000 0.0000 0.0000 0.0000 0.0000 24.1222
#
#
#
# Elastic Compliance Matrix: (Units=1/GPa)
#
#
# Indices 1 2 3 4 5 6 
#
# 1 0.011447 -0.003408 -0.001959 0.000000 0.000000 0.000000
# 2 -0.003408 0.011307 -0.005980 0.000000 0.000000 0.000000
# 3 -0.001959 -0.005980 0.015195 0.000000 0.000000 0.000000
# 4 0.000000 0.000000 0.000000 0.086215 0.000000 0.000000
# 5 0.000000 0.000000 0.000000 0.000000 0.043219 0.000000
# 6 0.000000 0.000000 0.000000 0.000000 0.000000 0.041456
#
#
# Mechanical properties :
#
#
# Convention : Reuss Voigt Hill
#
# Bulk Modulus (GPa) = 65.55786 69.47405 67.51595
# Shear Modulus (GPa) = 21.13115 24.64294 22.88704
#
# Velocity S-wave (km/s) = 3.26081 3.52136 3.39359
# Velocity P-wave (km/s) = 6.86768 7.17577 7.02341
#
# Compressibility (1/GPa) = 0.01525370
#
# Stress axis : x y z
#
# Youngs Moduli (GPa) = 87.36129 88.43992 65.81239
#
# Poissons Ratio (x) = 0.30144 0.12891
# Poissons Ratio (y) = 0.29776 0.39358
# Poissons Ratio (z) = 0.17112 0.52889
#
# Static dielectric constant tensor:
#      x y z
#    x 4.356610 0.000000 0.000000 
#    y 0.000000 3.538130 0.000000 
#    z 0.000000 0.000000 3.651020 
# 
# 
# High freq. dielectric constant tensor:
#      x y z
#    x 1.801340 0.000000 0.000000 
#    y 0.000000 1.749490 0.000000 
#    z 0.000000 0.000000 1.766190 
# 
# From -- ./inp_files/25383.got.cif
#   From: 2010.03.12/outbox.cif.g09.slc.cpg/sg54_13_cif.got.tgz:25383.got - 2010.04.16 15:00:50.
