data_PCOD8223152
_publ_section_title
;
Structure prediction by ZEFSAII (Michael W. Deem and Ramdas Pophale) SiO2 
 PCOD8223152
Probable space group: P C C A
;
_chemical_formula_sum "Si O2"
_cell_formula_units_Z 60
_cell_length_a 25.338602
_cell_length_b 13.400900
_cell_length_c 8.378093
_cell_angle_alpha 90.000000
_cell_angle_beta 90.000000
_cell_angle_gamma 90.000000
_cell_volume 2844.865858
_symmetry_space_group_name_H-M "P C C A"
_symmetry_group_IT_number 54
_symmetry_cell_setting 'orthorhombic'
loop_
_space_group_symop_operation_xyz
x,y,z
1/2-x,-y,z
1/2+x,-y,1/2-z
-x,y,1/2-z
-x,-y,-z
1/2+x,y,-z
1/2-x,y,1/2+z
x,-y,1/2+z
loop_
_atom_site_type_symbol
_atom_site_label
_atom_site_fract_x
_atom_site_fract_y
_atom_site_fract_z
Si Si1 0.035145 0.700399 0.404610
Si Si2 0.146364 0.395826 0.864655
Si Si3 0.405814 0.112753 0.767478
Si Si4 0.307998 0.196315 0.358931
Si Si5 0.500000 0.739253 0.250000
Si Si6 0.803699 0.438613 0.306070
Si Si7 0.091898 0.906304 0.405476
Si Si8 0.302567 0.784120 0.237780
O O1 0.086600 0.630891 0.410017
O O2 0.049450 0.817624 0.380550
O O3 0.000000 0.669294 0.250000
O O4 0.008701 0.680076 0.580724
O O5 0.173542 0.300617 0.778007
O O6 0.147406 0.493965 0.755577
O O7 0.184300 0.419607 0.011628
O O8 0.448988 0.196775 0.788881
O O9 0.395437 0.081724 0.588734
O O10 0.350241 0.159194 0.829968
O O11 0.428420 0.014652 0.854076
O O12 0.352897 0.115534 0.312961
O O13 0.251513 0.162634 0.292919
O O14 0.308368 0.209121 0.548957
O O15 0.750000 0.500000 0.282752
O O16 0.801622 0.332972 0.211391
#
# Coordination Sequence:
#
# PCOD8223152 Si02
#       8
#     8   8   8   8   4   8   8   8
#     4  10  23  45  67  91 127 166 214 262 323 379
#     4  10  22  40  59  95 125 155 209 265 310 383
#     4  10  22  38  59  89 121 161 209 253 313 365
#     4   9  19  37  54  82 125 156 196 253 307 368
#     4  10  22  42  66  92 126 166 206 272 314 360
#     4  11  20  36  65  92 122 162 205 258 318 376
#     4   9  21  37  59  88 122 157 202 261 303 372
#     4  10  21  36  57  86 122 161 198 250 312 368
#
# _framework density 21.090626
#
# number of rings (size 3 to 8) (size 9 to 14) (size 15 to 20)
#    0.000    2.133    1.333    2.800    4.667    2.667 
#    7.200    3.333    1.467    0.000    0.000    0.000 
#    0.000    0.000    0.000    0.000    0.000    0.000 
#
# Total GULP energy -743453.612663 kJ/mol
# GULP energy per Si atom -12390.893544 kJ/mol
# Density = 2.104262 g / cm^3
# Si number density = 21.090626 Si / 1000 Ang^3
#
#
#
# Elastic Constant Matrix: (Units=GPa)
#
#
# Indices 1 2 3 4 5 6 
#
# 1 79.7006 -4.1754 25.5552 0.0000 0.0000 0.0000
# 2 -4.1754 44.8445 19.2311 0.0000 0.0000 0.0000
# 3 25.5552 19.2311 57.0751 0.0000 0.0000 0.0000
# 4 0.0000 0.0000 0.0000 7.7517 0.0000 0.0000
# 5 0.0000 0.0000 0.0000 0.0000 33.1726 0.0000
# 6 0.0000 0.0000 0.0000 0.0000 0.0000 17.1806
#
#
#
# Elastic Compliance Matrix: (Units=1/GPa)
#
#
# Indices 1 2 3 4 5 6 
#
# 1 0.015626 0.005208 -0.008751 0.000000 0.000000 0.000000
# 2 0.005208 0.027801 -0.011699 0.000000 0.000000 0.000000
# 3 -0.008751 -0.011699 0.025381 0.000000 0.000000 0.000000
# 4 0.000000 0.000000 0.000000 0.129004 0.000000 0.000000
# 5 0.000000 0.000000 0.000000 0.000000 0.030145 0.000000
# 6 0.000000 0.000000 0.000000 0.000000 0.000000 0.058205
#
#
# Mechanical properties :
#
#
# Convention : Reuss Voigt Hill
#
# Bulk Modulus (GPa) = 26.09409 29.20468 27.64938
# Shear Modulus (GPa) = 15.17810 21.02160 18.09985
#
# Velocity S-wave (km/s) = 2.68556 3.16052 2.93267
# Velocity P-wave (km/s) = 4.69207 5.21496 4.96041
#
# Compressibility (1/GPa) = 0.03832286
#
# Stress axis : x y z
#
# Youngs Moduli (GPa) = 63.99700 35.96959 39.39955
#
# Poissons Ratio (x) = -0.18732 0.34479
# Poissons Ratio (y) = -0.33328 0.46094
# Poissons Ratio (z) = 0.56004 0.42082
#
# Static dielectric constant tensor:
#      x y z
#    x 3.916130 0.000000 0.000000 
#    y 0.000000 4.133310 0.000000 
#    z 0.000000 0.000000 3.688310 
# 
# 
# High freq. dielectric constant tensor:
#      x y z
#    x 1.832260 0.000000 0.000000 
#    y 0.000000 1.815940 0.000000 
#    z 0.000000 0.000000 1.808900 
# 
# From -- ./inp_files/5274.got.cif
#   From: 2010.03.12/outbox.cif.g09.slc.cpg/sg54_3_cif.got.tgz:5274.got - 2010.04.16 15:00:50.
