data_PCOD8223042
_publ_section_title
;
Structure prediction by ZEFSAII (Michael W. Deem and Ramdas Pophale) SiO2 
 PCOD8223042
Probable space group: P C C A
;
_chemical_formula_sum "Si O2"
_cell_formula_units_Z 60
_cell_length_a 18.245880
_cell_length_b 18.121578
_cell_length_c 8.877487
_cell_angle_alpha 90.000000
_cell_angle_beta 90.000000
_cell_angle_gamma 90.000000
_cell_volume 2935.289033
_symmetry_space_group_name_H-M "P C C A"
_symmetry_group_IT_number 54
_symmetry_cell_setting 'orthorhombic'
loop_
_space_group_symop_operation_xyz
x,y,z
1/2-x,-y,z
1/2+x,-y,1/2-z
-x,y,1/2-z
-x,-y,-z
1/2+x,y,-z
1/2-x,y,1/2+z
x,-y,1/2+z
loop_
_atom_site_type_symbol
_atom_site_label
_atom_site_fract_x
_atom_site_fract_y
_atom_site_fract_z
Si Si1 0.210656 0.896839 0.970469
Si Si2 0.027159 0.272332 0.077483
Si Si3 0.662339 0.212520 0.081921
Si Si4 0.750000 0.000000 0.776849
Si Si5 0.299556 0.564635 0.176537
Si Si6 0.780013 0.337547 0.051935
Si Si7 0.540786 0.439198 0.904092
Si Si8 0.113897 0.227083 0.583793
O O1 0.148616 0.834933 0.974933
O O2 0.202035 0.945618 0.120599
O O3 0.292676 0.861356 0.960845
O O4 0.197004 0.949920 0.827611
O O5 0.039428 0.357095 0.024673
O O6 0.000000 0.263965 0.250000
O O7 0.104077 0.229453 0.051256
O O8 0.970177 0.235865 0.961742
O O9 0.719729 0.278399 0.099144
O O10 0.621195 0.204361 0.241842
O O11 0.250000 0.500000 0.248902
O O12 0.315658 0.629736 0.295944
O O13 0.376591 0.532525 0.119296
O O14 0.256265 0.595139 0.034193
O O15 0.844301 0.303602 0.950020
O O16 0.500000 0.432536 0.750000
O O17 0.500000 0.500000 0.000000
#
# Coordination Sequence:
#
# PCOD8223042 Si02
#       8
#     8   8   8   4   8   8   8   8
#     4  10  22  38  69 103 131 168 212 257 315 381
#     4  11  25  42  65  89 130 172 219 277 327 388
#     4  11  22  41  64  97 128 167 216 270 318 387
#     4  10  20  40  66 102 140 166 202 258 316 384
#     4  12  26  41  64  88 125 168 220 279 342 398
#     4  11  23  41  63  91 122 158 221 275 329 380
#     4  11  27  45  62  89 126 171 220 272 346 411
#     4  11  23  39  66  94 128 168 215 267 320 380
#
# _framework density 20.440916999999999
#
# number of rings (size 3 to 8) (size 9 to 14) (size 15 to 20)
#    0.000    1.067    4.000    2.400    7.467    1.067 
#    0.000    0.000    0.000    4.800    0.000    0.000 
#    0.000    0.000    0.000    0.000    0.000    0.000 
#
# Total GULP energy -744110.232896 kJ/mol
# GULP energy per Si atom -12401.837215 kJ/mol
# Density = 2.039439 g / cm^3
# Si number density = 20.440917 Si / 1000 Ang^3
#
#
#
# Elastic Constant Matrix: (Units=GPa)
#
#
# Indices 1 2 3 4 5 6 
#
# 1 108.6942 45.9503 23.1567 0.0000 0.0000 0.0000
# 2 45.9503 99.8416 35.5249 0.0000 0.0000 0.0000
# 3 23.1567 35.5249 90.6114 0.0000 0.0000 0.0000
# 4 0.0000 0.0000 0.0000 42.4061 0.0000 0.0000
# 5 0.0000 0.0000 0.0000 0.0000 32.2035 0.0000
# 6 0.0000 0.0000 0.0000 0.0000 0.0000 1.7265
#
#
#
# Elastic Compliance Matrix: (Units=1/GPa)
#
#
# Indices 1 2 3 4 5 6 
#
# 1 0.011501 -0.004936 -0.001004 0.000000 0.000000 0.000000
# 2 -0.004936 0.013758 -0.004132 0.000000 0.000000 0.000000
# 3 -0.001004 -0.004132 0.012913 0.000000 0.000000 0.000000
# 4 0.000000 0.000000 0.000000 0.023582 0.000000 0.000000
# 5 0.000000 0.000000 0.000000 0.000000 0.031053 0.000000
# 6 0.000000 0.000000 0.000000 0.000000 0.000000 0.579216
#
#
# Mechanical properties :
#
#
# Convention : Reuss Voigt Hill
#
# Bulk Modulus (GPa) = 55.47264 56.49010 55.98137
# Shear Modulus (GPa) = 7.16153 28.23490 17.69821
#
# Velocity S-wave (km/s) = 1.87380 3.72061 2.94568
# Velocity P-wave (km/s) = 5.64610 6.79360 6.24626
#
# Compressibility (1/GPa) = 0.01802690
#
# Stress axis : x y z
#
# Youngs Moduli (GPa) = 86.95211 72.68592 77.44197
#
# Poissons Ratio (x) = 0.35876 0.07775
# Poissons Ratio (y) = 0.42917 0.32003
# Poissons Ratio (z) = 0.08730 0.30037
#
# Static dielectric constant tensor:
#      x y z
#    x 3.696050 0.000000 0.000000 
#    y 0.000000 2.924910 0.000000 
#    z 0.000000 0.000000 3.700030 
# 
# 
# High freq. dielectric constant tensor:
#      x y z
#    x 1.785410 0.000000 0.000000 
#    y 0.000000 1.799190 0.000000 
#    z 0.000000 0.000000 1.806780 
# 
# From -- ./inp_files/4349.got.cif
#   From: 2010.03.12/outbox.cif.g09.slc.cpg/sg54_3_cif.got.tgz:4349.got - 2010.04.16 15:00:50.
