data_PCOD8223406
_publ_section_title
;
Structure prediction by ZEFSAII (Michael W. Deem and Ramdas Pophale) SiO2 
 PCOD8223406
Probable space group: P C C A
;
_chemical_formula_sum "Si O2"
_cell_formula_units_Z 56
_cell_length_a 9.454921
_cell_length_b 14.923386
_cell_length_c 19.129282
_cell_angle_alpha 90.000000
_cell_angle_beta 90.000000
_cell_angle_gamma 90.000000
_cell_volume 2699.130895
_symmetry_space_group_name_H-M "P C C A"
_symmetry_group_IT_number 54
_symmetry_cell_setting 'orthorhombic'
loop_
_space_group_symop_operation_xyz
x,y,z
1/2-x,-y,z
1/2+x,-y,1/2-z
-x,y,1/2-z
-x,-y,-z
1/2+x,y,-z
1/2-x,y,1/2+z
x,-y,1/2+z
loop_
_atom_site_type_symbol
_atom_site_label
_atom_site_fract_x
_atom_site_fract_y
_atom_site_fract_z
Si Si1 0.979905 0.182885 0.904684
Si Si2 0.668016 0.407365 0.745482
Si Si3 0.919912 0.997322 0.572415
Si Si4 0.132821 0.564162 0.490791
Si Si5 0.789708 0.302596 0.617134
Si Si6 0.210510 0.306048 0.115592
Si Si7 0.963177 0.802623 0.566291
O O1 0.827977 0.228354 0.894391
O O2 0.004473 0.077797 0.883411
O O3 0.094827 0.231997 0.854946
O O4 0.020811 0.190954 0.987078
O O5 0.750000 0.500000 0.740212
O O6 0.500000 0.424338 0.750000
O O7 0.701726 0.349935 0.677113
O O8 0.731477 0.353517 0.810513
O O9 0.750000 0.000000 0.563168
O O10 0.949576 0.899123 0.604416
O O11 0.000000 0.000000 0.500000
O O12 0.250000 0.500000 0.459628
O O13 0.106606 0.633443 0.428406
O O14 0.196330 0.614024 0.558854
O O15 0.000000 0.500000 0.500000
O O16 0.684133 0.251271 0.564603
O O17 0.065285 0.252751 0.116071
#
# Coordination Sequence:
#
# PCOD8223406 Si02
#       7
#     8   8   8   8   8   8   8
#     4  11  22  39  67 101 135 169 216 274 335 396
#     4  12  30  48  67  93 133 181 229 274 337 403
#     4  10  22  35  61 102 140 171 210 271 338 407
#     4  12  24  39  64  95 127 167 221 284 335 380
#     4  12  23  43  69  92 133 177 219 273 335 397
#     4  12  25  43  65  96 132 172 228 274 329 404
#     4  11  20  41  66  99 137 168 219 268 334 397
#
# _framework density 20.747420000000002
#
# number of rings (size 3 to 8) (size 9 to 14) (size 15 to 20)
#    0.000    0.571    5.714    2.571   10.000    0.000 
#    0.000    0.000    0.000    5.143    0.000    0.000 
#    0.000    0.000    0.000    0.000    0.000    0.000 
#
# Total GULP energy -693731.228119 kJ/mol
# GULP energy per Si atom -12388.057645 kJ/mol
# Density = 2.070020 g / cm^3
# Si number density = 20.747420 Si / 1000 Ang^3
#
#
#
# Elastic Constant Matrix: (Units=GPa)
#
#
# Indices 1 2 3 4 5 6 
#
# 1 91.1472 37.4324 -1.2057 0.0000 0.0000 0.0000
# 2 37.4324 148.3891 25.7772 0.0000 0.0000 0.0000
# 3 -1.2057 25.7772 59.7619 0.0000 0.0000 0.0000
# 4 0.0000 0.0000 0.0000 18.6578 0.0000 0.0000
# 5 0.0000 0.0000 0.0000 0.0000 24.7406 0.0000
# 6 0.0000 0.0000 0.0000 0.0000 0.0000 47.2368
#
#
#
# Elastic Compliance Matrix: (Units=1/GPa)
#
#
# Indices 1 2 3 4 5 6 
#
# 1 0.012402 -0.003429 0.001729 0.000000 0.000000 0.000000
# 2 -0.003429 0.008233 -0.003620 0.000000 0.000000 0.000000
# 3 0.001729 -0.003620 0.018330 0.000000 0.000000 0.000000
# 4 0.000000 0.000000 0.000000 0.053597 0.000000 0.000000
# 5 0.000000 0.000000 0.000000 0.000000 0.040419 0.000000
# 6 0.000000 0.000000 0.000000 0.000000 0.000000 0.021170
#
#
# Mechanical properties :
#
#
# Convention : Reuss Voigt Hill
#
# Bulk Modulus (GPa) = 35.30485 47.03400 41.16943
# Shear Modulus (GPa) = 28.69724 33.94665 31.32194
#
# Velocity S-wave (km/s) = 3.72314 4.04937 3.88967
# Velocity P-wave (km/s) = 5.96119 6.67699 6.32922
#
# Compressibility (1/GPa) = 0.02832472
#
# Stress axis : x y z
#
# Youngs Moduli (GPa) = 80.62973 121.46333 54.55683
#
# Poissons Ratio (x) = 0.41650 -0.09434
# Poissons Ratio (y) = 0.27648 0.19751
# Poissons Ratio (z) = -0.13943 0.43974
#
# Static dielectric constant tensor:
#      x y z
#    x 3.861430 0.000000 0.000000 
#    y 0.000000 4.757660 0.000000 
#    z 0.000000 0.000000 3.285070 
# 
# 
# High freq. dielectric constant tensor:
#      x y z
#    x 1.828540 0.000000 0.000000 
#    y 0.000000 1.843990 0.000000 
#    z 0.000000 0.000000 1.760990 
# 
# From -- ./inp_files/20513.got.cif
#   From: 2010.03.12/outbox.cif.g09.slc.cpg/sg54_11_cif.got.tgz:20513.got - 2010.04.16 15:00:50.
