data_PCOD8223613
_publ_section_title
;
Structure prediction by ZEFSAII (Michael W. Deem and Ramdas Pophale) SiO2 
 PCOD8223613
Probable space group: P C C A
;
_chemical_formula_sum "Si O2"
_cell_formula_units_Z 56
_cell_length_a 32.731735
_cell_length_b 5.731682
_cell_length_c 12.987771
_cell_angle_alpha 90.000000
_cell_angle_beta 90.000000
_cell_angle_gamma 90.000000
_cell_volume 2436.608395
_symmetry_space_group_name_H-M "P C C A"
_symmetry_group_IT_number 54
_symmetry_cell_setting 'orthorhombic'
loop_
_space_group_symop_operation_xyz
x,y,z
1/2-x,-y,z
1/2+x,-y,1/2-z
-x,y,1/2-z
-x,-y,-z
1/2+x,y,-z
1/2-x,y,1/2+z
x,-y,1/2+z
loop_
_atom_site_type_symbol
_atom_site_label
_atom_site_fract_x
_atom_site_fract_y
_atom_site_fract_z
Si Si1 0.388169 0.415168 0.037300
Si Si2 0.523787 0.019898 0.159414
Si Si3 0.158050 0.921475 0.167456
Si Si4 0.111953 0.904505 0.847543
Si Si5 0.969653 0.687612 0.958793
Si Si6 0.669381 0.210313 0.019456
Si Si7 0.272988 0.748310 0.799678
O O1 0.392784 0.320121 0.920542
O O2 0.426737 0.570605 0.072255
O O3 0.346027 0.556837 0.035710
O O4 0.381840 0.216362 0.123813
O O5 0.500000 0.167202 0.250000
O O6 0.567621 0.944631 0.202378
O O7 0.536333 0.135875 0.052509
O O8 0.491105 0.811847 0.138305
O O9 0.189315 0.743753 0.220976
O O10 0.142153 0.119849 0.248536
O O11 0.181719 0.033491 0.071215
O O12 0.131003 0.116878 0.913527
O O13 0.000000 0.500000 0.000000
O O14 0.710114 0.256758 0.084125
O O15 0.250000 0.500000 0.781143
O O16 0.250000 0.000000 0.783960
#
# Coordination Sequence:
#
# PCOD8223613 Si02
#       7
#     8   8   8   8   8   8   8
#     4  11  23  44  73  97 140 191 237 291 358 432
#     4  11  25  40  62  95 138 182 236 297 360 411
#     4  10  26  44  75 109 138 186 243 289 360 442
#     4  10  22  43  64  98 142 179 234 300 346 418
#     4  11  24  44  63  95 138 181 238 294 351 414
#     4  10  24  46  73 102 138 190 230 287 360 437
#     4  11  28  52  78 112 155 186 233 306 369 446
#
# _framework density 22.982766999999999
#
# number of rings (size 3 to 8) (size 9 to 14) (size 15 to 20)
#    0.000    1.429    2.857    0.000   12.000    2.286 
#    0.000    0.000    0.000    0.000    0.000    0.000 
#    0.000    0.000    0.000    0.000    0.000    0.000 
#
# Total GULP energy -693797.752303 kJ/mol
# GULP energy per Si atom -12389.245577 kJ/mol
# Density = 2.293046 g / cm^3
# Si number density = 22.982767 Si / 1000 Ang^3
#
#
#
# Elastic Constant Matrix: (Units=GPa)
#
#
# Indices 1 2 3 4 5 6 
#
# 1 108.3148 34.0906 48.9663 0.0000 0.0000 0.0000
# 2 34.0906 83.4138 16.5423 0.0000 0.0000 0.0000
# 3 48.9663 16.5423 107.2118 0.0000 0.0000 0.0000
# 4 0.0000 0.0000 0.0000 22.7012 0.0000 0.0000
# 5 0.0000 0.0000 0.0000 0.0000 35.4355 0.0000
# 6 0.0000 0.0000 0.0000 0.0000 0.0000 43.1505
#
#
#
# Elastic Compliance Matrix: (Units=1/GPa)
#
#
# Indices 1 2 3 4 5 6 
#
# 1 0.012946 -0.004248 -0.005257 0.000000 0.000000 0.000000
# 2 -0.004248 0.013761 -0.000183 0.000000 0.000000 0.000000
# 3 -0.005257 -0.000183 0.011757 0.000000 0.000000 0.000000
# 4 0.000000 0.000000 0.000000 0.044051 0.000000 0.000000
# 5 0.000000 0.000000 0.000000 0.000000 0.028220 0.000000
# 6 0.000000 0.000000 0.000000 0.000000 0.000000 0.023175
#
#
# Mechanical properties :
#
#
# Convention : Reuss Voigt Hill
#
# Bulk Modulus (GPa) = 52.39279 55.34876 53.87078
# Shear Modulus (GPa) = 31.31872 33.54684 32.43278
#
# Velocity S-wave (km/s) = 3.69549 3.82468 3.76064
# Velocity P-wave (km/s) = 6.40741 6.60600 6.50746
#
# Compressibility (1/GPa) = 0.01908659
#
# Stress axis : x y z
#
# Youngs Moduli (GPa) = 77.24288 72.66917 85.05787
#
# Poissons Ratio (x) = 0.30873 0.44718
# Poissons Ratio (y) = 0.32816 0.01556
# Poissons Ratio (z) = 0.40609 0.01329
#
# Static dielectric constant tensor:
#      x y z
#    x 7.252350 0.000000 0.000000 
#    y 0.000000 3.928850 0.000000 
#    z 0.000000 0.000000 7.279960 
# 
# 
# High freq. dielectric constant tensor:
#      x y z
#    x 1.908530 0.000000 0.000000 
#    y 0.000000 1.890500 0.000000 
#    z 0.000000 0.000000 1.919930 
# 
# From -- ./inp_files/15334.got.cif
#   From: 2010.03.12/outbox.cif.g09.slc.cpg/sg54_8_cif.got.tgz:15334.got - 2010.04.16 15:00:50.
