data_PCOD8223086
_publ_section_title
;
Structure prediction by ZEFSAII (Michael W. Deem and Ramdas Pophale) SiO2 
 PCOD8223086
Probable space group: P C C A
;
_chemical_formula_sum "Si O2"
_cell_formula_units_Z 48
_cell_length_a 14.593190
_cell_length_b 10.232516
_cell_length_c 16.526283
_cell_angle_alpha 90.000000
_cell_angle_beta 90.000000
_cell_angle_gamma 90.000000
_cell_volume 2467.788038
_symmetry_space_group_name_H-M "P C C A"
_symmetry_group_IT_number 54
_symmetry_cell_setting 'orthorhombic'
loop_
_space_group_symop_operation_xyz
x,y,z
1/2-x,-y,z
1/2+x,-y,1/2-z
-x,y,1/2-z
-x,-y,-z
1/2+x,y,-z
1/2-x,y,1/2+z
x,-y,1/2+z
loop_
_atom_site_type_symbol
_atom_site_label
_atom_site_fract_x
_atom_site_fract_y
_atom_site_fract_z
Si Si1 0.412160 0.724820 0.304264
Si Si2 0.687589 0.882198 0.853429
Si Si3 0.983655 0.629609 0.949044
Si Si4 0.694566 0.631440 0.338308
Si Si5 0.650255 0.982087 0.675807
Si Si6 0.504000 0.122367 0.058035
O O1 0.500000 0.705278 0.250000
O O2 0.428272 0.657037 0.391293
O O3 0.329625 0.655244 0.256321
O O4 0.396213 0.878235 0.313222
O O5 0.743427 0.750409 0.868097
O O6 0.664390 0.908202 0.760193
O O7 0.593825 0.866319 0.900557
O O8 0.750000 0.000000 0.888325
O O9 0.893423 0.618532 0.895053
O O10 0.000000 0.500000 0.000000
O O11 0.971357 0.748076 0.010141
O O12 0.750000 0.500000 0.345765
O O13 0.584933 0.891921 0.622715
O O14 0.750000 0.000000 0.633750
O O15 0.500000 0.000000 0.000000
#
# Coordination Sequence:
#
# PCOD8223086 Si02
#       6
#     8   8   8   8   8   8
#     4  10  20  42  69  89 126 169 211 265 321 373
#     4  11  22  40  65  95 126 165 219 269 313 376
#     4  11  25  45  62  93 136 174 206 260 325 387
#     4  11  23  43  68  93 124 170 219 264 316 380
#     4  11  22  40  67  99 125 162 221 270 313 376
#     4  12  24  39  64  94 132 171 208 262 329 383
#
# _framework density 19.450617999999999
#
# number of rings (size 3 to 8) (size 9 to 14) (size 15 to 20)
#    0.000    1.000    5.000    3.500    0.000    3.333 
#    3.000    3.333    0.000    0.000    0.000    0.000 
#    0.000    0.000    0.000    0.000    0.000    0.000 
#
# Total GULP energy -595253.600708 kJ/mol
# GULP energy per Si atom -12401.116681 kJ/mol
# Density = 1.940635 g / cm^3
# Si number density = 19.450618 Si / 1000 Ang^3
#
#
#
# Elastic Constant Matrix: (Units=GPa)
#
#
# Indices 1 2 3 4 5 6 
#
# 1 99.7726 38.4693 44.9670 0.0000 0.0000 0.0000
# 2 38.4693 156.3451 52.6730 0.0000 0.0000 0.0000
# 3 44.9670 52.6730 93.7829 0.0000 0.0000 0.0000
# 4 0.0000 0.0000 0.0000 43.6526 0.0000 0.0000
# 5 0.0000 0.0000 0.0000 0.0000 -0.0249 0.0000
# 6 0.0000 0.0000 0.0000 0.0000 0.0000 38.8780
#
#
#
# Elastic Compliance Matrix: (Units=1/GPa)
#
#
# Indices 1 2 3 4 5 6 
#
# 1 0.013015 -0.001357 -0.005478 0.000000 0.000000 0.000000
# 2 -0.001357 0.008030 -0.003860 0.000000 0.000000 0.000000
# 3 -0.005478 -0.003860 0.015458 0.000000 0.000000 0.000000
# 4 0.000000 0.000000 0.000000 0.022908 0.000000 0.000000
# 5 0.000000 0.000000 0.000000 0.000000-40.170210 0.000000
# 6 0.000000 0.000000 0.000000 0.000000 0.000000 0.025722
#
#
# Mechanical properties :
#
#
# Convention : Reuss Voigt Hill
#
# Bulk Modulus (GPa) = 66.16759 69.12438 67.64599
# Shear Modulus (GPa) = -0.12482 30.75388 15.31453
#
# Velocity S-wave (km/s) = -0.25360 3.98065 2.80903
# Velocity P-wave (km/s) = 5.83150 7.53279 6.73607
#
# Compressibility (1/GPa) = 0.01511314
#
# Stress axis : x y z
#
# Youngs Moduli (GPa) = 76.83443 124.52896 64.69341
#
# Poissons Ratio (x) = 0.16895 0.35442
# Poissons Ratio (y) = 0.10424 0.24970
# Poissons Ratio (z) = 0.42093 0.48064
#
# Static dielectric constant tensor:
#      x y z
#    x 3.735300 0.000000 0.000000 
#    y 0.000000 3.506030 0.000000 
#    z 0.000000 0.000000 3.804760 
# 
# 
# High freq. dielectric constant tensor:
#      x y z
#    x 1.772240 0.000000 0.000000 
#    y 0.000000 1.761080 0.000000 
#    z 0.000000 0.000000 1.761150 
# 
# From -- ./inp_files/18050.got.cif
#   From: 2010.03.12/outbox.cif.g09.slc.cpg/sg54_10_cif.got.tgz:18050.got - 2010.04.16 15:00:50.
