data_PCOD8223664
_publ_section_title
;
Structure prediction by ZEFSAII (Michael W. Deem and Ramdas Pophale) SiO2 
 PCOD8223664
Probable space group: P C C A
;
_chemical_formula_sum "Si O2"
_cell_formula_units_Z 40
_cell_length_a 13.546050
_cell_length_b 13.500793
_cell_length_c 9.218816
_cell_angle_alpha 90.000000
_cell_angle_beta 90.000000
_cell_angle_gamma 90.000000
_cell_volume 1685.959352
_symmetry_space_group_name_H-M "P C C A"
_symmetry_group_IT_number 54
_symmetry_cell_setting 'orthorhombic'
loop_
_space_group_symop_operation_xyz
x,y,z
1/2-x,-y,z
1/2+x,-y,1/2-z
-x,y,1/2-z
-x,-y,-z
1/2+x,y,-z
1/2-x,y,1/2+z
x,-y,1/2+z
loop_
_atom_site_type_symbol
_atom_site_label
_atom_site_fract_x
_atom_site_fract_y
_atom_site_fract_z
Si Si1 0.012782 0.222274 0.467319
Si Si2 0.665821 0.628209 0.086963
Si Si3 0.250000 0.500000 0.163687
Si Si4 0.500000 0.937697 0.250000
Si Si5 0.202302 0.814757 0.466486
Si Si6 0.135267 0.107975 0.670147
O O1 0.054609 0.328670 0.416430
O O2 0.054911 0.133467 0.365448
O O3 0.056715 0.194215 0.625854
O O4 0.894926 0.227067 0.452526
O O5 0.679033 0.564104 0.232116
O O6 0.740694 0.719809 0.093300
O O7 0.681411 0.566787 0.939046
O O8 0.581009 0.001689 0.338820
O O9 0.266817 0.883857 0.572113
O O10 0.166136 0.882267 0.335919
#
# Coordination Sequence:
#
# PCOD8223664 Si02
#       6
#     8   8   4   4   8   8
#     4  11  25  45  71 101 153 191 242 305 365 434
#     4  10  23  45  72 102 143 182 237 307 372 439
#     4  10  22  46  74 106 136 182 248 302 374 468
#     4  12  26  46  68 106 150 198 256 294 354 430
#     4  11  24  46  74 105 144 198 242 300 373 429
#     4  11  25  47  68 105 150 199 247 302 344 430
#
# _framework density 23.725363000000002
#
# number of rings (size 3 to 8) (size 9 to 14) (size 15 to 20)
#    0.000    1.200    2.000    3.000    8.400    0.800 
#    3.600    6.000    0.000    0.000    0.000    0.000 
#    0.000    0.000    0.000    0.000    0.000    0.000 
#
# Total GULP energy -496032.335680 kJ/mol
# GULP energy per Si atom -12400.808392 kJ/mol
# Density = 2.367136 g / cm^3
# Si number density = 23.725363 Si / 1000 Ang^3
#
#
#
# Elastic Constant Matrix: (Units=GPa)
#
#
# Indices 1 2 3 4 5 6 
#
# 1 149.2118 44.3935 48.0423 0.0000 0.0000 0.0000
# 2 44.3935 119.8814 53.2968 0.0000 0.0000 0.0000
# 3 48.0423 53.2968 123.1169 0.0000 0.0000 0.0000
# 4 0.0000 0.0000 0.0000 37.9447 0.0000 0.0000
# 5 0.0000 0.0000 0.0000 0.0000 34.8156 0.0000
# 6 0.0000 0.0000 0.0000 0.0000 0.0000 48.3684
#
#
#
# Elastic Compliance Matrix: (Units=1/GPa)
#
#
# Indices 1 2 3 4 5 6 
#
# 1 0.008018 -0.001954 -0.002283 0.000000 0.000000 0.000000
# 2 -0.001954 0.010806 -0.003915 0.000000 0.000000 0.000000
# 3 -0.002283 -0.003915 0.010708 0.000000 0.000000 0.000000
# 4 0.000000 0.000000 0.000000 0.026354 0.000000 0.000000
# 5 0.000000 0.000000 0.000000 0.000000 0.028723 0.000000
# 6 0.000000 0.000000 0.000000 0.000000 0.000000 0.020675
#
#
# Mechanical properties :
#
#
# Convention : Reuss Voigt Hill
#
# Bulk Modulus (GPa) = 75.60040 75.96394 75.78217
# Shear Modulus (GPa) = 39.68320 40.65759 40.17039
#
# Velocity S-wave (km/s) = 4.09419 4.14415 4.11924
# Velocity P-wave (km/s) = 7.36775 7.41527 7.39155
#
# Compressibility (1/GPa) = 0.01322744
#
# Stress axis : x y z
#
# Youngs Moduli (GPa) = 124.71351 92.54181 93.38766
#
# Poissons Ratio (x) = 0.18086 0.21319
# Poissons Ratio (y) = 0.24374 0.36563
# Poissons Ratio (z) = 0.28470 0.36232
#
# Static dielectric constant tensor:
#      x y z
#    x 4.339760 0.000000 0.000000 
#    y 0.000000 4.207130 0.000000 
#    z 0.000000 0.000000 4.389990 
# 
# 
# High freq. dielectric constant tensor:
#      x y z
#    x 1.939880 0.000000 0.000000 
#    y 0.000000 1.931380 0.000000 
#    z 0.000000 0.000000 1.954810 
# 
# From -- ./inp_files/3457.got.cif
#   From: 2010.03.12/outbox.cif.g09.slc.cpg/sg54_2_cif.got.tgz:3457.got - 2010.04.16 15:00:50.
