data_PCOD8223768
_publ_section_title
;
Structure prediction by ZEFSAII (Michael W. Deem and Ramdas Pophale) SiO2 
 PCOD8223768
Probable space group: P C C A
;
_chemical_formula_sum "Si O2"
_cell_formula_units_Z 32
_cell_length_a 5.093730
_cell_length_b 13.504417
_cell_length_c 22.795912
_cell_angle_alpha 90.000000
_cell_angle_beta 90.000000
_cell_angle_gamma 90.000000
_cell_volume 1568.081867
_symmetry_space_group_name_H-M "P C C A"
_symmetry_group_IT_number 54
_symmetry_cell_setting 'orthorhombic'
loop_
_space_group_symop_operation_xyz
x,y,z
1/2-x,-y,z
1/2+x,-y,1/2-z
-x,y,1/2-z
-x,-y,-z
1/2+x,y,-z
1/2-x,y,1/2+z
x,-y,1/2+z
loop_
_atom_site_type_symbol
_atom_site_label
_atom_site_fract_x
_atom_site_fract_y
_atom_site_fract_z
Si Si1 0.904146 0.695487 0.037287
Si Si2 0.533818 0.239600 0.338803
Si Si3 0.959831 0.637139 0.686267
Si Si4 0.000000 0.932128 0.250000
Si Si5 0.750000 0.500000 0.094337
O O1 0.912037 0.579450 0.056002
O O2 0.963071 0.767333 0.092081
O O3 0.613937 0.717560 0.013261
O O4 0.321959 0.310262 0.308313
O O5 0.524798 0.132506 0.309078
O O6 0.824094 0.282077 0.330230
O O7 0.963284 0.554014 0.635931
O O8 0.000000 0.587548 0.750000
O O9 0.250000 0.000000 0.257566
#
# Coordination Sequence:
#
# PCOD8223768 Si02
#       5
#     8   8   8   4   4
#     4  11  23  40  60  84 126 174 216 257 287 348
#     4  11  23  42  63  93 124 162 204 251 328 378
#     4  11  21  38  58  85 134 172 203 257 304 371
#     4  12  24  42  74 100 122 146 194 270 332 402
#     4  10  24  34  58  90 122 174 228 256 286 334
#
# _framework density 20.407098000000001
#
# number of rings (size 3 to 8) (size 9 to 14) (size 15 to 20)
#    0.000    1.000    2.500    5.250    0.000   12.000 
#    0.000    0.000    0.000    4.500    0.000    0.000 
#    0.000    0.000    0.000    0.000    0.000    0.000 
#
# Total GULP energy -396857.018615 kJ/mol
# GULP energy per Si atom -12401.781832 kJ/mol
# Density = 2.036065 g / cm^3
# Si number density = 20.407098 Si / 1000 Ang^3
#
#
#
# Elastic Constant Matrix: (Units=GPa)
#
#
# Indices 1 2 3 4 5 6 
#
# 1 100.9884 32.5462 25.4335 0.0000 0.0000 0.0000
# 2 32.5462 94.3606 38.8501 0.0000 0.0000 0.0000
# 3 25.4335 38.8501 126.8347 0.0000 0.0000 0.0000
# 4 0.0000 0.0000 0.0000 29.0507 0.0000 0.0000
# 5 0.0000 0.0000 0.0000 0.0000 36.7439 0.0000
# 6 0.0000 0.0000 0.0000 0.0000 0.0000 37.3215
#
#
#
# Elastic Compliance Matrix: (Units=1/GPa)
#
#
# Indices 1 2 3 4 5 6 
#
# 1 0.011305 -0.003394 -0.001227 0.000000 0.000000 0.000000
# 2 -0.003394 0.013146 -0.003346 0.000000 0.000000 0.000000
# 3 -0.001227 -0.003346 0.009155 0.000000 0.000000 0.000000
# 4 0.000000 0.000000 0.000000 0.034423 0.000000 0.000000
# 5 0.000000 0.000000 0.000000 0.000000 0.027215 0.000000
# 6 0.000000 0.000000 0.000000 0.000000 0.000000 0.026794
#
#
# Mechanical properties :
#
#
# Convention : Reuss Voigt Hill
#
# Bulk Modulus (GPa) = 56.58830 57.31591 56.95211
# Shear Modulus (GPa) = 34.75513 35.64682 35.20098
#
# Velocity S-wave (km/s) = 4.13133 4.18399 4.15774
# Velocity P-wave (km/s) = 7.10965 7.17553 7.14267
#
# Compressibility (1/GPa) = 0.01767150
#
# Stress axis : x y z
#
# Youngs Moduli (GPa) = 88.45629 76.06928 109.22611
#
# Poissons Ratio (x) = 0.25817 0.13406
# Poissons Ratio (y) = 0.30021 0.36548
# Poissons Ratio (z) = 0.10857 0.25453
#
# Static dielectric constant tensor:
#      x y z
#    x 3.786290 0.000000 0.000000 
#    y 0.000000 3.461820 0.000000 
#    z 0.000000 0.000000 4.107460 
# 
# 
# High freq. dielectric constant tensor:
#      x y z
#    x 1.818090 0.000000 0.000000 
#    y 0.000000 1.750470 0.000000 
#    z 0.000000 0.000000 1.816940 
# 
# From -- ./inp_files/19519.got.cif
#   From: 2010.03.12/outbox.cif.g09.slc.cpg/sg54_10_cif.got.tgz:19519.got - 2010.04.16 15:00:50.
