data_PCOD8223985
_publ_section_title
;
Structure prediction by ZEFSAII (Michael W. Deem and Ramdas Pophale) SiO2 
 PCOD8223985
Probable space group: P C C A
;
_chemical_formula_sum "Si O2"
_cell_formula_units_Z 28
_cell_length_a 15.274379
_cell_length_b 7.678690
_cell_length_c 10.537439
_cell_angle_alpha 90.000000
_cell_angle_beta 90.000000
_cell_angle_gamma 90.000000
_cell_volume 1235.906940
_symmetry_space_group_name_H-M "P C C A"
_symmetry_group_IT_number 54
_symmetry_cell_setting 'orthorhombic'
loop_
_space_group_symop_operation_xyz
x,y,z
1/2-x,-y,z
1/2+x,-y,1/2-z
-x,y,1/2-z
-x,-y,-z
1/2+x,y,-z
1/2-x,y,1/2+z
x,-y,1/2+z
loop_
_atom_site_type_symbol
_atom_site_label
_atom_site_fract_x
_atom_site_fract_y
_atom_site_fract_z
Si Si1 0.694037 0.829395 0.976727
Si Si2 0.444805 0.998281 0.373742
Si Si3 0.750000 0.500000 0.608156
Si Si4 0.402469 0.342180 0.257974
O O1 0.628941 0.759550 0.868099
O O2 0.750000 0.000000 0.931398
O O3 0.638117 0.873590 0.103008
O O4 0.754792 0.669505 0.019076
O O5 0.500000 0.938412 0.250000
O O6 0.500000 0.000000 0.500000
O O7 0.408159 0.192782 0.362969
O O8 0.664451 0.507377 0.698632
O O9 0.500000 0.426905 0.250000
#
# Coordination Sequence:
#
# PCOD8223985 Si02
#       4
#     8   8   4   8
#     4  12  26  46  73 105 149 192 246 307 370 441
#     4  11  22  45  76 103 139 196 248 299 369 443
#     4  12  28  44  72 116 142 194 246 310 372 442
#     4  11  25  48  72 108 149 192 250 304 368 444
#
# _framework density 22.655427
#
# number of rings (size 3 to 8) (size 9 to 14) (size 15 to 20)
#    0.000    0.571    8.571    0.857    4.000    2.286 
#    5.143    0.000    0.000    0.000    0.000    0.000 
#    0.000    0.000    0.000    0.000    0.000    0.000 
#
# Total GULP energy -346961.917159 kJ/mol
# GULP energy per Si atom -12391.497041 kJ/mol
# Density = 2.260386 g / cm^3
# Si number density = 22.655427 Si / 1000 Ang^3
#
#
#
# Elastic Constant Matrix: (Units=GPa)
#
#
# Indices 1 2 3 4 5 6 
#
# 1 154.2088 46.5512 52.3812 0.0000 0.0000 0.0000
# 2 46.5512 91.1422 23.2548 0.0000 0.0000 0.0000
# 3 52.3812 23.2548 116.5635 0.0000 0.0000 0.0000
# 4 0.0000 0.0000 0.0000 20.0962 0.0000 0.0000
# 5 0.0000 0.0000 0.0000 0.0000 40.7462 0.0000
# 6 0.0000 0.0000 0.0000 0.0000 0.0000 48.6583
#
#
#
# Elastic Compliance Matrix: (Units=1/GPa)
#
#
# Indices 1 2 3 4 5 6 
#
# 1 0.008650 -0.003610 -0.003167 0.000000 0.000000 0.000000
# 2 -0.003610 0.013067 -0.000985 0.000000 0.000000 0.000000
# 3 -0.003167 -0.000985 0.010199 0.000000 0.000000 0.000000
# 4 0.000000 0.000000 0.000000 0.049761 0.000000 0.000000
# 5 0.000000 0.000000 0.000000 0.000000 0.024542 0.000000
# 6 0.000000 0.000000 0.000000 0.000000 0.000000 0.020551
#
#
# Mechanical properties :
#
#
# Convention : Reuss Voigt Hill
#
# Bulk Modulus (GPa) = 61.00378 67.36544 64.18461
# Shear Modulus (GPa) = 33.83916 37.88195 35.86056
#
# Velocity S-wave (km/s) = 3.86896 4.09356 3.98284
# Velocity P-wave (km/s) = 6.85155 7.22096 7.03868
#
# Compressibility (1/GPa) = 0.01639243
#
# Stress axis : x y z
#
# Youngs Moduli (GPa) = 115.60343 76.52897 98.05232
#
# Poissons Ratio (x) = 0.27628 0.31053
# Poissons Ratio (y) = 0.41734 0.09654
# Poissons Ratio (z) = 0.36612 0.07535
#
# Static dielectric constant tensor:
#      x y z
#    x 4.103610 0.000000 0.000000 
#    y 0.000000 2.641300 0.000000 
#    z 0.000000 0.000000 3.826180 
# 
# 
# High freq. dielectric constant tensor:
#      x y z
#    x 1.912030 0.000000 0.000000 
#    y 0.000000 1.880330 0.000000 
#    z 0.000000 0.000000 1.890650 
# 
# From -- ./inp_files/7840.got.cif
#   From: 2010.03.12/outbox.cif.g09.slc.cpg/sg54_4_cif.got.tgz:7840.got - 2010.04.16 15:00:50.
