data_PCOD8223225
_publ_section_title
;
Structure prediction by ZEFSAII (Michael W. Deem and Ramdas Pophale) SiO2 
 PCOD8223225
Probable space group: P C C A
;
_chemical_formula_sum "Si O2"
_cell_formula_units_Z 56
_cell_length_a 13.807253
_cell_length_b 19.873613
_cell_length_c 9.643242
_cell_angle_alpha 90.000000
_cell_angle_beta 90.000000
_cell_angle_gamma 90.000000
_cell_volume 2646.105631
_symmetry_space_group_name_H-M "P C C A"
_symmetry_group_IT_number 54
_symmetry_cell_setting 'orthorhombic'
loop_
_space_group_symop_operation_xyz
x,y,z
1/2-x,-y,z
1/2+x,-y,1/2-z
-x,y,1/2-z
-x,-y,-z
1/2+x,y,-z
1/2-x,y,1/2+z
x,-y,1/2+z
loop_
_atom_site_type_symbol
_atom_site_label
_atom_site_fract_x
_atom_site_fract_y
_atom_site_fract_z
Si Si1 0.661425 0.263733 0.633880
Si Si2 0.000000 0.014299 0.250000
Si Si3 0.796553 0.676591 0.346618
Si Si4 0.813232 0.060481 0.848022
Si Si5 0.356336 0.435232 0.575217
Si Si6 0.890976 0.446620 0.740606
Si Si7 0.500000 0.360490 0.750000
Si Si8 0.158264 0.887887 0.867119
O O1 0.674843 0.272740 0.469264
O O2 0.760160 0.279085 0.716984
O O3 0.581135 0.314849 0.683079
O O4 0.629301 0.187978 0.671985
O O5 0.065885 0.062850 0.346509
O O6 0.076617 0.964678 0.176798
O O7 0.717914 0.624324 0.400275
O O8 0.884924 0.630724 0.292428
O O9 0.755666 0.089311 0.714753
O O10 0.750000 0.000000 0.910182
O O11 0.816164 0.114948 0.970156
O O12 0.329830 0.502403 0.662243
O O13 0.353423 0.455101 0.415173
O O14 0.460448 0.407038 0.625435
O O15 0.000000 0.470370 0.750000
#
# Coordination Sequence:
#
# PCOD8223225 Si02
#       8
#     8   4   8   8   8   8   4   8
#     4  11  23  43  63  87 125 169 215 249 305 376
#     4  10  21  38  66 102 127 164 206 260 312 368
#     4  11  24  41  63  86 125 163 209 257 312 372
#     4  10  21  39  64  97 132 163 203 260 314 361
#     4  11  24  40  61  93 119 159 204 265 325 370
#     4  12  24  39  64  91 121 155 206 266 324 373
#     4  10  23  42  64  88 123 166 212 266 316 378
#     4  11  22  39  66  93 129 171 211 254 309 374
#
# _framework density 21.163176
#
# number of rings (size 3 to 8) (size 9 to 14) (size 15 to 20)
#    0.000    1.143    2.143    4.714    4.000    2.286 
#    0.000    2.857    3.143    0.000    0.000    0.000 
#    0.000    0.000    0.000    0.000    0.000    0.000 
#
# Total GULP energy -694157.330947 kJ/mol
# GULP energy per Si atom -12395.666624 kJ/mol
# Density = 2.111501 g / cm^3
# Si number density = 21.163176 Si / 1000 Ang^3
#
#
#
# Elastic Constant Matrix: (Units=GPa)
#
#
# Indices 1 2 3 4 5 6 
#
# 1 87.9163 17.9982 26.0063 0.0000 0.0000 0.0000
# 2 17.9982 102.0922 38.4834 0.0000 0.0000 0.0000
# 3 26.0063 38.4834 140.5114 0.0000 0.0000 0.0000
# 4 0.0000 0.0000 0.0000 27.9010 0.0000 0.0000
# 5 0.0000 0.0000 0.0000 0.0000 19.1939 0.0000
# 6 0.0000 0.0000 0.0000 0.0000 0.0000 16.1810
#
#
#
# Elastic Compliance Matrix: (Units=1/GPa)
#
#
# Indices 1 2 3 4 5 6 
#
# 1 0.012223 -0.001452 -0.001865 0.000000 0.000000 0.000000
# 2 -0.001452 0.011095 -0.002770 0.000000 0.000000 0.000000
# 3 -0.001865 -0.002770 0.008221 0.000000 0.000000 0.000000
# 4 0.000000 0.000000 0.000000 0.035841 0.000000 0.000000
# 5 0.000000 0.000000 0.000000 0.000000 0.052100 0.000000
# 6 0.000000 0.000000 0.000000 0.000000 0.000000 0.061801
#
#
# Mechanical properties :
#
#
# Convention : Reuss Voigt Hill
#
# Bulk Modulus (GPa) = 51.63753 55.05508 53.34631
# Shear Modulus (GPa) = 25.01133 29.19066 27.10099
#
# Velocity S-wave (km/s) = 3.44151 3.71794 3.58239
# Velocity P-wave (km/s) = 6.34387 6.67097 6.50947
#
# Compressibility (1/GPa) = 0.01936576
#
# Stress axis : x y z
#
# Youngs Moduli (GPa) = 81.81105 90.12910 121.64522
#
# Poissons Ratio (x) = 0.13087 0.22683
# Poissons Ratio (y) = 0.11879 0.33696
# Poissons Ratio (z) = 0.15255 0.24966
#
# Static dielectric constant tensor:
#      x y z
#    x 4.219620 0.000000 0.000000 
#    y 0.000000 3.789550 0.000000 
#    z 0.000000 0.000000 3.522510 
# 
# 
# High freq. dielectric constant tensor:
#      x y z
#    x 1.831520 0.000000 0.000000 
#    y 0.000000 1.831170 0.000000 
#    z 0.000000 0.000000 1.831820 
# 
# From -- ./inp_files/3718.got.cif
#   From: 2010.03.12/outbox.cif.g09.slc.cpg/sg54_2_cif.got.tgz:3718.got - 2010.04.16 15:00:50.
