data_PCOD8223001
_publ_section_title
;
Structure prediction by ZEFSAII (Michael W. Deem and Ramdas Pophale) SiO2 
 PCOD8223001
Probable space group: P C C A
;
_chemical_formula_sum "Si O2"
_cell_formula_units_Z 52
_cell_length_a 22.920661
_cell_length_b 12.396992
_cell_length_c 9.273596
_cell_angle_alpha 90.000000
_cell_angle_beta 90.000000
_cell_angle_gamma 90.000000
_cell_volume 2635.066811
_symmetry_space_group_name_H-M "P C C A"
_symmetry_group_IT_number 54
_symmetry_cell_setting 'orthorhombic'
loop_
_space_group_symop_operation_xyz
x,y,z
1/2-x,-y,z
1/2+x,-y,1/2-z
-x,y,1/2-z
-x,-y,-z
1/2+x,y,-z
1/2-x,y,1/2+z
x,-y,1/2+z
loop_
_atom_site_type_symbol
_atom_site_label
_atom_site_fract_x
_atom_site_fract_y
_atom_site_fract_z
Si Si1 0.419118 0.655127 0.260216
Si Si2 0.778309 0.885449 0.419137
Si Si3 0.184041 0.796560 0.789689
Si Si4 0.000000 0.459213 0.750000
Si Si5 0.955839 0.071816 0.586023
Si Si6 0.495606 0.293028 0.501860
Si Si7 0.384630 0.987791 0.169918
O O1 0.349534 0.680485 0.271721
O O2 0.441269 0.531209 0.274720
O O3 0.449430 0.722524 0.390685
O O4 0.438767 0.691965 0.101546
O O5 0.789858 0.806828 0.551817
O O6 0.736760 0.812057 0.321207
O O7 0.750000 0.000000 0.467219
O O8 0.837941 0.914785 0.336012
O O9 0.136904 0.890693 0.769809
O O10 0.008308 0.391534 0.605144
O O11 0.982831 0.190324 0.596358
O O12 0.896971 0.061085 0.488838
O O13 0.942404 0.035077 0.750221
O O14 0.000000 0.000000 0.500000
#
# Coordination Sequence:
#
# PCOD8223001 Si02
#       7
#     8   8   8   4   8   8   8
#     4  10  20  39  61  81 119 155 202 257 308 349
#     4  10  22  36  56  82 120 159 214 251 301 373
#     4  11  21  37  58  83 115 159 205 258 302 351
#     4  10  22  40  62  96 118 154 208 252 300 380
#     4  12  24  34  55  90 136 164 191 232 297 382
#     4  10  22  37  59  90 124 160 195 233 304 385
#     4  11  22  37  53  83 128 169 195 240 301 364
#
# _framework density 19.733844000000001
#
# number of rings (size 3 to 8) (size 9 to 14) (size 15 to 20)
#    0.000    1.538    3.077    4.615    6.462    0.000 
#    0.000    0.000    0.000    0.000    0.000   22.615 
#    0.000    0.000    0.000    0.000    0.000    0.000 
#
# Total GULP energy -644503.009590 kJ/mol
# GULP energy per Si atom -12394.288646 kJ/mol
# Density = 1.968893 g / cm^3
# Si number density = 19.733844 Si / 1000 Ang^3
#
#
#
# Elastic Constant Matrix: (Units=GPa)
#
#
# Indices 1 2 3 4 5 6 
#
# 1 88.7886 38.8590 30.6773 0.0000 0.0000 0.0000
# 2 38.8590 91.3114 38.7912 0.0000 0.0000 0.0000
# 3 30.6773 38.7912 107.9533 0.0000 0.0000 0.0000
# 4 0.0000 0.0000 0.0000 30.2289 0.0000 0.0000
# 5 0.0000 0.0000 0.0000 0.0000 31.1732 0.0000
# 6 0.0000 0.0000 0.0000 0.0000 0.0000 24.6666
#
#
#
# Elastic Compliance Matrix: (Units=1/GPa)
#
#
# Indices 1 2 3 4 5 6 
#
# 1 0.014274 -0.005135 -0.002211 0.000000 0.000000 0.000000
# 2 -0.005135 0.014772 -0.003849 0.000000 0.000000 0.000000
# 3 -0.002211 -0.003849 0.011275 0.000000 0.000000 0.000000
# 4 0.000000 0.000000 0.000000 0.033081 0.000000 0.000000
# 5 0.000000 0.000000 0.000000 0.000000 0.032079 0.000000
# 6 0.000000 0.000000 0.000000 0.000000 0.000000 0.040541
#
#
# Mechanical properties :
#
#
# Convention : Reuss Voigt Hill
#
# Bulk Modulus (GPa) = 55.77080 56.07871 55.92475
# Shear Modulus (GPa) = 28.67169 29.19546 28.93357
#
# Velocity S-wave (km/s) = 3.81585 3.85055 3.83324
# Velocity P-wave (km/s) = 6.90921 6.94609 6.92768
#
# Compressibility (1/GPa) = 0.01793053
#
# Stress axis : x y z
#
# Youngs Moduli (GPa) = 70.05680 67.69571 88.69523
#
# Poissons Ratio (x) = 0.34764 0.19611
# Poissons Ratio (y) = 0.35976 0.34137
# Poissons Ratio (z) = 0.15490 0.26054
#
# Static dielectric constant tensor:
#      x y z
#    x 3.703510 0.000000 0.000000 
#    y 0.000000 0.172720 0.000000 
#    z 0.000000 0.000000 3.943120 
# 
# 
# High freq. dielectric constant tensor:
#      x y z
#    x 1.758290 0.000000 0.000000 
#    y 0.000000 1.735610 0.000000 
#    z 0.000000 0.000000 1.790290 
# 
# From -- ./inp_files/5535.got.cif
#   From: 2010.03.12/outbox.cif.g09.slc.cpg/sg54_3_cif.got.tgz:5535.got - 2010.04.16 15:00:50.
