data_PCOD8223836
_publ_section_title
;
Structure prediction by ZEFSAII (Michael W. Deem and Ramdas Pophale) SiO2 
 PCOD8223836
Probable space group: P C C A
;
_chemical_formula_sum "Si O2"
_cell_formula_units_Z 40
_cell_length_a 21.395735
_cell_length_b 8.538851
_cell_length_c 9.111934
_cell_angle_alpha 90.000000
_cell_angle_beta 90.000000
_cell_angle_gamma 90.000000
_cell_volume 1664.704720
_symmetry_space_group_name_H-M "P C C A"
_symmetry_group_IT_number 54
_symmetry_cell_setting 'orthorhombic'
loop_
_space_group_symop_operation_xyz
x,y,z
1/2-x,-y,z
1/2+x,-y,1/2-z
-x,y,1/2-z
-x,-y,-z
1/2+x,y,-z
1/2-x,y,1/2+z
x,-y,1/2+z
loop_
_atom_site_type_symbol
_atom_site_label
_atom_site_fract_x
_atom_site_fract_y
_atom_site_fract_z
Si Si1 0.894278 0.881819 0.335516
Si Si2 0.250000 0.500000 0.067421
Si Si3 0.320227 0.012031 0.892123
Si Si4 0.500000 0.887647 0.250000
Si Si5 0.953584 0.357585 0.032141
Si Si6 0.172627 0.349860 0.319642
O O1 0.866794 0.971042 0.474178
O O2 0.924189 0.714565 0.381290
O O3 0.840054 0.862129 0.210131
O O4 0.941557 0.999616 0.259687
O O5 0.195784 0.429574 0.170268
O O6 0.282190 0.373042 0.961270
O O7 0.327970 0.165311 0.788709
O O8 0.250000 0.000000 0.950428
O O9 0.505918 0.779954 0.105936
O O10 0.897263 0.411865 0.140509
O O11 0.000000 0.500000 0.000000
#
# Coordination Sequence:
#
# PCOD8223836 Si02
#       6
#     8   4   8   4   8   8
#     4  11  24  48  72 105 149 189 246 306 363 443
#     4  10  24  46  68  98 150 188 232 310 374 432
#     4  11  25  43  75 109 140 190 249 299 371 441
#     4  12  24  50  68 106 146 192 248 306 368 436
#     4  11  27  46  72 108 143 194 249 303 371 441
#     4  10  24  46  69 104 141 191 242 299 370 446
#
# _framework density 24.028283999999999
#
# number of rings (size 3 to 8) (size 9 to 14) (size 15 to 20)
#    0.000    1.200    4.000    1.200   11.200    0.800 
#    7.200    0.000    0.000    0.000    0.000    0.000 
#    0.000    0.000    0.000    0.000    0.000    0.000 
#
# Total GULP energy -495881.148197 kJ/mol
# GULP energy per Si atom -12397.028705 kJ/mol
# Density = 2.397359 g / cm^3
# Si number density = 24.028284 Si / 1000 Ang^3
#
#
#
# Elastic Constant Matrix: (Units=GPa)
#
#
# Indices 1 2 3 4 5 6 
#
# 1 117.2459 42.2730 23.9847 0.0000 0.0000 0.0000
# 2 42.2730 80.8074 29.8861 0.0000 0.0000 0.0000
# 3 23.9847 29.8861 82.4476 0.0000 0.0000 0.0000
# 4 0.0000 0.0000 0.0000 35.8534 0.0000 0.0000
# 5 0.0000 0.0000 0.0000 0.0000 22.9662 0.0000
# 6 0.0000 0.0000 0.0000 0.0000 0.0000 35.6583
#
#
#
# Elastic Compliance Matrix: (Units=1/GPa)
#
#
# Indices 1 2 3 4 5 6 
#
# 1 0.010621 -0.005097 -0.001242 0.000000 0.000000 0.000000
# 2 -0.005097 0.016737 -0.004584 0.000000 0.000000 0.000000
# 3 -0.001242 -0.004584 0.014152 0.000000 0.000000 0.000000
# 4 0.000000 0.000000 0.000000 0.027891 0.000000 0.000000
# 5 0.000000 0.000000 0.000000 0.000000 0.043542 0.000000
# 6 0.000000 0.000000 0.000000 0.000000 0.000000 0.028044
#
#
# Mechanical properties :
#
#
# Convention : Reuss Voigt Hill
#
# Bulk Modulus (GPa) = 50.85581 52.53206 51.69394
# Shear Modulus (GPa) = 29.51808 31.18606 30.35207
#
# Velocity S-wave (km/s) = 3.50876 3.60653 3.55798
# Velocity P-wave (km/s) = 6.13401 6.26521 6.19996
#
# Compressibility (1/GPa) = 0.01966344
#
# Stress axis : x y z
#
# Youngs Moduli (GPa) = 94.15495 59.74873 70.66145
#
# Poissons Ratio (x) = 0.30452 0.08778
# Poissons Ratio (y) = 0.47988 0.32393
# Poissons Ratio (z) = 0.11696 0.27390
#
# Static dielectric constant tensor:
#      x y z
#    x 5.500240 0.000000 0.000000 
#    y 0.000000 4.189920 0.000000 
#    z 0.000000 0.000000 4.349440 
# 
# 
# High freq. dielectric constant tensor:
#      x y z
#    x 1.974490 0.000000 0.000000 
#    y 0.000000 1.934220 0.000000 
#    z 0.000000 0.000000 1.954360 
# 
# From -- ./inp_files/5064.got.cif
#   From: 2010.03.12/outbox.cif.g09.slc.cpg/sg54_3_cif.got.tgz:5064.got - 2010.04.16 15:00:50.
