data_PCOD8223842
_publ_section_title
;
Structure prediction by ZEFSAII (Michael W. Deem and Ramdas Pophale) SiO2 
 PCOD8223842
Probable space group: P C C A
;
_chemical_formula_sum "Si O2"
_cell_formula_units_Z 40
_cell_length_a 9.344769
_cell_length_b 7.562100
_cell_length_c 24.792478
_cell_angle_alpha 90.000000
_cell_angle_beta 90.000000
_cell_angle_gamma 90.000000
_cell_volume 1751.987176
_symmetry_space_group_name_H-M "P C C A"
_symmetry_group_IT_number 54
_symmetry_cell_setting 'orthorhombic'
loop_
_space_group_symop_operation_xyz
x,y,z
1/2-x,-y,z
1/2+x,-y,1/2-z
-x,y,1/2-z
-x,-y,-z
1/2+x,y,-z
1/2-x,y,1/2+z
x,-y,1/2+z
loop_
_atom_site_type_symbol
_atom_site_label
_atom_site_fract_x
_atom_site_fract_y
_atom_site_fract_z
Si Si1 0.175989 0.316825 0.460667
Si Si2 0.904377 0.140377 0.470738
Si Si3 0.906390 0.004959 0.350773
Si Si4 0.627644 0.291631 0.661172
Si Si5 0.566305 0.678668 0.691339
O O1 0.250000 0.500000 0.474092
O O2 0.254402 0.172933 0.499178
O O3 0.194788 0.262076 0.398321
O O4 0.004730 0.317598 0.471456
O O5 0.875884 0.073629 0.410751
O O6 0.000000 0.000000 0.500000
O O7 0.011413 0.145323 0.321511
O O8 0.750000 0.000000 0.322018
O O9 0.981590 0.813083 0.348077
O O10 0.552934 0.483652 0.665422
O O11 0.766289 0.272157 0.699273
O O12 0.500000 0.685024 0.750000
#
# Coordination Sequence:
#
# PCOD8223842 Si02
#       5
#     8   8   8   8   8
#     4  11  21  41  65  96 136 182 226 279 347 418
#     4  11  23  38  63  95 134 181 225 277 335 411
#     4  11  25  43  65 102 140 177 228 288 341 415
#     4  10  24  46  71  99 140 180 231 292 358 421
#     4  11  24  44  73  97 128 178 232 291 358 423
#
# _framework density 22.831216999999999
#
# number of rings (size 3 to 8) (size 9 to 14) (size 15 to 20)
#    0.000    1.200    2.000    4.200    0.000    9.600 
#    7.200    0.000    0.000    0.000    0.000    0.000 
#    0.000    0.000    0.000    0.000    0.000    0.000 
#
# Total GULP energy -495848.053501 kJ/mol
# GULP energy per Si atom -12396.201338 kJ/mol
# Density = 2.277925 g / cm^3
# Si number density = 22.831217 Si / 1000 Ang^3
#
#
#
# Elastic Constant Matrix: (Units=GPa)
#
#
# Indices 1 2 3 4 5 6 
#
# 1 183.2681 73.9295 40.5401 0.0000 0.0000 0.0000
# 2 73.9295 116.8268 28.1292 0.0000 0.0000 0.0000
# 3 40.5401 28.1292 92.9464 0.0000 0.0000 0.0000
# 4 0.0000 0.0000 0.0000 17.1038 0.0000 0.0000
# 5 0.0000 0.0000 0.0000 0.0000 38.0752 0.0000
# 6 0.0000 0.0000 0.0000 0.0000 0.0000 41.2407
#
#
#
# Elastic Compliance Matrix: (Units=1/GPa)
#
#
# Indices 1 2 3 4 5 6 
#
# 1 0.007664 -0.004363 -0.002022 0.000000 0.000000 0.000000
# 2 -0.004363 0.011716 -0.001643 0.000000 0.000000 0.000000
# 3 -0.002022 -0.001643 0.012138 0.000000 0.000000 0.000000
# 4 0.000000 0.000000 0.000000 0.058467 0.000000 0.000000
# 5 0.000000 0.000000 0.000000 0.000000 0.026264 0.000000
# 6 0.000000 0.000000 0.000000 0.000000 0.000000 0.024248
#
#
# Mechanical properties :
#
#
# Convention : Reuss Voigt Hill
#
# Bulk Modulus (GPa) = 64.67439 75.35986 70.01713
# Shear Modulus (GPa) = 30.92027 35.98010 33.45019
#
# Velocity S-wave (km/s) = 3.68407 3.97409 3.83182
# Velocity P-wave (km/s) = 6.81800 7.35778 7.09303
#
# Compressibility (1/GPa) = 0.01546207
#
# Stress axis : x y z
#
# Youngs Moduli (GPa) = 130.48403 85.35287 82.38487
#
# Poissons Ratio (x) = 0.37238 0.16661
# Poissons Ratio (y) = 0.56928 0.13534
# Poissons Ratio (z) = 0.26388 0.14022
#
# Static dielectric constant tensor:
#      x y z
#    x 5.013470 0.000000 0.000000 
#    y 0.000000 4.357940 0.000000 
#    z 0.000000 0.000000 3.762470 
# 
# 
# High freq. dielectric constant tensor:
#      x y z
#    x 1.923610 0.000000 0.000000 
#    y 0.000000 1.907390 0.000000 
#    z 0.000000 0.000000 1.881110 
# 
# From -- ./inp_files/23247.got.cif
#   From: 2010.03.12/outbox.cif.g09.slc.cpg/sg54_12_cif.got.tgz:23247.got - 2010.04.16 15:00:50.
