data_PCOD8223189
_publ_section_title
;
Structure prediction by ZEFSAII (Michael W. Deem and Ramdas Pophale) SiO2 
 PCOD8223189
Probable space group: P C C A
;
_chemical_formula_sum "Si O2"
_cell_formula_units_Z 32
_cell_length_a 17.026652
_cell_length_b 5.010443
_cell_length_c 17.301529
_cell_angle_alpha 90.000000
_cell_angle_beta 90.000000
_cell_angle_gamma 90.000000
_cell_volume 1476.011940
_symmetry_space_group_name_H-M "P C C A"
_symmetry_group_IT_number 54
_symmetry_cell_setting 'orthorhombic'
loop_
_space_group_symop_operation_xyz
x,y,z
1/2-x,-y,z
1/2+x,-y,1/2-z
-x,y,1/2-z
-x,-y,-z
1/2+x,y,-z
1/2-x,y,1/2+z
x,-y,1/2+z
loop_
_atom_site_type_symbol
_atom_site_label
_atom_site_fract_x
_atom_site_fract_y
_atom_site_fract_z
Si Si1 0.700802 0.249610 0.636992
Si Si2 0.200281 0.746938 0.045836
Si Si3 0.471311 0.114464 0.833107
Si Si4 0.472371 0.388334 0.082477
O O1 0.750000 0.500000 0.667760
O O2 0.688951 0.259516 0.545560
O O3 0.615542 0.235449 0.674872
O O4 0.750000 0.000000 0.665087
O O5 0.250000 0.500000 0.076212
O O6 0.114299 0.738026 0.083068
O O7 0.250000 0.000000 0.073815
O O8 0.500000 0.013435 0.750000
O O9 0.526448 0.357531 0.860978
O O10 0.471552 0.856402 0.890289
O O11 0.500000 0.500000 0.000000
#
# Coordination Sequence:
#
# PCOD8223189 Si02
#       4
#     8   8   8   8
#     4  10  21  38  64  93 130 171 223 270 325 398
#     4  10  21  37  62  98 131 162 220 283 329 379
#     4  12  26  44  66 100 140 178 222 274 337 399
#     4  12  24  42  70  98 131 174 227 278 330 391
#
# _framework density 21.680042
#
# number of rings (size 3 to 8) (size 9 to 14) (size 15 to 20)
#    0.000    1.000    2.500    4.500    7.000    0.000 
#    0.000    7.500    0.000    0.000    0.000    0.000 
#    0.000    0.000    0.000    0.000    0.000    0.000 
#
# Total GULP energy -396882.408060 kJ/mol
# GULP energy per Si atom -12402.575252 kJ/mol
# Density = 2.163070 g / cm^3
# Si number density = 21.680042 Si / 1000 Ang^3
#
#
#
# Elastic Constant Matrix: (Units=GPa)
#
#
# Indices 1 2 3 4 5 6 
#
# 1 151.5065 64.3558 46.4733 0.0000 0.0000 0.0000
# 2 64.3558 184.4118 45.0481 0.0000 0.0000 0.0000
# 3 46.4733 45.0481 69.1910 0.0000 0.0000 0.0000
# 4 0.0000 0.0000 0.0000 43.1507 0.0000 0.0000
# 5 0.0000 0.0000 0.0000 0.0000 27.6131 0.0000
# 6 0.0000 0.0000 0.0000 0.0000 0.0000 45.2149
#
#
#
# Elastic Compliance Matrix: (Units=1/GPa)
#
#
# Indices 1 2 3 4 5 6 
#
# 1 0.008866 -0.001949 -0.004686 0.000000 0.000000 0.000000
# 2 -0.001949 0.006877 -0.003168 0.000000 0.000000 0.000000
# 3 -0.004686 -0.003168 0.019663 0.000000 0.000000 0.000000
# 4 0.000000 0.000000 0.000000 0.023175 0.000000 0.000000
# 5 0.000000 0.000000 0.000000 0.000000 0.036215 0.000000
# 6 0.000000 0.000000 0.000000 0.000000 0.000000 0.022117
#
#
# Mechanical properties :
#
#
# Convention : Reuss Voigt Hill
#
# Bulk Modulus (GPa) = 63.29469 79.65151 71.47310
# Shear Modulus (GPa) = 35.26513 39.81121 37.53817
#
# Velocity S-wave (km/s) = 4.03751 4.28986 4.16560
# Velocity P-wave (km/s) = 7.14098 7.83304 7.49500
#
# Compressibility (1/GPa) = 0.01579911
#
# Stress axis : x y z
#
# Youngs Moduli (GPa) = 112.79449 145.41672 50.85819
#
# Poissons Ratio (x) = 0.28346 0.23830
# Poissons Ratio (y) = 0.21987 0.16112
# Poissons Ratio (z) = 0.52852 0.46067
#
# Static dielectric constant tensor:
#      x y z
#    x 4.146390 0.000000 0.000000 
#    y 0.000000 4.203960 0.000000 
#    z 0.000000 0.000000 3.547380 
# 
# 
# High freq. dielectric constant tensor:
#      x y z
#    x 1.863240 0.000000 0.000000 
#    y 0.000000 1.874390 0.000000 
#    z 0.000000 0.000000 1.814880 
# 
# From -- ./inp_files/17582.got.cif
#   From: 2010.03.12/outbox.cif.g09.slc.cpg/sg54_9_cif.got.tgz:17582.got - 2010.04.16 15:00:50.
