data_PCOD8223963
_publ_section_title
;
Structure prediction by ZEFSAII (Michael W. Deem and Ramdas Pophale) SiO2 
 PCOD8223963
Probable space group: P C C A
;
_chemical_formula_sum "Si O2"
_cell_formula_units_Z 56
_cell_length_a 10.456727
_cell_length_b 14.762718
_cell_length_c 17.237301
_cell_angle_alpha 90.000000
_cell_angle_beta 90.000000
_cell_angle_gamma 90.000000
_cell_volume 2660.917189
_symmetry_space_group_name_H-M "P C C A"
_symmetry_group_IT_number 54
_symmetry_cell_setting 'orthorhombic'
loop_
_space_group_symop_operation_xyz
x,y,z
1/2-x,-y,z
1/2+x,-y,1/2-z
-x,y,1/2-z
-x,-y,-z
1/2+x,y,-z
1/2-x,y,1/2+z
x,-y,1/2+z
loop_
_atom_site_type_symbol
_atom_site_label
_atom_site_fract_x
_atom_site_fract_y
_atom_site_fract_z
Si Si1 0.413922 0.333512 0.963735
Si Si2 0.761969 0.735567 0.305923
Si Si3 0.816839 0.278206 0.633319
Si Si4 0.464269 0.162918 0.473727
Si Si5 0.938422 0.587215 0.829846
Si Si6 0.259702 0.899413 0.579516
Si Si7 0.451653 0.610604 0.631023
O O1 0.281489 0.289096 0.937480
O O2 0.460091 0.403508 0.898874
O O3 0.515169 0.252914 0.974925
O O4 0.397624 0.389011 0.043340
O O5 0.743689 0.746457 0.213347
O O6 0.678950 0.654227 0.343233
O O7 0.735907 0.829551 0.349970
O O8 0.903807 0.699529 0.322476
O O9 0.908423 0.194130 0.609812
O O10 0.895026 0.373801 0.637178
O O11 0.356779 0.104002 0.517433
O O12 0.601072 0.113683 0.460832
O O13 0.902759 0.480973 0.827688
O O14 0.000000 0.618693 0.750000
O O15 0.250000 0.000000 0.615381
#
# Coordination Sequence:
#
# PCOD8223963 Si02
#       7
#     8   8   8   8   8   8   8
#     4  11  22  41  65  96 129 181 224 273 325 389
#     4  12  23  42  67  92 137 171 215 276 335 399
#     4  11  22  41  69  94 130 179 218 271 342 393
#     4  11  22  44  72  98 132 173 222 279 338 400
#     4  12  24  41  63  95 136 178 218 271 327 394
#     4  12  25  44  73 100 130 173 223 279 341 409
#     4  11  25  40  65  93 131 177 228 266 327 393
#
# _framework density 21.045373999999999
#
# number of rings (size 3 to 8) (size 9 to 14) (size 15 to 20)
#    0.000    0.571    7.143    2.571    2.000    0.571 
#    2.571    0.714    6.286    0.000    0.000    0.000 
#    0.000    0.000    0.000    0.000    0.000    0.000 
#
# Total GULP energy -694250.561390 kJ/mol
# GULP energy per Si atom -12397.331453 kJ/mol
# Density = 2.099747 g / cm^3
# Si number density = 21.045374 Si / 1000 Ang^3
#
#
#
# Elastic Constant Matrix: (Units=GPa)
#
#
# Indices 1 2 3 4 5 6 
#
# 1 93.8678 30.8876 34.1911 0.0000 0.0000 0.0000
# 2 30.8876 133.8484 31.7402 0.0000 0.0000 0.0000
# 3 34.1911 31.7402 109.9815 0.0000 0.0000 0.0000
# 4 0.0000 0.0000 0.0000 22.5174 0.0000 0.0000
# 5 0.0000 0.0000 0.0000 0.0000 34.4326 0.0000
# 6 0.0000 0.0000 0.0000 0.0000 0.0000 22.6379
#
#
#
# Elastic Compliance Matrix: (Units=1/GPa)
#
#
# Indices 1 2 3 4 5 6 
#
# 1 0.012548 -0.002115 -0.003290 0.000000 0.000000 0.000000
# 2 -0.002115 0.008377 -0.001760 0.000000 0.000000 0.000000
# 3 -0.003290 -0.001760 0.010623 0.000000 0.000000 0.000000
# 4 0.000000 0.000000 0.000000 0.044410 0.000000 0.000000
# 5 0.000000 0.000000 0.000000 0.000000 0.029042 0.000000
# 6 0.000000 0.000000 0.000000 0.000000 0.000000 0.044174
#
#
# Mechanical properties :
#
#
# Convention : Reuss Voigt Hill
#
# Bulk Modulus (GPa) = 58.08367 59.03728 58.56047
# Shear Modulus (GPa) = 29.54319 31.97617 30.75968
#
# Velocity S-wave (km/s) = 3.75078 3.90217 3.82722
# Velocity P-wave (km/s) = 6.81300 6.95815 6.88596
#
# Compressibility (1/GPa) = 0.01721654
#
# Stress axis : x y z
#
# Youngs Moduli (GPa) = 79.69487 119.38007 94.13321
#
# Poissons Ratio (x) = 0.25253 0.30974
# Poissons Ratio (y) = 0.16858 0.16566
# Poissons Ratio (z) = 0.26223 0.21009
#
# Static dielectric constant tensor:
#      x y z
#    x 3.940600 0.000000 0.000000 
#    y 0.000000 3.545250 0.000000 
#    z 0.000000 0.000000 3.739060 
# 
# 
# High freq. dielectric constant tensor:
#      x y z
#    x 1.836280 0.000000 0.000000 
#    y 0.000000 1.800960 0.000000 
#    z 0.000000 0.000000 1.824820 
# 
# From -- ./inp_files/12703.got.cif
#   From: 2010.03.12/outbox.cif.g09.slc.cpg/sg54_7_cif.got.tgz:12703.got - 2010.04.16 15:00:50.
