data_PCOD8223305
_publ_section_title
;
Structure prediction by ZEFSAII (Michael W. Deem and Ramdas Pophale) SiO2 
 PCOD8223305
Probable space group: P C C A
;
_chemical_formula_sum "Si O2"
_cell_formula_units_Z 40
_cell_length_a 11.560340
_cell_length_b 9.114912
_cell_length_c 18.140276
_cell_angle_alpha 90.000000
_cell_angle_beta 90.000000
_cell_angle_gamma 90.000000
_cell_volume 1911.467762
_symmetry_space_group_name_H-M "P C C A"
_symmetry_group_IT_number 54
_symmetry_cell_setting 'orthorhombic'
loop_
_space_group_symop_operation_xyz
x,y,z
1/2-x,-y,z
1/2+x,-y,1/2-z
-x,y,1/2-z
-x,-y,-z
1/2+x,y,-z
1/2-x,y,1/2+z
x,-y,1/2+z
loop_
_atom_site_type_symbol
_atom_site_label
_atom_site_fract_x
_atom_site_fract_y
_atom_site_fract_z
Si Si1 0.783257 0.341980 0.847705
Si Si2 0.924899 0.109515 0.178339
Si Si3 0.025274 0.614228 0.409466
Si Si4 0.949508 0.703700 0.931264
Si Si5 0.828244 0.793576 0.197464
O O1 0.750000 0.500000 0.812648
O O2 0.675909 0.288205 0.894903
O O3 0.822940 0.230094 0.784809
O O4 0.890624 0.348401 0.902629
O O5 0.803614 0.193609 0.172761
O O6 0.000000 0.160776 0.250000
O O7 0.988242 0.152538 0.102090
O O8 0.904789 0.936318 0.180848
O O9 0.069907 0.703857 0.480883
O O10 0.107175 0.658309 0.341505
O O11 0.030354 0.437633 0.413786
#
# Coordination Sequence:
#
# PCOD8223305 Si02
#       5
#     8   8   8   8   8
#     4  10  21  40  64  96 126 163 213 264 317 373
#     4  11  23  41  63  92 127 167 210 256 320 377
#     4  10  23  40  65  96 128 163 213 259 316 385
#     4  10  23  41  64  93 130 169 203 262 325 378
#     4  11  24  40  65  93 123 165 214 266 309 378
#
# _framework density 20.926326
#
# number of rings (size 3 to 8) (size 9 to 14) (size 15 to 20)
#    0.000    1.600    2.000    1.800    5.600    0.800 
#    0.000    0.000    0.000    0.000    0.000    0.000 
#    0.000    0.000    0.000    0.000    0.000    0.000 
#
# Total GULP energy -495893.215667 kJ/mol
# GULP energy per Si atom -12397.330392 kJ/mol
# Density = 2.087870 g / cm^3
# Si number density = 20.926326 Si / 1000 Ang^3
#
#
#
# Elastic Constant Matrix: (Units=GPa)
#
#
# Indices 1 2 3 4 5 6 
#
# 1 109.2853 40.5143 41.4543 0.0000 0.0000 0.0000
# 2 40.5143 68.2173 35.3580 0.0000 0.0000 0.0000
# 3 41.4543 35.3580 117.1799 0.0000 0.0000 0.0000
# 4 0.0000 0.0000 0.0000 32.6181 0.0000 0.0000
# 5 0.0000 0.0000 0.0000 0.0000 34.5732 0.0000
# 6 0.0000 0.0000 0.0000 0.0000 0.0000 24.5451
#
#
#
# Elastic Compliance Matrix: (Units=1/GPa)
#
#
# Indices 1 2 3 4 5 6 
#
# 1 0.012347 -0.006009 -0.002555 0.000000 0.000000 0.000000
# 2 -0.006009 0.020301 -0.004000 0.000000 0.000000 0.000000
# 3 -0.002555 -0.004000 0.010645 0.000000 0.000000 0.000000
# 4 0.000000 0.000000 0.000000 0.030658 0.000000 0.000000
# 5 0.000000 0.000000 0.000000 0.000000 0.028924 0.000000
# 6 0.000000 0.000000 0.000000 0.000000 0.000000 0.040741
#
#
# Mechanical properties :
#
#
# Convention : Reuss Voigt Hill
#
# Bulk Modulus (GPa) = 55.04939 58.81510 56.93224
# Shear Modulus (GPa) = 28.60446 30.17101 29.38774
#
# Velocity S-wave (km/s) = 3.70119 3.80119 3.75152
# Velocity P-wave (km/s) = 6.68045 6.88710 6.78457
#
# Compressibility (1/GPa) = 0.01816551
#
# Stress axis : x y z
#
# Youngs Moduli (GPa) = 80.99116 49.25916 93.94375
#
# Poissons Ratio (x) = 0.29598 0.24002
# Poissons Ratio (y) = 0.48665 0.37577
# Poissons Ratio (z) = 0.20692 0.19703
#
# Static dielectric constant tensor:
#      x y z
#    x 3.907360 0.000000 0.000000 
#    y 0.000000 3.725130 0.000000 
#    z 0.000000 0.000000 3.675270 
# 
# 
# High freq. dielectric constant tensor:
#      x y z
#    x 1.838930 0.000000 0.000000 
#    y 0.000000 1.805460 0.000000 
#    z 0.000000 0.000000 1.811750 
# 
# From -- ./inp_files/17080.got.cif
#   From: 2010.03.12/outbox.cif.g09.slc.cpg/sg54_9_cif.got.tgz:17080.got - 2010.04.16 15:00:50.
