data_PCOD8223470
_publ_section_title
;
Structure prediction by ZEFSAII (Michael W. Deem and Ramdas Pophale) SiO2 
 PCOD8223470
Probable space group: P C C A
;
_chemical_formula_sum "Si O2"
_cell_formula_units_Z 48
_cell_length_a 17.318474
_cell_length_b 9.467615
_cell_length_c 14.705791
_cell_angle_alpha 90.000000
_cell_angle_beta 90.000000
_cell_angle_gamma 90.000000
_cell_volume 2411.229789
_symmetry_space_group_name_H-M "P C C A"
_symmetry_group_IT_number 54
_symmetry_cell_setting 'orthorhombic'
loop_
_space_group_symop_operation_xyz
x,y,z
1/2-x,-y,z
1/2+x,-y,1/2-z
-x,y,1/2-z
-x,-y,-z
1/2+x,y,-z
1/2-x,y,1/2+z
x,-y,1/2+z
loop_
_atom_site_type_symbol
_atom_site_label
_atom_site_fract_x
_atom_site_fract_y
_atom_site_fract_z
Si Si1 0.077776 0.447444 0.041879
Si Si2 0.321741 0.291229 0.078947
Si Si3 0.419586 0.232722 0.701752
Si Si4 0.662500 0.984068 0.419659
Si Si5 0.309585 0.255414 0.444214
Si Si6 0.762489 0.665207 0.734833
O O1 0.120422 0.580258 0.086188
O O2 0.060832 0.343978 0.124144
O O3 0.124331 0.371178 0.961227
O O4 0.000000 0.500000 0.000000
O O5 0.265894 0.289786 0.165981
O O6 0.369056 0.143822 0.066906
O O7 0.267093 0.312618 0.992780
O O8 0.500000 0.197306 0.750000
O O9 0.389612 0.088408 0.656573
O O10 0.353767 0.294555 0.769892
O O11 0.663740 0.896493 0.515023
O O12 0.750000 0.000000 0.383515
O O13 0.288287 0.245535 0.337828
O O14 0.750000 0.500000 0.715470
#
# Coordination Sequence:
#
# PCOD8223470 Si02
#       6
#     8   8   8   8   8   8
#     4  11  23  40  63  92 134 169 207 281 334 381
#     4  11  20  43  66  91 127 168 223 268 310 391
#     4  11  24  41  62  97 133 165 211 274 335 382
#     4   9  19  44  65  87 130 167 212 265 317 389
#     4  10  22  39  63  96 123 166 221 260 321 395
#     4  12  21  38  70  98 124 170 223 270 319 389
#
# _framework density 19.906853999999999
#
# number of rings (size 3 to 8) (size 9 to 14) (size 15 to 20)
#    0.000    1.333    6.667    1.500    4.667    0.000 
#    9.000    5.833    0.000    0.000    0.000    0.000 
#    0.000    0.000    0.000    0.000    0.000    0.000 
#
# Total GULP energy -595145.847082 kJ/mol
# GULP energy per Si atom -12398.871814 kJ/mol
# Density = 1.986155 g / cm^3
# Si number density = 19.906854 Si / 1000 Ang^3
#
#
#
# Elastic Constant Matrix: (Units=GPa)
#
#
# Indices 1 2 3 4 5 6 
#
# 1 106.3916 41.7075 20.6199 0.0000 0.0000 0.0000
# 2 41.7075 102.0915 6.8947 0.0000 0.0000 0.0000
# 3 20.6199 6.8947 51.3491 0.0000 0.0000 0.0000
# 4 0.0000 0.0000 0.0000 17.9458 0.0000 0.0000
# 5 0.0000 0.0000 0.0000 0.0000 32.4594 0.0000
# 6 0.0000 0.0000 0.0000 0.0000 0.0000 28.1997
#
#
#
# Elastic Compliance Matrix: (Units=1/GPa)
#
#
# Indices 1 2 3 4 5 6 
#
# 1 0.012030 -0.004630 -0.004209 0.000000 0.000000 0.000000
# 2 -0.004630 0.011667 0.000293 0.000000 0.000000 0.000000
# 3 -0.004209 0.000293 0.021125 0.000000 0.000000 0.000000
# 4 0.000000 0.000000 0.000000 0.055723 0.000000 0.000000
# 5 0.000000 0.000000 0.000000 0.000000 0.030808 0.000000
# 6 0.000000 0.000000 0.000000 0.000000 0.000000 0.035461
#
#
# Mechanical properties :
#
#
# Convention : Reuss Voigt Hill
#
# Bulk Modulus (GPa) = 36.06301 44.25293 40.15797
# Shear Modulus (GPa) = 25.88635 28.42830 27.15733
#
# Velocity S-wave (km/s) = 3.60998 3.78308 3.69754
# Velocity P-wave (km/s) = 5.96080 6.43121 6.20047
#
# Compressibility (1/GPa) = 0.02772924
#
# Stress axis : x y z
#
# Youngs Moduli (GPa) = 83.12377 85.71153 47.33629
#
# Poissons Ratio (x) = 0.39688 0.19925
# Poissons Ratio (y) = 0.38490 -0.01386
# Poissons Ratio (z) = 0.34988 -0.02510
#
# Static dielectric constant tensor:
#      x y z
#    x 3.351450 0.000000 0.000000 
#    y 0.000000 3.974340 0.000000 
#    z 0.000000 0.000000 3.582810 
# 
# 
# High freq. dielectric constant tensor:
#      x y z
#    x 1.760890 0.000000 0.000000 
#    y 0.000000 1.791760 0.000000 
#    z 0.000000 0.000000 1.765430 
# 
# From -- ./inp_files/14135.got.cif
#   From: 2010.03.12/outbox.cif.g09.slc.cpg/sg54_8_cif.got.tgz:14135.got - 2010.04.16 15:00:50.
