data_PCOD8223233
_publ_section_title
;
Structure prediction by ZEFSAII (Michael W. Deem and Ramdas Pophale) SiO2 
 PCOD8223233
Probable space group: P C C A
;
_chemical_formula_sum "Si O2"
_cell_formula_units_Z 40
_cell_length_a 9.157923
_cell_length_b 13.490237
_cell_length_c 16.460726
_cell_angle_alpha 90.000000
_cell_angle_beta 90.000000
_cell_angle_gamma 90.000000
_cell_volume 2033.600093
_symmetry_space_group_name_H-M "P C C A"
_symmetry_group_IT_number 54
_symmetry_cell_setting 'orthorhombic'
loop_
_space_group_symop_operation_xyz
x,y,z
1/2-x,-y,z
1/2+x,-y,1/2-z
-x,y,1/2-z
-x,-y,-z
1/2+x,y,-z
1/2-x,y,1/2+z
x,-y,1/2+z
loop_
_atom_site_type_symbol
_atom_site_label
_atom_site_fract_x
_atom_site_fract_y
_atom_site_fract_z
Si Si1 0.321064 0.313824 0.934337
Si Si2 0.750000 0.500000 0.162286
Si Si3 0.104210 0.863067 0.827917
Si Si4 0.500000 0.615242 0.750000
Si Si5 0.011209 0.268263 0.590970
Si Si6 0.071356 0.921205 0.335245
O O1 0.339605 0.421850 0.893490
O O2 0.416877 0.231471 0.886432
O O3 0.150216 0.293511 0.938198
O O4 0.375759 0.311853 0.026531
O O5 0.635331 0.449679 0.221724
O O6 0.276490 0.869034 0.808775
O O7 0.000000 0.846415 0.750000
O O8 0.074306 0.968084 0.874319
O O9 0.445784 0.683802 0.676663
O O10 0.019613 0.148927 0.603325
O O11 0.000000 0.939732 0.250000
#
# Coordination Sequence:
#
# PCOD8223233 Si02
#       6
#     8   4   8   4   8   8
#     4  10  23  38  56  86 117 150 196 245 288 342
#     4  10  24  40  58  88 114 152 202 242 292 342
#     4   9  19  34  56  87 118 150 192 237 288 349
#     4  10  22  40  62  82 110 156 196 240 292 356
#     4  10  21  39  58  85 117 152 192 237 295 348
#     4   9  17  34  58  83 118 154 187 232 288 354
#
# _framework density 19.669551999999999
#
# number of rings (size 3 to 8) (size 9 to 14) (size 15 to 20)
#    0.000    2.400    1.000    0.000    1.400    8.000 
#    0.000    0.000    0.000    0.000    0.000    0.000 
#    0.000    0.000    0.000    0.000    0.000    0.000 
#
# Total GULP energy -495654.874311 kJ/mol
# GULP energy per Si atom -12391.371858 kJ/mol
# Density = 1.962478 g / cm^3
# Si number density = 19.669552 Si / 1000 Ang^3
#
#
#
# Elastic Constant Matrix: (Units=GPa)
#
#
# Indices 1 2 3 4 5 6 
#
# 1 38.7651 38.1451 43.6065 0.0000 0.0000 0.0000
# 2 38.1451 154.4559 72.9500 0.0000 0.0000 0.0000
# 3 43.6065 72.9500 133.6424 0.0000 0.0000 0.0000
# 4 0.0000 0.0000 0.0000 -1.0587 0.0000 0.0000
# 5 0.0000 0.0000 0.0000 0.0000 32.5680 0.0000
# 6 0.0000 0.0000 0.0000 0.0000 0.0000 17.8022
#
#
#
# Elastic Compliance Matrix: (Units=1/GPa)
#
#
# Indices 1 2 3 4 5 6 
#
# 1 0.043971 -0.005501 -0.011345 0.000000 0.000000 0.000000
# 2 -0.005501 0.009412 -0.003342 0.000000 0.000000 0.000000
# 3 -0.011345 -0.003342 0.013009 0.000000 0.000000 0.000000
# 4 0.000000 0.000000 0.000000 -0.944548 0.000000 0.000000
# 5 0.000000 0.000000 0.000000 0.000000 0.030705 0.000000
# 6 0.000000 0.000000 0.000000 0.000000 0.000000 0.056173
#
#
# Mechanical properties :
#
#
# Convention : Reuss Voigt Hill
#
# Bulk Modulus (GPa) = 38.43926 70.69630 54.56778
# Shear Modulus (GPa) = -6.73645 21.33976 7.30166
#
# Velocity S-wave (km/s) = -1.85263 3.29738 1.92879
# Velocity P-wave (km/s) = 3.87410 7.10753 5.72388
#
# Compressibility (1/GPa) = 0.02601507
#
# Stress axis : x y z
#
# Youngs Moduli (GPa) = 22.74226 106.25225 76.87130
#
# Poissons Ratio (x) = 0.58452 0.87207
# Poissons Ratio (y) = 0.12511 0.25693
# Poissons Ratio (z) = 0.25800 0.35514
#
# Static dielectric constant tensor:
#      x y z
#    x 3.378450 0.000000 0.000000 
#    y 0.000000 4.159950 0.000000 
#    z 0.000000 0.000000 3.382620 
# 
# 
# High freq. dielectric constant tensor:
#      x y z
#    x 1.755780 0.000000 0.000000 
#    y 0.000000 1.788890 0.000000 
#    z 0.000000 0.000000 1.748250 
# 
# From -- ./inp_files/11533.got.cif
#   From: 2010.03.12/outbox.cif.g09.slc.cpg/sg54_6_cif.got.tgz:11533.got - 2010.04.16 15:00:50.
