data_PCOD8223030
_publ_section_title
;
Structure prediction by ZEFSAII (Michael W. Deem and Ramdas Pophale) SiO2 
 PCOD8223030
Probable space group: P C C A
;
_chemical_formula_sum "Si O2"
_cell_formula_units_Z 44
_cell_length_a 24.762709
_cell_length_b 6.318024
_cell_length_c 14.140256
_cell_angle_alpha 90.000000
_cell_angle_beta 90.000000
_cell_angle_gamma 90.000000
_cell_volume 2212.262703
_symmetry_space_group_name_H-M "P C C A"
_symmetry_group_IT_number 54
_symmetry_cell_setting 'orthorhombic'
loop_
_space_group_symop_operation_xyz
x,y,z
1/2-x,-y,z
1/2+x,-y,1/2-z
-x,y,1/2-z
-x,-y,-z
1/2+x,y,-z
1/2-x,y,1/2+z
x,-y,1/2+z
loop_
_atom_site_type_symbol
_atom_site_label
_atom_site_fract_x
_atom_site_fract_y
_atom_site_fract_z
Si Si1 0.560861 0.244846 0.724253
Si Si2 0.875503 0.860748 0.216731
Si Si3 0.287329 0.828415 0.344014
Si Si4 0.750000 0.500000 0.294464
Si Si5 0.867174 0.508401 0.362178
Si Si6 0.873470 0.522625 0.578784
O O1 0.500000 0.301482 0.750000
O O2 0.601246 0.327225 0.805869
O O3 0.575501 0.362433 0.626436
O O4 0.568203 0.991977 0.709848
O O5 0.878672 0.735628 0.315256
O O6 0.865962 0.705850 0.127487
O O7 0.830287 0.042755 0.218467
O O8 0.246549 0.705859 0.273258
O O9 0.318528 0.661958 0.410709
O O10 0.250000 0.000000 0.401068
O O11 0.802709 0.474738 0.358902
O O12 0.887117 0.498238 0.469290
#
# Coordination Sequence:
#
# PCOD8223030 Si02
#       6
#     8   8   8   4   8   8
#     4  10  23  44  66  90 124 167 214 264 318 370
#     4  10  20  40  61  85 126 164 206 255 310 366
#     4  11  19  37  61  87 127 171 204 246 302 372
#     4  12  20  38  62  94 130 168 204 250 308 380
#     4  11  23  40  64  96 130 164 208 259 315 377
#     4  10  23  41  62  98 125 158 211 260 312 370
#
# _framework density 19.889139
#
# number of rings (size 3 to 8) (size 9 to 14) (size 15 to 20)
#    0.000    1.455    7.273    0.000    0.000    8.727 
#    3.273    1.818    0.000    0.000    0.000    0.000 
#    0.000    0.000    0.000    0.000    0.000    0.000 
#
# Total GULP energy -545338.295817 kJ/mol
# GULP energy per Si atom -12394.052178 kJ/mol
# Density = 1.984387 g / cm^3
# Si number density = 19.889139 Si / 1000 Ang^3
#
#
#
# Elastic Constant Matrix: (Units=GPa)
#
#
# Indices 1 2 3 4 5 6 
#
# 1 98.4713 35.0098 24.4185 0.0000 0.0000 0.0000
# 2 35.0098 122.0909 48.3624 0.0000 0.0000 0.0000
# 3 24.4185 48.3624 136.6212 0.0000 0.0000 0.0000
# 4 0.0000 0.0000 0.0000 10.0899 0.0000 0.0000
# 5 0.0000 0.0000 0.0000 0.0000 12.1778 0.0000
# 6 0.0000 0.0000 0.0000 0.0000 0.0000 25.4918
#
#
#
# Elastic Compliance Matrix: (Units=1/GPa)
#
#
# Indices 1 2 3 4 5 6 
#
# 1 0.011431 -0.002871 -0.001027 0.000000 0.000000 0.000000
# 2 -0.002871 0.010248 -0.003114 0.000000 0.000000 0.000000
# 3 -0.001027 -0.003114 0.008605 0.000000 0.000000 0.000000
# 4 0.000000 0.000000 0.000000 0.099109 0.000000 0.000000
# 5 0.000000 0.000000 0.000000 0.000000 0.082117 0.000000
# 6 0.000000 0.000000 0.000000 0.000000 0.000000 0.039228
#
#
# Mechanical properties :
#
#
# Convention : Reuss Voigt Hill
#
# Bulk Modulus (GPa) = 61.50292 63.64052 62.57172
# Shear Modulus (GPa) = 18.50606 26.17808 22.34207
#
# Velocity S-wave (km/s) = 3.05365 3.63188 3.35525
# Velocity P-wave (km/s) = 6.58962 7.04660 6.82193
#
# Compressibility (1/GPa) = 0.01625939
#
# Stress axis : x y z
#
# Youngs Moduli (GPa) = 87.48457 97.58418 116.20528
#
# Poissons Ratio (x) = 0.28017 0.11931
# Poissons Ratio (y) = 0.25117 0.36191
# Poissons Ratio (z) = 0.08982 0.30391
#
# Static dielectric constant tensor:
#      x y z
#    x 3.635950 0.000000 0.000000 
#    y 0.000000 3.968040 0.000000 
#    z 0.000000 0.000000 3.217650 
# 
# 
# High freq. dielectric constant tensor:
#      x y z
#    x 1.769770 0.000000 0.000000 
#    y 0.000000 1.797640 0.000000 
#    z 0.000000 0.000000 1.739290 
# 
# From -- ./inp_files/15069.got.cif
#   From: 2010.03.12/outbox.cif.g09.slc.cpg/sg54_8_cif.got.tgz:15069.got - 2010.04.16 15:00:50.
