data_PCOD8223452
_publ_section_title
;
Structure prediction by ZEFSAII (Michael W. Deem and Ramdas Pophale) SiO2 
 PCOD8223452
Probable space group: P C C A
;
_chemical_formula_sum "Si O2"
_cell_formula_units_Z 64
_cell_length_a 17.344925
_cell_length_b 9.020379
_cell_length_c 20.068985
_cell_angle_alpha 90.000000
_cell_angle_beta 90.000000
_cell_angle_gamma 90.000000
_cell_volume 3139.949186
_symmetry_space_group_name_H-M "P C C A"
_symmetry_group_IT_number 54
_symmetry_cell_setting 'orthorhombic'
loop_
_space_group_symop_operation_xyz
x,y,z
1/2-x,-y,z
1/2+x,-y,1/2-z
-x,y,1/2-z
-x,-y,-z
1/2+x,y,-z
1/2-x,y,1/2+z
x,-y,1/2+z
loop_
_atom_site_type_symbol
_atom_site_label
_atom_site_fract_x
_atom_site_fract_y
_atom_site_fract_z
Si Si1 0.171030 0.420457 0.758761
Si Si2 0.171030 0.920457 0.258761
Si Si3 0.404199 0.920492 0.620210
Si Si4 0.936245 0.075797 0.139618
Si Si5 0.670248 0.923271 0.016942
Si Si6 0.670248 0.576729 0.016942
Si Si7 0.936245 0.424203 0.139618
Si Si8 0.095801 0.420492 0.620210
O O1 0.250000 0.500000 0.778774
O O2 0.177828 0.250000 0.780275
O O3 0.100283 0.493662 0.797446
O O4 0.156023 0.437189 0.680300
O O5 0.156023 0.937189 0.180300
O O6 0.250000 0.000000 0.278774
O O7 0.100283 0.993662 0.297446
O O8 0.361485 0.978129 0.554112
O O9 0.431751 0.750000 0.612524
O O10 0.476423 0.024901 0.632707
O O11 0.933768 0.250000 0.153228
O O12 0.891496 0.031490 0.072610
O O13 0.685961 0.750000 0.015688
O O14 0.750000 0.000000 0.034984
O O15 0.750000 0.500000 0.034984
O O16 0.638515 0.521871 0.945888
O O17 0.608504 0.531490 0.072610
O O18 0.023577 0.475099 0.132707
#
# Coordination Sequence:
#
# PCOD8223452 Si02
#       8
#     8   8   8   8   8   8   8   8
#     4  11  23  39  60  85 115 151 190 235 285 337
#     4  11  23  39  60  85 115 151 190 235 285 337
#     4  10  22  40  60  84 115 150 190 236 285 336
#     4  11  23  38  59  87 117 151 191 234 282 338
#     4  10  22  39  59  85 115 149 190 235 284 337
#     4  10  22  39  59  85 115 149 190 235 284 337
#     4  11  23  38  59  87 117 151 191 234 282 338
#     4  10  22  40  60  84 115 150 190 236 285 336
#
# _framework density 20.382494999999999
#
# number of rings (size 3 to 8) (size 9 to 14) (size 15 to 20)
#    0.000    1.500    0.000    4.500    0.000   10.000 
#    0.000    0.000    0.000    0.000    0.000    0.000 
#    0.000    0.000    0.000    0.000    0.000    0.000 
#
# Total GULP energy -794110.296767 kJ/mol
# GULP energy per Si atom -12407.973387 kJ/mol
# Density = 2.033610 g / cm^3
# Si number density = 20.382495 Si / 1000 Ang^3
#
#
#
# Elastic Constant Matrix: (Units=GPa)
#
#
# Indices 1 2 3 4 5 6 
#
# 1 86.6616 37.9704 -5.5030 0.0000 0.0000 0.0000
# 2 37.9704 87.0261 26.6776 0.0000 0.0000 0.0000
# 3 -5.5030 26.6776 75.9126 0.0000 0.0000 0.0000
# 4 0.0000 0.0000 0.0000 27.8264 0.0000 0.0000
# 5 0.0000 0.0000 0.0000 0.0000 13.8899 0.0000
# 6 0.0000 0.0000 0.0000 0.0000 0.0000 43.6439
#
#
#
# Elastic Compliance Matrix: (Units=1/GPa)
#
#
# Indices 1 2 3 4 5 6 
#
# 1 0.015208 -0.007815 0.003849 0.000000 0.000000 0.000000
# 2 -0.007815 0.016894 -0.006504 0.000000 0.000000 0.000000
# 3 0.003849 -0.006504 0.015738 0.000000 0.000000 0.000000
# 4 0.000000 0.000000 0.000000 0.035937 0.000000 0.000000
# 5 0.000000 0.000000 0.000000 0.000000 0.071995 0.000000
# 6 0.000000 0.000000 0.000000 0.000000 0.000000 0.022913
#
#
# Mechanical properties :
#
#
# Convention : Reuss Voigt Hill
#
# Bulk Modulus (GPa) = 37.17497 40.87669 39.02583
# Shear Modulus (GPa) = 23.97038 29.76906 26.86972
#
# Velocity S-wave (km/s) = 3.43305 3.82582 3.63474
# Velocity P-wave (km/s) = 5.83032 6.29398 6.06659
#
# Compressibility (1/GPa) = 0.02689982
#
# Stress axis : x y z
#
# Youngs Moduli (GPa) = 65.75611 59.19159 63.54218
#
# Poissons Ratio (x) = 0.46259 -0.24457
# Poissons Ratio (y) = 0.51389 0.41325
# Poissons Ratio (z) = -0.25309 0.38496
#
# Static dielectric constant tensor:
#      x y z
#    x 3.569740 0.000000 0.000000 
#    y 0.000000 3.680920 0.000000 
#    z 0.000000 0.000000 3.968710 
# 
# 
# High freq. dielectric constant tensor:
#      x y z
#    x 1.802460 0.000000 0.000000 
#    y 0.000000 1.797640 0.000000 
#    z 0.000000 0.000000 1.813950 
# 
# From -- ./inp_files/21975.got.cif
#   From: 2010.03.12/outbox.cif.g09.slc.cpg/sg54_11_cif.got.tgz:21975.got - 2010.04.16 15:00:50.
