data_PCOD8223386
_publ_section_title
;
Structure prediction by ZEFSAII (Michael W. Deem and Ramdas Pophale) SiO2 
 PCOD8223386
Probable space group: P C C A
;
_chemical_formula_sum "Si O2"
_cell_formula_units_Z 40
_cell_length_a 15.750986
_cell_length_b 7.879232
_cell_length_c 14.412753
_cell_angle_alpha 90.000000
_cell_angle_beta 90.000000
_cell_angle_gamma 90.000000
_cell_volume 1788.704410
_symmetry_space_group_name_H-M "P C C A"
_symmetry_group_IT_number 54
_symmetry_cell_setting 'orthorhombic'
loop_
_space_group_symop_operation_xyz
x,y,z
1/2-x,-y,z
1/2+x,-y,1/2-z
-x,y,1/2-z
-x,-y,-z
1/2+x,y,-z
1/2-x,y,1/2+z
x,-y,1/2+z
loop_
_atom_site_type_symbol
_atom_site_label
_atom_site_fract_x
_atom_site_fract_y
_atom_site_fract_z
Si Si1 0.115635 0.774747 0.597686
Si Si2 0.440261 0.126433 0.162998
Si Si3 0.817017 0.377607 0.575524
Si Si4 0.507106 0.471278 0.139888
Si Si5 0.761745 0.190206 0.754215
O O1 0.161054 0.770865 0.497599
O O2 0.049796 0.618907 0.596738
O O3 0.183091 0.752604 0.681146
O O4 0.067390 0.954551 0.603543
O O5 0.500000 0.080852 0.250000
O O6 0.480780 0.281561 0.104436
O O7 0.349104 0.200561 0.190223
O O8 0.750000 0.500000 0.524209
O O9 0.767450 0.306769 0.664610
O O10 0.896688 0.492792 0.606799
O O11 0.500000 0.477635 0.250000
O O12 0.750000 0.000000 0.718351
#
# Coordination Sequence:
#
# PCOD8223386 Si02
#       5
#     8   8   8   8   8
#     4  11  26  43  70 101 138 184 232 283 350 415
#     4  10  21  43  72  97 133 178 229 279 349 405
#     4  12  26  43  66 107 139 181 237 284 349 419
#     4  11  22  44  72  96 138 186 226 286 346 412
#     4  10  23  45  68  98 135 182 226 289 350 408
#
# _framework density 22.362553999999999
#
# number of rings (size 3 to 8) (size 9 to 14) (size 15 to 20)
#    0.000    1.200    4.000    2.400    2.800    4.800 
#    0.000    0.000    0.000    0.000    0.000    0.000 
#    0.000    0.000    0.000    0.000    0.000    0.000 
#
# Total GULP energy -495951.382681 kJ/mol
# GULP energy per Si atom -12398.784567 kJ/mol
# Density = 2.231166 g / cm^3
# Si number density = 22.362554 Si / 1000 Ang^3
#
#
#
# Elastic Constant Matrix: (Units=GPa)
#
#
# Indices 1 2 3 4 5 6 
#
# 1 130.6239 59.5786 26.1297 0.0000 0.0000 0.0000
# 2 59.5786 132.1292 41.4890 0.0000 0.0000 0.0000
# 3 26.1297 41.4890 79.0771 0.0000 0.0000 0.0000
# 4 0.0000 0.0000 0.0000 -1.2864 0.0000 0.0000
# 5 0.0000 0.0000 0.0000 0.0000 22.5928 0.0000
# 6 0.0000 0.0000 0.0000 0.0000 0.0000 28.5397
#
#
#
# Elastic Compliance Matrix: (Units=1/GPa)
#
#
# Indices 1 2 3 4 5 6 
#
# 1 0.009716 -0.004038 -0.001092 0.000000 0.000000 0.000000
# 2 -0.004038 0.010740 -0.004300 0.000000 0.000000 0.000000
# 3 -0.001092 -0.004300 0.015263 0.000000 0.000000 0.000000
# 4 0.000000 0.000000 0.000000 -0.777350 0.000000 0.000000
# 5 0.000000 0.000000 0.000000 0.000000 0.044262 0.000000
# 6 0.000000 0.000000 0.000000 0.000000 0.000000 0.035039
#
#
# Mechanical properties :
#
#
# Convention : Reuss Voigt Hill
#
# Bulk Modulus (GPa) = 59.31988 66.24720 62.78354
# Shear Modulus (GPa) = -7.83881 24.27807 8.21963
#
# Velocity S-wave (km/s) = -1.87428 3.29851 1.91927
# Velocity P-wave (km/s) = 4.67975 6.64796 5.74871
#
# Compressibility (1/GPa) = 0.01685776
#
# Stress axis : x y z
#
# Youngs Moduli (GPa) = 102.92524 93.11403 65.51853
#
# Poissons Ratio (x) = 0.37601 0.07153
# Poissons Ratio (y) = 0.41563 0.28175
# Poissons Ratio (z) = 0.11237 0.40042
#
# Static dielectric constant tensor:
#      x y z
#    x 4.427600 0.000000 0.000000 
#    y 0.000000 4.174030 0.000000 
#    z 0.000000 0.000000 3.819620 
# 
# 
# High freq. dielectric constant tensor:
#      x y z
#    x 1.900490 0.000000 0.000000 
#    y 0.000000 1.883760 0.000000 
#    z 0.000000 0.000000 1.868460 
# 
# From -- ./inp_files/13204.got.cif
#   From: 2010.03.12/outbox.cif.g09.slc.cpg/sg54_7_cif.got.tgz:13204.got - 2010.04.16 15:00:50.
