data_PCOD8223910
_publ_section_title
;
Structure prediction by ZEFSAII (Michael W. Deem and Ramdas Pophale) SiO2 
 PCOD8223910
Probable space group: P C C A
;
_chemical_formula_sum "Si O2"
_cell_formula_units_Z 48
_cell_length_a 14.748887
_cell_length_b 9.409807
_cell_length_c 16.164598
_cell_angle_alpha 90.000000
_cell_angle_beta 90.000000
_cell_angle_gamma 90.000000
_cell_volume 2243.390481
_symmetry_space_group_name_H-M "P C C A"
_symmetry_group_IT_number 54
_symmetry_cell_setting 'orthorhombic'
loop_
_space_group_symop_operation_xyz
x,y,z
1/2-x,-y,z
1/2+x,-y,1/2-z
-x,y,1/2-z
-x,-y,-z
1/2+x,y,-z
1/2-x,y,1/2+z
x,-y,1/2+z
loop_
_atom_site_type_symbol
_atom_site_label
_atom_site_fract_x
_atom_site_fract_y
_atom_site_fract_z
Si Si1 0.603445 0.717328 0.753589
Si Si2 0.621376 0.232530 0.507653
Si Si3 0.212651 0.161563 0.902547
Si Si4 0.847202 0.034957 0.862080
Si Si5 0.920273 0.782978 0.943371
Si Si6 0.148030 0.482045 0.605513
O O1 0.500000 0.664278 0.750000
O O2 0.658826 0.758049 0.671157
O O3 0.595903 0.861765 0.804901
O O4 0.651616 0.587201 0.802493
O O5 0.695964 0.253633 0.580149
O O6 0.666430 0.110187 0.451024
O O7 0.524380 0.183088 0.538957
O O8 0.600255 0.375645 0.457987
O O9 0.250000 0.000000 0.884034
O O10 0.143388 0.175462 0.979431
O O11 0.750000 0.000000 0.822271
O O12 0.899795 0.887789 0.867925
O O13 0.906345 0.627866 0.904137
O O14 0.250000 0.500000 0.574971
#
# Coordination Sequence:
#
# PCOD8223910 Si02
#       6
#     8   8   8   8   8   8
#     4  11  27  46  66  95 140 183 221 280 345 401
#     4  11  22  38  71 104 130 171 227 282 331 397
#     4  12  23  42  71 109 132 169 236 292 328 401
#     4  11  20  43  69  97 134 175 218 273 349 405
#     4  12  22  41  74 100 132 173 229 278 336 407
#     4  11  23  47  66  91 137 185 216 268 349 409
#
# _framework density 21.396186
#
# number of rings (size 3 to 8) (size 9 to 14) (size 15 to 20)
#    0.000    0.667    5.000    4.500    2.333    0.000 
#    6.000    0.833    0.000    0.000    0.000    0.000 
#    0.000    0.000    0.000    0.000    0.000    0.000 
#
# Total GULP energy -594824.937667 kJ/mol
# GULP energy per Si atom -12392.186201 kJ/mol
# Density = 2.134749 g / cm^3
# Si number density = 21.396186 Si / 1000 Ang^3
#
#
#
# Elastic Constant Matrix: (Units=GPa)
#
#
# Indices 1 2 3 4 5 6 
#
# 1 125.5495 1.3413 30.7175 0.0000 0.0000 0.0000
# 2 1.3413 112.3549 39.4600 0.0000 0.0000 0.0000
# 3 30.7175 39.4600 80.3487 0.0000 0.0000 0.0000
# 4 0.0000 0.0000 0.0000 24.5180 0.0000 0.0000
# 5 0.0000 0.0000 0.0000 0.0000 15.9197 0.0000
# 6 0.0000 0.0000 0.0000 0.0000 0.0000 29.3840
#
#
#
# Elastic Compliance Matrix: (Units=1/GPa)
#
#
# Indices 1 2 3 4 5 6 
#
# 1 0.008947 0.001323 -0.004070 0.000000 0.000000 0.000000
# 2 0.001323 0.010951 -0.005884 0.000000 0.000000 0.000000
# 3 -0.004070 -0.005884 0.016891 0.000000 0.000000 0.000000
# 4 0.000000 0.000000 0.000000 0.040786 0.000000 0.000000
# 5 0.000000 0.000000 0.000000 0.000000 0.062815 0.000000
# 6 0.000000 0.000000 0.000000 0.000000 0.000000 0.034032
#
#
# Mechanical properties :
#
#
# Convention : Reuss Voigt Hill
#
# Bulk Modulus (GPa) = 51.21172 51.25450 51.23311
# Shear Modulus (GPa) = 25.22789 30.41331 27.82060
#
# Velocity S-wave (km/s) = 3.43750 3.77428 3.60982
# Velocity P-wave (km/s) = 6.30414 6.55748 6.43206
#
# Compressibility (1/GPa) = 0.01952678
#
# Stress axis : x y z
#
# Youngs Moduli (GPa) = 111.77440 91.31580 59.20238
#
# Poissons Ratio (x) = -0.12077 0.24094
# Poissons Ratio (y) = -0.14783 0.34833
# Poissons Ratio (z) = 0.45490 0.53728
#
# Static dielectric constant tensor:
#      x y z
#    x 3.847900 0.000000 0.000000 
#    y 0.000000 4.105280 0.000000 
#    z 0.000000 0.000000 3.809510 
# 
# 
# High freq. dielectric constant tensor:
#      x y z
#    x 1.853220 0.000000 0.000000 
#    y 0.000000 1.847970 0.000000 
#    z 0.000000 0.000000 1.818830 
# 
# From -- ./inp_files/18033.got.cif
#   From: 2010.03.12/outbox.cif.g09.slc.cpg/sg54_10_cif.got.tgz:18033.got - 2010.04.16 15:00:50.
