data_PCOD8223755
_publ_section_title
;
Structure prediction by ZEFSAII (Michael W. Deem and Ramdas Pophale) SiO2 
 PCOD8223755
Probable space group: P C C A
;
_chemical_formula_sum "Si O2"
_cell_formula_units_Z 56
_cell_length_a 30.885326
_cell_length_b 5.339877
_cell_length_c 14.461182
_cell_angle_alpha 90.000000
_cell_angle_beta 90.000000
_cell_angle_gamma 90.000000
_cell_volume 2384.993695
_symmetry_space_group_name_H-M "P C C A"
_symmetry_group_IT_number 54
_symmetry_cell_setting 'orthorhombic'
loop_
_space_group_symop_operation_xyz
x,y,z
1/2-x,-y,z
1/2+x,-y,1/2-z
-x,y,1/2-z
-x,-y,-z
1/2+x,y,-z
1/2-x,y,1/2+z
x,-y,1/2+z
loop_
_atom_site_type_symbol
_atom_site_label
_atom_site_fract_x
_atom_site_fract_y
_atom_site_fract_z
Si Si1 0.360260 0.865988 0.260731
Si Si2 0.984572 0.747464 0.947392
Si Si3 0.000000 0.573438 0.750000
Si Si4 0.750000 0.500000 0.006935
Si Si5 0.189373 0.873023 0.581871
Si Si6 0.410843 0.345856 0.279681
Si Si7 0.330548 0.255255 0.950834
Si Si8 0.606092 0.341144 0.012238
O O1 0.320465 0.857841 0.189897
O O2 0.383007 0.594589 0.258892
O O3 0.340070 0.919147 0.362102
O O4 0.391394 0.097018 0.230796
O O5 0.932528 0.717239 0.940553
O O6 0.003246 0.746946 0.842258
O O7 0.000000 0.500000 0.000000
O O8 0.000000 0.000000 0.000000
O O9 0.041074 0.389931 0.741963
O O10 0.731942 0.284753 0.938187
O O11 0.708888 0.555274 0.075499
O O12 0.146764 0.818175 0.519141
O O13 0.194835 0.150120 0.541404
O O14 0.412409 0.273629 0.387311
O O15 0.376476 0.373096 0.983725
#
# Coordination Sequence:
#
# PCOD8223755 Si02
#       8
#     8   8   4   4   8   8   8   8
#     4  11  26  44  74 104 142 193 241 294 360 450
#     4  12  29  46  71 108 149 198 255 314 382 442
#     4  12  28  46  76 106 156 200 254 330 372 444
#     4  10  24  44  68 110 140 188 238 296 372 440
#     4  11  23  43  74 101 146 185 239 297 367 436
#     4  11  25  46  69 105 142 190 254 294 370 432
#     4  10  23  45  73 101 143 190 236 303 360 448
#     4  10  23  46  70  97 144 190 244 298 370 433
#
# _framework density 23.480146999999999
#
# number of rings (size 3 to 8) (size 9 to 14) (size 15 to 20)
#    0.000    1.143    2.857    1.286   10.000    2.857 
#    0.000    2.857    0.000    0.000    0.000    0.000 
#    0.000    0.000    0.000    0.000    0.000    0.000 
#
# Total GULP energy -693731.397454 kJ/mol
# GULP energy per Si atom -12388.060669 kJ/mol
# Density = 2.342671 g / cm^3
# Si number density = 23.480147 Si / 1000 Ang^3
#
#
#
# Elastic Constant Matrix: (Units=GPa)
#
#
# Indices 1 2 3 4 5 6 
#
# 1 142.0039 37.5860 31.9505 0.0000 0.0000 0.0000
# 2 37.5860 117.1747 40.8980 0.0000 0.0000 0.0000
# 3 31.9505 40.8980 119.9656 0.0000 0.0000 0.0000
# 4 0.0000 0.0000 0.0000 26.6009 0.0000 0.0000
# 5 0.0000 0.0000 0.0000 0.0000 30.3393 0.0000
# 6 0.0000 0.0000 0.0000 0.0000 0.0000 34.2375
#
#
#
# Elastic Compliance Matrix: (Units=1/GPa)
#
#
# Indices 1 2 3 4 5 6 
#
# 1 0.007899 -0.002043 -0.001407 0.000000 0.000000 0.000000
# 2 -0.002043 0.010215 -0.002938 0.000000 0.000000 0.000000
# 3 -0.001407 -0.002938 0.009712 0.000000 0.000000 0.000000
# 4 0.000000 0.000000 0.000000 0.037593 0.000000 0.000000
# 5 0.000000 0.000000 0.000000 0.000000 0.032961 0.000000
# 6 0.000000 0.000000 0.000000 0.000000 0.000000 0.029208
#
#
# Mechanical properties :
#
#
# Convention : Reuss Voigt Hill
#
# Bulk Modulus (GPa) = 66.44653 66.66812 66.55733
# Shear Modulus (GPa) = 34.39226 36.14952 35.27089
#
# Velocity S-wave (km/s) = 3.83134 3.92800 3.87997
# Velocity P-wave (km/s) = 6.92334 7.00195 6.96276
#
# Compressibility (1/GPa) = 0.01504969
#
# Stress axis : x y z
#
# Youngs Moduli (GPa) = 126.59211 97.89439 102.96174
#
# Poissons Ratio (x) = 0.19996 0.14492
# Poissons Ratio (y) = 0.25858 0.30255
# Poissons Ratio (z) = 0.17818 0.28766
#
# Static dielectric constant tensor:
#      x y z
#    x 4.354760 0.000000 0.000000 
#    y 0.000000 4.369340 0.000000 
#    z 0.000000 0.000000 4.180620 
# 
# 
# High freq. dielectric constant tensor:
#      x y z
#    x 1.943620 0.000000 0.000000 
#    y 0.000000 1.931010 0.000000 
#    z 0.000000 0.000000 1.917950 
# 
# From -- ./inp_files/15409.got.cif
#   From: 2010.03.12/outbox.cif.g09.slc.cpg/sg54_8_cif.got.tgz:15409.got - 2010.04.16 15:00:50.
