data_PCOD8223509
_publ_section_title
;
Structure prediction by ZEFSAII (Michael W. Deem and Ramdas Pophale) SiO2 
 PCOD8223509
Probable space group: P C C A
;
_chemical_formula_sum "Si O2"
_cell_formula_units_Z 28
_cell_length_a 9.392427
_cell_length_b 9.694559
_cell_length_c 13.334869
_cell_angle_alpha 90.000000
_cell_angle_beta 90.000000
_cell_angle_gamma 90.000000
_cell_volume 1214.212334
_symmetry_space_group_name_H-M "P C C A"
_symmetry_group_IT_number 54
_symmetry_cell_setting 'orthorhombic'
loop_
_space_group_symop_operation_xyz
x,y,z
1/2-x,-y,z
1/2+x,-y,1/2-z
-x,y,1/2-z
-x,-y,-z
1/2+x,y,-z
1/2-x,y,1/2+z
x,-y,1/2+z
loop_
_atom_site_type_symbol
_atom_site_label
_atom_site_fract_x
_atom_site_fract_y
_atom_site_fract_z
Si Si1 0.750000 0.000000 0.862708
Si Si2 0.019853 0.638073 0.897944
Si Si3 0.303642 0.297719 0.089020
Si Si4 0.000000 0.127168 0.250000
Si Si5 0.500000 0.408538 0.250000
O O1 0.781793 0.133942 0.931491
O O2 0.619530 0.026972 0.789860
O O3 0.848425 0.626312 0.910975
O O4 0.061878 0.776799 0.838828
O O5 0.072202 0.505817 0.834794
O O6 0.095271 0.635989 0.005223
O O7 0.377913 0.315231 0.198161
#
# Coordination Sequence:
#
# PCOD8223509 Si02
#       5
#     4   8   8   4   4
#     4  10  22  40  64  96 128 174 218 256 328 380
#     4  10  24  41  63  96 129 170 219 266 324 379
#     4  11  24  41  66  96 132 171 214 270 320 387
#     4   9  21  40  60  90 129 169 220 268 314 387
#     4  11  23  42  64  92 129 169 214 260 318 379
#
# _framework density 23.060217000000002
#
# number of rings (size 3 to 8) (size 9 to 14) (size 15 to 20)
#    0.000    1.714    0.000    2.571    0.000   17.143 
#    0.000    0.000    0.000    0.000    0.000    0.000 
#    0.000    0.000    0.000    0.000    0.000    0.000 
#
# Total GULP energy -347256.149305 kJ/mol
# GULP energy per Si atom -12402.005332 kJ/mol
# Density = 2.300773 g / cm^3
# Si number density = 23.060217 Si / 1000 Ang^3
#
#
#
# Elastic Constant Matrix: (Units=GPa)
#
#
# Indices 1 2 3 4 5 6 
#
# 1 78.9622 18.7190 48.7025 0.0000 0.0000 0.0000
# 2 18.7190 84.7107 33.5122 0.0000 0.0000 0.0000
# 3 48.7025 33.5122 126.2129 0.0000 0.0000 0.0000
# 4 0.0000 0.0000 0.0000 50.7261 0.0000 0.0000
# 5 0.0000 0.0000 0.0000 0.0000 29.7984 0.0000
# 6 0.0000 0.0000 0.0000 0.0000 0.0000 30.5829
#
#
#
# Elastic Compliance Matrix: (Units=1/GPa)
#
#
# Indices 1 2 3 4 5 6 
#
# 1 0.016743 -0.001278 -0.006121 0.000000 0.000000 0.000000
# 2 -0.001278 0.013288 -0.003035 0.000000 0.000000 0.000000
# 3 -0.006121 -0.003035 0.011091 0.000000 0.000000 0.000000
# 4 0.000000 0.000000 0.000000 0.019714 0.000000 0.000000
# 5 0.000000 0.000000 0.000000 0.000000 0.033559 0.000000
# 6 0.000000 0.000000 0.000000 0.000000 0.000000 0.032698
#
#
# Mechanical properties :
#
#
# Convention : Reuss Voigt Hill
#
# Bulk Modulus (GPa) = 49.37554 54.63924 52.00739
# Shear Modulus (GPa) = 32.31807 34.81829 33.56818
#
# Velocity S-wave (km/s) = 3.74767 3.88994 3.81947
# Velocity P-wave (km/s) = 6.33915 6.62730 6.48482
#
# Compressibility (1/GPa) = 0.02025295
#
# Stress axis : x y z
#
# Youngs Moduli (GPa) = 59.72729 75.25583 90.16297
#
# Poissons Ratio (x) = 0.09619 0.55191
# Poissons Ratio (y) = 0.07634 0.27365
# Poissons Ratio (z) = 0.36561 0.22841
#
# Static dielectric constant tensor:
#      x y z
#    x 3.950890 0.000000 0.000000 
#    y 0.000000 4.250320 0.000000 
#    z 0.000000 0.000000 4.076390 
# 
# 
# High freq. dielectric constant tensor:
#      x y z
#    x 1.905320 0.000000 0.000000 
#    y 0.000000 1.928680 0.000000 
#    z 0.000000 0.000000 1.904820 
# 
# From -- ./inp_files/11190.got.cif
#   From: 2010.03.12/outbox.cif.g09.slc.cpg/sg54_6_cif.got.tgz:11190.got - 2010.04.16 15:00:50.
