data_PCOD8223885
_publ_section_title
;
Structure prediction by ZEFSAII (Michael W. Deem and Ramdas Pophale) SiO2 
 PCOD8223885
Probable space group: P C C A
;
_chemical_formula_sum "Si O2"
_cell_formula_units_Z 36
_cell_length_a 19.114807
_cell_length_b 8.849652
_cell_length_c 9.112607
_cell_angle_alpha 90.000000
_cell_angle_beta 90.000000
_cell_angle_gamma 90.000000
_cell_volume 1541.483041
_symmetry_space_group_name_H-M "P C C A"
_symmetry_group_IT_number 54
_symmetry_cell_setting 'orthorhombic'
loop_
_space_group_symop_operation_xyz
x,y,z
1/2-x,-y,z
1/2+x,-y,1/2-z
-x,y,1/2-z
-x,-y,-z
1/2+x,y,-z
1/2-x,y,1/2+z
x,-y,1/2+z
loop_
_atom_site_type_symbol
_atom_site_label
_atom_site_fract_x
_atom_site_fract_y
_atom_site_fract_z
Si Si1 0.301971 0.641371 0.373544
Si Si2 0.273596 0.160921 0.595037
Si Si3 0.500000 0.934595 0.250000
Si Si4 0.552243 0.480578 0.126275
Si Si5 0.580260 0.845084 0.536350
O O1 0.250000 0.500000 0.387290
O O2 0.288356 0.761933 0.501764
O O3 0.294190 0.720023 0.217811
O O4 0.381821 0.590464 0.387610
O O5 0.338246 0.125213 0.488539
O O6 0.250000 0.000000 0.662338
O O7 0.541711 0.839201 0.375582
O O8 0.446522 0.030911 0.348515
O O9 0.500000 0.532358 0.250000
O O10 0.576779 0.308146 0.129678
O O11 0.500000 0.500000 0.000000
#
# Coordination Sequence:
#
# PCOD8223885 Si02
#       5
#     8   8   4   8   8
#     4  12  28  51  77 112 155 203 260 325 389 478
#     4  12  29  48  78 111 155 205 262 320 395 469
#     4  10  26  46  76 108 162 196 260 322 400 468
#     4  12  28  48  79 110 150 201 264 322 394 464
#     4  11  25  48  73 111 149 208 252 323 385 481
#
# _framework density 23.354133000000001
#
# number of rings (size 3 to 8) (size 9 to 14) (size 15 to 20)
#    0.000    0.444    3.333    2.667   14.000    1.778 
#    0.000    0.000    0.000    0.000    0.000    0.000 
#    0.000    0.000    0.000    0.000    0.000    0.000 
#
# Total GULP energy -446177.589189 kJ/mol
# GULP energy per Si atom -12393.821922 kJ/mol
# Density = 2.330098 g / cm^3
# Si number density = 23.354133 Si / 1000 Ang^3
#
#
#
# Elastic Constant Matrix: (Units=GPa)
#
#
# Indices 1 2 3 4 5 6 
#
# 1 166.2025 51.1671 56.1538 0.0000 0.0000 0.0000
# 2 51.1671 105.5387 26.1524 0.0000 0.0000 0.0000
# 3 56.1538 26.1524 130.1479 0.0000 0.0000 0.0000
# 4 0.0000 0.0000 0.0000 55.2268 0.0000 0.0000
# 5 0.0000 0.0000 0.0000 0.0000 42.5562 0.0000
# 6 0.0000 0.0000 0.0000 0.0000 0.0000 46.4922
#
#
#
# Elastic Compliance Matrix: (Units=1/GPa)
#
#
# Indices 1 2 3 4 5 6 
#
# 1 0.007929 -0.003154 -0.002788 0.000000 0.000000 0.000000
# 2 -0.003154 0.011226 -0.000895 0.000000 0.000000 0.000000
# 3 -0.002788 -0.000895 0.009066 0.000000 0.000000 0.000000
# 4 0.000000 0.000000 0.000000 0.018107 0.000000 0.000000
# 5 0.000000 0.000000 0.000000 0.000000 0.023498 0.000000
# 6 0.000000 0.000000 0.000000 0.000000 0.000000 0.021509
#
#
# Mechanical properties :
#
#
# Convention : Reuss Voigt Hill
#
# Bulk Modulus (GPa) = 68.73328 74.31506 71.52417
# Shear Modulus (GPa) = 45.51322 46.74941 46.13131
#
# Velocity S-wave (km/s) = 4.41934 4.47896 4.44925
# Velocity P-wave (km/s) = 7.45222 7.65755 7.55558
#
# Compressibility (1/GPa) = 0.01454899
#
# Stress axis : x y z
#
# Youngs Moduli (GPa) = 126.11239 89.07951 110.30026
#
# Poissons Ratio (x) = 0.28092 0.30747
# Poissons Ratio (y) = 0.39771 0.09873
# Poissons Ratio (z) = 0.35155 0.07974
#
# Static dielectric constant tensor:
#      x y z
#    x 4.385930 0.000000 0.000000 
#    y 0.000000 1.769460 0.000000 
#    z 0.000000 0.000000 4.260020 
# 
# 
# High freq. dielectric constant tensor:
#      x y z
#    x 1.938650 0.000000 0.000000 
#    y 0.000000 1.937080 0.000000 
#    z 0.000000 0.000000 1.936530 
# 
# From -- ./inp_files/4522.got.cif
#   From: 2010.03.12/outbox.cif.g09.slc.cpg/sg54_3_cif.got.tgz:4522.got - 2010.04.16 15:00:50.
