data_PCOD8223146
_publ_section_title
;
Structure prediction by ZEFSAII (Michael W. Deem and Ramdas Pophale) SiO2 
 PCOD8223146
Probable space group: P C C A
;
_chemical_formula_sum "Si O2"
_cell_formula_units_Z 56
_cell_length_a 5.083080
_cell_length_b 32.681432
_cell_length_c 17.111345
_cell_angle_alpha 90.000000
_cell_angle_beta 90.000000
_cell_angle_gamma 90.000000
_cell_volume 2842.576559
_symmetry_space_group_name_H-M "P C C A"
_symmetry_group_IT_number 54
_symmetry_cell_setting 'orthorhombic'
loop_
_space_group_symop_operation_xyz
x,y,z
1/2-x,-y,z
1/2+x,-y,1/2-z
-x,y,1/2-z
-x,-y,-z
1/2+x,y,-z
1/2-x,y,1/2+z
x,-y,1/2+z
loop_
_atom_site_type_symbol
_atom_site_label
_atom_site_fract_x
_atom_site_fract_y
_atom_site_fract_z
Si Si1 0.354443 0.600075 0.049066
Si Si2 0.492905 0.815773 0.658269
Si Si3 0.999297 0.027387 0.660230
Si Si4 0.751525 0.452345 0.300534
Si Si5 0.995402 0.764493 0.659227
Si Si6 0.514380 0.106001 0.447347
Si Si7 0.653858 0.305907 0.951509
O O1 0.262995 0.572371 0.119970
O O2 0.352165 0.647175 0.076032
O O3 0.649246 0.590291 0.020654
O O4 0.500000 0.826625 0.750000
O O5 0.712179 0.782203 0.634678
O O6 0.541940 0.856313 0.609493
O O7 0.210100 0.798129 0.634763
O O8 0.000000 0.042665 0.750000
O O9 0.985949 0.065652 0.603689
O O10 0.750000 0.000000 0.641734
O O11 0.250000 0.000000 0.640842
O O12 0.750000 0.500000 0.322483
O O13 0.500000 0.439625 0.250000
O O14 0.000000 0.439939 0.250000
O O15 0.000000 0.755015 0.750000
O O16 0.064730 0.721550 0.620465
O O17 0.305924 0.107213 0.517442
O O18 0.450875 0.296359 0.021892
#
# Coordination Sequence:
#
# PCOD8223146 Si02
#       7
#     8   8   8   8   8   8   8
#     4  10  21  37  56  82 114 150 192 232 282 347
#     4  10  22  40  58  79 112 148 184 226 270 326
#     4  10  22  41  63  84 111 150 187 219 267 328
#     4  10  21  37  57  83 114 148 189 239 292 340
#     4  10  21  37  58  82 107 143 188 229 272 324
#     4  12  25  38  58  88 116 144 182 228 276 321
#     4  10  21  36  55  80 112 146 180 227 280 331
#
# _framework density 19.700436
#
# number of rings (size 3 to 8) (size 9 to 14) (size 15 to 20)
#    0.000    1.714    0.000    3.857    0.000    6.286 
#    0.000    7.857    0.000    0.000    0.000    0.000 
#    0.000    0.000    0.000    0.000    0.000    0.000 
#
# Total GULP energy -694585.839746 kJ/mol
# GULP energy per Si atom -12403.318567 kJ/mol
# Density = 1.965560 g / cm^3
# Si number density = 19.700436 Si / 1000 Ang^3
#
#
#
# Elastic Constant Matrix: (Units=GPa)
#
#
# Indices 1 2 3 4 5 6 
#
# 1 114.8308 33.0137 31.9963 0.0000 0.0000 0.0000
# 2 33.0137 100.8541 69.3454 0.0000 0.0000 0.0000
# 3 31.9963 69.3454 83.0558 0.0000 0.0000 0.0000
# 4 0.0000 0.0000 0.0000 26.7281 0.0000 0.0000
# 5 0.0000 0.0000 0.0000 0.0000 26.8702 0.0000
# 6 0.0000 0.0000 0.0000 0.0000 0.0000 46.9569
#
#
#
# Elastic Compliance Matrix: (Units=1/GPa)
#
#
# Indices 1 2 3 4 5 6 
#
# 1 0.009844 -0.001444 -0.002587 0.000000 0.000000 0.000000
# 2 -0.001444 0.023491 -0.019057 0.000000 0.000000 0.000000
# 3 -0.002587 -0.019057 0.028948 0.000000 0.000000 0.000000
# 4 0.000000 0.000000 0.000000 0.037414 0.000000 0.000000
# 5 0.000000 0.000000 0.000000 0.000000 0.037216 0.000000
# 6 0.000000 0.000000 0.000000 0.000000 0.000000 0.021296
#
#
# Mechanical properties :
#
#
# Convention : Reuss Voigt Hill
#
# Bulk Modulus (GPa) = 62.08197 63.05016 62.56606
# Shear Modulus (GPa) = 23.83726 31.07008 27.45367
#
# Velocity S-wave (km/s) = 3.48226 3.97561 3.73709
# Velocity P-wave (km/s) = 6.91011 7.29026 7.10273
#
# Compressibility (1/GPa) = 0.01610774
#
# Stress axis : x y z
#
# Youngs Moduli (GPa) = 101.58092 42.56871 34.54429
#
# Poissons Ratio (x) = 0.06145 0.08937
# Poissons Ratio (y) = 0.14664 0.65833
# Poissons Ratio (z) = 0.26280 0.81125
#
# Static dielectric constant tensor:
#      x y z
#    x 4.015810 0.000000 0.000000 
#    y 0.000000 3.537480 0.000000 
#    z 0.000000 0.000000 3.449950 
# 
# 
# High freq. dielectric constant tensor:
#      x y z
#    x 1.791360 0.000000 0.000000 
#    y 0.000000 1.770000 0.000000 
#    z 0.000000 0.000000 1.764520 
# 
# From -- ./inp_files/11000.got.cif
#   From: 2010.03.12/outbox.cif.g09.slc.cpg/sg54_6_cif.got.tgz:11000.got - 2010.04.16 15:00:50.
