data_PCOD8223238
_publ_section_title
;
Structure prediction by ZEFSAII (Michael W. Deem and Ramdas Pophale) SiO2 
 PCOD8223238
Probable space group: P C C A
;
_chemical_formula_sum "Si O2"
_cell_formula_units_Z 36
_cell_length_a 5.046055
_cell_length_b 23.218207
_cell_length_c 14.551711
_cell_angle_alpha 90.000000
_cell_angle_beta 90.000000
_cell_angle_gamma 90.000000
_cell_volume 1704.883547
_symmetry_space_group_name_H-M "P C C A"
_symmetry_group_IT_number 54
_symmetry_cell_setting 'orthorhombic'
loop_
_space_group_symop_operation_xyz
x,y,z
1/2-x,-y,z
1/2+x,-y,1/2-z
-x,y,1/2-z
-x,-y,-z
1/2+x,y,-z
1/2-x,y,1/2+z
x,-y,1/2+z
loop_
_atom_site_type_symbol
_atom_site_label
_atom_site_fract_x
_atom_site_fract_y
_atom_site_fract_z
Si Si1 0.500000 0.038384 0.750000
Si Si2 0.926236 0.239288 0.442853
Si Si3 0.720706 0.563510 0.442036
Si Si4 0.083892 0.105184 0.061256
Si Si5 0.756425 0.664865 0.808018
O O1 0.572380 0.075665 0.839512
O O2 0.250000 0.000000 0.777117
O O3 0.722092 0.254741 0.524684
O O4 0.907564 0.172694 0.416116
O O5 0.855482 0.276611 0.354941
O O6 0.750000 0.500000 0.396697
O O7 0.414225 0.570098 0.470119
O O8 0.819111 0.613402 0.375411
O O9 0.344309 0.086695 0.005181
O O10 0.500000 0.681582 0.750000
O O11 0.000000 0.640404 0.750000
#
# Coordination Sequence:
#
# PCOD8223238 Si02
#       5
#     4   8   8   8   8
#     4  12  26  42  66 100 130 170 212 260 318 376
#     4  10  21  41  63  85 118 161 204 247 299 363
#     4  10  21  39  61  81 112 161 206 245 297 366
#     4  10  23  43  66  94 127 169 212 260 315 370
#     4  12  24  36  57  92 122 154 194 253 313 359
#
# _framework density 21.115811999999998
#
# number of rings (size 3 to 8) (size 9 to 14) (size 15 to 20)
#    0.000    1.333    0.000    5.333    1.556    3.556 
#    2.000    0.000    0.000    0.000    0.000    0.000 
#    0.000    0.000    0.000    0.000    0.000    0.000 
#
# Total GULP energy -446489.468372 kJ/mol
# GULP energy per Si atom -12402.485233 kJ/mol
# Density = 2.106775 g / cm^3
# Si number density = 21.115812 Si / 1000 Ang^3
#
#
#
# Elastic Constant Matrix: (Units=GPa)
#
#
# Indices 1 2 3 4 5 6 
#
# 1 125.0696 38.3231 35.7994 0.0000 0.0000 0.0000
# 2 38.3231 98.6448 66.2071 0.0000 0.0000 0.0000
# 3 35.7994 66.2071 113.2386 0.0000 0.0000 0.0000
# 4 0.0000 0.0000 0.0000 23.9261 0.0000 0.0000
# 5 0.0000 0.0000 0.0000 0.0000 26.0150 0.0000
# 6 0.0000 0.0000 0.0000 0.0000 0.0000 -114.7986
#
#
#
# Elastic Compliance Matrix: (Units=1/GPa)
#
#
# Indices 1 2 3 4 5 6 
#
# 1 0.009199 -0.002669 -0.001347 0.000000 0.000000 0.000000
# 2 -0.002669 0.017459 -0.009364 0.000000 0.000000 0.000000
# 3 -0.001347 -0.009364 0.014732 0.000000 0.000000 0.000000
# 4 0.000000 0.000000 0.000000 0.041795 0.000000 0.000000
# 5 0.000000 0.000000 0.000000 0.000000 0.038439 0.000000
# 6 0.000000 0.000000 0.000000 0.000000 0.000000 -0.008711
#
#
# Mechanical properties :
#
#
# Convention : Reuss Voigt Hill
#
# Bulk Modulus (GPa) = 68.36038 68.62355 68.49196
# Shear Modulus (GPa) = 34.58964 0.13672 17.36318
#
# Velocity S-wave (km/s) = 4.05173 0.25473 2.87066
# Velocity P-wave (km/s) = 7.37109 5.71452 6.59502
#
# Compressibility (1/GPa) = 0.01462836
#
# Stress axis : x y z
#
# Youngs Moduli (GPa) = 108.70500 57.27634 67.88076
#
# Poissons Ratio (x) = 0.15290 0.09147
# Poissons Ratio (y) = 0.29018 0.63563
# Poissons Ratio (z) = 0.14648 0.53633
#
# Static dielectric constant tensor:
#      x y z
#    x 4.068640 0.000000 0.000000 
#    y 0.000000 3.893010 0.000000 
#    z 0.000000 0.000000 3.601770 
# 
# 
# High freq. dielectric constant tensor:
#      x y z
#    x 1.850800 0.000000 0.000000 
#    y 0.000000 1.838250 0.000000 
#    z 0.000000 0.000000 1.815000 
# 
# From -- ./inp_files/6361.got.cif
#   From: 2010.03.12/outbox.cif.g09.slc.cpg/sg54_4_cif.got.tgz:6361.got - 2010.04.16 15:00:50.
