data_PCOD8223626
_publ_section_title
;
Structure prediction by ZEFSAII (Michael W. Deem and Ramdas Pophale) SiO2 
 PCOD8223626
Probable space group: P C C A
;
_chemical_formula_sum "Si O2"
_cell_formula_units_Z 60
_cell_length_a 10.363595
_cell_length_b 8.663980
_cell_length_c 29.988683
_cell_angle_alpha 90.000000
_cell_angle_beta 90.000000
_cell_angle_gamma 90.000000
_cell_volume 2692.683241
_symmetry_space_group_name_H-M "P C C A"
_symmetry_group_IT_number 54
_symmetry_cell_setting 'orthorhombic'
loop_
_space_group_symop_operation_xyz
x,y,z
1/2-x,-y,z
1/2+x,-y,1/2-z
-x,y,1/2-z
-x,-y,-z
1/2+x,y,-z
1/2-x,y,1/2+z
x,-y,1/2+z
loop_
_atom_site_type_symbol
_atom_site_label
_atom_site_fract_x
_atom_site_fract_y
_atom_site_fract_z
Si Si1 0.614543 0.912227 0.105973
Si Si2 0.963868 0.222832 0.633918
Si Si3 0.000000 0.961567 0.750000
Si Si4 0.405713 0.645790 0.958358
Si Si5 0.885777 0.571066 0.311866
Si Si6 0.938080 0.277199 0.187822
Si Si7 0.828761 0.766002 0.227465
Si Si8 0.120462 0.298234 0.475478
O O1 0.612567 0.766129 0.138831
O O2 0.586750 0.845186 0.056942
O O3 0.750000 0.000000 0.109061
O O4 0.511663 0.041886 0.122396
O O5 0.889849 0.295397 0.591792
O O6 0.881219 0.262493 0.677903
O O7 0.097194 0.308245 0.646619
O O8 0.966786 0.856005 0.793437
O O9 0.129417 0.061353 0.758608
O O10 0.423170 0.461993 0.955053
O O11 0.274945 0.695510 0.985141
O O12 0.532794 0.724974 0.980347
O O13 0.750000 0.500000 0.323055
O O14 0.890828 0.652314 0.263856
O O15 0.998703 0.443874 0.312818
O O16 0.823245 0.268528 0.224880
#
# Coordination Sequence:
#
# PCOD8223626 Si02
#       8
#     8   8   4   8   8   8   8   8
#     4  12  21  45  71 108 135 178 239 293 350 425
#     4  12  24  45  68 102 139 179 232 299 346 424
#     4  12  22  40  60 100 136 176 222 294 350 406
#     4  10  22  44  73 104 142 184 234 287 358 420
#     4  12  29  47  65 100 141 190 244 299 359 420
#     4  12  25  43  71  97 131 188 238 289 349 422
#     4  12  24  43  66  97 140 181 236 292 351 420
#     4  10  22  43  72 106 141 183 229 293 351 432
#
# _framework density 22.282606000000001
#
# number of rings (size 3 to 8) (size 9 to 14) (size 15 to 20)
#    0.000    0.533    5.333    2.000    5.600    1.600 
#    7.200    0.667    0.000    0.000    0.000    0.000 
#    0.000    0.000    0.000    0.000    0.000    0.000 
#
# Total GULP energy -743587.770854 kJ/mol
# GULP energy per Si atom -12393.129514 kJ/mol
# Density = 2.223189 g / cm^3
# Si number density = 22.282606 Si / 1000 Ang^3
#
#
#
# Elastic Constant Matrix: (Units=GPa)
#
#
# Indices 1 2 3 4 5 6 
#
# 1 94.5050 38.5135 49.4209 0.0000 0.0000 0.0000
# 2 38.5135 133.3050 53.4062 0.0000 0.0000 0.0000
# 3 49.4209 53.4062 115.5722 0.0000 0.0000 0.0000
# 4 0.0000 0.0000 0.0000 41.4068 0.0000 0.0000
# 5 0.0000 0.0000 0.0000 0.0000 20.6733 0.0000
# 6 0.0000 0.0000 0.0000 0.0000 0.0000 27.4431
#
#
#
# Elastic Compliance Matrix: (Units=1/GPa)
#
#
# Indices 1 2 3 4 5 6 
#
# 1 0.014063 -0.002029 -0.005076 0.000000 0.000000 0.000000
# 2 -0.002029 0.009499 -0.003522 0.000000 0.000000 0.000000
# 3 -0.005076 -0.003522 0.012450 0.000000 0.000000 0.000000
# 4 0.000000 0.000000 0.000000 0.024151 0.000000 0.000000
# 5 0.000000 0.000000 0.000000 0.000000 0.048372 0.000000
# 6 0.000000 0.000000 0.000000 0.000000 0.000000 0.036439
#
#
# Mechanical properties :
#
#
# Convention : Reuss Voigt Hill
#
# Bulk Modulus (GPa) = 67.75743 69.56258 68.66000
# Shear Modulus (GPa) = 29.21477 31.37409 30.29443
#
# Velocity S-wave (km/s) = 3.62484 3.75641 3.69121
# Velocity P-wave (km/s) = 6.92774 7.07816 7.00335
#
# Compressibility (1/GPa) = 0.01475853
#
# Stress axis : x y z
#
# Youngs Moduli (GPa) = 71.10947 105.27672 80.31859
#
# Poissons Ratio (x) = 0.21365 0.40768
# Poissons Ratio (y) = 0.14431 0.28285
# Poissons Ratio (z) = 0.36093 0.37074
#
# Static dielectric constant tensor:
#      x y z
#    x 4.271210 0.000000 0.000000 
#    y 0.000000 4.556470 0.000000 
#    z 0.000000 0.000000 3.974210 
# 
# 
# High freq. dielectric constant tensor:
#      x y z
#    x 1.863670 0.000000 0.000000 
#    y 0.000000 1.894150 0.000000 
#    z 0.000000 0.000000 1.865140 
# 
# From -- ./inp_files/26303.got.cif
#   From: 2010.03.12/outbox.cif.g09.slc.cpg/sg54_14_cif.got.tgz:26303.got - 2010.04.16 15:00:50.
