data_PCOD8223357
_publ_section_title
;
Structure prediction by ZEFSAII (Michael W. Deem and Ramdas Pophale) SiO2 
 PCOD8223357
Probable space group: P C C A
;
_chemical_formula_sum "Si O2"
_cell_formula_units_Z 44
_cell_length_a 23.673445
_cell_length_b 5.441403
_cell_length_c 15.557211
_cell_angle_alpha 90.000000
_cell_angle_beta 90.000000
_cell_angle_gamma 90.000000
_cell_volume 2004.029432
_symmetry_space_group_name_H-M "P C C A"
_symmetry_group_IT_number 54
_symmetry_cell_setting 'orthorhombic'
loop_
_space_group_symop_operation_xyz
x,y,z
1/2-x,-y,z
1/2+x,-y,1/2-z
-x,y,1/2-z
-x,-y,-z
1/2+x,y,-z
1/2-x,y,1/2+z
x,-y,1/2+z
loop_
_atom_site_type_symbol
_atom_site_label
_atom_site_fract_x
_atom_site_fract_y
_atom_site_fract_z
Si Si1 0.869562 0.417223 0.487425
Si Si2 0.812196 0.092968 0.027595
Si Si3 0.594524 0.621160 0.670054
Si Si4 0.592596 0.750759 0.315280
Si Si5 0.684582 0.004087 0.217770
Si Si6 0.500000 0.941069 0.750000
O O1 0.824762 0.644416 0.481363
O O2 0.908475 0.462619 0.570560
O O3 0.904125 0.426008 0.398124
O O4 0.849050 0.134662 0.493808
O O5 0.750000 0.000000 0.007835
O O6 0.821086 0.150878 0.129167
O O7 0.582032 0.388834 0.727115
O O8 0.543207 0.803304 0.687823
O O9 0.656858 0.730510 0.694807
O O10 0.651419 0.896457 0.300029
O O11 0.537023 0.917054 0.321767
O O12 0.750000 0.000000 0.245984
#
# Coordination Sequence:
#
# PCOD8223357 Si02
#       6
#     8   8   8   8   8   4
#     4  11  24  40  69  97 136 178 221 280 337 402
#     4  10  21  42  64  97 139 181 219 268 332 398
#     4  10  22  44  64  94 134 169 229 280 345 403
#     4  11  23  42  65  96 131 173 233 276 340 405
#     4   9  20  39  66  93 134 179 216 270 336 402
#     4  10  24  44  68  90 126 180 224 300 336 400
#
# _framework density 21.955767000000002
#
# number of rings (size 3 to 8) (size 9 to 14) (size 15 to 20)
#    0.000    1.818    1.818    1.091    5.091    2.182 
#    3.273    3.636    0.000    0.000    0.000    0.000 
#    0.000    0.000    0.000    0.000    0.000    0.000 
#
# Total GULP energy -545113.855451 kJ/mol
# GULP energy per Si atom -12388.951260 kJ/mol
# Density = 2.190579 g / cm^3
# Si number density = 21.955767 Si / 1000 Ang^3
#
#
#
# Elastic Constant Matrix: (Units=GPa)
#
#
# Indices 1 2 3 4 5 6 
#
# 1 128.1545 28.2640 28.1924 0.0000 0.0000 0.0000
# 2 28.2640 91.5384 28.2129 0.0000 0.0000 0.0000
# 3 28.1924 28.2129 116.9832 0.0000 0.0000 0.0000
# 4 0.0000 0.0000 0.0000 43.5697 0.0000 0.0000
# 5 0.0000 0.0000 0.0000 0.0000 9.9882 0.0000
# 6 0.0000 0.0000 0.0000 0.0000 0.0000 -3.2866
#
#
#
# Elastic Compliance Matrix: (Units=1/GPa)
#
#
# Indices 1 2 3 4 5 6 
#
# 1 0.008626 -0.002185 -0.001552 0.000000 0.000000 0.000000
# 2 -0.002185 0.012355 -0.002453 0.000000 0.000000 0.000000
# 3 -0.001552 -0.002453 0.009514 0.000000 0.000000 0.000000
# 4 0.000000 0.000000 0.000000 0.022952 0.000000 0.000000
# 5 0.000000 0.000000 0.000000 0.000000 0.100118 0.000000
# 6 0.000000 0.000000 0.000000 0.000000 0.000000 -0.304269
#
#
# Mechanical properties :
#
#
# Convention : Reuss Voigt Hill
#
# Bulk Modulus (GPa) = 55.20288 56.22385 55.71336
# Shear Modulus (GPa) = -37.79718 26.85471 -5.47124
#
# Velocity S-wave (km/s) = -4.15362 3.50112 -1.58030
# Velocity P-wave (km/s) = 1.48121 6.48129 4.70112
#
# Compressibility (1/GPa) = 0.01811500
#
# Stress axis : x y z
#
# Youngs Moduli (GPa) = 115.92279 80.93781 105.10991
#
# Poissons Ratio (x) = 0.17687 0.16312
# Poissons Ratio (y) = 0.25332 0.25784
# Poissons Ratio (z) = 0.17990 0.19855
#
# Static dielectric constant tensor:
#      x y z
#    x 4.531690 0.000000 0.000000 
#    y 0.000000 4.069360 0.000000 
#    z 0.000000 0.000000 4.058570 
# 
# 
# High freq. dielectric constant tensor:
#      x y z
#    x 1.853470 0.000000 0.000000 
#    y 0.000000 1.864740 0.000000 
#    z 0.000000 0.000000 1.858450 
# 
# From -- ./inp_files/15064.got.cif
#   From: 2010.03.12/outbox.cif.g09.slc.cpg/sg54_8_cif.got.tgz:15064.got - 2010.04.16 15:00:50.
