data_PCOD8223669
_publ_section_title
;
Structure prediction by ZEFSAII (Michael W. Deem and Ramdas Pophale) SiO2 
 PCOD8223669
Probable space group: P C C A
;
_chemical_formula_sum "Si O2"
_cell_formula_units_Z 48
_cell_length_a 24.431397
_cell_length_b 6.499178
_cell_length_c 13.622019
_cell_angle_alpha 90.000000
_cell_angle_beta 90.000000
_cell_angle_gamma 90.000000
_cell_volume 2162.958636
_symmetry_space_group_name_H-M "P C C A"
_symmetry_group_IT_number 54
_symmetry_cell_setting 'orthorhombic'
loop_
_space_group_symop_operation_xyz
x,y,z
1/2-x,-y,z
1/2+x,-y,1/2-z
-x,y,1/2-z
-x,-y,-z
1/2+x,y,-z
1/2-x,y,1/2+z
x,-y,1/2+z
loop_
_atom_site_type_symbol
_atom_site_label
_atom_site_fract_x
_atom_site_fract_y
_atom_site_fract_z
Si Si1 0.500000 0.995653 0.250000
Si Si2 0.250000 0.500000 0.466169
Si Si3 0.980069 0.197502 0.559238
Si Si4 0.892044 0.219761 0.299261
Si Si5 0.695735 0.115029 0.949148
Si Si6 0.658747 0.220723 0.587440
Si Si7 0.917182 0.479178 0.950112
O O1 0.545824 0.864353 0.307718
O O2 0.466642 0.130461 0.329489
O O3 0.209752 0.644198 0.531899
O O4 0.285835 0.648524 0.396898
O O5 0.926592 0.306767 0.511842
O O6 0.026293 0.367914 0.566930
O O7 0.000000 0.000000 0.500000
O O8 0.848930 0.087752 0.362942
O O9 0.875293 0.217702 0.186341
O O10 0.893305 0.450743 0.344250
O O11 0.750000 0.000000 0.911389
O O12 0.673538 0.007782 0.049334
O O13 0.624023 0.327383 0.502504
#
# Coordination Sequence:
#
# PCOD8223669 Si02
#       7
#     4   4   8   8   8   8   8
#     4  12  26  40  72 102 146 188 244 284 362 434
#     4  10  22  48  72 102 138 178 234 302 352 432
#     4  11  24  45  65  94 139 189 235 296 344 417
#     4  12  26  44  70 108 140 190 238 288 367 434
#     4  10  24  49  73 100 140 181 235 298 362 434
#     4  11  25  44  71 100 139 177 235 294 359 432
#     4  11  25  44  69  98 142 187 240 296 358 428
#
# _framework density 22.191827
#
# number of rings (size 3 to 8) (size 9 to 14) (size 15 to 20)
#    0.000    1.000    3.333    2.000    7.000    2.667 
#    3.000    0.000    0.000    0.000    0.000    0.000 
#    0.000    0.000    0.000    0.000    0.000    0.000 
#
# Total GULP energy -595156.258031 kJ/mol
# GULP energy per Si atom -12399.088709 kJ/mol
# Density = 2.214132 g / cm^3
# Si number density = 22.191827 Si / 1000 Ang^3
#
#
#
# Elastic Constant Matrix: (Units=GPa)
#
#
# Indices 1 2 3 4 5 6 
#
# 1 95.8003 33.3110 35.9046 0.0000 0.0000 0.0000
# 2 33.3110 114.5521 47.4189 0.0000 0.0000 0.0000
# 3 35.9046 47.4189 106.6179 0.0000 0.0000 0.0000
# 4 0.0000 0.0000 0.0000 35.8539 0.0000 0.0000
# 5 0.0000 0.0000 0.0000 0.0000 39.8793 0.0000
# 6 0.0000 0.0000 0.0000 0.0000 0.0000 45.6873
#
#
#
# Elastic Compliance Matrix: (Units=1/GPa)
#
#
# Indices 1 2 3 4 5 6 
#
# 1 0.012424 -0.002305 -0.003159 0.000000 0.000000 0.000000
# 2 -0.002305 0.011127 -0.004173 0.000000 0.000000 0.000000
# 3 -0.003159 -0.004173 0.012299 0.000000 0.000000 0.000000
# 4 0.000000 0.000000 0.000000 0.027891 0.000000 0.000000
# 5 0.000000 0.000000 0.000000 0.000000 0.025076 0.000000
# 6 0.000000 0.000000 0.000000 0.000000 0.000000 0.021888
#
#
# Mechanical properties :
#
#
# Convention : Reuss Voigt Hill
#
# Bulk Modulus (GPa) = 60.32473 61.13771 60.73122
# Shear Modulus (GPa) = 36.89966 37.63984 37.26975
#
# Velocity S-wave (km/s) = 4.08212 4.12286 4.10254
# Velocity P-wave (km/s) = 7.03282 7.09037 7.06166
#
# Compressibility (1/GPa) = 0.01657695
#
# Stress axis : x y z
#
# Youngs Moduli (GPa) = 80.49118 89.86944 81.30920
#
# Poissons Ratio (x) = 0.20717 0.25682
# Poissons Ratio (y) = 0.18555 0.33927
# Poissons Ratio (z) = 0.25423 0.37499
#
# Static dielectric constant tensor:
#      x y z
#    x 4.861580 0.000000 0.000000 
#    y 0.000000 4.260010 0.000000 
#    z 0.000000 0.000000 4.026060 
# 
# 
# High freq. dielectric constant tensor:
#      x y z
#    x 1.890440 0.000000 0.000000 
#    y 0.000000 1.880550 0.000000 
#    z 0.000000 0.000000 1.856710 
# 
# From -- ./inp_files/15189.got.cif
#   From: 2010.03.12/outbox.cif.g09.slc.cpg/sg54_8_cif.got.tgz:15189.got - 2010.04.16 15:00:50.
