data_PCOD8223888
_publ_section_title
;
Structure prediction by ZEFSAII (Michael W. Deem and Ramdas Pophale) SiO2 
 PCOD8223888
Probable space group: P C C A
;
_chemical_formula_sum "Si O2"
_cell_formula_units_Z 48
_cell_length_a 13.840057
_cell_length_b 13.183754
_cell_length_c 12.563848
_cell_angle_alpha 90.000000
_cell_angle_beta 90.000000
_cell_angle_gamma 90.000000
_cell_volume 2292.448791
_symmetry_space_group_name_H-M "P C C A"
_symmetry_group_IT_number 54
_symmetry_cell_setting 'orthorhombic'
loop_
_space_group_symop_operation_xyz
x,y,z
1/2-x,-y,z
1/2+x,-y,1/2-z
-x,y,1/2-z
-x,-y,-z
1/2+x,y,-z
1/2-x,y,1/2+z
x,-y,1/2+z
loop_
_atom_site_type_symbol
_atom_site_label
_atom_site_fract_x
_atom_site_fract_y
_atom_site_fract_z
Si Si1 0.828263 0.807524 0.599043
Si Si2 0.112813 0.646717 0.736707
Si Si3 0.750000 0.500000 0.638149
Si Si4 0.477574 0.848914 0.976732
Si Si5 0.935819 0.013121 0.339984
Si Si6 0.334977 0.677559 0.993060
Si Si7 0.250000 0.000000 0.787856
O O1 0.860983 0.751749 0.706537
O O2 0.919250 0.832129 0.528314
O O3 0.762784 0.740361 0.521356
O O4 0.770480 0.906737 0.634131
O O5 0.175483 0.558200 0.787678
O O6 0.141857 0.655301 0.614606
O O7 0.000000 0.620916 0.750000
O O8 0.819706 0.428549 0.567378
O O9 0.424251 0.744117 0.944951
O O10 0.412744 0.910543 0.063003
O O11 0.495649 0.918472 0.873998
O O12 0.000000 0.071053 0.250000
O O13 0.837364 0.972258 0.290355
#
# Coordination Sequence:
#
# PCOD8223888 Si02
#       7
#     8   8   4   8   8   8   4
#     4  11  25  42  65 100 135 179 229 274 329 408
#     4  11  23  47  73  97 132 179 220 284 355 411
#     4  10  26  48  70 106 132 162 236 288 354 424
#     4  11  24  42  64  95 138 179 226 276 336 400
#     4  11  24  41  61  96 138 183 227 269 327 397
#     4  11  24  45  70  99 132 175 226 287 348 410
#     4  12  24  40  68  94 144 186 228 276 326 388
#
# _framework density 20.938307999999999
#
# number of rings (size 3 to 8) (size 9 to 14) (size 15 to 20)
#    0.000    1.000    3.333    2.500    7.000    0.667 
#    3.000    0.000    0.000    0.000    0.000    0.000 
#    0.000    0.000    0.000    0.000    0.000    0.000 
#
# Total GULP energy -595255.070470 kJ/mol
# GULP energy per Si atom -12401.147301 kJ/mol
# Density = 2.089065 g / cm^3
# Si number density = 20.938308 Si / 1000 Ang^3
#
#
#
# Elastic Constant Matrix: (Units=GPa)
#
#
# Indices 1 2 3 4 5 6 
#
# 1 110.3739 27.6493 37.2315 0.0000 0.0000 0.0000
# 2 27.6493 100.4921 25.3865 0.0000 0.0000 0.0000
# 3 37.2315 25.3865 85.3836 0.0000 0.0000 0.0000
# 4 0.0000 0.0000 0.0000 15.6263 0.0000 0.0000
# 5 0.0000 0.0000 0.0000 0.0000 25.3265 0.0000
# 6 0.0000 0.0000 0.0000 0.0000 0.0000 36.3206
#
#
#
# Elastic Compliance Matrix: (Units=1/GPa)
#
#
# Indices 1 2 3 4 5 6 
#
# 1 0.010967 -0.001956 -0.004201 0.000000 0.000000 0.000000
# 2 -0.001956 0.011108 -0.002450 0.000000 0.000000 0.000000
# 3 -0.004201 -0.002450 0.014272 0.000000 0.000000 0.000000
# 4 0.000000 0.000000 0.000000 0.063995 0.000000 0.000000
# 5 0.000000 0.000000 0.000000 0.000000 0.039484 0.000000
# 6 0.000000 0.000000 0.000000 0.000000 0.000000 0.027533
#
#
# Mechanical properties :
#
#
# Convention : Reuss Voigt Hill
#
# Bulk Modulus (GPa) = 52.26288 52.97601 52.61944
# Shear Modulus (GPa) = 26.18492 29.18684 27.68588
#
# Velocity S-wave (km/s) = 3.54018 3.73761 3.64023
# Velocity P-wave (km/s) = 6.45950 6.63191 6.54627
#
# Compressibility (1/GPa) = 0.01913404
#
# Stress axis : x y z
#
# Youngs Moduli (GPa) = 91.18165 90.02421 70.06809
#
# Poissons Ratio (x) = 0.17612 0.29432
# Poissons Ratio (y) = 0.17838 0.17164
# Poissons Ratio (z) = 0.38301 0.22053
#
# Static dielectric constant tensor:
#      x y z
#    x 3.998200 0.000000 0.000000 
#    y 0.000000 4.300600 0.000000 
#    z 0.000000 0.000000 3.921290 
# 
# 
# High freq. dielectric constant tensor:
#      x y z
#    x 1.834660 0.000000 0.000000 
#    y 0.000000 1.819390 0.000000 
#    z 0.000000 0.000000 1.828070 
# 
# From -- ./inp_files/8388.got.cif
#   From: 2010.03.12/outbox.cif.g09.slc.cpg/sg54_5_cif.got.tgz:8388.got - 2010.04.16 15:00:50.
