data_PCOD8223719
_publ_section_title
;
Structure prediction by ZEFSAII (Michael W. Deem and Ramdas Pophale) SiO2 
 PCOD8223719
Probable space group: P C C A
;
_chemical_formula_sum "Si O2"
_cell_formula_units_Z 44
_cell_length_a 14.166341
_cell_length_b 11.766996
_cell_length_c 13.122080
_cell_angle_alpha 90.000000
_cell_angle_beta 90.000000
_cell_angle_gamma 90.000000
_cell_volume 2187.388772
_symmetry_space_group_name_H-M "P C C A"
_symmetry_group_IT_number 54
_symmetry_cell_setting 'orthorhombic'
loop_
_space_group_symop_operation_xyz
x,y,z
1/2-x,-y,z
1/2+x,-y,1/2-z
-x,y,1/2-z
-x,-y,-z
1/2+x,y,-z
1/2-x,y,1/2+z
x,-y,1/2+z
loop_
_atom_site_type_symbol
_atom_site_label
_atom_site_fract_x
_atom_site_fract_y
_atom_site_fract_z
Si Si1 0.250000 0.000000 0.628555
Si Si2 0.397935 0.038243 0.798582
Si Si3 0.473117 0.563195 0.865198
Si Si4 0.534726 0.185753 0.135623
Si Si5 0.642063 0.828621 0.003725
Si Si6 0.654104 0.434215 0.500479
O O1 0.168310 0.954529 0.701254
O O2 0.277097 0.896718 0.554936
O O3 0.500000 0.057268 0.750000
O O4 0.388709 0.916657 0.859933
O O5 0.370947 0.134963 0.879049
O O6 0.500000 0.548105 0.750000
O O7 0.430029 0.688293 0.894636
O O8 0.571757 0.536599 0.920699
O O9 0.388961 0.475934 0.891542
O O10 0.500000 0.198769 0.250000
O O11 0.454345 0.148496 0.056888
O O12 0.675362 0.698872 0.003633
O O13 0.750000 0.500000 0.471655
#
# Coordination Sequence:
#
# PCOD8223719 Si02
#       6
#     4   8   8   8   8   8
#     4  12  24  40  62  96 128 168 216 248 316 394
#     4  11  23  41  64  97 130 167 213 255 318 383
#     4   9  20  40  68  91 122 165 212 257 310 381
#     4   9  17  38  68  89 123 168 203 247 319 371
#     4  11  23  42  62  91 130 165 209 267 311 369
#     4  10  23  43  60  93 125 163 211 260 321 370
#
# _framework density 20.115307999999999
#
# number of rings (size 3 to 8) (size 9 to 14) (size 15 to 20)
#    0.000    1.818    3.636    1.091    0.000    4.364 
#    9.818    0.000    0.000    0.000    0.000    0.000 
#    0.000    0.000    0.000    0.000    0.000    0.000 
#
# Total GULP energy -545307.713272 kJ/mol
# GULP energy per Si atom -12393.357120 kJ/mol
# Density = 2.006952 g / cm^3
# Si number density = 20.115308 Si / 1000 Ang^3
#
#
#
# Elastic Constant Matrix: (Units=GPa)
#
#
# Indices 1 2 3 4 5 6 
#
# 1 95.9216 54.6122 50.5390 0.0000 0.0000 0.0000
# 2 54.6122 134.7047 53.4574 0.0000 0.0000 0.0000
# 3 50.5390 53.4574 92.4024 0.0000 0.0000 0.0000
# 4 0.0000 0.0000 0.0000 37.4996 0.0000 0.0000
# 5 0.0000 0.0000 0.0000 0.0000 24.6409 0.0000
# 6 0.0000 0.0000 0.0000 0.0000 0.0000 48.4459
#
#
#
# Elastic Compliance Matrix: (Units=1/GPa)
#
#
# Indices 1 2 3 4 5 6 
#
# 1 0.016109 -0.003939 -0.006532 0.000000 0.000000 0.000000
# 2 -0.003939 0.010599 -0.003978 0.000000 0.000000 0.000000
# 3 -0.006532 -0.003978 0.016696 0.000000 0.000000 0.000000
# 4 0.000000 0.000000 0.000000 0.026667 0.000000 0.000000
# 5 0.000000 0.000000 0.000000 0.000000 0.040583 0.000000
# 6 0.000000 0.000000 0.000000 0.000000 0.000000 0.020642
#
#
# Mechanical properties :
#
#
# Convention : Reuss Voigt Hill
#
# Bulk Modulus (GPa) = 68.93037 71.13845 70.03441
# Shear Modulus (GPa) = 30.29775 33.07863 31.68819
#
# Velocity S-wave (km/s) = 3.88519 4.05958 3.97334
# Velocity P-wave (km/s) = 7.38027 7.57732 7.47944
#
# Compressibility (1/GPa) = 0.01450739
#
# Stress axis : x y z
#
# Youngs Moduli (GPa) = 62.07554 94.34858 59.89420
#
# Poissons Ratio (x) = 0.37162 0.39124
# Poissons Ratio (y) = 0.24450 0.23823
# Poissons Ratio (z) = 0.40549 0.37527
#
# Static dielectric constant tensor:
#      x y z
#    x 3.506190 0.000000 0.000000 
#    y 0.000000 4.148510 0.000000 
#    z 0.000000 0.000000 3.295660 
# 
# 
# High freq. dielectric constant tensor:
#      x y z
#    x 1.772100 0.000000 0.000000 
#    y 0.000000 1.791590 0.000000 
#    z 0.000000 0.000000 1.793120 
# 
# From -- ./inp_files/13365.got.cif
#   From: 2010.03.12/outbox.cif.g09.slc.cpg/sg54_7_cif.got.tgz:13365.got - 2010.04.16 15:00:50.
