data_PCOD8223288
_publ_section_title
;
Structure prediction by ZEFSAII (Michael W. Deem and Ramdas Pophale) SiO2 
 PCOD8223288
Probable space group: P C C A
;
_chemical_formula_sum "Si O2"
_cell_formula_units_Z 48
_cell_length_a 8.912514
_cell_length_b 9.161913
_cell_length_c 29.023134
_cell_angle_alpha 90.000000
_cell_angle_beta 90.000000
_cell_angle_gamma 90.000000
_cell_volume 2369.903681
_symmetry_space_group_name_H-M "P C C A"
_symmetry_group_IT_number 54
_symmetry_cell_setting 'orthorhombic'
loop_
_space_group_symop_operation_xyz
x,y,z
1/2-x,-y,z
1/2+x,-y,1/2-z
-x,y,1/2-z
-x,-y,-z
1/2+x,y,-z
1/2-x,y,1/2+z
x,-y,1/2+z
loop_
_atom_site_type_symbol
_atom_site_label
_atom_site_fract_x
_atom_site_fract_y
_atom_site_fract_z
Si Si1 0.923286 0.852396 0.877297
Si Si2 0.408836 0.814213 0.625870
Si Si3 0.579493 0.326902 0.545680
Si Si4 0.569608 0.658439 0.546018
Si Si5 0.144704 0.362559 0.719111
Si Si6 0.859608 0.131868 0.279145
O O1 0.756406 0.823716 0.897109
O O2 0.924066 0.788758 0.825122
O O3 0.039689 0.772256 0.910446
O O4 0.969277 0.020919 0.869495
O O5 0.523114 0.737629 0.592098
O O6 0.410433 0.723008 0.673453
O O7 0.518476 0.490803 0.552618
O O8 0.755297 0.325168 0.539160
O O9 0.507265 0.266439 0.498476
O O10 0.250000 0.500000 0.706716
O O11 0.254971 0.250621 0.747175
O O12 0.000000 0.405887 0.750000
O O13 0.000000 0.074425 0.250000
O O14 0.750000 0.000000 0.294601
#
# Coordination Sequence:
#
# PCOD8223288 Si02
#       6
#     8   8   8   8   8   8
#     4  10  21  40  61  90 122 164 212 254 313 381
#     4  10  22  39  62  88 123 165 207 256 319 379
#     4  10  22  40  63  91 126 159 212 258 313 387
#     4  10  22  40  62  94 121 166 206 258 320 376
#     4  11  24  43  63  95 130 171 220 272 329 393
#     4  11  22  41  66  93 128 174 215 265 321 387
#
# _framework density 20.253986999999999
#
# number of rings (size 3 to 8) (size 9 to 14) (size 15 to 20)
#    0.000    1.667    3.333    2.000    4.667    4.000 
#    3.000    0.000    0.000    0.000    0.000    0.000 
#    0.000    0.000    0.000    0.000    0.000    0.000 
#
# Total GULP energy -594874.792962 kJ/mol
# GULP energy per Si atom -12393.224853 kJ/mol
# Density = 2.020789 g / cm^3
# Si number density = 20.253987 Si / 1000 Ang^3
#
#
#
# Elastic Constant Matrix: (Units=GPa)
#
#
# Indices 1 2 3 4 5 6 
#
# 1 88.2521 39.8340 58.3325 0.0000 0.0000 0.0000
# 2 39.8340 92.2889 42.5537 0.0000 0.0000 0.0000
# 3 58.3325 42.5537 107.4606 0.0000 0.0000 0.0000
# 4 0.0000 0.0000 0.0000 29.4949 0.0000 0.0000
# 5 0.0000 0.0000 0.0000 0.0000 40.9194 0.0000
# 6 0.0000 0.0000 0.0000 0.0000 0.0000 36.4794
#
#
#
# Elastic Compliance Matrix: (Units=1/GPa)
#
#
# Indices 1 2 3 4 5 6 
#
# 1 0.018912 -0.004195 -0.008605 0.000000 0.000000 0.000000
# 2 -0.004195 0.014187 -0.003340 0.000000 0.000000 0.000000
# 3 -0.008605 -0.003340 0.015299 0.000000 0.000000 0.000000
# 4 0.000000 0.000000 0.000000 0.033904 0.000000 0.000000
# 5 0.000000 0.000000 0.000000 0.000000 0.024438 0.000000
# 6 0.000000 0.000000 0.000000 0.000000 0.000000 0.027413
#
#
# Mechanical properties :
#
#
# Convention : Reuss Voigt Hill
#
# Bulk Modulus (GPa) = 62.04559 63.27131 62.65845
# Shear Modulus (GPa) = 29.10236 31.19748 30.14992
#
# Velocity S-wave (km/s) = 3.79472 3.92894 3.86241
# Velocity P-wave (km/s) = 7.06400 7.20339 7.13404
#
# Compressibility (1/GPa) = 0.01611718
#
# Stress axis : x y z
#
# Youngs Moduli (GPa) = 52.87534 70.48895 65.36188
#
# Poissons Ratio (x) = 0.29573 0.56243
# Poissons Ratio (y) = 0.22183 0.21834
# Poissons Ratio (z) = 0.45498 0.23546
#
# Static dielectric constant tensor:
#      x y z
#    x 3.685590 0.000000 0.000000 
#    y 0.000000 3.766170 0.000000 
#    z 0.000000 0.000000 3.495090 
# 
# 
# High freq. dielectric constant tensor:
#      x y z
#    x 1.792080 0.000000 0.000000 
#    y 0.000000 1.791220 0.000000 
#    z 0.000000 0.000000 1.781870 
# 
# From -- ./inp_files/27745.got.cif
#   From: 2010.03.12/outbox.cif.g09.slc.cpg/sg54_14_cif.got.tgz:27745.got - 2010.04.16 15:00:50.
