data_PCOD8223025
_publ_section_title
;
Structure prediction by ZEFSAII (Michael W. Deem and Ramdas Pophale) SiO2 
 PCOD8223025
Probable space group: P C C A
;
_chemical_formula_sum "Si O2"
_cell_formula_units_Z 56
_cell_length_a 13.904490
_cell_length_b 19.865120
_cell_length_c 9.193807
_cell_angle_alpha 90.000000
_cell_angle_beta 90.000000
_cell_angle_gamma 90.000000
_cell_volume 2539.461538
_symmetry_space_group_name_H-M "P C C A"
_symmetry_group_IT_number 54
_symmetry_cell_setting 'orthorhombic'
loop_
_space_group_symop_operation_xyz
x,y,z
1/2-x,-y,z
1/2+x,-y,1/2-z
-x,y,1/2-z
-x,-y,-z
1/2+x,y,-z
1/2-x,y,1/2+z
x,-y,1/2+z
loop_
_atom_site_type_symbol
_atom_site_label
_atom_site_fract_x
_atom_site_fract_y
_atom_site_fract_z
Si Si1 0.750000 0.500000 0.035870
Si Si2 0.882935 0.027862 0.500245
Si Si3 0.100891 0.678521 0.662509
Si Si4 0.806304 0.889043 0.503850
Si Si5 0.239490 0.201559 0.246501
Si Si6 0.595485 0.291618 0.169011
Si Si7 0.212509 0.407437 0.711502
Si Si8 0.000000 0.997533 0.750000
O O1 0.808015 0.549876 0.141957
O O2 0.685332 0.546783 0.928706
O O3 0.783343 0.062435 0.490677
O O4 0.927640 0.045408 0.657784
O O5 0.889152 0.944792 0.483997
O O6 0.944604 0.052014 0.361952
O O7 0.155060 0.747659 0.701193
O O8 0.074392 0.679157 0.491220
O O9 0.175487 0.617548 0.699392
O O10 0.000000 0.670341 0.750000
O O11 0.798965 0.829097 0.388280
O O12 0.813204 0.856647 0.663020
O O13 0.322302 0.234937 0.346976
O O14 0.500000 0.264270 0.250000
O O15 0.638243 0.346497 0.281745
#
# Coordination Sequence:
#
# PCOD8223025 Si02
#       8
#     4   8   8   8   8   8   8   4
#     4  10  20  40  70 104 128 180 208 264 310 374
#     4  10  22  40  64  84 126 158 202 250 342 394
#     4  11  25  44  66  95 129 179 216 266 322 374
#     4  11  22  43  62  87 118 171 202 264 324 401
#     4  11  24  44  64  92 128 165 224 272 320 377
#     4  11  25  44  66  95 129 179 216 266 322 374
#     4  10  22  43  70  93 142 168 218 258 318 370
#     4  10  20  40  56  94 112 156 196 254 304 406
#
# _framework density 22.051919000000002
#
# number of rings (size 3 to 8) (size 9 to 14) (size 15 to 20)
#    0.000    1.429    2.857    1.714    4.000    2.286 
#   15.429    4.286    0.000    0.000    0.000    0.000 
#    0.000    0.000    0.000    0.000    0.000    0.000 
#
# Total GULP energy -693734.594274 kJ/mol
# GULP energy per Si atom -12388.117755 kJ/mol
# Density = 2.200173 g / cm^3
# Si number density = 22.051919 Si / 1000 Ang^3
#
#
#
# Elastic Constant Matrix: (Units=GPa)
#
#
# Indices 1 2 3 4 5 6 
#
# 1 73.5775 25.3576 35.6309 0.0000 0.0000 0.0000
# 2 25.3576 82.5731 17.7165 0.0000 0.0000 0.0000
# 3 35.6309 17.7165 136.1283 0.0000 0.0000 0.0000
# 4 0.0000 0.0000 0.0000 31.2119 0.0000 0.0000
# 5 0.0000 0.0000 0.0000 0.0000 30.0474 0.0000
# 6 0.0000 0.0000 0.0000 0.0000 0.0000 0.8696
#
#
#
# Elastic Compliance Matrix: (Units=1/GPa)
#
#
# Indices 1 2 3 4 5 6 
#
# 1 0.016977 -0.004383 -0.003873 0.000000 0.000000 0.000000
# 2 -0.004383 0.013590 -0.000622 0.000000 0.000000 0.000000
# 3 -0.003873 -0.000622 0.008441 0.000000 0.000000 0.000000
# 4 0.000000 0.000000 0.000000 0.032039 0.000000 0.000000
# 5 0.000000 0.000000 0.000000 0.000000 0.033281 0.000000
# 6 0.000000 0.000000 0.000000 0.000000 0.000000 1.150003
#
#
# Mechanical properties :
#
#
# Convention : Reuss Voigt Hill
#
# Bulk Modulus (GPa) = 47.05258 49.96544 48.50901
# Shear Modulus (GPa) = 3.90878 26.66404 15.28641
#
# Velocity S-wave (km/s) = 1.33281 3.48105 2.63573
# Velocity P-wave (km/s) = 4.87360 6.23412 5.59537
#
# Compressibility (1/GPa) = 0.02125282
#
# Stress axis : x y z
#
# Youngs Moduli (GPa) = 58.90249 73.58530 118.47317
#
# Poissons Ratio (x) = 0.32249 0.45889
# Poissons Ratio (y) = 0.25814 0.07363
# Poissons Ratio (z) = 0.22815 0.04574
#
# Static dielectric constant tensor:
#      x y z
#    x 3.906880 0.000000 0.000000 
#    y 0.000000 4.278430 0.000000 
#    z 0.000000 0.000000 4.127210 
# 
# 
# High freq. dielectric constant tensor:
#      x y z
#    x 1.850450 0.000000 0.000000 
#    y 0.000000 1.859440 0.000000 
#    z 0.000000 0.000000 1.889040 
# 
# From -- ./inp_files/3726.got.cif
#   From: 2010.03.12/outbox.cif.g09.slc.cpg/sg54_2_cif.got.tgz:3726.got - 2010.04.16 15:00:50.
