data_PCOD8223971
_publ_section_title
;
Structure prediction by ZEFSAII (Michael W. Deem and Ramdas Pophale) SiO2 
 PCOD8223971
Probable space group: P C C A
;
_chemical_formula_sum "Si O2"
_cell_formula_units_Z 60
_cell_length_a 12.031357
_cell_length_b 13.519561
_cell_length_c 18.625827
_cell_angle_alpha 90.000000
_cell_angle_beta 90.000000
_cell_angle_gamma 90.000000
_cell_volume 3029.652152
_symmetry_space_group_name_H-M "P C C A"
_symmetry_group_IT_number 54
_symmetry_cell_setting 'orthorhombic'
loop_
_space_group_symop_operation_xyz
x,y,z
1/2-x,-y,z
1/2+x,-y,1/2-z
-x,y,1/2-z
-x,-y,-z
1/2+x,y,-z
1/2-x,y,1/2+z
x,-y,1/2+z
loop_
_atom_site_type_symbol
_atom_site_label
_atom_site_fract_x
_atom_site_fract_y
_atom_site_fract_z
Si Si1 0.478511 0.579408 0.668918
Si Si2 0.418043 0.603700 0.069275
Si Si3 0.158760 0.919848 0.846374
Si Si4 0.000000 0.959910 0.250000
Si Si5 0.627031 0.742049 0.049136
Si Si6 0.777933 0.111399 0.792765
Si Si7 0.820128 0.405448 0.580007
Si Si8 0.301709 0.718383 0.607220
O O1 0.500000 0.546135 0.750000
O O2 0.445990 0.484122 0.622671
O O3 0.594985 0.624529 0.642224
O O4 0.383476 0.661969 0.661820
O O5 0.517062 0.683174 0.072038
O O6 0.300525 0.648322 0.090943
O O7 0.396221 0.563973 0.988782
O O8 0.125260 0.848381 0.911751
O O9 0.212004 0.858957 0.779753
O O10 0.250000 0.000000 0.873685
O O11 0.048654 0.973125 0.815132
O O12 0.909446 0.884747 0.280685
O O13 0.740230 0.687383 0.070305
O O14 0.629682 0.753324 0.963031
O O15 0.747432 0.186276 0.855522
O O16 0.750000 0.000000 0.816697
O O17 0.750000 0.500000 0.603859
#
# Coordination Sequence:
#
# PCOD8223971 Si02
#       8
#     8   8   8   4   8   8   8   8
#     4  12  26  41  64  95 127 163 211 260 312 370
#     4  11  23  44  63  88 128 168 207 256 312 377
#     4   9  21  39  62  93 124 163 214 260 314 380
#     4   8  18  40  64  84 126 166 198 260 314 366
#     4  11  23  40  67  93 122 171 210 256 319 375
#     4   9  21  40  62  90 123 165 205 252 319 368
#     4  11  22  42  67  85 125 168 209 253 311 377
#     4  11  25  41  64  95 131 161 208 263 318 373
#
# _framework density 19.804252999999999
#
# number of rings (size 3 to 8) (size 9 to 14) (size 15 to 20)
#    0.000    1.867    2.667    2.400    6.533    3.733 
#    0.000    0.667    0.000    0.000    0.000    0.000 
#    0.000    0.000    0.000    0.000    0.000    0.000 
#
# Total GULP energy -743909.522607 kJ/mol
# GULP energy per Si atom -12398.492043 kJ/mol
# Density = 1.975918 g / cm^3
# Si number density = 19.804253 Si / 1000 Ang^3
#
#
#
# Elastic Constant Matrix: (Units=GPa)
#
#
# Indices 1 2 3 4 5 6 
#
# 1 84.4347 -1.1230 24.0587 0.0000 0.0000 0.0000
# 2 -1.1230 57.9885 29.4878 0.0000 0.0000 0.0000
# 3 24.0587 29.4878 94.8366 0.0000 0.0000 0.0000
# 4 0.0000 0.0000 0.0000 7.2730 0.0000 0.0000
# 5 0.0000 0.0000 0.0000 0.0000 18.0466 0.0000
# 6 0.0000 0.0000 0.0000 0.0000 0.0000 20.9328
#
#
#
# Elastic Compliance Matrix: (Units=1/GPa)
#
#
# Indices 1 2 3 4 5 6 
#
# 1 0.013018 0.002294 -0.004016 0.000000 0.000000 0.000000
# 2 0.002294 0.020888 -0.007077 0.000000 0.000000 0.000000
# 3 -0.004016 -0.007077 0.013764 0.000000 0.000000 0.000000
# 4 0.000000 0.000000 0.000000 0.137494 0.000000 0.000000
# 5 0.000000 0.000000 0.000000 0.000000 0.055412 0.000000
# 6 0.000000 0.000000 0.000000 0.000000 0.000000 0.047772
#
#
# Mechanical properties :
#
#
# Convention : Reuss Voigt Hill
#
# Bulk Modulus (GPa) = 33.25246 38.01185 35.63216
# Shear Modulus (GPa) = 15.82432 21.57289 18.69861
#
# Velocity S-wave (km/s) = 2.82979 3.30404 3.07607
# Velocity P-wave (km/s) = 5.24442 5.81301 5.53602
#
# Compressibility (1/GPa) = 0.03007296
#
# Stress axis : x y z
#
# Youngs Moduli (GPa) = 76.81504 47.87474 72.65523
#
# Poissons Ratio (x) = -0.10984 0.29178
# Poissons Ratio (y) = -0.17623 0.51416
# Poissons Ratio (z) = 0.30848 0.33880
#
# Static dielectric constant tensor:
#      x y z
#    x 3.944920 0.000000 0.000000 
#    y 0.000000 3.363690 0.000000 
#    z 0.000000 0.000000 3.580170 
# 
# 
# High freq. dielectric constant tensor:
#      x y z
#    x 1.794340 0.000000 0.000000 
#    y 0.000000 1.761090 0.000000 
#    z 0.000000 0.000000 1.761580 
# 
# From -- ./inp_files/17431.got.cif
#   From: 2010.03.12/outbox.cif.g09.slc.cpg/sg54_9_cif.got.tgz:17431.got - 2010.04.16 15:00:50.
