data_PCOD8223751
_publ_section_title
;
Structure prediction by ZEFSAII (Michael W. Deem and Ramdas Pophale) SiO2 
 PCOD8223751
Probable space group: P C C A
;
_chemical_formula_sum "Si O2"
_cell_formula_units_Z 36
_cell_length_a 20.002298
_cell_length_b 6.318936
_cell_length_c 13.085409
_cell_angle_alpha 90.000000
_cell_angle_beta 90.000000
_cell_angle_gamma 90.000000
_cell_volume 1653.907252
_symmetry_space_group_name_H-M "P C C A"
_symmetry_group_IT_number 54
_symmetry_cell_setting 'orthorhombic'
loop_
_space_group_symop_operation_xyz
x,y,z
1/2-x,-y,z
1/2+x,-y,1/2-z
-x,y,1/2-z
-x,-y,-z
1/2+x,y,-z
1/2-x,y,1/2+z
x,-y,1/2+z
loop_
_atom_site_type_symbol
_atom_site_label
_atom_site_fract_x
_atom_site_fract_y
_atom_site_fract_z
Si Si1 0.750000 0.500000 0.710996
Si Si2 0.479570 0.789142 0.134602
Si Si3 0.852930 0.488507 0.386166
Si Si4 0.298069 0.179581 0.453428
Si Si5 0.093522 0.122156 0.506284
O O1 0.682821 0.473231 0.776719
O O2 0.734963 0.711606 0.645741
O O3 0.500000 0.825151 0.250000
O O4 0.428398 0.594887 0.124975
O O5 0.448183 0.007707 0.095102
O O6 0.545693 0.739877 0.067457
O O7 0.806537 0.353709 0.460335
O O8 0.855285 0.721939 0.435368
O O9 0.250000 0.000000 0.497033
O O10 0.368650 0.055526 0.436620
#
# Coordination Sequence:
#
# PCOD8223751 Si02
#       5
#     4   8   8   8   8
#     4  12  26  40  70 102 126 180 226 278 338 412
#     4  10  24  41  69 103 133 180 225 276 344 408
#     4  11  25  45  68 100 136 175 227 280 340 404
#     4  11  25  43  67  93 135 173 221 277 338 402
#     4  10  23  45  67  96 141 173 221 286 343 398
#
# _framework density 21.766638
#
# number of rings (size 3 to 8) (size 9 to 14) (size 15 to 20)
#    0.000    1.333    0.000    4.000    9.333    3.556 
#    0.000    0.000    0.000    0.000    0.000    0.000 
#    0.000    0.000    0.000    0.000    0.000    0.000 
#
# Total GULP energy -446373.922356 kJ/mol
# GULP energy per Si atom -12399.275621 kJ/mol
# Density = 2.171710 g / cm^3
# Si number density = 21.766638 Si / 1000 Ang^3
#
#
#
# Elastic Constant Matrix: (Units=GPa)
#
#
# Indices 1 2 3 4 5 6 
#
# 1 96.2848 46.0509 54.2213 0.0000 0.0000 0.0000
# 2 46.0509 110.5629 58.7575 0.0000 0.0000 0.0000
# 3 54.2213 58.7575 130.9601 0.0000 0.0000 0.0000
# 4 0.0000 0.0000 0.0000 116.8702 0.0000 0.0000
# 5 0.0000 0.0000 0.0000 0.0000 47.1253 0.0000
# 6 0.0000 0.0000 0.0000 0.0000 0.0000 45.0829
#
#
#
# Elastic Compliance Matrix: (Units=1/GPa)
#
#
# Indices 1 2 3 4 5 6 
#
# 1 0.014656 -0.003781 -0.004372 0.000000 0.000000 0.000000
# 2 -0.003781 0.012852 -0.004201 0.000000 0.000000 0.000000
# 3 -0.004372 -0.004201 0.011331 0.000000 0.000000 0.000000
# 4 0.000000 0.000000 0.000000 0.008557 0.000000 0.000000
# 5 0.000000 0.000000 0.000000 0.000000 0.021220 0.000000
# 6 0.000000 0.000000 0.000000 0.000000 0.000000 0.022181
#
#
# Mechanical properties :
#
#
# Convention : Reuss Voigt Hill
#
# Bulk Modulus (GPa) = 70.76306 72.87415 71.81860
# Shear Modulus (GPa) = 41.59243 53.73421 47.66332
#
# Velocity S-wave (km/s) = 4.37605 4.97394 4.68454
# Velocity P-wave (km/s) = 7.62322 8.15716 7.89471
#
# Compressibility (1/GPa) = 0.01413167
#
# Stress axis : x y z
#
# Youngs Moduli (GPa) = 68.23092 77.80888 88.25668
#
# Poissons Ratio (x) = 0.29422 0.38582
# Poissons Ratio (y) = 0.25800 0.37074
# Poissons Ratio (z) = 0.29827 0.32685
#
# Static dielectric constant tensor:
#      x y z
#    x 4.238950 0.000000 0.000000 
#    y 0.000000 3.965550 0.000000 
#    z 0.000000 0.000000 3.793270 
# 
# 
# High freq. dielectric constant tensor:
#      x y z
#    x 1.877640 0.000000 0.000000 
#    y 0.000000 1.859000 0.000000 
#    z 0.000000 0.000000 1.845060 
# 
# From -- ./inp_files/9742.got.cif
#   From: 2010.03.12/outbox.cif.g09.slc.cpg/sg54_5_cif.got.tgz:9742.got - 2010.04.16 15:00:50.
