data_PCOD8223629
_publ_section_title
;
Structure prediction by ZEFSAII (Michael W. Deem and Ramdas Pophale) SiO2 
 PCOD8223629
Probable space group: P C C A
;
_chemical_formula_sum "Si O2"
_cell_formula_units_Z 60
_cell_length_a 11.200641
_cell_length_b 8.643676
_cell_length_c 28.138559
_cell_angle_alpha 90.000000
_cell_angle_beta 90.000000
_cell_angle_gamma 90.000000
_cell_volume 2724.226480
_symmetry_space_group_name_H-M "P C C A"
_symmetry_group_IT_number 54
_symmetry_cell_setting 'orthorhombic'
loop_
_space_group_symop_operation_xyz
x,y,z
1/2-x,-y,z
1/2+x,-y,1/2-z
-x,y,1/2-z
-x,-y,-z
1/2+x,y,-z
1/2-x,y,1/2+z
x,-y,1/2+z
loop_
_atom_site_type_symbol
_atom_site_label
_atom_site_fract_x
_atom_site_fract_y
_atom_site_fract_z
Si Si1 0.755199 0.663697 0.106086
Si Si2 0.000000 0.679954 0.250000
Si Si3 0.325440 0.849927 0.061985
Si Si4 0.931628 0.350490 0.521640
Si Si5 0.980059 0.812020 0.634060
Si Si6 0.927964 0.129209 0.666186
Si Si7 0.889755 0.475501 0.330274
Si Si8 0.097912 0.276931 0.600594
O O1 0.750000 0.500000 0.134982
O O2 0.817957 0.616877 0.055882
O O3 0.619838 0.725488 0.102149
O O4 0.827909 0.794709 0.133273
O O5 0.917552 0.795392 0.218470
O O6 0.926424 0.566414 0.283236
O O7 0.432517 0.897737 0.096859
O O8 0.238968 0.736501 0.091726
O O9 0.250000 0.000000 0.045449
O O10 0.380358 0.760400 0.018230
O O11 0.000000 0.500000 0.500000
O O12 0.029327 0.252358 0.550971
O O13 0.055346 0.697083 0.668580
O O14 0.916384 0.942276 0.667328
O O15 0.057518 0.159624 0.642230
O O16 0.750000 0.500000 0.330835
O O17 0.937439 0.553337 0.379219
#
# Coordination Sequence:
#
# PCOD8223629 Si02
#       8
#     8   4   8   8   8   8   8   8
#     4  11  24  45  69  96 140 185 231 290 358 417
#     4  10  24  44  70 104 134 172 230 288 348 430
#     4  12  25  41  68  98 141 187 241 291 350 419
#     4  11  26  40  65 101 138 185 247 300 340 407
#     4  12  24  43  71 100 136 189 230 281 364 422
#     4  10  23  46  70  98 139 179 224 287 355 425
#     4  11  23  43  72 102 138 183 231 288 352 436
#     4  10  22  44  63  93 141 184 231 285 349 408
#
# _framework density 22.0246
#
# number of rings (size 3 to 8) (size 9 to 14) (size 15 to 20)
#    0.000    1.067    2.667    4.400    3.733    4.800 
#    0.000    1.333    0.000    0.000    0.000    0.000 
#    0.000    0.000    0.000    0.000    0.000    0.000 
#
# Total GULP energy -743468.229018 kJ/mol
# GULP energy per Si atom -12391.137150 kJ/mol
# Density = 2.197447 g / cm^3
# Si number density = 22.024600 Si / 1000 Ang^3
#
#
#
# Elastic Constant Matrix: (Units=GPa)
#
#
# Indices 1 2 3 4 5 6 
#
# 1 114.6270 50.6057 46.5322 0.0000 0.0000 0.0000
# 2 50.6057 162.6953 55.0627 0.0000 0.0000 0.0000
# 3 46.5322 55.0627 113.9774 0.0000 0.0000 0.0000
# 4 0.0000 0.0000 0.0000 28.2422 0.0000 0.0000
# 5 0.0000 0.0000 0.0000 0.0000 9.6160 0.0000
# 6 0.0000 0.0000 0.0000 0.0000 0.0000 44.4360
#
#
#
# Elastic Compliance Matrix: (Units=1/GPa)
#
#
# Indices 1 2 3 4 5 6 
#
# 1 0.011134 -0.002301 -0.003434 0.000000 0.000000 0.000000
# 2 -0.002301 0.007823 -0.002840 0.000000 0.000000 0.000000
# 3 -0.003434 -0.002840 0.011548 0.000000 0.000000 0.000000
# 4 0.000000 0.000000 0.000000 0.035408 0.000000 0.000000
# 5 0.000000 0.000000 0.000000 0.000000 0.103993 0.000000
# 6 0.000000 0.000000 0.000000 0.000000 0.000000 0.022504
#
#
# Mechanical properties :
#
#
# Convention : Reuss Voigt Hill
#
# Bulk Modulus (GPa) = 74.87871 77.30009 76.08940
# Shear Modulus (GPa) = 23.36323 32.39878 27.88101
#
# Velocity S-wave (km/s) = 3.26049 3.83956 3.56181
# Velocity P-wave (km/s) = 6.94593 7.40470 7.17898
#
# Compressibility (1/GPa) = 0.01335493
#
# Stress axis : x y z
#
# Youngs Moduli (GPa) = 89.81726 127.82219 86.59792
#
# Poissons Ratio (x) = 0.29411 0.29736
# Poissons Ratio (y) = 0.20666 0.24595
# Poissons Ratio (z) = 0.30842 0.36303
#
# Static dielectric constant tensor:
#      x y z
#    x 4.347670 0.000000 0.000000 
#    y 0.000000 4.135120 0.000000 
#    z 0.000000 0.000000 4.044950 
# 
# 
# High freq. dielectric constant tensor:
#      x y z
#    x 1.878280 0.000000 0.000000 
#    y 0.000000 1.877580 0.000000 
#    z 0.000000 0.000000 1.845870 
# 
# From -- ./inp_files/26316.got.cif
#   From: 2010.03.12/outbox.cif.g09.slc.cpg/sg54_14_cif.got.tgz:26316.got - 2010.04.16 15:00:50.
