data_PCOD8223621
_publ_section_title
;
Structure prediction by ZEFSAII (Michael W. Deem and Ramdas Pophale) SiO2 
 PCOD8223621
Probable space group: P C C A
;
_chemical_formula_sum "Si O2"
_cell_formula_units_Z 56
_cell_length_a 12.090128
_cell_length_b 10.575268
_cell_length_c 19.932923
_cell_angle_alpha 90.000000
_cell_angle_beta 90.000000
_cell_angle_gamma 90.000000
_cell_volume 2548.550655
_symmetry_space_group_name_H-M "P C C A"
_symmetry_group_IT_number 54
_symmetry_cell_setting 'orthorhombic'
loop_
_space_group_symop_operation_xyz
x,y,z
1/2-x,-y,z
1/2+x,-y,1/2-z
-x,y,1/2-z
-x,-y,-z
1/2+x,y,-z
1/2-x,y,1/2+z
x,-y,1/2+z
loop_
_atom_site_type_symbol
_atom_site_label
_atom_site_fract_x
_atom_site_fract_y
_atom_site_fract_z
Si Si1 0.585538 0.322919 0.191024
Si Si2 0.989809 0.251349 0.422296
Si Si3 0.754934 0.859233 0.883957
Si Si4 0.912152 0.405426 0.195053
Si Si5 0.779120 0.163035 0.228820
Si Si6 0.871374 0.985898 0.612573
Si Si7 0.522140 0.775995 0.927554
O O1 0.500000 0.295934 0.250000
O O2 0.651365 0.458074 0.190454
O O3 0.669547 0.202460 0.186449
O O4 0.515319 0.331557 0.123315
O O5 0.867406 0.212302 0.400660
O O6 0.989446 0.282402 0.500891
O O7 0.033621 0.366225 0.376387
O O8 0.075982 0.138314 0.417495
O O9 0.744275 0.870230 0.803709
O O10 0.653635 0.788005 0.918911
O O11 0.750000 0.000000 0.913880
O O12 0.848146 0.291559 0.229441
O O13 0.000000 0.445480 0.250000
O O14 0.846330 0.046400 0.192973
O O15 0.750000 0.000000 0.578078
O O16 0.957366 0.095735 0.594034
#
# Coordination Sequence:
#
# PCOD8223621 Si02
#       7
#     8   8   8   8   8   8   8
#     4  11  23  41  66  95 131 168 224 283 331 388
#     4  11  26  43  67  95 135 181 219 269 332 410
#     4  12  25  41  65  98 138 173 219 268 335 401
#     4  10  22  43  68  93 127 172 226 280 330 388
#     4  11  22  41  66  98 128 173 222 277 333 394
#     4  11  23  40  65  94 133 173 215 269 329 388
#     4  12  26  42  65 100 139 174 220 271 336 402
#
# _framework density 21.973272999999999
#
# number of rings (size 3 to 8) (size 9 to 14) (size 15 to 20)
#    0.000    0.857    5.714    1.286    2.000    0.571 
#    2.571    0.714    0.000    0.000    0.000    0.000 
#    0.000    0.000    0.000    0.000    0.000    0.000 
#
# Total GULP energy -693761.516132 kJ/mol
# GULP energy per Si atom -12388.598502 kJ/mol
# Density = 2.192326 g / cm^3
# Si number density = 21.973273 Si / 1000 Ang^3
#
#
#
# Elastic Constant Matrix: (Units=GPa)
#
#
# Indices 1 2 3 4 5 6 
#
# 1 100.3679 8.7135 6.3426 0.0000 0.0000 0.0000
# 2 8.7135 77.5807 3.3661 0.0000 0.0000 0.0000
# 3 6.3426 3.3661 128.4144 0.0000 0.0000 0.0000
# 4 0.0000 0.0000 0.0000 -8.3857 0.0000 0.0000
# 5 0.0000 0.0000 0.0000 0.0000 27.2146 0.0000
# 6 0.0000 0.0000 0.0000 0.0000 0.0000 21.4614
#
#
#
# Elastic Compliance Matrix: (Units=1/GPa)
#
#
# Indices 1 2 3 4 5 6 
#
# 1 0.010090 -0.001113 -0.000469 0.000000 0.000000 0.000000
# 2 -0.001113 0.013027 -0.000287 0.000000 0.000000 0.000000
# 3 -0.000469 -0.000287 0.007818 0.000000 0.000000 0.000000
# 4 0.000000 0.000000 0.000000 -0.119251 0.000000 0.000000
# 5 0.000000 0.000000 0.000000 0.000000 0.036745 0.000000
# 6 0.000000 0.000000 0.000000 0.000000 0.000000 0.046595
#
#
# Mechanical properties :
#
#
# Convention : Reuss Voigt Hill
#
# Bulk Modulus (GPa) = 36.76779 38.13416 37.45098
# Shear Modulus (GPa) = 638.82830 27.25412 333.04121
#
# Velocity S-wave (km/s) = 17.06930 3.52565 12.32459
# Velocity P-wave (km/s) = 20.13083 5.82804 14.81919
#
# Compressibility (1/GPa) = 0.02719771
#
# Stress axis : x y z
#
# Youngs Moduli (GPa) = 99.11184 76.76230 127.91045
#
# Poissons Ratio (x) = 0.08543 0.06001
# Poissons Ratio (y) = 0.11030 0.03665
# Poissons Ratio (z) = 0.04650 0.02199
#
# Static dielectric constant tensor:
#      x y z
#    x 6.170850 0.000000 0.000000 
#    y 0.000000 3.978890 0.000000 
#    z 0.000000 0.000000 3.987830 
# 
# 
# High freq. dielectric constant tensor:
#      x y z
#    x 1.872520 0.000000 0.000000 
#    y 0.000000 1.868050 0.000000 
#    z 0.000000 0.000000 1.860540 
# 
# From -- ./inp_files/21192.got.cif
#   From: 2010.03.12/outbox.cif.g09.slc.cpg/sg54_11_cif.got.tgz:21192.got - 2010.04.16 15:00:50.
