data_PCOD8223776
_publ_section_title
;
Structure prediction by ZEFSAII (Michael W. Deem and Ramdas Pophale) SiO2 
 PCOD8223776
Probable space group: P C C A
;
_chemical_formula_sum "Si O2"
_cell_formula_units_Z 40
_cell_length_a 10.191763
_cell_length_b 12.525568
_cell_length_c 15.415092
_cell_angle_alpha 90.000000
_cell_angle_beta 90.000000
_cell_angle_gamma 90.000000
_cell_volume 1967.853964
_symmetry_space_group_name_H-M "P C C A"
_symmetry_group_IT_number 54
_symmetry_cell_setting 'orthorhombic'
loop_
_space_group_symop_operation_xyz
x,y,z
1/2-x,-y,z
1/2+x,-y,1/2-z
-x,y,1/2-z
-x,-y,-z
1/2+x,y,-z
1/2-x,y,1/2+z
x,-y,1/2+z
loop_
_atom_site_type_symbol
_atom_site_label
_atom_site_fract_x
_atom_site_fract_y
_atom_site_fract_z
Si Si1 0.229442 0.740669 0.423421
Si Si2 0.225503 0.624681 0.598997
Si Si3 0.009303 0.768911 0.648683
Si Si4 0.377264 0.071230 0.523645
Si Si5 0.147646 0.596899 0.268167
O O1 0.271114 0.676933 0.509765
O O2 0.364287 0.782676 0.386057
O O3 0.140780 0.842931 0.446199
O O4 0.150200 0.668827 0.354499
O O5 0.250000 0.500000 0.589716
O O6 0.073396 0.655987 0.617910
O O7 0.308442 0.665166 0.683150
O O8 0.098332 0.865725 0.613252
O O9 0.000000 0.776133 0.750000
O O10 0.250000 0.000000 0.537693
O O11 0.500000 0.000000 0.500000
O O12 0.250000 0.500000 0.281228
O O13 0.000000 0.554418 0.250000
#
# Coordination Sequence:
#
# PCOD8223776 Si02
#       5
#     8   8   8   8   8
#     4  11  24  43  70  96 139 177 225 284 340 402
#     4  10  24  39  64  99 138 182 224 266 331 399
#     4  11  23  44  68  99 138 175 222 285 341 400
#     4  11  24  47  72  97 130 172 226 286 350 411
#     4  11  26  43  66 100 141 183 230 273 330 402
#
# _framework density 20.326712000000001
#
# number of rings (size 3 to 8) (size 9 to 14) (size 15 to 20)
#    0.000    1.200    4.000    0.600   11.200    0.800 
#    3.600    0.000    0.000    0.000    0.000    0.000 
#    0.000    0.000    0.000    0.000    0.000    0.000 
#
# Total GULP energy -495889.163884 kJ/mol
# GULP energy per Si atom -12397.229097 kJ/mol
# Density = 2.028045 g / cm^3
# Si number density = 20.326712 Si / 1000 Ang^3
#
#
#
# Elastic Constant Matrix: (Units=GPa)
#
#
# Indices 1 2 3 4 5 6 
#
# 1 139.2634 69.7486 46.6347 0.0000 0.0000 0.0000
# 2 69.7486 138.7111 66.9272 0.0000 0.0000 0.0000
# 3 46.6347 66.9272 165.4637 0.0000 0.0000 0.0000
# 4 0.0000 0.0000 0.0000 30.8954 0.0000 0.0000
# 5 0.0000 0.0000 0.0000 0.0000 35.7812 0.0000
# 6 0.0000 0.0000 0.0000 0.0000 0.0000 46.2740
#
#
#
# Elastic Compliance Matrix: (Units=1/GPa)
#
#
# Indices 1 2 3 4 5 6 
#
# 1 0.009716 -0.004428 -0.000947 0.000000 0.000000 0.000000
# 2 -0.004428 0.010976 -0.003191 0.000000 0.000000 0.000000
# 3 -0.000947 -0.003191 0.007601 0.000000 0.000000 0.000000
# 4 0.000000 0.000000 0.000000 0.032367 0.000000 0.000000
# 5 0.000000 0.000000 0.000000 0.000000 0.027948 0.000000
# 6 0.000000 0.000000 0.000000 0.000000 0.000000 0.021610
#
#
# Mechanical properties :
#
#
# Convention : Reuss Voigt Hill
#
# Bulk Modulus (GPa) = 89.61280 90.00659 89.80969
# Shear Modulus (GPa) = 38.14700 39.93194 39.03947
#
# Velocity S-wave (km/s) = 4.33678 4.43708 4.38722
# Velocity P-wave (km/s) = 8.32219 8.40395 8.36317
#
# Compressibility (1/GPa) = 0.01115912
#
# Stress axis : x y z
#
# Youngs Moduli (GPa) = 102.92602 91.10933 131.55439
#
# Poissons Ratio (x) = 0.40347 0.12459
# Poissons Ratio (y) = 0.45580 0.41984
# Poissons Ratio (z) = 0.09748 0.29077
#
# Static dielectric constant tensor:
#      x y z
#    x 3.744130 0.000000 0.000000 
#    y 0.000000 3.743160 0.000000 
#    z 0.000000 0.000000 4.294460 
# 
# 
# High freq. dielectric constant tensor:
#      x y z
#    x 1.803070 0.000000 0.000000 
#    y 0.000000 1.785490 0.000000 
#    z 0.000000 0.000000 1.809340 
# 
# From -- ./inp_files/11474.got.cif
#   From: 2010.03.12/outbox.cif.g09.slc.cpg/sg54_6_cif.got.tgz:11474.got - 2010.04.16 15:00:50.
