data_PCOD8223299
_publ_section_title
;
Structure prediction by ZEFSAII (Michael W. Deem and Ramdas Pophale) SiO2 
 PCOD8223299
Probable space group: P C C A
;
_chemical_formula_sum "Si O2"
_cell_formula_units_Z 40
_cell_length_a 8.343892
_cell_length_b 20.269472
_cell_length_c 10.208629
_cell_angle_alpha 90.000000
_cell_angle_beta 90.000000
_cell_angle_gamma 90.000000
_cell_volume 1726.547500
_symmetry_space_group_name_H-M "P C C A"
_symmetry_group_IT_number 54
_symmetry_cell_setting 'orthorhombic'
loop_
_space_group_symop_operation_xyz
x,y,z
1/2-x,-y,z
1/2+x,-y,1/2-z
-x,y,1/2-z
-x,-y,-z
1/2+x,y,-z
1/2-x,y,1/2+z
x,-y,1/2+z
loop_
_atom_site_type_symbol
_atom_site_label
_atom_site_fract_x
_atom_site_fract_y
_atom_site_fract_z
Si Si1 0.244274 0.146911 0.006691
Si Si2 0.386211 0.442683 0.621184
Si Si3 0.518301 0.944295 0.107576
Si Si4 0.995469 0.760945 0.103623
Si Si5 0.927595 0.620804 0.393894
O O1 0.388123 0.176091 0.091461
O O2 0.114707 0.113007 0.100144
O O3 0.309127 0.090641 0.907564
O O4 0.178182 0.211162 0.932708
O O5 0.250000 0.500000 0.618913
O O6 0.500000 0.445931 0.750000
O O7 0.499087 0.436619 0.490331
O O8 0.266493 0.379635 0.619944
O O9 0.500000 0.977714 0.250000
O O10 0.500000 0.000000 0.000000
O O11 0.034340 0.691347 0.033580
O O12 0.000000 0.736144 0.250000
O O13 0.000000 0.608135 0.250000
#
# Coordination Sequence:
#
# PCOD8223299 Si02
#       5
#     8   8   8   8   8
#     4  10  22  39  62  90 125 167 211 262 321 387
#     4  12  26  46  69  98 137 180 224 273 332 398
#     4  11  24  40  61  90 125 167 216 268 324 384
#     4  10  21  40  64  92 127 165 209 261 321 387
#     4  11  24  43  69 102 135 173 221 276 334 398
#
# _framework density 23.167622000000001
#
# number of rings (size 3 to 8) (size 9 to 14) (size 15 to 20)
#    0.000    1.200    0.000    5.400    0.000    9.600 
#    0.000    5.000    0.000    0.000    0.000    0.000 
#    0.000    0.000    0.000    0.000    0.000    0.000 
#
# Total GULP energy -495593.096985 kJ/mol
# GULP energy per Si atom -12389.827425 kJ/mol
# Density = 2.311489 g / cm^3
# Si number density = 23.167622 Si / 1000 Ang^3
#
#
#
# Elastic Constant Matrix: (Units=GPa)
#
#
# Indices 1 2 3 4 5 6 
#
# 1 134.4421 34.3705 45.7224 0.0000 0.0000 0.0000
# 2 34.3705 132.2573 37.7574 0.0000 0.0000 0.0000
# 3 45.7224 37.7574 145.9151 0.0000 0.0000 0.0000
# 4 0.0000 0.0000 0.0000 21.4100 0.0000 0.0000
# 5 0.0000 0.0000 0.0000 0.0000 35.5336 0.0000
# 6 0.0000 0.0000 0.0000 0.0000 0.0000 46.2116
#
#
#
# Elastic Compliance Matrix: (Units=1/GPa)
#
#
# Indices 1 2 3 4 5 6 
#
# 1 0.008623 -0.001587 -0.002291 0.000000 0.000000 0.000000
# 2 -0.001587 0.008456 -0.001691 0.000000 0.000000 0.000000
# 3 -0.002291 -0.001691 0.008009 0.000000 0.000000 0.000000
# 4 0.000000 0.000000 0.000000 0.046707 0.000000 0.000000
# 5 0.000000 0.000000 0.000000 0.000000 0.028142 0.000000
# 6 0.000000 0.000000 0.000000 0.000000 0.000000 0.021640
#
#
# Mechanical properties :
#
#
# Convention : Reuss Voigt Hill
#
# Bulk Modulus (GPa) = 71.68547 72.03502 71.86025
# Shear Modulus (GPa) = 36.39924 40.28197 38.34061
#
# Velocity S-wave (km/s) = 3.96804 4.17432 4.07249
# Velocity P-wave (km/s) = 7.21132 7.37521 7.29372
#
# Compressibility (1/GPa) = 0.01394983
#
# Stress axis : x y z
#
# Youngs Moduli (GPa) = 115.96750 118.25763 124.86158
#
# Poissons Ratio (x) = 0.18765 0.28611
# Poissons Ratio (y) = 0.18401 0.21113
# Poissons Ratio (z) = 0.26573 0.19996
#
# Static dielectric constant tensor:
#      x y z
#    x 4.911500 0.000000 0.000000 
#    y 0.000000 4.350350 0.000000 
#    z 0.000000 0.000000 3.934680 
# 
# 
# High freq. dielectric constant tensor:
#      x y z
#    x 1.931260 0.000000 0.000000 
#    y 0.000000 1.936690 0.000000 
#    z 0.000000 0.000000 1.894050 
# 
# From -- ./inp_files/2531.got.cif
#   From: 2010.03.12/outbox.cif.g09.slc.cpg/sg54_2_cif.got.tgz:2531.got - 2010.04.16 15:00:50.
