data_PCOD8223424
_publ_section_title
;
Structure prediction by ZEFSAII (Michael W. Deem and Ramdas Pophale) SiO2 
 PCOD8223424
Probable space group: P C C A
;
_chemical_formula_sum "Si O2"
_cell_formula_units_Z 48
_cell_length_a 22.271662
_cell_length_b 11.577432
_cell_length_c 8.963629
_cell_angle_alpha 90.000000
_cell_angle_beta 90.000000
_cell_angle_gamma 90.000000
_cell_volume 2311.259658
_symmetry_space_group_name_H-M "P C C A"
_symmetry_group_IT_number 54
_symmetry_cell_setting 'orthorhombic'
loop_
_space_group_symop_operation_xyz
x,y,z
1/2-x,-y,z
1/2+x,-y,1/2-z
-x,y,1/2-z
-x,-y,-z
1/2+x,y,-z
1/2-x,y,1/2+z
x,-y,1/2+z
loop_
_atom_site_type_symbol
_atom_site_label
_atom_site_fract_x
_atom_site_fract_y
_atom_site_fract_z
Si Si1 0.575951 0.938198 0.005252
Si Si2 0.583513 0.203363 0.006344
Si Si3 0.250000 0.000000 0.280764
Si Si4 0.302657 0.149748 0.026850
Si Si5 0.750000 0.500000 0.744433
Si Si6 0.500000 0.843602 0.750000
Si Si7 0.500000 0.837159 0.250000
Si Si8 0.705991 0.656017 0.494558
O O1 0.625370 0.839012 0.965667
O O2 0.523356 0.926023 0.883355
O O3 0.550046 0.915425 0.169213
O O4 0.601677 0.068039 0.997296
O O5 0.551698 0.232261 0.166898
O O6 0.645793 0.270140 0.991965
O O7 0.537039 0.238609 0.872855
O O8 0.283104 0.094887 0.182602
O O9 0.203259 0.064931 0.385840
O O10 0.266775 0.267589 0.001999
O O11 0.706433 0.577780 0.642363
O O12 0.793319 0.577786 0.846901
#
# Coordination Sequence:
#
# PCOD8223424 Si02
#       8
#     8   8   4   8   4   4   4   8
#     4  11  22  35  58  92 141 169 207 238 284 390
#     4  11  21  39  63  91 132 170 207 243 305 383
#     4  10  22  38  48 102 140 154 198 246 306 388
#     4  11  24  35  63  93 128 170 204 249 320 381
#     4  10  26  50  64  94 112 150 226 294 346 356
#     4  10  23  38  56  95 138 181 202 232 284 377
#     4  10  23  38  56  95 138 181 202 232 284 377
#     4  11  25  44  70  90 118 164 214 279 340 368
#
# _framework density 20.767896
#
# number of rings (size 3 to 8) (size 9 to 14) (size 15 to 20)
#    0.000    1.333    0.000    7.000   14.000    0.000 
#    0.000    0.000    0.000    3.000    0.000    0.000 
#    0.000    0.000    0.000    0.000    0.000    0.000 
#
# Total GULP energy -595066.540240 kJ/mol
# GULP energy per Si atom -12397.219588 kJ/mol
# Density = 2.072063 g / cm^3
# Si number density = 20.767896 Si / 1000 Ang^3
#
#
#
# Elastic Constant Matrix: (Units=GPa)
#
#
# Indices 1 2 3 4 5 6 
#
# 1 113.0820 48.8963 29.3459 0.0000 0.0000 0.0000
# 2 48.8963 86.8602 36.0580 0.0000 0.0000 0.0000
# 3 29.3459 36.0580 138.6615 0.0000 0.0000 0.0000
# 4 0.0000 0.0000 0.0000 51.5785 0.0000 0.0000
# 5 0.0000 0.0000 0.0000 0.0000 16.5486 0.0000
# 6 0.0000 0.0000 0.0000 0.0000 0.0000 29.8393
#
#
#
# Elastic Compliance Matrix: (Units=1/GPa)
#
#
# Indices 1 2 3 4 5 6 
#
# 1 0.011779 -0.006273 -0.000862 0.000000 0.000000 0.000000
# 2 -0.006273 0.016247 -0.002897 0.000000 0.000000 0.000000
# 3 -0.000862 -0.002897 0.008148 0.000000 0.000000 0.000000
# 4 0.000000 0.000000 0.000000 0.019388 0.000000 0.000000
# 5 0.000000 0.000000 0.000000 0.000000 0.060428 0.000000
# 6 0.000000 0.000000 0.000000 0.000000 0.000000 0.033513
#
#
# Mechanical properties :
#
#
# Convention : Reuss Voigt Hill
#
# Bulk Modulus (GPa) = 62.07510 63.02267 62.54889
# Shear Modulus (GPa) = 28.58179 34.54684 31.56432
#
# Velocity S-wave (km/s) = 3.71381 4.08299 3.90277
# Velocity P-wave (km/s) = 6.95303 7.25533 7.10579
#
# Compressibility (1/GPa) = 0.01610952
#
# Stress axis : x y z
#
# Youngs Moduli (GPa) = 84.89491 61.55033 122.73611
#
# Poissons Ratio (x) = 0.38612 0.10575
# Poissons Ratio (y) = 0.53257 0.35560
# Poissons Ratio (z) = 0.07315 0.17833
#
# Static dielectric constant tensor:
#      x y z
#    x 3.892340 0.000000 0.000000 
#    y 0.000000 3.391310 0.000000 
#    z 0.000000 0.000000 4.213910 
# 
# 
# High freq. dielectric constant tensor:
#      x y z
#    x 1.817400 0.000000 0.000000 
#    y 0.000000 1.756410 0.000000 
#    z 0.000000 0.000000 1.848600 
# 
# From -- ./inp_files/5215.got.cif
#   From: 2010.03.12/outbox.cif.g09.slc.cpg/sg54_3_cif.got.tgz:5215.got - 2010.04.16 15:00:50.
