data_PCOD8223097
_publ_section_title
;
Structure prediction by ZEFSAII (Michael W. Deem and Ramdas Pophale) SiO2 
 PCOD8223097
Probable space group: P C C A
;
_chemical_formula_sum "Si O2"
_cell_formula_units_Z 40
_cell_length_a 16.523605
_cell_length_b 12.213403
_cell_length_c 9.676237
_cell_angle_alpha 90.000000
_cell_angle_beta 90.000000
_cell_angle_gamma 90.000000
_cell_volume 1952.756037
_symmetry_space_group_name_H-M "P C C A"
_symmetry_group_IT_number 54
_symmetry_cell_setting 'orthorhombic'
loop_
_space_group_symop_operation_xyz
x,y,z
1/2-x,-y,z
1/2+x,-y,1/2-z
-x,y,1/2-z
-x,-y,-z
1/2+x,y,-z
1/2-x,y,1/2+z
x,-y,1/2+z
loop_
_atom_site_type_symbol
_atom_site_label
_atom_site_fract_x
_atom_site_fract_y
_atom_site_fract_z
Si Si1 0.942568 0.496158 0.371573
Si Si2 0.827329 0.319896 0.968488
Si Si3 0.935061 0.103969 0.360931
Si Si4 0.543786 0.142756 0.384048
Si Si5 0.667015 0.299407 0.793262
O O1 0.867214 0.572699 0.404582
O O2 0.908289 0.375441 0.338833
O O3 0.000000 0.540035 0.250000
O O4 0.000000 0.500000 0.500000
O O5 0.883445 0.216366 0.937295
O O6 0.742914 0.317627 0.890862
O O7 0.812045 0.324738 0.133273
O O8 0.855519 0.172894 0.322395
O O9 0.000000 0.140865 0.250000
O O10 0.969905 0.133387 0.510054
O O11 0.915780 0.974976 0.351107
O O12 0.500000 0.193369 0.250000
#
# Coordination Sequence:
#
# PCOD8223097 Si02
#       5
#     8   8   8   8   8
#     4  12  25  45  73  95 122 170 220 266 318 383
#     4  12  27  44  64  97 135 169 212 264 327 385
#     4  10  20  43  69  92 129 170 219 264 316 372
#     4  10  22  40  69  99 124 170 221 267 310 380
#     4  12  27  44  65  95 137 171 207 268 326 383
#
# _framework density 20.483871000000001
#
# number of rings (size 3 to 8) (size 9 to 14) (size 15 to 20)
#    0.000    0.800    4.000    3.000    5.600    2.400 
#    0.000    2.000    0.000    0.000    0.000    0.000 
#    0.000    0.000    0.000    0.000    0.000    0.000 
#
# Total GULP energy -495997.597832 kJ/mol
# GULP energy per Si atom -12399.939946 kJ/mol
# Density = 2.043725 g / cm^3
# Si number density = 20.483871 Si / 1000 Ang^3
#
#
#
# Elastic Constant Matrix: (Units=GPa)
#
#
# Indices 1 2 3 4 5 6 
#
# 1 90.3798 27.8884 43.7962 0.0000 0.0000 0.0000
# 2 27.8884 85.2893 20.5092 0.0000 0.0000 0.0000
# 3 43.7962 20.5092 154.2132 0.0000 0.0000 0.0000
# 4 0.0000 0.0000 0.0000 60.7673 0.0000 0.0000
# 5 0.0000 0.0000 0.0000 0.0000 45.6465 0.0000
# 6 0.0000 0.0000 0.0000 0.0000 0.0000 21.9279
#
#
#
# Elastic Compliance Matrix: (Units=1/GPa)
#
#
# Indices 1 2 3 4 5 6 
#
# 1 0.013880 -0.003709 -0.003449 0.000000 0.000000 0.000000
# 2 -0.003709 0.013103 -0.000689 0.000000 0.000000 0.000000
# 3 -0.003449 -0.000689 0.007556 0.000000 0.000000 0.000000
# 4 0.000000 0.000000 0.000000 0.016456 0.000000 0.000000
# 5 0.000000 0.000000 0.000000 0.000000 0.021907 0.000000
# 6 0.000000 0.000000 0.000000 0.000000 0.000000 0.045604
#
#
# Mechanical properties :
#
#
# Convention : Reuss Voigt Hill
#
# Bulk Modulus (GPa) = 53.06495 57.14110 55.10302
# Shear Modulus (GPa) = 35.59155 41.51424 38.55289
#
# Velocity S-wave (km/s) = 4.17290 4.50675 4.34304
# Velocity P-wave (km/s) = 7.01281 7.41871 7.21861
#
# Compressibility (1/GPa) = 0.01884483
#
# Stress axis : x y z
#
# Youngs Moduli (GPa) = 72.04547 76.31591 132.35240
#
# Poissons Ratio (x) = 0.28308 0.45643
# Poissons Ratio (y) = 0.26724 0.09122
# Poissons Ratio (z) = 0.24846 0.05260
#
# Static dielectric constant tensor:
#      x y z
#    x 3.405690 0.000000 0.000000 
#    y 0.000000 3.466510 0.000000 
#    z 0.000000 0.000000 3.985200 
# 
# 
# High freq. dielectric constant tensor:
#      x y z
#    x 1.792970 0.000000 0.000000 
#    y 0.000000 1.810640 0.000000 
#    z 0.000000 0.000000 1.825060 
# 
# From -- ./inp_files/3944.got.cif
#   From: 2010.03.12/outbox.cif.g09.slc.cpg/sg54_2_cif.got.tgz:3944.got - 2010.04.16 15:00:50.
