data_PCOD8223271
_publ_section_title
;
Structure prediction by ZEFSAII (Michael W. Deem and Ramdas Pophale) SiO2 
 PCOD8223271
Probable space group: P C C A
;
_chemical_formula_sum "Si O2"
_cell_formula_units_Z 48
_cell_length_a 17.231815
_cell_length_b 9.326824
_cell_length_c 13.813793
_cell_angle_alpha 90.000000
_cell_angle_beta 90.000000
_cell_angle_gamma 90.000000
_cell_volume 2220.126644
_symmetry_space_group_name_H-M "P C C A"
_symmetry_group_IT_number 54
_symmetry_cell_setting 'orthorhombic'
loop_
_space_group_symop_operation_xyz
x,y,z
1/2-x,-y,z
1/2+x,-y,1/2-z
-x,y,1/2-z
-x,-y,-z
1/2+x,y,-z
1/2-x,y,1/2+z
x,-y,1/2+z
loop_
_atom_site_type_symbol
_atom_site_label
_atom_site_fract_x
_atom_site_fract_y
_atom_site_fract_z
Si Si1 0.842665 0.761942 0.860565
Si Si2 0.819181 0.397309 0.081709
Si Si3 0.819233 0.897459 0.668928
Si Si4 0.658339 0.738042 0.889865
Si Si5 0.908899 0.993890 0.987651
Si Si6 0.408897 0.507138 0.737398
O O1 0.864587 0.859197 0.767295
O O2 0.750546 0.749771 0.875487
O O3 0.879204 0.605404 0.843455
O O4 0.882049 0.835405 0.954023
O O5 0.750000 0.500000 0.052383
O O6 0.784830 0.249974 0.125434
O O7 0.874998 0.475242 0.157069
O O8 0.864057 0.359027 0.983018
O O9 0.874815 0.975356 0.593257
O O10 0.750000 0.000000 0.698530
O O11 0.622104 0.894881 0.906782
O O12 0.619391 0.664677 0.796157
O O13 0.000000 0.000000 0.000000
O O14 0.500000 0.502085 0.750000
#
# Coordination Sequence:
#
# PCOD8223271 Si02
#       6
#     8   8   8   8   8   8
#     4  11  23  43  73  90 136 181 224 275 343 423
#     4  10  21  39  67  94 127 171 222 269 331 410
#     4  10  21  39  65  95 126 171 223 272 331 410
#     4  11  23  46  67  99 130 182 226 275 340 425
#     4  11  25  42  65  99 137 171 226 284 346 405
#     4  11  25  42  65  98 138 172 223 283 345 397
#
# _framework density 21.620388999999999
#
# number of rings (size 3 to 8) (size 9 to 14) (size 15 to 20)
#    0.000    1.333    0.000    7.000    7.000    0.667 
#   12.000    0.000    0.000    0.000    0.000    0.000 
#    0.000    0.000    0.000    0.000    0.000    0.000 
#
# Total GULP energy -595244.387125 kJ/mol
# GULP energy per Si atom -12400.924732 kJ/mol
# Density = 2.157118 g / cm^3
# Si number density = 21.620389 Si / 1000 Ang^3
#
#
#
# Elastic Constant Matrix: (Units=GPa)
#
#
# Indices 1 2 3 4 5 6 
#
# 1 123.7727 28.0437 6.2726 0.0000 0.0000 0.0000
# 2 28.0437 50.3623 14.0702 0.0000 0.0000 0.0000
# 3 6.2726 14.0702 84.6930 0.0000 0.0000 0.0000
# 4 0.0000 0.0000 0.0000 72.8864 0.0000 0.0000
# 5 0.0000 0.0000 0.0000 0.0000 22.7414 0.0000
# 6 0.0000 0.0000 0.0000 0.0000 0.0000 32.4593
#
#
#
# Elastic Compliance Matrix: (Units=1/GPa)
#
#
# Indices 1 2 3 4 5 6 
#
# 1 0.009248 -0.005200 0.000179 0.000000 0.000000 0.000000
# 2 -0.005200 0.023746 -0.003560 0.000000 0.000000 0.000000
# 3 0.000179 -0.003560 0.012386 0.000000 0.000000 0.000000
# 4 0.000000 0.000000 0.000000 0.013720 0.000000 0.000000
# 5 0.000000 0.000000 0.000000 0.000000 0.043973 0.000000
# 6 0.000000 0.000000 0.000000 0.000000 0.000000 0.030808
#
#
# Mechanical properties :
#
#
# Convention : Reuss Voigt Hill
#
# Bulk Modulus (GPa) = 35.43784 39.51120 37.47452
# Shear Modulus (GPa) = 31.16270 39.64687 35.40478
#
# Velocity S-wave (km/s) = 3.80064 4.28690 4.05107
# Velocity P-wave (km/s) = 5.97380 6.54355 6.26516
#
# Compressibility (1/GPa) = 0.02821842
#
# Stress axis : x y z
#
# Youngs Moduli (GPa) = 108.12664 42.11207 80.73956
#
# Poissons Ratio (x) = 0.21898 -0.01444
# Poissons Ratio (y) = 0.56224 0.28742
# Poissons Ratio (z) = -0.01934 0.14991
#
# Static dielectric constant tensor:
#      x y z
#    x 3.723870 0.000000 0.000000 
#    y 0.000000 4.077230 0.000000 
#    z 0.000000 0.000000 4.320630 
# 
# 
# High freq. dielectric constant tensor:
#      x y z
#    x 1.826460 0.000000 0.000000 
#    y 0.000000 1.862510 0.000000 
#    z 0.000000 0.000000 1.863290 
# 
# From -- ./inp_files/14074.got.cif
#   From: 2010.03.12/outbox.cif.g09.slc.cpg/sg54_8_cif.got.tgz:14074.got - 2010.04.16 15:00:50.
