data_PCOD8223443
_publ_section_title
;
Structure prediction by ZEFSAII (Michael W. Deem and Ramdas Pophale) SiO2 
 PCOD8223443
Probable space group: P C C A
;
_chemical_formula_sum "Si O2"
_cell_formula_units_Z 32
_cell_length_a 17.321469
_cell_length_b 9.133621
_cell_length_c 9.072665
_cell_angle_alpha 90.000000
_cell_angle_beta 90.000000
_cell_angle_gamma 90.000000
_cell_volume 1435.365762
_symmetry_space_group_name_H-M "P C C A"
_symmetry_group_IT_number 54
_symmetry_cell_setting 'orthorhombic'
loop_
_space_group_symop_operation_xyz
x,y,z
1/2-x,-y,z
1/2+x,-y,1/2-z
-x,y,1/2-z
-x,-y,-z
1/2+x,y,-z
1/2-x,y,1/2+z
x,-y,1/2+z
loop_
_atom_site_type_symbol
_atom_site_label
_atom_site_fract_x
_atom_site_fract_y
_atom_site_fract_z
Si Si1 0.493000 0.656094 0.426004
Si Si2 0.226270 0.839763 0.207073
Si Si3 0.073267 0.134132 0.858090
Si Si4 0.651538 0.823775 0.088735
O O1 0.500000 0.651766 0.250000
O O2 0.500000 0.500000 0.500000
O O3 0.553557 0.773281 0.494832
O O4 0.406099 0.699991 0.465813
O O5 0.145158 0.786970 0.276783
O O6 0.303263 0.757594 0.266950
O O7 0.250000 0.000000 0.268780
O O8 0.219921 0.840549 0.031696
O O9 0.000000 0.129513 0.750000
O O10 0.098505 0.969186 0.897096
#
# Coordination Sequence:
#
# PCOD8223443 Si02
#       4
#     8   8   8   8
#     4  12  28  46  71  97 135 183 237 289 344 410
#     4  10  22  38  67 104 143 172 218 279 348 407
#     4  11  22  43  72 105 138 176 230 286 348 408
#     4  11  24  42  72 103 143 176 228 283 349 414
#
# _framework density 22.293969000000001
#
# number of rings (size 3 to 8) (size 9 to 14) (size 15 to 20)
#    0.000    1.000    2.500    4.500   10.500    0.000 
#    0.000    1.250    0.000    0.000    0.000    0.000 
#    0.000    0.000    0.000    0.000    0.000    0.000 
#
# Total GULP energy -396468.498462 kJ/mol
# GULP energy per Si atom -12389.640577 kJ/mol
# Density = 2.224323 g / cm^3
# Si number density = 22.293969 Si / 1000 Ang^3
#
#
#
# Elastic Constant Matrix: (Units=GPa)
#
#
# Indices 1 2 3 4 5 6 
#
# 1 129.0986 57.1614 51.2073 0.0000 0.0000 0.0000
# 2 57.1614 88.8227 53.9641 0.0000 0.0000 0.0000
# 3 51.2073 53.9641 155.0653 0.0000 0.0000 0.0000
# 4 0.0000 0.0000 0.0000 30.9472 0.0000 0.0000
# 5 0.0000 0.0000 0.0000 0.0000 57.4015 0.0000
# 6 0.0000 0.0000 0.0000 0.0000 0.0000 20.2001
#
#
#
# Elastic Compliance Matrix: (Units=1/GPa)
#
#
# Indices 1 2 3 4 5 6 
#
# 1 0.011100 -0.006234 -0.001496 0.000000 0.000000 0.000000
# 2 -0.006234 0.017779 -0.004128 0.000000 0.000000 0.000000
# 3 -0.001496 -0.004128 0.008380 0.000000 0.000000 0.000000
# 4 0.000000 0.000000 0.000000 0.032313 0.000000 0.000000
# 5 0.000000 0.000000 0.000000 0.000000 0.017421 0.000000
# 6 0.000000 0.000000 0.000000 0.000000 0.000000 0.049505
#
#
# Mechanical properties :
#
#
# Convention : Reuss Voigt Hill
#
# Bulk Modulus (GPa) = 73.85080 77.51691 75.68386
# Shear Modulus (GPa) = 30.35310 35.75335 33.05323
#
# Velocity S-wave (km/s) = 3.69385 4.00900 3.85464
# Velocity P-wave (km/s) = 7.16872 7.50168 7.33709
#
# Compressibility (1/GPa) = 0.01354081
#
# Stress axis : x y z
#
# Youngs Moduli (GPa) = 90.09185 56.24724 119.33785
#
# Poissons Ratio (x) = 0.35067 0.17851
# Poissons Ratio (y) = 0.56167 0.49267
# Poissons Ratio (z) = 0.13477 0.23221
#
# Static dielectric constant tensor:
#      x y z
#    x 4.556360 0.000000 0.000000 
#    y 0.000000 3.586410 0.000000 
#    z 0.000000 0.000000 4.137160 
# 
# 
# High freq. dielectric constant tensor:
#      x y z
#    x 1.905570 0.000000 0.000000 
#    y 0.000000 1.822540 0.000000 
#    z 0.000000 0.000000 1.897420 
# 
# From -- ./inp_files/4459.got.cif
#   From: 2010.03.12/outbox.cif.g09.slc.cpg/sg54_3_cif.got.tgz:4459.got - 2010.04.16 15:00:50.
