data_PCOD8223205
_publ_section_title
;
Structure prediction by ZEFSAII (Michael W. Deem and Ramdas Pophale) SiO2 
 PCOD8223205
Probable space group: P C C A
;
_chemical_formula_sum "Si O2"
_cell_formula_units_Z 40
_cell_length_a 13.129521
_cell_length_b 12.479862
_cell_length_c 11.539948
_cell_angle_alpha 90.000000
_cell_angle_beta 90.000000
_cell_angle_gamma 90.000000
_cell_volume 1890.873681
_symmetry_space_group_name_H-M "P C C A"
_symmetry_group_IT_number 54
_symmetry_cell_setting 'orthorhombic'
loop_
_space_group_symop_operation_xyz
x,y,z
1/2-x,-y,z
1/2+x,-y,1/2-z
-x,y,1/2-z
-x,-y,-z
1/2+x,y,-z
1/2-x,y,1/2+z
x,-y,1/2+z
loop_
_atom_site_type_symbol
_atom_site_label
_atom_site_fract_x
_atom_site_fract_y
_atom_site_fract_z
Si Si1 0.057915 0.110982 0.492584
Si Si2 0.894829 0.751378 0.294683
Si Si3 0.753408 0.624303 0.459323
Si Si4 0.717375 0.795994 0.148940
Si Si5 0.925056 0.727255 0.842837
O O1 0.078312 0.150836 0.621423
O O2 0.169019 0.106423 0.427115
O O3 0.989901 0.193854 0.421611
O O4 0.000000 0.000000 0.500000
O O5 0.828563 0.656269 0.353215
O O6 0.835600 0.807009 0.185602
O O7 0.000000 0.698940 0.250000
O O8 0.750000 0.500000 0.488038
O O9 0.791933 0.686993 0.572906
O O10 0.635714 0.647905 0.426655
O O11 0.657584 0.793586 0.270124
O O12 0.000000 0.667794 0.750000
#
# Coordination Sequence:
#
# PCOD8223205 Si02
#       5
#     8   8   8   8   8
#     4  10  21  40  64  89 118 156 200 247 300 361
#     4  10  21  39  60  88 124 157 198 252 301 360
#     4  10  21  38  60  86 118 158 202 247 299 360
#     4   9  20  39  59  86 123 154 192 246 297 355
#     4   9  19  38  59  83 117 151 191 246 299 352
#
# _framework density 21.154242
#
# number of rings (size 3 to 8) (size 9 to 14) (size 15 to 20)
#    0.000    2.400    0.000    1.200    0.000    6.400 
#    0.000   36.000    0.000    0.000    0.000    0.000 
#    0.000    0.000    0.000    0.000    0.000    0.000 
#
# Total GULP energy -495596.500007 kJ/mol
# GULP energy per Si atom -12389.912500 kJ/mol
# Density = 2.110609 g / cm^3
# Si number density = 21.154242 Si / 1000 Ang^3
#
#
#
# Elastic Constant Matrix: (Units=GPa)
#
#
# Indices 1 2 3 4 5 6 
#
# 1 138.3587 41.1624 49.3742 0.0000 0.0000 0.0000
# 2 41.1624 107.6500 40.6972 0.0000 0.0000 0.0000
# 3 49.3742 40.6972 97.6096 0.0000 0.0000 0.0000
# 4 0.0000 0.0000 0.0000 13.6132 0.0000 0.0000
# 5 0.0000 0.0000 0.0000 0.0000 53.2384 0.0000
# 6 0.0000 0.0000 0.0000 0.0000 0.0000 29.0595
#
#
#
# Elastic Compliance Matrix: (Units=1/GPa)
#
#
# Indices 1 2 3 4 5 6 
#
# 1 0.009198 -0.002087 -0.003783 0.000000 0.000000 0.000000
# 2 -0.002087 0.011501 -0.003740 0.000000 0.000000 0.000000
# 3 -0.003783 -0.003740 0.013717 0.000000 0.000000 0.000000
# 4 0.000000 0.000000 0.000000 0.073458 0.000000 0.000000
# 5 0.000000 0.000000 0.000000 0.000000 0.018783 0.000000
# 6 0.000000 0.000000 0.000000 0.000000 0.000000 0.034412
#
#
# Mechanical properties :
#
#
# Convention : Reuss Voigt Hill
#
# Bulk Modulus (GPa) = 65.79671 67.34290 66.56980
# Shear Modulus (GPa) = 26.97520 33.34119 30.15819
#
# Velocity S-wave (km/s) = 3.57482 3.97432 3.77985
# Velocity P-wave (km/s) = 6.94334 7.27761 7.11244
#
# Compressibility (1/GPa) = 0.01519833
#
# Stress axis : x y z
#
# Youngs Moduli (GPa) = 108.71467 86.94766 72.90003
#
# Poissons Ratio (x) = 0.18148 0.27575
# Poissons Ratio (y) = 0.22691 0.27261
# Poissons Ratio (z) = 0.41123 0.32514
#
# Static dielectric constant tensor:
#      x y z
#    x 4.514120 0.000000 0.000000 
#    y 0.000000 2.887410 0.000000 
#    z 0.000000 0.000000 4.160510 
# 
# 
# High freq. dielectric constant tensor:
#      x y z
#    x 1.855930 0.000000 0.000000 
#    y 0.000000 1.768010 0.000000 
#    z 0.000000 0.000000 1.849660 
# 
# From -- ./inp_files/8242.got.cif
#   From: 2010.03.12/outbox.cif.g09.slc.cpg/sg54_5_cif.got.tgz:8242.got - 2010.04.16 15:00:50.
