data_PCOD8223764
_publ_section_title
;
Structure prediction by ZEFSAII (Michael W. Deem and Ramdas Pophale) SiO2 
 PCOD8223764
Probable space group: P C C A
;
_chemical_formula_sum "Si O2"
_cell_formula_units_Z 36
_cell_length_a 12.850309
_cell_length_b 11.964983
_cell_length_c 10.745565
_cell_angle_alpha 90.000000
_cell_angle_beta 90.000000
_cell_angle_gamma 90.000000
_cell_volume 1652.170686
_symmetry_space_group_name_H-M "P C C A"
_symmetry_group_IT_number 54
_symmetry_cell_setting 'orthorhombic'
loop_
_space_group_symop_operation_xyz
x,y,z
1/2-x,-y,z
1/2+x,-y,1/2-z
-x,y,1/2-z
-x,-y,-z
1/2+x,y,-z
1/2-x,y,1/2+z
x,-y,1/2+z
loop_
_atom_site_type_symbol
_atom_site_label
_atom_site_fract_x
_atom_site_fract_y
_atom_site_fract_z
Si Si1 0.644917 0.722252 0.890058
Si Si2 0.000000 0.433783 0.750000
Si Si3 0.654291 0.421923 0.629000
Si Si4 0.028272 0.119179 0.444730
Si Si5 0.849331 0.203619 0.275224
O O1 0.596964 0.642366 0.787313
O O2 0.732874 0.803570 0.830349
O O3 0.682369 0.640423 0.000817
O O4 0.556888 0.805995 0.937685
O O5 0.953789 0.507106 0.634543
O O6 0.750000 0.500000 0.665520
O O7 0.636549 0.331874 0.737575
O O8 0.123792 0.121215 0.342798
O O9 0.927044 0.174846 0.385860
O O10 0.000000 0.000000 0.500000
#
# Coordination Sequence:
#
# PCOD8223764 Si02
#       5
#     8   4   8   8   8
#     4  11  25  40  68 100 135 181 239 289 341 430
#     4  12  24  40  62 102 138 190 236 286 340 426
#     4  11  23  40  66  99 141 192 224 279 356 421
#     4  10  24  47  72  95 134 184 227 302 367 404
#     4  10  23  47  67 101 142 172 240 289 343 441
#
# _framework density 21.789515999999999
#
# number of rings (size 3 to 8) (size 9 to 14) (size 15 to 20)
#    0.000    1.333    2.222    3.333    6.222    2.667 
#    0.000    6.667    0.000    0.000    0.000    0.000 
#    0.000    0.000    0.000    0.000    0.000    0.000 
#
# Total GULP energy -446099.332809 kJ/mol
# GULP energy per Si atom -12391.648134 kJ/mol
# Density = 2.173992 g / cm^3
# Si number density = 21.789516 Si / 1000 Ang^3
#
#
#
# Elastic Constant Matrix: (Units=GPa)
#
#
# Indices 1 2 3 4 5 6 
#
# 1 103.1512 60.6462 49.7608 0.0000 0.0000 0.0000
# 2 60.6462 139.8118 64.0216 0.0000 0.0000 0.0000
# 3 49.7608 64.0216 90.8863 0.0000 0.0000 0.0000
# 4 0.0000 0.0000 0.0000 24.8434 0.0000 0.0000
# 5 0.0000 0.0000 0.0000 0.0000 42.3572 0.0000
# 6 0.0000 0.0000 0.0000 0.0000 0.0000 40.4167
#
#
#
# Elastic Compliance Matrix: (Units=1/GPa)
#
#
# Indices 1 2 3 4 5 6 
#
# 1 0.014495 -0.003917 -0.005177 0.000000 0.000000 0.000000
# 2 -0.003917 0.011617 -0.006038 0.000000 0.000000 0.000000
# 3 -0.005177 -0.006038 0.018091 0.000000 0.000000 0.000000
# 4 0.000000 0.000000 0.000000 0.040252 0.000000 0.000000
# 5 0.000000 0.000000 0.000000 0.000000 0.023609 0.000000
# 6 0.000000 0.000000 0.000000 0.000000 0.000000 0.024742
#
#
# Mechanical properties :
#
#
# Convention : Reuss Voigt Hill
#
# Bulk Modulus (GPa) = 71.74758 75.85628 73.80193
# Shear Modulus (GPa) = 29.81248 32.15149 30.98199
#
# Velocity S-wave (km/s) = 3.70294 3.84545 3.77487
# Velocity P-wave (km/s) = 7.16110 7.38955 7.27622
#
# Compressibility (1/GPa) = 0.01393775
#
# Stress axis : x y z
#
# Youngs Moduli (GPa) = 68.99079 86.08431 55.27725
#
# Poissons Ratio (x) = 0.33718 0.28616
# Poissons Ratio (y) = 0.27022 0.33378
# Poissons Ratio (z) = 0.35716 0.51981
#
# Static dielectric constant tensor:
#      x y z
#    x 4.043010 0.000000 0.000000 
#    y 0.000000 4.023370 0.000000 
#    z 0.000000 0.000000 4.004930 
# 
# 
# High freq. dielectric constant tensor:
#      x y z
#    x 1.856930 0.000000 0.000000 
#    y 0.000000 1.852250 0.000000 
#    z 0.000000 0.000000 1.854170 
# 
# From -- ./inp_files/7375.got.cif
#   From: 2010.03.12/outbox.cif.g09.slc.cpg/sg54_4_cif.got.tgz:7375.got - 2010.04.16 15:00:50.
