data_PCOD8223275
_publ_section_title
;
Structure prediction by ZEFSAII (Michael W. Deem and Ramdas Pophale) SiO2 
 PCOD8223275
Probable space group: P C C A
;
_chemical_formula_sum "Si O2"
_cell_formula_units_Z 64
_cell_length_a 17.127183
_cell_length_b 8.680420
_cell_length_c 19.718982
_cell_angle_alpha 90.000000
_cell_angle_beta 90.000000
_cell_angle_gamma 90.000000
_cell_volume 2931.643570
_symmetry_space_group_name_H-M "P C C A"
_symmetry_group_IT_number 54
_symmetry_cell_setting 'orthorhombic'
loop_
_space_group_symop_operation_xyz
x,y,z
1/2-x,-y,z
1/2+x,-y,1/2-z
-x,y,1/2-z
-x,-y,-z
1/2+x,y,-z
1/2-x,y,1/2+z
x,-y,1/2+z
loop_
_atom_site_type_symbol
_atom_site_label
_atom_site_fract_x
_atom_site_fract_y
_atom_site_fract_z
Si Si1 0.330180 0.951756 0.489107
Si Si2 0.315845 0.391459 0.779475
Si Si3 0.552689 0.081587 0.904754
Si Si4 0.489378 0.576504 0.428288
Si Si5 0.166673 0.927985 0.720186
Si Si6 0.546774 0.609875 0.686765
Si Si7 0.689418 0.628011 0.071166
Si Si8 0.105602 0.925349 0.358275
O O1 0.407339 0.998109 0.530821
O O2 0.330630 0.040199 0.416430
O O3 0.250000 0.000000 0.526961
O O4 0.321560 0.768807 0.480251
O O5 0.250000 0.500000 0.747285
O O6 0.324474 0.253009 0.728032
O O7 0.397965 0.477648 0.783338
O O8 0.283303 0.327760 0.852474
O O9 0.532910 0.259479 0.922662
O O10 0.609254 0.051157 0.842325
O O11 0.472744 0.000763 0.886621
O O12 0.500000 0.500000 0.500000
O O13 0.516215 0.464996 0.366356
O O14 0.396894 0.566141 0.417062
O O15 0.250000 0.000000 0.702577
O O16 0.129809 0.000606 0.787399
O O17 0.500000 0.683102 0.750000
O O18 0.596668 0.743156 0.650486
O O19 0.750000 0.500000 0.040914
#
# Coordination Sequence:
#
# PCOD8223275 Si02
#       8
#     8   8   8   8   8   8   8   8
#     4  12  26  43  70  99 136 182 231 298 357 424
#     4  10  21  39  66  94 130 165 225 281 330 414
#     4  12  26  45  67 101 144 183 236 299 367 427
#     4  11  24  43  68  95 135 185 230 284 345 431
#     4  12  24  43  69 102 140 186 233 288 363 429
#     4  11  23  39  63  97 132 170 222 284 349 402
#     4  10  23  41  66 102 129 173 232 286 345 413
#     4  12  24  43  71 100 132 183 241 289 346 437
#
# _framework density 21.830757999999999
#
# number of rings (size 3 to 8) (size 9 to 14) (size 15 to 20)
#    0.000    0.750    2.500    5.250    8.750    0.000 
#    0.000    0.000    2.750    0.000    0.000    0.000 
#    0.000    0.000    0.000    0.000    0.000    0.000 
#
# Total GULP energy -793380.370301 kJ/mol
# GULP energy per Si atom -12396.568286 kJ/mol
# Density = 2.178107 g / cm^3
# Si number density = 21.830758 Si / 1000 Ang^3
#
#
#
# Elastic Constant Matrix: (Units=GPa)
#
#
# Indices 1 2 3 4 5 6 
#
# 1 73.0424 6.5121 18.6011 0.0000 0.0000 0.0000
# 2 6.5121 107.0015 23.7774 0.0000 0.0000 0.0000
# 3 18.6011 23.7774 92.9658 0.0000 0.0000 0.0000
# 4 0.0000 0.0000 0.0000 21.5122 0.0000 0.0000
# 5 0.0000 0.0000 0.0000 0.0000 31.1187 0.0000
# 6 0.0000 0.0000 0.0000 0.0000 0.0000 44.4299
#
#
#
# Elastic Compliance Matrix: (Units=1/GPa)
#
#
# Indices 1 2 3 4 5 6 
#
# 1 0.014432 -0.000251 -0.002823 0.000000 0.000000 0.000000
# 2 -0.000251 0.009913 -0.002485 0.000000 0.000000 0.000000
# 3 -0.002823 -0.002485 0.011957 0.000000 0.000000 0.000000
# 4 0.000000 0.000000 0.000000 0.046485 0.000000 0.000000
# 5 0.000000 0.000000 0.000000 0.000000 0.032135 0.000000
# 6 0.000000 0.000000 0.000000 0.000000 0.000000 0.022507
#
#
# Mechanical properties :
#
#
# Convention : Reuss Voigt Hill
#
# Bulk Modulus (GPa) = 39.70898 41.19900 40.45399
# Shear Modulus (GPa) = 31.85855 34.35344 33.10600
#
# Velocity S-wave (km/s) = 3.82428 3.97120 3.89843
# Velocity P-wave (km/s) = 6.14240 6.31982 6.23174
#
# Compressibility (1/GPa) = 0.02518322
#
# Stress axis : x y z
#
# Youngs Moduli (GPa) = 69.29006 100.87568 83.63147
#
# Poissons Ratio (x) = 0.02531 0.23613
# Poissons Ratio (y) = 0.01739 0.20784
# Poissons Ratio (z) = 0.19564 0.25070
#
# Static dielectric constant tensor:
#      x y z
#    x 5.014620 0.000000 0.000000 
#    y 0.000000 4.348880 0.000000 
#    z 0.000000 0.000000 -9.056580 
# 
# 
# High freq. dielectric constant tensor:
#      x y z
#    x 1.866220 0.000000 0.000000 
#    y 0.000000 1.866240 0.000000 
#    z 0.000000 0.000000 1.853970 
# 
# From -- ./inp_files/21965.got.cif
#   From: 2010.03.12/outbox.cif.g09.slc.cpg/sg54_11_cif.got.tgz:21965.got - 2010.04.16 15:00:50.
