data_PCOD8223903
_publ_section_title
;
Structure prediction by ZEFSAII (Michael W. Deem and Ramdas Pophale) SiO2 
 PCOD8223903
Probable space group: P C C A
;
_chemical_formula_sum "Si O2"
_cell_formula_units_Z 64
_cell_length_a 16.875890
_cell_length_b 8.700322
_cell_length_c 21.041880
_cell_angle_alpha 90.000000
_cell_angle_beta 90.000000
_cell_angle_gamma 90.000000
_cell_volume 3089.488277
_symmetry_space_group_name_H-M "P C C A"
_symmetry_group_IT_number 54
_symmetry_cell_setting 'orthorhombic'
loop_
_space_group_symop_operation_xyz
x,y,z
1/2-x,-y,z
1/2+x,-y,1/2-z
-x,y,1/2-z
-x,-y,-z
1/2+x,y,-z
1/2-x,y,1/2+z
x,-y,1/2+z
loop_
_atom_site_type_symbol
_atom_site_label
_atom_site_fract_x
_atom_site_fract_y
_atom_site_fract_z
Si Si1 0.833123 0.575183 0.336329
Si Si2 0.298769 0.342199 0.470909
Si Si3 0.335055 0.918190 0.878062
Si Si4 0.543131 0.123738 0.543093
Si Si5 0.335414 0.967575 0.144855
Si Si6 0.901513 0.319304 0.408844
Si Si7 0.166466 0.788666 0.045592
Si Si8 0.591666 0.831783 0.755373
O O1 0.750000 0.500000 0.314892
O O2 0.903992 0.460717 0.359199
O O3 0.815369 0.669551 0.399502
O O4 0.863589 0.678360 0.278613
O O5 0.250000 0.500000 0.454678
O O6 0.333334 0.253408 0.409527
O O7 0.368345 0.375079 0.522402
O O8 0.241180 0.213349 0.499325
O O9 0.369442 0.890837 0.808588
O O10 0.250000 0.000000 0.873338
O O11 0.394777 0.033716 0.913090
O O12 0.484576 0.229549 0.584865
O O13 0.588253 0.243336 0.496563
O O14 0.500000 0.000000 0.500000
O O15 0.341280 0.789111 0.130010
O O16 0.250000 0.000000 0.176506
O O17 0.343374 0.043023 0.075237
O O18 0.401819 0.032666 0.192290
O O19 0.500000 0.790565 0.750000
#
# Coordination Sequence:
#
# PCOD8223903 Si02
#       8
#     8   8   8   8   8   8   8   8
#     4  11  23  44  71  94 130 178 237 271 323 410
#     4  12  22  40  65 100 139 177 209 271 343 416
#     4  12  26  46  68  97 142 183 227 279 352 421
#     4  12  24  36  66 107 142 173 213 280 345 408
#     4  11  20  36  71  94 120 169 230 272 312 383
#     4  12  21  38  66 102 133 165 223 280 331 388
#     4  11  20  38  62 100 134 171 215 263 333 399
#     4  11  27  48  66  92 131 177 228 283 337 388
#
# _framework density 20.715405000000001
#
# number of rings (size 3 to 8) (size 9 to 14) (size 15 to 20)
#    0.000    0.500    7.500    1.875    1.750    1.000 
#    2.250    3.125    0.000    0.000    0.000    0.000 
#    0.000    0.000    0.000    0.000    0.000    0.000 
#
# Total GULP energy -793217.383569 kJ/mol
# GULP energy per Si atom -12394.021618 kJ/mol
# Density = 2.066826 g / cm^3
# Si number density = 20.715405 Si / 1000 Ang^3
#
#
#
# Elastic Constant Matrix: (Units=GPa)
#
#
# Indices 1 2 3 4 5 6 
#
# 1 123.1973 31.4288 45.4260 0.0000 0.0000 0.0000
# 2 31.4288 77.9167 29.5114 0.0000 0.0000 0.0000
# 3 45.4260 29.5114 84.5108 0.0000 0.0000 0.0000
# 4 0.0000 0.0000 0.0000 19.5370 0.0000 0.0000
# 5 0.0000 0.0000 0.0000 0.0000 30.8777 0.0000
# 6 0.0000 0.0000 0.0000 0.0000 0.0000 35.7282
#
#
#
# Elastic Compliance Matrix: (Units=1/GPa)
#
#
# Indices 1 2 3 4 5 6 
#
# 1 0.010505 -0.002418 -0.004802 0.000000 0.000000 0.000000
# 2 -0.002418 0.015347 -0.004059 0.000000 0.000000 0.000000
# 3 -0.004802 -0.004059 0.015831 0.000000 0.000000 0.000000
# 4 0.000000 0.000000 0.000000 0.051185 0.000000 0.000000
# 5 0.000000 0.000000 0.000000 0.000000 0.032386 0.000000
# 6 0.000000 0.000000 0.000000 0.000000 0.000000 0.027989
#
#
# Mechanical properties :
#
#
# Convention : Reuss Voigt Hill
#
# Bulk Modulus (GPa) = 52.29049 55.37304 53.83176
# Shear Modulus (GPa) = 27.44581 29.17915 28.31248
#
# Velocity S-wave (km/s) = 3.64386 3.75717 3.70095
# Velocity P-wave (km/s) = 6.55750 6.75353 6.65623
#
# Compressibility (1/GPa) = 0.01912394
#
# Stress axis : x y z
#
# Youngs Moduli (GPa) = 95.19638 65.15836 63.16548
#
# Poissons Ratio (x) = 0.15758 0.30331
# Poissons Ratio (y) = 0.23023 0.25641
# Poissons Ratio (z) = 0.45712 0.26450
#
# Static dielectric constant tensor:
#      x y z
#    x 3.994520 0.000000 0.000000 
#    y 0.000000 4.085470 0.000000 
#    z 0.000000 0.000000 3.773700 
# 
# 
# High freq. dielectric constant tensor:
#      x y z
#    x 1.815860 0.000000 0.000000 
#    y 0.000000 1.815170 0.000000 
#    z 0.000000 0.000000 1.797670 
# 
# From -- ./inp_files/21954.got.cif
#   From: 2010.03.12/outbox.cif.g09.slc.cpg/sg54_11_cif.got.tgz:21954.got - 2010.04.16 15:00:50.
