data_PCOD8223648
_publ_section_title
;
Structure prediction by ZEFSAII (Michael W. Deem and Ramdas Pophale) SiO2 
 PCOD8223648
Probable space group: P C C A
;
_chemical_formula_sum "Si O2"
_cell_formula_units_Z 24
_cell_length_a 8.945398
_cell_length_b 5.166721
_cell_length_c 19.017032
_cell_angle_alpha 90.000000
_cell_angle_beta 90.000000
_cell_angle_gamma 90.000000
_cell_volume 878.936330
_symmetry_space_group_name_H-M "P C C A"
_symmetry_group_IT_number 54
_symmetry_cell_setting 'orthorhombic'
loop_
_space_group_symop_operation_xyz
x,y,z
1/2-x,-y,z
1/2+x,-y,1/2-z
-x,y,1/2-z
-x,-y,-z
1/2+x,y,-z
1/2-x,y,1/2+z
x,-y,1/2+z
loop_
_atom_site_type_symbol
_atom_site_label
_atom_site_fract_x
_atom_site_fract_y
_atom_site_fract_z
Si Si1 0.650588 0.256477 0.888171
Si Si2 0.347359 0.257451 0.455576
Si Si3 0.074545 0.951193 0.318879
O O1 0.750000 0.500000 0.865586
O O2 0.512148 0.223050 0.834046
O O3 0.750000 0.000000 0.885006
O O4 0.578541 0.295843 0.967214
O O5 0.250000 0.500000 0.435017
O O6 0.250000 0.000000 0.457455
O O7 0.460542 0.224603 0.389124
O O8 0.000000 0.820509 0.250000
O O9 0.250000 0.000000 0.306070
#
# Coordination Sequence:
#
# PCOD8223648 Si02
#       3
#     8   8   8
#     4  10  22  44  74 104 136 179 239 304 363 425
#     4   9  20  41  70 102 135 179 238 301 359 423
#     4  11  24  45  68 102 147 194 240 295 364 440
#
# _framework density 27.305734000000001
#
# number of rings (size 3 to 8) (size 9 to 14) (size 15 to 20)
#    0.000    2.000    0.000    2.000    0.000    5.333 
#    0.000   48.333    0.000    0.000    0.000    0.000 
#    0.000    0.000    0.000    0.000    0.000    1.000 
#
# Total GULP energy -297415.837571 kJ/mol
# GULP energy per Si atom -12392.326565 kJ/mol
# Density = 2.724358 g / cm^3
# Si number density = 27.305734 Si / 1000 Ang^3
#
#
#
# Elastic Constant Matrix: (Units=GPa)
#
#
# Indices 1 2 3 4 5 6 
#
# 1 161.3805 46.3892 71.0502 0.0000 0.0000 0.0000
# 2 46.3892 136.0457 23.5513 0.0000 0.0000 0.0000
# 3 71.0502 23.5513 175.0518 0.0000 0.0000 0.0000
# 4 0.0000 0.0000 0.0000 17.7266 0.0000 0.0000
# 5 0.0000 0.0000 0.0000 0.0000 28.7591 0.0000
# 6 0.0000 0.0000 0.0000 0.0000 0.0000 19.5799
#
#
#
# Elastic Compliance Matrix: (Units=1/GPa)
#
#
# Indices 1 2 3 4 5 6 
#
# 1 0.008174 -0.002266 -0.003013 0.000000 0.000000 0.000000
# 2 -0.002266 0.008154 -0.000177 0.000000 0.000000 0.000000
# 3 -0.003013 -0.000177 0.006959 0.000000 0.000000 0.000000
# 4 0.000000 0.000000 0.000000 0.056412 0.000000 0.000000
# 5 0.000000 0.000000 0.000000 0.000000 0.034772 0.000000
# 6 0.000000 0.000000 0.000000 0.000000 0.000000 0.051073
#
#
# Mechanical properties :
#
#
# Convention : Reuss Voigt Hill
#
# Bulk Modulus (GPa) = 80.80620 83.82883 82.31752
# Shear Modulus (GPa) = 27.68832 35.31226 31.50029
#
# Velocity S-wave (km/s) = 3.18781 3.60004 3.40017
# Velocity P-wave (km/s) = 6.57319 6.93160 6.75477
#
# Compressibility (1/GPa) = 0.01237529
#
# Stress axis : x y z
#
# Youngs Moduli (GPa) = 122.33418 122.64291 143.69116
#
# Poissons Ratio (x) = 0.27787 0.43294
# Poissons Ratio (y) = 0.27718 0.02549
# Poissons Ratio (z) = 0.36859 0.02175
#
# Static dielectric constant tensor:
#      x y z
#    x 4.815700 0.000000 0.000000 
#    y 0.000000 5.019950 0.000000 
#    z 0.000000 0.000000 5.862320 
# 
# 
# High freq. dielectric constant tensor:
#      x y z
#    x 2.097760 0.000000 0.000000 
#    y 0.000000 2.096040 0.000000 
#    z 0.000000 0.000000 2.106630 
# 
# From -- ./inp_files/23087.got.cif
#   From: 2010.03.12/outbox.cif.g09.slc.cpg/sg54_12_cif.got.tgz:23087.got - 2010.04.16 15:00:50.
