data_PCOD8223481
_publ_section_title
;
Structure prediction by ZEFSAII (Michael W. Deem and Ramdas Pophale) SiO2 
 PCOD8223481
Probable space group: P C C A
;
_chemical_formula_sum "Si O2"
_cell_formula_units_Z 64
_cell_length_a 30.505357
_cell_length_b 8.398463
_cell_length_c 11.880660
_cell_angle_alpha 90.000000
_cell_angle_beta 90.000000
_cell_angle_gamma 90.000000
_cell_volume 3043.802662
_symmetry_space_group_name_H-M "P C C A"
_symmetry_group_IT_number 54
_symmetry_cell_setting 'orthorhombic'
loop_
_space_group_symop_operation_xyz
x,y,z
1/2-x,-y,z
1/2+x,-y,1/2-z
-x,y,1/2-z
-x,-y,-z
1/2+x,y,-z
1/2-x,y,1/2+z
x,-y,1/2+z
loop_
_atom_site_type_symbol
_atom_site_label
_atom_site_fract_x
_atom_site_fract_y
_atom_site_fract_z
Si Si1 0.176790 0.227525 0.192419
Si Si2 0.669784 0.341506 0.037078
Si Si3 0.412886 0.202788 0.016994
Si Si4 0.162640 0.879613 0.169711
Si Si5 0.263630 0.319594 0.280262
Si Si6 0.112583 0.417409 0.331080
Si Si7 0.950891 0.671759 0.262946
Si Si8 0.100801 0.889688 0.383595
O O1 0.181665 0.363343 0.094493
O O2 0.218395 0.222899 0.275554
O O3 0.133026 0.270047 0.262046
O O4 0.177779 0.054938 0.132335
O O5 0.715374 0.293084 0.096681
O O6 0.652738 0.491247 0.109052
O O7 0.630424 0.212754 0.031628
O O8 0.364222 0.202292 0.069422
O O9 0.447172 0.236807 0.117254
O O10 0.418331 0.346280 0.928223
O O11 0.420009 0.038150 0.950081
O O12 0.201501 0.754743 0.192206
O O13 0.132341 0.921324 0.277365
O O14 0.250000 0.500000 0.251565
O O15 0.084251 0.527660 0.246879
O O16 0.941460 0.793027 0.160835
O O17 0.000000 0.605267 0.250000
#
# Coordination Sequence:
#
# PCOD8223481 Si02
#       8
#     8   8   8   8   8   8   8   8
#     4  12  22  39  64  86 124 170 220 270 317 385
#     4  10  22  40  58  88 124 170 208 268 323 372
#     4  11  21  40  71  92 121 175 215 263 333 389
#     4  10  22  40  60  93 125 166 217 266 314 379
#     4  11  24  39  56  91 129 163 211 269 319 383
#     4  11  23  40  66  93 120 172 222 264 327 403
#     4  10  24  43  63  99 139 161 207 277 336 407
#     4   9  19  40  65  89 125 162 217 252 318 400
#
# _framework density 21.026330000000002
#
# number of rings (size 3 to 8) (size 9 to 14) (size 15 to 20)
#    0.000    1.500    3.750    1.875    1.750    2.500 
#    0.000    1.875    0.000    0.000    0.000    0.000 
#    0.000    0.000    0.000    0.000    0.000    0.000 
#
# Total GULP energy -793123.057506 kJ/mol
# GULP energy per Si atom -12392.547774 kJ/mol
# Density = 2.097847 g / cm^3
# Si number density = 21.026330 Si / 1000 Ang^3
#
#
#
# Elastic Constant Matrix: (Units=GPa)
#
#
# Indices 1 2 3 4 5 6 
#
# 1 96.4385 22.5931 26.9476 0.0000 0.0000 0.0000
# 2 22.5931 90.1715 27.4504 0.0000 0.0000 0.0000
# 3 26.9476 27.4504 82.3393 0.0000 0.0000 0.0000
# 4 0.0000 0.0000 0.0000 30.3015 0.0000 0.0000
# 5 0.0000 0.0000 0.0000 0.0000 18.3718 0.0000
# 6 0.0000 0.0000 0.0000 0.0000 0.0000 19.5628
#
#
#
# Elastic Compliance Matrix: (Units=1/GPa)
#
#
# Indices 1 2 3 4 5 6 
#
# 1 0.011719 -0.001968 -0.003179 0.000000 0.000000 0.000000
# 2 -0.001968 0.012673 -0.003581 0.000000 0.000000 0.000000
# 3 -0.003179 -0.003581 0.014379 0.000000 0.000000 0.000000
# 4 0.000000 0.000000 0.000000 0.033002 0.000000 0.000000
# 5 0.000000 0.000000 0.000000 0.000000 0.054431 0.000000
# 6 0.000000 0.000000 0.000000 0.000000 0.000000 0.051118
#
#
# Mechanical properties :
#
#
# Convention : Reuss Voigt Hill
#
# Bulk Modulus (GPa) = 46.91631 46.99238 46.95435
# Shear Modulus (GPa) = 24.76682 26.44442 25.60562
#
# Velocity S-wave (km/s) = 3.43577 3.55023 3.49347
# Velocity P-wave (km/s) = 6.17260 6.26125 6.21708
#
# Compressibility (1/GPa) = 0.02131455
#
# Stress axis : x y z
#
# Youngs Moduli (GPa) = 85.33316 78.90629 69.54558
#
# Poissons Ratio (x) = 0.15532 0.22109
# Poissons Ratio (y) = 0.16797 0.24903
# Poissons Ratio (z) = 0.27128 0.28255
#
# Static dielectric constant tensor:
#      x y z
#    x 3.529490 0.000000 0.000000 
#    y 0.000000 3.769770 0.000000 
#    z 0.000000 0.000000 3.753740 
# 
# 
# High freq. dielectric constant tensor:
#      x y z
#    x 1.797270 0.000000 0.000000 
#    y 0.000000 1.823180 0.000000 
#    z 0.000000 0.000000 1.825800 
# 
# From -- ./inp_files/10558.got.cif
#   From: 2010.03.12/outbox.cif.g09.slc.cpg/sg54_6_cif.got.tgz:10558.got - 2010.04.16 15:00:50.
