data_PCOD8223219
_publ_section_title
;
Structure prediction by ZEFSAII (Michael W. Deem and Ramdas Pophale) SiO2 
 PCOD8223219
Probable space group: P C C A
;
_chemical_formula_sum "Si O2"
_cell_formula_units_Z 32
_cell_length_a 8.817025
_cell_length_b 10.647244
_cell_length_c 16.682262
_cell_angle_alpha 90.000000
_cell_angle_beta 90.000000
_cell_angle_gamma 90.000000
_cell_volume 1566.080986
_symmetry_space_group_name_H-M "P C C A"
_symmetry_group_IT_number 54
_symmetry_cell_setting 'orthorhombic'
loop_
_space_group_symop_operation_xyz
x,y,z
1/2-x,-y,z
1/2+x,-y,1/2-z
-x,y,1/2-z
-x,-y,-z
1/2+x,y,-z
1/2-x,y,1/2+z
x,-y,1/2+z
loop_
_atom_site_type_symbol
_atom_site_label
_atom_site_fract_x
_atom_site_fract_y
_atom_site_fract_z
Si Si1 0.009845 0.285078 0.498542
Si Si2 0.822511 0.129587 0.730262
Si Si3 0.756712 0.856953 0.906569
Si Si4 0.231934 0.634432 0.385875
O O1 0.104823 0.206309 0.562144
O O2 0.114423 0.356941 0.436241
O O3 0.906985 0.194351 0.446232
O O4 0.906397 0.378479 0.551136
O O5 0.732507 0.162318 0.811163
O O6 0.794259 0.246017 0.670892
O O7 0.000000 0.109733 0.750000
O O8 0.750000 0.000000 0.694032
O O9 0.750000 0.000000 0.931365
O O10 0.250000 0.500000 0.339134
#
# Coordination Sequence:
#
# PCOD8223219 Si02
#       4
#     8   8   8   8
#     4  10  22  40  64  93 125 166 213 268 314 374
#     4  11  25  44  65  93 134 166 210 265 318 379
#     4  10  21  38  63  93 127 164 213 260 321 375
#     4  11  24  44  66  94 127 171 214 263 318 378
#
# _framework density 20.43317
#
# number of rings (size 3 to 8) (size 9 to 14) (size 15 to 20)
#    0.000    1.500    2.500    1.500    7.000    4.000 
#    4.500    1.250    0.000    0.000    0.000    0.000 
#    0.000    0.000    0.000    0.000    0.000    0.000 
#
# Total GULP energy -396642.920350 kJ/mol
# GULP energy per Si atom -12395.091261 kJ/mol
# Density = 2.038666 g / cm^3
# Si number density = 20.433170 Si / 1000 Ang^3
#
#
#
# Elastic Constant Matrix: (Units=GPa)
#
#
# Indices 1 2 3 4 5 6 
#
# 1 113.6653 61.3104 25.1443 0.0000 0.0000 0.0000
# 2 61.3104 175.4959 56.8051 0.0000 0.0000 0.0000
# 3 25.1443 56.8051 66.7876 0.0000 0.0000 0.0000
# 4 0.0000 0.0000 0.0000 27.3789 0.0000 0.0000
# 5 0.0000 0.0000 0.0000 0.0000 -321.3029 0.0000
# 6 0.0000 0.0000 0.0000 0.0000 0.0000 -14.9444
#
#
#
# Elastic Compliance Matrix: (Units=1/GPa)
#
#
# Indices 1 2 3 4 5 6 
#
# 1 0.010909 -0.003425 -0.001194 0.000000 0.000000 0.000000
# 2 -0.003425 0.008938 -0.006313 0.000000 0.000000 0.000000
# 3 -0.001194 -0.006313 0.020792 0.000000 0.000000 0.000000
# 4 0.000000 0.000000 0.000000 0.036524 0.000000 0.000000
# 5 0.000000 0.000000 0.000000 0.000000 -0.003112 0.000000
# 6 0.000000 0.000000 0.000000 0.000000 0.000000 -0.066915
#
#
# Mechanical properties :
#
#
# Convention : Reuss Voigt Hill
#
# Bulk Modulus (GPa) = 53.26114 71.38539 62.32326
# Shear Modulus (GPa) = 141.81355 -47.59441 47.10957
#
# Velocity S-wave (km/s) = 8.33992 -4.83149 4.80682
# Velocity P-wave (km/s) = 10.90237 1.97167 7.83419
#
# Compressibility (1/GPa) = 0.01877542
#
# Stress axis : x y z
#
# Youngs Moduli (GPa) = 91.66596 111.88405 48.09631
#
# Poissons Ratio (x) = 0.38315 0.05745
# Poissons Ratio (y) = 0.31392 0.30361
# Poissons Ratio (z) = 0.10949 0.70628
#
# Static dielectric constant tensor:
#      x y z
#    x 3.942120 0.000000 0.000000 
#    y 0.000000 3.683620 0.000000 
#    z 0.000000 0.000000 3.734270 
# 
# 
# High freq. dielectric constant tensor:
#      x y z
#    x 1.818040 0.000000 0.000000 
#    y 0.000000 1.801210 0.000000 
#    z 0.000000 0.000000 1.793950 
# 
# From -- ./inp_files/11205.got.cif
#   From: 2010.03.12/outbox.cif.g09.slc.cpg/sg54_6_cif.got.tgz:11205.got - 2010.04.16 15:00:50.
