data_PCOD8223890
_publ_section_title
;
Structure prediction by ZEFSAII (Michael W. Deem and Ramdas Pophale) SiO2 
 PCOD8223890
Probable space group: P C C A
;
_chemical_formula_sum "Si O2"
_cell_formula_units_Z 32
_cell_length_a 16.120473
_cell_length_b 8.635652
_cell_length_c 8.944813
_cell_angle_alpha 90.000000
_cell_angle_beta 90.000000
_cell_angle_gamma 90.000000
_cell_volume 1245.214528
_symmetry_space_group_name_H-M "P C C A"
_symmetry_group_IT_number 54
_symmetry_cell_setting 'orthorhombic'
loop_
_space_group_symop_operation_xyz
x,y,z
1/2-x,-y,z
1/2+x,-y,1/2-z
-x,y,1/2-z
-x,-y,-z
1/2+x,y,-z
1/2-x,y,1/2+z
x,-y,1/2+z
loop_
_atom_site_type_symbol
_atom_site_label
_atom_site_fract_x
_atom_site_fract_y
_atom_site_fract_z
Si Si1 0.647147 0.874333 0.707318
Si Si2 0.058787 0.379062 0.419177
Si Si3 0.500000 0.100229 0.750000
Si Si4 0.655642 0.555707 0.805104
Si Si5 0.250000 0.000000 0.552391
O O1 0.627644 0.692745 0.689411
O O2 0.675671 0.935148 0.547262
O O3 0.576827 0.985398 0.775547
O O4 0.719228 0.867008 0.834020
O O5 0.139349 0.379261 0.527583
O O6 0.000000 0.500000 0.500000
O O7 0.017371 0.208553 0.397127
O O8 0.908717 0.422254 0.248872
O O9 0.750000 0.500000 0.789376
#
# Coordination Sequence:
#
# PCOD8223890 Si02
#       5
#     8   8   4   8   4
#     4  11  28  47  79 108 153 197 253 317 381 458
#     4  12  27  50  77 111 154 200 258 315 388 463
#     4  12  28  50  78 114 152 200 260 318 384 460
#     4  12  29  48  78 112 152 202 255 318 389 458
#     4  10  26  48  74 110 146 192 252 304 388 446
#
# _framework density 25.698384999999998
#
# number of rings (size 3 to 8) (size 9 to 14) (size 15 to 20)
#    0.000    0.500    2.500    2.250   21.000    2.000 
#    0.000    0.000    0.000    0.000    0.000    0.000 
#    0.000    0.000    0.000    0.000    0.000    0.000 
#
# Total GULP energy -396566.502120 kJ/mol
# GULP energy per Si atom -12392.703191 kJ/mol
# Density = 2.563989 g / cm^3
# Si number density = 25.698385 Si / 1000 Ang^3
#
#
#
# Elastic Constant Matrix: (Units=GPa)
#
#
# Indices 1 2 3 4 5 6 
#
# 1 112.2447 48.7312 21.7558 0.0000 0.0000 0.0000
# 2 48.7312 114.8805 -7.9345 0.0000 0.0000 0.0000
# 3 21.7558 -7.9345 99.1049 0.0000 0.0000 0.0000
# 4 0.0000 0.0000 0.0000 19.8036 0.0000 0.0000
# 5 0.0000 0.0000 0.0000 0.0000 31.6813 0.0000
# 6 0.0000 0.0000 0.0000 0.0000 0.0000 44.1399
#
#
#
# Elastic Compliance Matrix: (Units=1/GPa)
#
#
# Indices 1 2 3 4 5 6 
#
# 1 0.011741 -0.005187 -0.002993 0.000000 0.000000 0.000000
# 2 -0.005187 0.011045 0.002023 0.000000 0.000000 0.000000
# 3 -0.002993 0.002023 0.010909 0.000000 0.000000 0.000000
# 4 0.000000 0.000000 0.000000 0.050496 0.000000 0.000000
# 5 0.000000 0.000000 0.000000 0.000000 0.031564 0.000000
# 6 0.000000 0.000000 0.000000 0.000000 0.000000 0.022655
#
#
# Mechanical properties :
#
#
# Convention : Reuss Voigt Hill
#
# Bulk Modulus (GPa) = 46.76992 50.14835 48.45913
# Shear Modulus (GPa) = 31.67525 36.70344 34.18934
#
# Velocity S-wave (km/s) = 3.51462 3.78331 3.65143
# Velocity P-wave (km/s) = 5.89144 6.21620 6.05600
#
# Compressibility (1/GPa) = 0.02138126
#
# Stress axis : x y z
#
# Youngs Moduli (GPa) = 85.16997 90.54040 91.66516
#
# Poissons Ratio (x) = 0.46965 0.27433
# Poissons Ratio (y) = 0.44180 -0.18544
# Poissons Ratio (z) = 0.25489 -0.18316
#
# Static dielectric constant tensor:
#      x y z
#    x 4.766040 0.000000 0.000000 
#    y 0.000000 4.783390 0.000000 
#    z 0.000000 0.000000 4.714130 
# 
# 
# High freq. dielectric constant tensor:
#      x y z
#    x 2.031300 0.000000 0.000000 
#    y 0.000000 2.033010 0.000000 
#    z 0.000000 0.000000 2.031440 
# 
# From -- ./inp_files/7974.got.cif
#   From: 2010.03.12/outbox.cif.g09.slc.cpg/sg54_4_cif.got.tgz:7974.got - 2010.04.16 15:00:50.
