data_PCOD8223864
_publ_section_title
;
Structure prediction by ZEFSAII (Michael W. Deem and Ramdas Pophale) SiO2 
 PCOD8223864
Probable space group: P C C A
;
_chemical_formula_sum "Si O2"
_cell_formula_units_Z 56
_cell_length_a 12.224168
_cell_length_b 10.513561
_cell_length_c 21.370712
_cell_angle_alpha 90.000000
_cell_angle_beta 90.000000
_cell_angle_gamma 90.000000
_cell_volume 2746.553989
_symmetry_space_group_name_H-M "P C C A"
_symmetry_group_IT_number 54
_symmetry_cell_setting 'orthorhombic'
loop_
_space_group_symop_operation_xyz
x,y,z
1/2-x,-y,z
1/2+x,-y,1/2-z
-x,y,1/2-z
-x,-y,-z
1/2+x,y,-z
1/2-x,y,1/2+z
x,-y,1/2+z
loop_
_atom_site_type_symbol
_atom_site_label
_atom_site_fract_x
_atom_site_fract_y
_atom_site_fract_z
Si Si1 0.429230 0.243874 0.187468
Si Si2 0.000000 0.129295 0.250000
Si Si3 0.537665 0.527780 0.320994
Si Si4 0.814593 0.381874 0.134954
Si Si5 0.539060 0.998244 0.378990
Si Si6 0.750000 0.000000 0.952061
Si Si7 0.322147 0.888391 0.428408
Si Si8 0.799313 0.298288 0.266085
O O1 0.500000 0.223559 0.250000
O O2 0.439392 0.384220 0.157823
O O3 0.464254 0.151453 0.130126
O O4 0.301688 0.220227 0.205254
O O5 0.106772 0.211402 0.265447
O O6 0.030953 0.045797 0.191669
O O7 0.500000 0.525869 0.250000
O O8 0.444801 0.589957 0.364610
O O9 0.648529 0.613032 0.321108
O O10 0.750000 0.500000 0.102106
O O11 0.795413 0.250324 0.098252
O O12 0.759652 0.375170 0.204502
O O13 0.652271 0.950220 0.408595
O O14 0.446504 0.935395 0.421545
O O15 0.706271 0.885887 0.997244
O O16 0.250000 0.000000 0.394589
#
# Coordination Sequence:
#
# PCOD8223864 Si02
#       8
#     8   4   8   8   8   4   8   8
#     4  11  23  32  58  94 136 172 205 263 322 408
#     4  12  22  36  64  96 136 170 202 280 338 392
#     4   9  18  34  53  85 132 179 206 253 329 393
#     4  11  20  35  65  93 126 166 224 271 316 388
#     4  12  23  43  62 100 132 166 222 269 336 389
#     4  10  26  46  70  86 124 186 216 274 322 396
#     4  10  25  42  68  93 123 174 229 271 321 383
#     4  11  19  37  54  90 138 178 213 251 339 404
#
# _framework density 20.389187
#
# number of rings (size 3 to 8) (size 9 to 14) (size 15 to 20)
#    0.429    0.857    4.286    4.286    4.000    0.000 
#    1.286    0.000    0.000    6.857    0.000    0.000 
#    0.000    0.000    0.000    0.000    0.000    0.000 
#
# Total GULP energy -694001.833437 kJ/mol
# GULP energy per Si atom -12392.889883 kJ/mol
# Density = 2.034278 g / cm^3
# Si number density = 20.389187 Si / 1000 Ang^3
#
#
#
# Elastic Constant Matrix: (Units=GPa)
#
#
# Indices 1 2 3 4 5 6 
#
# 1 129.4488 54.5648 39.1951 0.0000 0.0000 0.0000
# 2 54.5648 137.1543 42.5153 0.0000 0.0000 0.0000
# 3 39.1951 42.5153 72.6642 0.0000 0.0000 0.0000
# 4 0.0000 0.0000 0.0000 -7.4774 0.0000 0.0000
# 5 0.0000 0.0000 0.0000 0.0000 20.7393 0.0000
# 6 0.0000 0.0000 0.0000 0.0000 0.0000 27.8008
#
#
#
# Elastic Compliance Matrix: (Units=1/GPa)
#
#
# Indices 1 2 3 4 5 6 
#
# 1 0.010061 -0.002834 -0.003768 0.000000 0.000000 0.000000
# 2 -0.002834 0.009705 -0.004149 0.000000 0.000000 0.000000
# 3 -0.003768 -0.004149 0.018222 0.000000 0.000000 0.000000
# 4 0.000000 0.000000 0.000000 -0.133736 0.000000 0.000000
# 5 0.000000 0.000000 0.000000 0.000000 0.048218 0.000000
# 6 0.000000 0.000000 0.000000 0.000000 0.000000 0.035970
#
#
# Mechanical properties :
#
#
# Convention : Reuss Voigt Hill
#
# Bulk Modulus (GPa) = 60.66599 67.97974 64.32287
# Shear Modulus (GPa) = 323.86584 21.74535 172.80559
#
# Velocity S-wave (km/s) = 12.61692 3.26930 9.21616
# Velocity P-wave (km/s) = 15.55852 6.90395 12.03603
#
# Compressibility (1/GPa) = 0.01648370
#
# Stress axis : x y z
#
# Youngs Moduli (GPa) = 99.39534 103.04041 54.87749
#
# Poissons Ratio (x) = 0.29206 0.20680
# Poissons Ratio (y) = 0.28173 0.22771
# Poissons Ratio (z) = 0.37456 0.42756
#
# Static dielectric constant tensor:
#      x y z
#    x 3.952510 0.000000 0.000000 
#    y 0.000000 4.079720 0.000000 
#    z 0.000000 0.000000 3.230880 
# 
# 
# High freq. dielectric constant tensor:
#      x y z
#    x 1.811330 0.000000 0.000000 
#    y 0.000000 1.802970 0.000000 
#    z 0.000000 0.000000 1.742210 
# 
# From -- ./inp_files/24223.got.cif
#   From: 2010.03.12/outbox.cif.g09.slc.cpg/sg54_13_cif.got.tgz:24223.got - 2010.04.16 15:00:50.
