data_PCOD8223531
_publ_section_title
;
Structure prediction by ZEFSAII (Michael W. Deem and Ramdas Pophale) SiO2 
 PCOD8223531
Probable space group: P C C A
;
_chemical_formula_sum "Si O2"
_cell_formula_units_Z 48
_cell_length_a 17.480919
_cell_length_b 8.459133
_cell_length_c 14.357231
_cell_angle_alpha 90.000000
_cell_angle_beta 90.000000
_cell_angle_gamma 90.000000
_cell_volume 2123.052832
_symmetry_space_group_name_H-M "P C C A"
_symmetry_group_IT_number 54
_symmetry_cell_setting 'orthorhombic'
loop_
_space_group_symop_operation_xyz
x,y,z
1/2-x,-y,z
1/2+x,-y,1/2-z
-x,y,1/2-z
-x,-y,-z
1/2+x,y,-z
1/2-x,y,1/2+z
x,-y,1/2+z
loop_
_atom_site_type_symbol
_atom_site_label
_atom_site_fract_x
_atom_site_fract_y
_atom_site_fract_z
Si Si1 0.988727 0.959068 0.394639
Si Si2 0.913877 0.350141 0.852446
Si Si3 0.500000 0.579209 0.250000
Si Si4 0.122937 0.799146 0.685307
Si Si5 0.750000 0.000000 0.211432
Si Si6 0.670583 0.578761 0.477963
Si Si7 0.632457 0.236038 0.157502
O O1 0.926078 0.823984 0.389193
O O2 0.064722 0.895547 0.342938
O O3 0.954465 0.114853 0.348203
O O4 0.000000 0.000000 0.500000
O O5 0.870459 0.426770 0.937271
O O6 0.868629 0.337187 0.753313
O O7 0.991306 0.456124 0.837446
O O8 0.581600 0.673513 0.244190
O O9 0.182590 0.920274 0.728779
O O10 0.169988 0.712843 0.602734
O O11 0.711841 0.137576 0.149719
O O12 0.750000 0.500000 0.507349
O O13 0.628942 0.648765 0.568839
#
# Coordination Sequence:
#
# PCOD8223531 Si02
#       7
#     8   8   4   8   4   8   8
#     4  12  24  45  74 105 142 188 254 313 366 425
#     4  11  24  47  75 101 152 190 242 308 368 436
#     4  10  22  40  74 102 136 188 242 292 362 430
#     4  11  24  45  72 108 144 193 247 306 372 437
#     4  12  26  42  74 102 150 198 242 302 374 446
#     4  11  27  45  69 109 151 192 242 302 375 447
#     4  12  25  45  73 108 143 197 245 303 372 443
#
# _framework density 22.608951999999999
#
# number of rings (size 3 to 8) (size 9 to 14) (size 15 to 20)
#    0.000    0.667    5.000    2.000    0.000    7.333 
#    0.000    0.000    0.000    0.000    0.000    0.000 
#    0.000    0.000    0.000    0.000    0.000    0.000 
#
# Total GULP energy -594700.298431 kJ/mol
# GULP energy per Si atom -12389.589551 kJ/mol
# Density = 2.255749 g / cm^3
# Si number density = 22.608952 Si / 1000 Ang^3
#
#
#
# Elastic Constant Matrix: (Units=GPa)
#
#
# Indices 1 2 3 4 5 6 
#
# 1 79.5064 28.0101 28.8898 0.0000 0.0000 0.0000
# 2 28.0101 99.9152 41.0802 0.0000 0.0000 0.0000
# 3 28.8898 41.0802 105.7546 0.0000 0.0000 0.0000
# 4 0.0000 0.0000 0.0000 59.4814 0.0000 0.0000
# 5 0.0000 0.0000 0.0000 0.0000 26.7546 0.0000
# 6 0.0000 0.0000 0.0000 0.0000 0.0000 38.3618
#
#
#
# Elastic Compliance Matrix: (Units=1/GPa)
#
#
# Indices 1 2 3 4 5 6 
#
# 1 0.014650 -0.002929 -0.002864 0.000000 0.000000 0.000000
# 2 -0.002929 0.012497 -0.004054 0.000000 0.000000 0.000000
# 3 -0.002864 -0.004054 0.011813 0.000000 0.000000 0.000000
# 4 0.000000 0.000000 0.000000 0.016812 0.000000 0.000000
# 5 0.000000 0.000000 0.000000 0.000000 0.037377 0.000000
# 6 0.000000 0.000000 0.000000 0.000000 0.000000 0.026068
#
#
# Mechanical properties :
#
#
# Convention : Reuss Voigt Hill
#
# Bulk Modulus (GPa) = 51.90851 53.45958 52.68405
# Shear Modulus (GPa) = 34.40368 37.39929 35.90149
#
# Velocity S-wave (km/s) = 3.90511 4.07157 3.98921
# Velocity P-wave (km/s) = 6.58349 6.76759 6.67617
#
# Compressibility (1/GPa) = 0.01926466
#
# Stress axis : x y z
#
# Youngs Moduli (GPa) = 68.25751 80.02226 84.65205
#
# Poissons Ratio (x) = 0.23442 0.24246
# Poissons Ratio (y) = 0.19996 0.34318
# Poissons Ratio (z) = 0.19550 0.32441
#
# Static dielectric constant tensor:
#      x y z
#    x 4.378070 0.000000 0.000000 
#    y 0.000000 4.367990 0.000000 
#    z 0.000000 0.000000 3.851870 
# 
# 
# High freq. dielectric constant tensor:
#      x y z
#    x 1.885840 0.000000 0.000000 
#    y 0.000000 1.921500 0.000000 
#    z 0.000000 0.000000 1.876030 
# 
# From -- ./inp_files/14173.got.cif
#   From: 2010.03.12/outbox.cif.g09.slc.cpg/sg54_8_cif.got.tgz:14173.got - 2010.04.16 15:00:50.
