data_PCOD8223050
_publ_section_title
;
Structure prediction by ZEFSAII (Michael W. Deem and Ramdas Pophale) SiO2 
 PCOD8223050
Probable space group: P C C A
;
_chemical_formula_sum "Si O2"
_cell_formula_units_Z 56
_cell_length_a 15.681691
_cell_length_b 11.151568
_cell_length_c 15.126390
_cell_angle_alpha 90.000000
_cell_angle_beta 90.000000
_cell_angle_gamma 90.000000
_cell_volume 2645.234160
_symmetry_space_group_name_H-M "P C C A"
_symmetry_group_IT_number 54
_symmetry_cell_setting 'orthorhombic'
loop_
_space_group_symop_operation_xyz
x,y,z
1/2-x,-y,z
1/2+x,-y,1/2-z
-x,y,1/2-z
-x,-y,-z
1/2+x,y,-z
1/2-x,y,1/2+z
x,-y,1/2+z
loop_
_atom_site_type_symbol
_atom_site_label
_atom_site_fract_x
_atom_site_fract_y
_atom_site_fract_z
Si Si1 0.660963 0.061808 0.873405
Si Si2 0.857761 0.788239 0.048181
Si Si3 0.436367 0.607430 0.069433
Si Si4 0.411429 0.656442 0.529632
Si Si5 0.717891 0.635200 0.111162
Si Si6 0.975728 0.857059 0.352023
Si Si7 0.598601 0.268962 0.760448
O O1 0.649798 0.152635 0.792251
O O2 0.750000 0.000000 0.852613
O O3 0.577573 0.976964 0.870852
O O4 0.670333 0.123948 0.969162
O O5 0.785278 0.746431 0.118252
O O6 0.934563 0.856927 0.096572
O O7 0.877381 0.655633 0.009839
O O8 0.448577 0.466006 0.069109
O O9 0.395339 0.632372 0.163368
O O10 0.524763 0.682558 0.053446
O O11 0.316789 0.642557 0.490310
O O12 0.415349 0.751973 0.608873
O O13 0.750000 0.500000 0.132616
O O14 0.641595 0.668802 0.176805
O O15 0.000000 0.837342 0.250000
O O16 0.500000 0.232615 0.750000
#
# Coordination Sequence:
#
# PCOD8223050 Si02
#       7
#     8   8   8   8   8   8   8
#     4  11  25  49  68  97 134 183 239 289 342 404
#     4  10  23  44  68  99 134 181 232 282 352 416
#     4   9  19  40  65  94 130 182 223 272 346 412
#     4  10  20  40  68  94 140 178 221 279 337 423
#     4  12  24  43  70 109 145 178 232 292 354 425
#     4  11  25  44  70 102 138 182 235 285 342 417
#     4  11  24  44  71  99 138 181 227 285 354 413
#
# _framework density 21.170148000000001
#
# number of rings (size 3 to 8) (size 9 to 14) (size 15 to 20)
#    0.000    1.429    2.857    1.714    2.000    1.714 
#   12.857    0.000    0.000    0.000    0.000    0.000 
#    0.000    0.000    0.000    0.000    0.000    0.000 
#
# Total GULP energy -693807.701528 kJ/mol
# GULP energy per Si atom -12389.423242 kJ/mol
# Density = 2.112196 g / cm^3
# Si number density = 21.170148 Si / 1000 Ang^3
#
#
#
# Elastic Constant Matrix: (Units=GPa)
#
#
# Indices 1 2 3 4 5 6 
#
# 1 119.4422 43.4119 44.3796 0.0000 0.0000 0.0000
# 2 43.4119 115.3124 49.5651 0.0000 0.0000 0.0000
# 3 44.3796 49.5651 102.4421 0.0000 0.0000 0.0000
# 4 0.0000 0.0000 0.0000 20.4894 0.0000 0.0000
# 5 0.0000 0.0000 0.0000 0.0000 23.5334 0.0000
# 6 0.0000 0.0000 0.0000 0.0000 0.0000 39.9455
#
#
#
# Elastic Compliance Matrix: (Units=1/GPa)
#
#
# Indices 1 2 3 4 5 6 
#
# 1 0.010532 -0.002530 -0.003339 0.000000 0.000000 0.000000
# 2 -0.002530 0.011557 -0.004496 0.000000 0.000000 0.000000
# 3 -0.003339 -0.004496 0.013383 0.000000 0.000000 0.000000
# 4 0.000000 0.000000 0.000000 0.048806 0.000000 0.000000
# 5 0.000000 0.000000 0.000000 0.000000 0.042493 0.000000
# 6 0.000000 0.000000 0.000000 0.000000 0.000000 0.025034
#
#
# Mechanical properties :
#
#
# Convention : Reuss Voigt Hill
#
# Bulk Modulus (GPa) = 67.82529 67.98999 67.90764
# Shear Modulus (GPa) = 28.17721 30.11630 29.14676
#
# Velocity S-wave (km/s) = 3.65223 3.77581 3.71453
# Velocity P-wave (km/s) = 7.06348 7.15504 7.10941
#
# Compressibility (1/GPa) = 0.01474376
#
# Stress axis : x y z
#
# Youngs Moduli (GPa) = 94.94589 86.52795 74.72110
#
# Poissons Ratio (x) = 0.21892 0.24947
# Poissons Ratio (y) = 0.24022 0.33592
# Poissons Ratio (z) = 0.31699 0.38900
#
# Static dielectric constant tensor:
#      x y z
#    x 3.988060 0.000000 0.000000 
#    y 0.000000 3.689120 0.000000 
#    z 0.000000 0.000000 3.813860 
# 
# 
# High freq. dielectric constant tensor:
#      x y z
#    x 1.841530 0.000000 0.000000 
#    y 0.000000 1.827340 0.000000 
#    z 0.000000 0.000000 1.825740 
# 
# From -- ./inp_files/13478.got.cif
#   From: 2010.03.12/outbox.cif.g09.slc.cpg/sg54_7_cif.got.tgz:13478.got - 2010.04.16 15:00:50.
