data_PCOD8223327
_publ_section_title
;
Structure prediction by ZEFSAII (Michael W. Deem and Ramdas Pophale) SiO2 
 PCOD8223327
Probable space group: P C C A
;
_chemical_formula_sum "Si O2"
_cell_formula_units_Z 40
_cell_length_a 4.939915
_cell_length_b 27.328022
_cell_length_c 13.291946
_cell_angle_alpha 90.000000
_cell_angle_beta 90.000000
_cell_angle_gamma 90.000000
_cell_volume 1794.387532
_symmetry_space_group_name_H-M "P C C A"
_symmetry_group_IT_number 54
_symmetry_cell_setting 'orthorhombic'
loop_
_space_group_symop_operation_xyz
x,y,z
1/2-x,-y,z
1/2+x,-y,1/2-z
-x,y,1/2-z
-x,-y,-z
1/2+x,y,-z
1/2-x,y,1/2+z
x,-y,1/2+z
loop_
_atom_site_type_symbol
_atom_site_label
_atom_site_fract_x
_atom_site_fract_y
_atom_site_fract_z
Si Si1 0.817940 0.408440 0.935894
Si Si2 0.000000 0.768353 0.250000
Si Si3 0.429993 0.302210 0.069629
Si Si4 0.161212 0.902744 0.568598
Si Si5 0.500000 0.833149 0.250000
Si Si6 0.250000 0.000000 0.182551
Si Si7 0.250000 0.500000 0.689676
O O1 0.888114 0.356638 0.882611
O O2 0.888691 0.455563 0.870195
O O3 0.501804 0.411034 0.963875
O O4 0.885975 0.736069 0.341449
O O5 0.750257 0.800799 0.211014
O O6 0.725346 0.294540 0.022808
O O7 0.459908 0.894811 0.524728
O O8 0.105969 0.864901 0.657221
O O9 0.133565 0.957052 0.613114
O O10 0.500000 0.019710 0.250000
O O11 0.500000 0.476680 0.750000
#
# Coordination Sequence:
#
# PCOD8223327 Si02
#       7
#     8   4   8   8   4   4   4
#     4  10  21  41  63  87 126 169 208 260 326 394
#     4  12  26  44  71  98 133 178 226 288 344 388
#     4  10  23  43  68  97 127 170 224 276 335 403
#     4  12  26  46  72 104 141 187 227 276 338 405
#     4  12  28  46  67 104 139 180 228 284 342 392
#     4  12  24  44  76 104 146 182 228 284 330 402
#     4  12  24  36  58  98 128 162 210 260 320 398
#
# _framework density 22.291730000000001
#
# number of rings (size 3 to 8) (size 9 to 14) (size 15 to 20)
#    0.000    0.800    1.000    6.000    2.800    4.800 
#    1.800    0.000    0.000    0.000    0.000    0.000 
#    0.000    0.000    0.000    0.000    0.000    0.000 
#
# Total GULP energy -496153.776415 kJ/mol
# GULP energy per Si atom -12403.844410 kJ/mol
# Density = 2.224099 g / cm^3
# Si number density = 22.291730 Si / 1000 Ang^3
#
#
#
# Elastic Constant Matrix: (Units=GPa)
#
#
# Indices 1 2 3 4 5 6 
#
# 1 112.7237 37.3089 22.8751 0.0000 0.0000 0.0000
# 2 37.3089 152.0485 62.8284 0.0000 0.0000 0.0000
# 3 22.8751 62.8284 88.4210 0.0000 0.0000 0.0000
# 4 0.0000 0.0000 0.0000 19.3183 0.0000 0.0000
# 5 0.0000 0.0000 0.0000 0.0000 33.8700 0.0000
# 6 0.0000 0.0000 0.0000 0.0000 0.0000 36.8433
#
#
#
# Elastic Compliance Matrix: (Units=1/GPa)
#
#
# Indices 1 2 3 4 5 6 
#
# 1 0.009739 -0.001909 -0.001163 0.000000 0.000000 0.000000
# 2 -0.001909 0.009685 -0.006388 0.000000 0.000000 0.000000
# 3 -0.001163 -0.006388 0.016149 0.000000 0.000000 0.000000
# 4 0.000000 0.000000 0.000000 0.051764 0.000000 0.000000
# 5 0.000000 0.000000 0.000000 0.000000 0.029525 0.000000
# 6 0.000000 0.000000 0.000000 0.000000 0.000000 0.027142
#
#
# Mechanical properties :
#
#
# Convention : Reuss Voigt Hill
#
# Bulk Modulus (GPa) = 60.04769 66.57978 63.31373
# Shear Modulus (GPa) = 29.67798 33.35170 31.51484
#
# Velocity S-wave (km/s) = 3.65272 3.87220 3.76406
# Velocity P-wave (km/s) = 6.69220 7.06571 6.88149
#
# Compressibility (1/GPa) = 0.01665343
#
# Stress axis : x y z
#
# Youngs Moduli (GPa) = 102.67833 103.25463 61.92234
#
# Poissons Ratio (x) = 0.19713 0.07202
# Poissons Ratio (y) = 0.19603 0.39554
# Poissons Ratio (z) = 0.11942 0.65956
#
# Static dielectric constant tensor:
#      x y z
#    x 4.070080 0.000000 0.000000 
#    y 0.000000 4.192890 0.000000 
#    z 0.000000 0.000000 3.771610 
# 
# 
# High freq. dielectric constant tensor:
#      x y z
#    x 1.897850 0.000000 0.000000 
#    y 0.000000 1.889280 0.000000 
#    z 0.000000 0.000000 1.863140 
# 
# From -- ./inp_files/6510.got.cif
#   From: 2010.03.12/outbox.cif.g09.slc.cpg/sg54_4_cif.got.tgz:6510.got - 2010.04.16 15:00:50.
