data_PCOD8223577
_publ_section_title
;
Structure prediction by ZEFSAII (Michael W. Deem and Ramdas Pophale) SiO2 
 PCOD8223577
Probable space group: P C C A
;
_chemical_formula_sum "Si O2"
_cell_formula_units_Z 48
_cell_length_a 18.836871
_cell_length_b 5.320225
_cell_length_c 20.652217
_cell_angle_alpha 90.000000
_cell_angle_beta 90.000000
_cell_angle_gamma 90.000000
_cell_volume 2069.690675
_symmetry_space_group_name_H-M "P C C A"
_symmetry_group_IT_number 54
_symmetry_cell_setting 'orthorhombic'
loop_
_space_group_symop_operation_xyz
x,y,z
1/2-x,-y,z
1/2+x,-y,1/2-z
-x,y,1/2-z
-x,-y,-z
1/2+x,y,-z
1/2-x,y,1/2+z
x,-y,1/2+z
loop_
_atom_site_type_symbol
_atom_site_label
_atom_site_fract_x
_atom_site_fract_y
_atom_site_fract_z
Si Si1 0.500000 0.093356 0.750000
Si Si2 0.905269 0.548881 0.953149
Si Si3 0.920167 0.039900 0.020375
Si Si4 0.826383 0.380161 0.321938
Si Si5 0.121338 0.283196 0.786408
Si Si6 0.250000 0.000000 0.256366
Si Si7 0.538007 0.356216 0.627549
O O1 0.487658 0.265481 0.686433
O O2 0.430024 0.938114 0.764196
O O3 0.885177 0.272336 0.979528
O O4 0.859196 0.631909 0.892303
O O5 0.988701 0.540874 0.931128
O O6 0.885077 0.767606 0.005794
O O7 0.916902 0.121235 0.096674
O O8 0.000000 0.000000 0.000000
O O9 0.750000 0.500000 0.327826
O O10 0.878721 0.526039 0.273623
O O11 0.811903 0.110156 0.289738
O O12 0.202997 0.190880 0.800553
O O13 0.091746 0.425998 0.849762
#
# Coordination Sequence:
#
# PCOD8223577 Si02
#       7
#     4   8   8   8   8   4   8
#     4  12  24  36  66 100 134 168 212 286 332 406
#     4  11  23  41  65  98 130 172 220 280 332 395
#     4  10  24  39  64  94 132 172 217 266 339 396
#     4  10  23  40  65  95 123 169 224 282 331 393
#     4  11  23  38  63  97 134 171 224 276 343 402
#     4  10  22  42  64  94 130 176 222 280 342 402
#     4  11  23  38  59  98 133 172 212 271 337 402
#
# _framework density 23.191870999999999
#
# number of rings (size 3 to 8) (size 9 to 14) (size 15 to 20)
#    0.000    1.333    0.000    6.500   16.333    0.000 
#    0.000    0.000    0.000    6.000    0.000    0.000 
#    0.000    0.000    0.000    0.000    0.000    0.000 
#
# Total GULP energy -594819.604536 kJ/mol
# GULP energy per Si atom -12392.075094 kJ/mol
# Density = 2.313909 g / cm^3
# Si number density = 23.191871 Si / 1000 Ang^3
#
#
#
# Elastic Constant Matrix: (Units=GPa)
#
#
# Indices 1 2 3 4 5 6 
#
# 1 59.6722 24.0675 30.1252 0.0000 0.0000 0.0000
# 2 24.0675 123.6478 40.3317 0.0000 0.0000 0.0000
# 3 30.1252 40.3317 115.3334 0.0000 0.0000 0.0000
# 4 0.0000 0.0000 0.0000 34.7426 0.0000 0.0000
# 5 0.0000 0.0000 0.0000 0.0000 25.5406 0.0000
# 6 0.0000 0.0000 0.0000 0.0000 0.0000 18.3820
#
#
#
# Elastic Compliance Matrix: (Units=1/GPa)
#
#
# Indices 1 2 3 4 5 6 
#
# 1 0.019947 -0.002464 -0.004349 0.000000 0.000000 0.000000
# 2 -0.002464 0.009433 -0.002655 0.000000 0.000000 0.000000
# 3 -0.004349 -0.002655 0.010735 0.000000 0.000000 0.000000
# 4 0.000000 0.000000 0.000000 0.028783 0.000000 0.000000
# 5 0.000000 0.000000 0.000000 0.000000 0.039153 0.000000
# 6 0.000000 0.000000 0.000000 0.000000 0.000000 0.054401
#
#
# Mechanical properties :
#
#
# Convention : Reuss Voigt Hill
#
# Bulk Modulus (GPa) = 47.21505 54.18912 50.70208
# Shear Modulus (GPa) = 26.53243 29.34164 27.93703
#
# Velocity S-wave (km/s) = 3.38604 3.56078 3.47451
# Velocity P-wave (km/s) = 5.97408 6.34995 6.16488
#
# Compressibility (1/GPa) = 0.02117969
#
# Stress axis : x y z
#
# Youngs Moduli (GPa) = 50.13167 106.00871 93.15460
#
# Poissons Ratio (x) = 0.26123 0.40509
# Poissons Ratio (y) = 0.12354 0.24733
# Poissons Ratio (z) = 0.21800 0.28146
#
# Static dielectric constant tensor:
#      x y z
#    x 3.818600 0.000000 0.000000 
#    y 0.000000 4.373910 0.000000 
#    z 0.000000 0.000000 4.556840 
# 
# 
# High freq. dielectric constant tensor:
#      x y z
#    x 1.887960 0.000000 0.000000 
#    y 0.000000 1.935620 0.000000 
#    z 0.000000 0.000000 1.911610 
# 
# From -- ./inp_files/22117.got.cif
#   From: 2010.03.12/outbox.cif.g09.slc.cpg/sg54_12_cif.got.tgz:22117.got - 2010.04.16 15:00:50.
