data_PCOD8223846
_publ_section_title
;
Structure prediction by ZEFSAII (Michael W. Deem and Ramdas Pophale) SiO2 
 PCOD8223846
Probable space group: P C C A
;
_chemical_formula_sum "Si O2"
_cell_formula_units_Z 32
_cell_length_a 5.499913
_cell_length_b 12.931302
_cell_length_c 18.876719
_cell_angle_alpha 90.000000
_cell_angle_beta 90.000000
_cell_angle_gamma 90.000000
_cell_volume 1342.531811
_symmetry_space_group_name_H-M "P C C A"
_symmetry_group_IT_number 54
_symmetry_cell_setting 'orthorhombic'
loop_
_space_group_symop_operation_xyz
x,y,z
1/2-x,-y,z
1/2+x,-y,1/2-z
-x,y,1/2-z
-x,-y,-z
1/2+x,y,-z
1/2-x,y,1/2+z
x,-y,1/2+z
loop_
_atom_site_type_symbol
_atom_site_label
_atom_site_fract_x
_atom_site_fract_y
_atom_site_fract_z
Si Si1 0.382249 0.786421 0.534178
Si Si2 0.250000 0.000000 0.062800
Si Si3 0.250000 0.500000 0.293659
Si Si4 0.083855 0.901049 0.829336
Si Si5 0.085512 0.285625 0.830883
O O1 0.635958 0.743526 0.501680
O O2 0.367859 0.739808 0.614459
O O3 0.414861 0.914517 0.521273
O O4 0.127862 0.084837 0.114426
O O5 0.500000 0.521617 0.250000
O O6 0.302567 0.399787 0.341729
O O7 0.213921 0.797303 0.853193
O O8 0.000000 0.887792 0.750000
O O9 0.250000 0.000000 0.835527
O O10 0.000000 0.269626 0.750000
#
# Coordination Sequence:
#
# PCOD8223846 Si02
#       5
#     8   4   4   8   8
#     4  12  27  45  67 102 145 191 236 288 353 423
#     4  12  24  40  62  94 144 198 238 278 344 436
#     4  10  24  46  76 108 136 180 240 300 354 412
#     4  12  21  36  61 104 141 178 226 292 357 412
#     4  11  24  47  74 102 138 185 239 295 352 421
#
# _framework density 23.835561999999999
#
# number of rings (size 3 to 8) (size 9 to 14) (size 15 to 20)
#    0.000    0.500    3.750    5.250    0.000    6.000 
#    0.000    1.250    0.000    0.000    0.000    0.000 
#    0.000    0.000    0.000    0.000    0.000    0.000 
#
# Total GULP energy -396589.923329 kJ/mol
# GULP energy per Si atom -12393.435104 kJ/mol
# Density = 2.378131 g / cm^3
# Si number density = 23.835562 Si / 1000 Ang^3
#
#
#
# Elastic Constant Matrix: (Units=GPa)
#
#
# Indices 1 2 3 4 5 6 
#
# 1 130.0436 35.4677 35.7639 0.0000 0.0000 0.0000
# 2 35.4677 171.1909 13.0065 0.0000 0.0000 0.0000
# 3 35.7639 13.0065 108.1837 0.0000 0.0000 0.0000
# 4 0.0000 0.0000 0.0000 19.0914 0.0000 0.0000
# 5 0.0000 0.0000 0.0000 0.0000 31.8278 0.0000
# 6 0.0000 0.0000 0.0000 0.0000 0.0000 44.1658
#
#
#
# Elastic Compliance Matrix: (Units=1/GPa)
#
#
# Indices 1 2 3 4 5 6 
#
# 1 0.008889 -0.001633 -0.002742 0.000000 0.000000 0.000000
# 2 -0.001633 0.006195 -0.000205 0.000000 0.000000 0.000000
# 3 -0.002742 -0.000205 0.010175 0.000000 0.000000 0.000000
# 4 0.000000 0.000000 0.000000 0.052379 0.000000 0.000000
# 5 0.000000 0.000000 0.000000 0.000000 0.031419 0.000000
# 6 0.000000 0.000000 0.000000 0.000000 0.000000 0.022642
#
#
# Mechanical properties :
#
#
# Convention : Reuss Voigt Hill
#
# Bulk Modulus (GPa) = 62.11808 64.21052 63.16430
# Shear Modulus (GPa) = 34.19334 40.69568 37.44451
#
# Velocity S-wave (km/s) = 3.79166 4.13649 3.96782
# Velocity P-wave (km/s) = 6.72953 7.05773 6.89558
#
# Compressibility (1/GPa) = 0.01609837
#
# Stress axis : x y z
#
# Youngs Moduli (GPa) = 112.49369 161.41001 98.28264
#
# Poissons Ratio (x) = 0.26364 0.26952
# Poissons Ratio (y) = 0.18374 0.02014
# Poissons Ratio (z) = 0.30849 0.03307
#
# Static dielectric constant tensor:
#      x y z
#    x 4.151700 0.000000 0.000000 
#    y 0.000000 4.312340 0.000000 
#    z 0.000000 0.000000 4.236420 
# 
# 
# High freq. dielectric constant tensor:
#      x y z
#    x 1.960580 0.000000 0.000000 
#    y 0.000000 1.926910 0.000000 
#    z 0.000000 0.000000 1.953950 
# 
# From -- ./inp_files/19516.got.cif
#   From: 2010.03.12/outbox.cif.g09.slc.cpg/sg54_10_cif.got.tgz:19516.got - 2010.04.16 15:00:50.
