data_PCOD8223735
_publ_section_title
;
Structure prediction by ZEFSAII (Michael W. Deem and Ramdas Pophale) SiO2 
 PCOD8223735
Probable space group: P C C A
;
_chemical_formula_sum "Si O2"
_cell_formula_units_Z 56
_cell_length_a 15.220121
_cell_length_b 11.849429
_cell_length_c 14.284313
_cell_angle_alpha 90.000000
_cell_angle_beta 90.000000
_cell_angle_gamma 90.000000
_cell_volume 2576.172181
_symmetry_space_group_name_H-M "P C C A"
_symmetry_group_IT_number 54
_symmetry_cell_setting 'orthorhombic'
loop_
_space_group_symop_operation_xyz
x,y,z
1/2-x,-y,z
1/2+x,-y,1/2-z
-x,y,1/2-z
-x,-y,-z
1/2+x,y,-z
1/2-x,y,1/2+z
x,-y,1/2+z
loop_
_atom_site_type_symbol
_atom_site_label
_atom_site_fract_x
_atom_site_fract_y
_atom_site_fract_z
Si Si1 0.555994 0.147810 0.035878
Si Si2 0.445270 0.494858 0.406041
Si Si3 0.145833 0.290553 0.354147
Si Si4 0.748074 0.370911 0.315794
Si Si5 0.534483 0.072114 0.644359
Si Si6 0.304076 0.335589 0.479090
Si Si7 0.951038 0.297040 0.836576
O O1 0.471761 0.222834 0.070406
O O2 0.573854 0.045277 0.107141
O O3 0.541837 0.106928 0.929197
O O4 0.643033 0.221510 0.038319
O O5 0.500000 0.500000 0.500000
O O6 0.433147 0.617807 0.359260
O O7 0.349635 0.439225 0.424499
O O8 0.502189 0.418870 0.337004
O O9 0.199632 0.297005 0.258463
O O10 0.110138 0.164764 0.358521
O O11 0.206180 0.316064 0.443359
O O12 0.750000 0.500000 0.280523
O O13 0.800446 0.366957 0.412460
O O14 0.652186 0.314823 0.323541
O O15 0.500000 0.059179 0.750000
O O16 0.000000 0.233223 0.750000
#
# Coordination Sequence:
#
# PCOD8223735 Si02
#       7
#     8   8   8   8   8   8   8
#     4  10  23  44  66  88 119 166 218 264 315 382
#     4  11  22  38  60  87 125 171 211 254 317 393
#     4  12  24  39  60  94 131 161 207 266 322 382
#     4  12  23  37  62  99 135 168 207 263 334 401
#     4  11  24  43  66  91 121 162 214 268 320 380
#     4  11  22  40  62  89 127 165 208 262 324 384
#     4  11  22  39  62  88 123 170 212 252 312 391
#
# _framework density 21.737677000000001
#
# number of rings (size 3 to 8) (size 9 to 14) (size 15 to 20)
#    0.000    0.857    0.000   10.286    0.000    2.286 
#    0.000    0.000    0.000    6.857    0.000    0.000 
#    0.000    0.000    0.000    0.000    0.000    0.000 
#
# Total GULP energy -694553.691790 kJ/mol
# GULP energy per Si atom -12402.744496 kJ/mol
# Density = 2.168820 g / cm^3
# Si number density = 21.737677 Si / 1000 Ang^3
#
#
#
# Elastic Constant Matrix: (Units=GPa)
#
#
# Indices 1 2 3 4 5 6 
#
# 1 74.5955 39.9111 18.2987 0.0000 0.0000 0.0000
# 2 39.9111 126.4169 24.9154 0.0000 0.0000 0.0000
# 3 18.2987 24.9154 116.0705 0.0000 0.0000 0.0000
# 4 0.0000 0.0000 0.0000 28.7683 0.0000 0.0000
# 5 0.0000 0.0000 0.0000 0.0000 37.7662 0.0000
# 6 0.0000 0.0000 0.0000 0.0000 0.0000 25.0704
#
#
#
# Elastic Compliance Matrix: (Units=1/GPa)
#
#
# Indices 1 2 3 4 5 6 
#
# 1 0.016389 -0.004871 -0.001538 0.000000 0.000000 0.000000
# 2 -0.004871 0.009708 -0.001316 0.000000 0.000000 0.000000
# 3 -0.001538 -0.001316 0.009140 0.000000 0.000000 0.000000
# 4 0.000000 0.000000 0.000000 0.034761 0.000000 0.000000
# 5 0.000000 0.000000 0.000000 0.000000 0.026479 0.000000
# 6 0.000000 0.000000 0.000000 0.000000 0.000000 0.039888
#
#
# Mechanical properties :
#
#
# Convention : Reuss Voigt Hill
#
# Bulk Modulus (GPa) = 50.53851 53.70371 52.12111
# Shear Modulus (GPa) = 31.56369 33.91814 32.74092
#
# Velocity S-wave (km/s) = 3.81468 3.95440 3.88517
# Velocity P-wave (km/s) = 6.53469 6.75342 6.64495
#
# Compressibility (1/GPa) = 0.01978689
#
# Stress axis : x y z
#
# Youngs Moduli (GPa) = 61.01601 103.01289 109.40432
#
# Poissons Ratio (x) = 0.50178 0.16828
# Poissons Ratio (y) = 0.29721 0.14396
# Poissons Ratio (z) = 0.09385 0.13555
#
# Static dielectric constant tensor:
#      x y z
#    x 3.734560 0.000000 0.000000 
#    y 0.000000 4.149760 0.000000 
#    z 0.000000 0.000000 3.933910 
# 
# 
# High freq. dielectric constant tensor:
#      x y z
#    x 1.844820 0.000000 0.000000 
#    y 0.000000 1.853930 0.000000 
#    z 0.000000 0.000000 1.875840 
# 
# From -- ./inp_files/13477.got.cif
#   From: 2010.03.12/outbox.cif.g09.slc.cpg/sg54_7_cif.got.tgz:13477.got - 2010.04.16 15:00:50.
