data_PCOD8223931
_publ_section_title
;
Structure prediction by ZEFSAII (Michael W. Deem and Ramdas Pophale) SiO2 
 PCOD8223931
Probable space group: P C C A
;
_chemical_formula_sum "Si O2"
_cell_formula_units_Z 64
_cell_length_a 16.342801
_cell_length_b 10.225811
_cell_length_c 18.867645
_cell_angle_alpha 90.000000
_cell_angle_beta 90.000000
_cell_angle_gamma 90.000000
_cell_volume 3153.130535
_symmetry_space_group_name_H-M "P C C A"
_symmetry_group_IT_number 54
_symmetry_cell_setting 'orthorhombic'
loop_
_space_group_symop_operation_xyz
x,y,z
1/2-x,-y,z
1/2+x,-y,1/2-z
-x,y,1/2-z
-x,-y,-z
1/2+x,y,-z
1/2-x,y,1/2+z
x,-y,1/2+z
loop_
_atom_site_type_symbol
_atom_site_label
_atom_site_fract_x
_atom_site_fract_y
_atom_site_fract_z
Si Si1 0.481199 0.464650 0.176875
Si Si2 0.217890 0.863174 0.307126
Si Si3 0.216319 0.140602 0.458255
Si Si4 0.034633 0.815355 0.327186
Si Si5 0.717912 0.635968 0.453250
Si Si6 0.037892 0.133879 0.524399
Si Si7 0.468518 0.384203 0.547234
Si Si8 0.296697 0.370265 0.194367
O O1 0.500000 0.536194 0.250000
O O2 0.543061 0.341795 0.167221
O O3 0.505637 0.580597 0.123664
O O4 0.390822 0.401593 0.178031
O O5 0.280307 0.837939 0.373148
O O6 0.124901 0.878343 0.337313
O O7 0.218166 0.746050 0.250477
O O8 0.250000 0.000000 0.272131
O O9 0.275096 0.250712 0.489554
O O10 0.128981 0.154653 0.495925
O O11 0.250000 0.000000 0.479576
O O12 0.000000 0.858405 0.250000
O O13 0.972714 0.860817 0.390159
O O14 0.750000 0.500000 0.485675
O O15 0.625603 0.606822 0.436153
O O16 0.761046 0.677626 0.380339
O O17 0.987327 0.246122 0.485896
O O18 0.000000 0.000000 0.500000
O O19 0.500000 0.500000 0.500000
O O20 0.250000 0.500000 0.221945
#
# Coordination Sequence:
#
# PCOD8223931 Si02
#       8
#     8   8   8   8   8   8   8   8
#     4  11  21  40  69  99 128 181 233 280 347 425
#     4  11  24  44  67  99 135 178 230 286 339 425
#     4  11  25  44  66  95 136 179 231 279 344 422
#     4  11  22  44  74  97 131 188 241 273 347 443
#     4  11  22  40  65  97 132 168 222 285 335 403
#     4  12  25  45  68 100 141 182 232 294 359 413
#     4  12  23  40  68  99 131 173 230 286 336 416
#     4  11  22  42  67  97 139 172 223 287 343 412
#
# _framework density 20.297288000000002
#
# number of rings (size 3 to 8) (size 9 to 14) (size 15 to 20)
#    0.000    0.750    6.250    4.500    0.000    2.000 
#    2.250    0.625    0.000    0.000    0.000    0.000 
#    0.000    0.000    0.000    0.000    0.000    0.000 
#
# Total GULP energy -793094.673466 kJ/mol
# GULP energy per Si atom -12392.104273 kJ/mol
# Density = 2.025109 g / cm^3
# Si number density = 20.297288 Si / 1000 Ang^3
#
#
#
# Elastic Constant Matrix: (Units=GPa)
#
#
# Indices 1 2 3 4 5 6 
#
# 1 71.4928 9.3747 18.5730 0.0000 0.0000 0.0000
# 2 9.3747 129.9611 60.0799 0.0000 0.0000 0.0000
# 3 18.5730 60.0799 139.8353 0.0000 0.0000 0.0000
# 4 0.0000 0.0000 0.0000 42.5435 0.0000 0.0000
# 5 0.0000 0.0000 0.0000 0.0000 35.8198 0.0000
# 6 0.0000 0.0000 0.0000 0.0000 0.0000 32.6434
#
#
#
# Elastic Compliance Matrix: (Units=1/GPa)
#
#
# Indices 1 2 3 4 5 6 
#
# 1 0.014491 -0.000194 -0.001841 0.000000 0.000000 0.000000
# 2 -0.000194 0.009604 -0.004101 0.000000 0.000000 0.000000
# 3 -0.001841 -0.004101 0.009158 0.000000 0.000000 0.000000
# 4 0.000000 0.000000 0.000000 0.023505 0.000000 0.000000
# 5 0.000000 0.000000 0.000000 0.000000 0.027918 0.000000
# 6 0.000000 0.000000 0.000000 0.000000 0.000000 0.030634
#
#
# Mechanical properties :
#
#
# Convention : Reuss Voigt Hill
#
# Bulk Modulus (GPa) = 47.66217 57.48271 52.57244
# Shear Modulus (GPa) = 37.15371 39.08546 38.11958
#
# Velocity S-wave (km/s) = 4.28305 4.39298 4.33836
# Velocity P-wave (km/s) = 6.92765 7.35615 7.14511
#
# Compressibility (1/GPa) = 0.02098100
#
# Stress axis : x y z
#
# Youngs Moduli (GPa) = 69.00728 104.11973 109.19774
#
# Poissons Ratio (x) = 0.02021 0.20107
# Poissons Ratio (y) = 0.01339 0.44779
# Poissons Ratio (z) = 0.12707 0.42696
#
# Static dielectric constant tensor:
#      x y z
#    x 3.799600 0.000000 0.000000 
#    y 0.000000 3.489870 0.000000 
#    z 0.000000 0.000000 3.952980 
# 
# 
# High freq. dielectric constant tensor:
#      x y z
#    x 1.798960 0.000000 0.000000 
#    y 0.000000 1.791020 0.000000 
#    z 0.000000 0.000000 1.803650 
# 
# From -- ./inp_files/18246.got.cif
#   From: 2010.03.12/outbox.cif.g09.slc.cpg/sg54_10_cif.got.tgz:18246.got - 2010.04.16 15:00:50.
