data_PCOD8223859
_publ_section_title
;
Structure prediction by ZEFSAII (Michael W. Deem and Ramdas Pophale) SiO2 
 PCOD8223859
Probable space group: P C C A
;
_chemical_formula_sum "Si O2"
_cell_formula_units_Z 44
_cell_length_a 15.661058
_cell_length_b 13.066631
_cell_length_c 9.359030
_cell_angle_alpha 90.000000
_cell_angle_beta 90.000000
_cell_angle_gamma 90.000000
_cell_volume 1915.206311
_symmetry_space_group_name_H-M "P C C A"
_symmetry_group_IT_number 54
_symmetry_cell_setting 'orthorhombic'
loop_
_space_group_symop_operation_xyz
x,y,z
1/2-x,-y,z
1/2+x,-y,1/2-z
-x,y,1/2-z
-x,-y,-z
1/2+x,y,-z
1/2-x,y,1/2+z
x,-y,1/2+z
loop_
_atom_site_type_symbol
_atom_site_label
_atom_site_fract_x
_atom_site_fract_y
_atom_site_fract_z
Si Si1 0.903920 0.133608 0.224778
Si Si2 0.327056 0.068101 0.261943
Si Si3 0.130512 0.242799 0.554447
Si Si4 0.187044 0.780569 0.506281
Si Si5 0.000000 0.533643 0.750000
Si Si6 0.039331 0.632032 0.462207
O O1 0.876559 0.214098 0.108593
O O2 0.849086 0.154244 0.364791
O O3 0.000000 0.162079 0.250000
O O4 0.895743 0.014135 0.179137
O O5 0.285695 0.136124 0.387547
O O6 0.250000 0.000000 0.194157
O O7 0.376533 0.140977 0.150575
O O8 0.229450 0.283567 0.562312
O O9 0.054646 0.324438 0.585477
O O10 0.114961 0.711005 0.431816
O O11 0.048938 0.603374 0.631860
O O12 0.058444 0.463384 0.855837
#
# Coordination Sequence:
#
# PCOD8223859 Si02
#       6
#     8   8   8   8   4   8
#     4  12  25  40  62  96 141 192 236 277 321 390
#     4  12  25  39  60  98 145 187 238 272 323 380
#     4  12  24  43  67  99 140 186 226 281 333 409
#     4  12  24  43  67  99 140 186 226 281 333 409
#     4  10  24  48  74  96 132 164 222 304 356 428
#     4  11  24  46  71 100 130 174 225 286 366 405
#
# _framework density 22.974025999999999
#
# number of rings (size 3 to 8) (size 9 to 14) (size 15 to 20)
#    0.000    0.364    5.455    3.273    2.545    1.455 
#    0.000    5.455    0.000    0.000    0.000    0.000 
#    0.000    0.000    0.000    0.000    0.000    0.000 
#
# Total GULP energy -545084.580803 kJ/mol
# GULP energy per Si atom -12388.285927 kJ/mol
# Density = 2.292174 g / cm^3
# Si number density = 22.974026 Si / 1000 Ang^3
#
#
#
# Elastic Constant Matrix: (Units=GPa)
#
#
# Indices 1 2 3 4 5 6 
#
# 1 145.0581 36.0829 5.2574 0.0000 0.0000 0.0000
# 2 36.0829 75.7253 6.0676 0.0000 0.0000 0.0000
# 3 5.2574 6.0676 57.4666 0.0000 0.0000 0.0000
# 4 0.0000 0.0000 0.0000 48.0774 0.0000 0.0000
# 5 0.0000 0.0000 0.0000 0.0000 26.6449 0.0000
# 6 0.0000 0.0000 0.0000 0.0000 0.0000 11.8471
#
#
#
# Elastic Compliance Matrix: (Units=1/GPa)
#
#
# Indices 1 2 3 4 5 6 
#
# 1 0.007827 -0.003703 -0.000325 0.000000 0.000000 0.000000
# 2 -0.003703 0.015071 -0.001252 0.000000 0.000000 0.000000
# 3 -0.000325 -0.001252 0.017563 0.000000 0.000000 0.000000
# 4 0.000000 0.000000 0.000000 0.020800 0.000000 0.000000
# 5 0.000000 0.000000 0.000000 0.000000 0.037531 0.000000
# 6 0.000000 0.000000 0.000000 0.000000 0.000000 0.084409
#
#
# Mechanical properties :
#
#
# Convention : Reuss Voigt Hill
#
# Bulk Modulus (GPa) = 33.44580 41.45175 37.44878
# Shear Modulus (GPa) = 24.54253 32.70337 28.62295
#
# Velocity S-wave (km/s) = 3.27199 3.77701 3.53354
# Velocity P-wave (km/s) = 5.37255 6.09124 5.74314
#
# Compressibility (1/GPa) = 0.02989912
#
# Stress axis : x y z
#
# Youngs Moduli (GPa) = 127.76649 66.35417 56.93666
#
# Poissons Ratio (x) = 0.24574 0.01851
# Poissons Ratio (y) = 0.47317 0.07131
# Poissons Ratio (z) = 0.04153 0.08310
#
# Static dielectric constant tensor:
#      x y z
#    x 4.388520 0.000000 0.000000 
#    y 0.000000 4.222660 0.000000 
#    z 0.000000 0.000000 4.248670 
# 
# 
# High freq. dielectric constant tensor:
#      x y z
#    x 1.899270 0.000000 0.000000 
#    y 0.000000 1.897350 0.000000 
#    z 0.000000 0.000000 1.923380 
# 
# From -- ./inp_files/4133.got.cif
#   From: 2010.03.12/outbox.cif.g09.slc.cpg/sg54_3_cif.got.tgz:4133.got - 2010.04.16 15:00:50.
