data_PCOD8223493
_publ_section_title
;
Structure prediction by ZEFSAII (Michael W. Deem and Ramdas Pophale) SiO2 
 PCOD8223493
Probable space group: P C C A
;
_chemical_formula_sum "Si O2"
_cell_formula_units_Z 40
_cell_length_a 8.457408
_cell_length_b 12.798535
_cell_length_c 14.951090
_cell_angle_alpha 90.000000
_cell_angle_beta 90.000000
_cell_angle_gamma 90.000000
_cell_volume 1618.342347
_symmetry_space_group_name_H-M "P C C A"
_symmetry_group_IT_number 54
_symmetry_cell_setting 'orthorhombic'
loop_
_space_group_symop_operation_xyz
x,y,z
1/2-x,-y,z
1/2+x,-y,1/2-z
-x,y,1/2-z
-x,-y,-z
1/2+x,y,-z
1/2-x,y,1/2+z
x,-y,1/2+z
loop_
_atom_site_type_symbol
_atom_site_label
_atom_site_fract_x
_atom_site_fract_y
_atom_site_fract_z
Si Si1 0.000000 0.409307 0.750000
Si Si2 0.587640 0.237060 0.374057
Si Si3 0.000000 0.056370 0.750000
Si Si4 0.250000 0.000000 0.046307
Si Si5 0.750000 0.500000 0.624915
Si Si6 0.762000 0.275357 0.055274
Si Si7 0.448443 0.905142 0.391959
O O1 0.884633 0.333350 0.806620
O O2 0.097930 0.483327 0.814136
O O3 0.603522 0.127822 0.318778
O O4 0.412610 0.239752 0.417087
O O5 0.717399 0.247105 0.451119
O O6 0.889117 0.980250 0.688906
O O7 0.139075 0.079076 0.104000
O O8 0.368015 0.068495 0.986933
O O9 0.714375 0.399471 0.564173
O O10 0.889374 0.214957 0.120290
#
# Coordination Sequence:
#
# PCOD8223493 Si02
#       7
#     4   8   4   4   4   8   8
#     4   9  22  43  64  94 134 169 218 293 356 408
#     4  10  23  43  65  93 132 175 225 280 341 413
#     4  11  24  39  62  94 132 171 214 279 336 390
#     4  10  22  40  62  88 124 172 218 266 324 408
#     4  10  24  42  68 102 134 176 232 292 354 410
#     4  11  23  42  67  96 131 179 233 281 341 422
#     4  11  22  39  62  90 127 169 217 268 331 401
#
# _framework density 24.716647999999999
#
# number of rings (size 3 to 8) (size 9 to 14) (size 15 to 20)
#    0.000    1.600    0.000    4.800    0.000    8.800 
#    0.000    6.000    0.000    0.000    0.000    0.000 
#    0.000    0.000    0.000    0.000    0.000    0.000 
#
# Total GULP energy -495755.580520 kJ/mol
# GULP energy per Si atom -12393.889513 kJ/mol
# Density = 2.466039 g / cm^3
# Si number density = 24.716648 Si / 1000 Ang^3
#
#
#
# Elastic Constant Matrix: (Units=GPa)
#
#
# Indices 1 2 3 4 5 6 
#
# 1 84.1586 32.9926 16.2777 0.0000 0.0000 0.0000
# 2 32.9926 182.6870 54.5346 0.0000 0.0000 0.0000
# 3 16.2777 54.5346 130.3046 0.0000 0.0000 0.0000
# 4 0.0000 0.0000 0.0000 3.6210 0.0000 0.0000
# 5 0.0000 0.0000 0.0000 0.0000 19.2697 0.0000
# 6 0.0000 0.0000 0.0000 0.0000 0.0000 29.7578
#
#
#
# Elastic Compliance Matrix: (Units=1/GPa)
#
#
# Indices 1 2 3 4 5 6 
#
# 1 0.012847 -0.002104 -0.000724 0.000000 0.000000 0.000000
# 2 -0.002104 0.006600 -0.002499 0.000000 0.000000 0.000000
# 3 -0.000724 -0.002499 0.008811 0.000000 0.000000 0.000000
# 4 0.000000 0.000000 0.000000 0.276169 0.000000 0.000000
# 5 0.000000 0.000000 0.000000 0.000000 0.051895 0.000000
# 6 0.000000 0.000000 0.000000 0.000000 0.000000 0.033605
#
#
# Mechanical properties :
#
#
# Convention : Reuss Voigt Hill
#
# Bulk Modulus (GPa) = 56.80946 67.19556 62.00251
# Shear Modulus (GPa) = 12.30165 30.08604 21.19385
#
# Velocity S-wave (km/s) = 2.23336 3.49268 2.93144
# Velocity P-wave (km/s) = 5.44837 6.59625 6.04959
#
# Compressibility (1/GPa) = 0.01760270
#
# Stress axis : x y z
#
# Youngs Moduli (GPa) = 77.83782 151.51763 113.49668
#
# Poissons Ratio (x) = 0.31878 0.08221
# Poissons Ratio (y) = 0.16377 0.28367
# Poissons Ratio (z) = 0.05638 0.37869
#
# Static dielectric constant tensor:
#      x y z
#    x 4.296490 0.000000 0.000000 
#    y 0.000000 4.791720 0.000000 
#    z 0.000000 0.000000 4.706360 
# 
# 
# High freq. dielectric constant tensor:
#      x y z
#    x 1.967980 0.000000 0.000000 
#    y 0.000000 1.993950 0.000000 
#    z 0.000000 0.000000 1.988710 
# 
# From -- ./inp_files/16499.got.cif
#   From: 2010.03.12/outbox.cif.g09.slc.cpg/sg54_9_cif.got.tgz:16499.got - 2010.04.16 15:00:50.
