data_PCOD8223140
_publ_section_title
;
Structure prediction by ZEFSAII (Michael W. Deem and Ramdas Pophale) SiO2 
 PCOD8223140
Probable space group: P C C A
;
_chemical_formula_sum "Si O2"
_cell_formula_units_Z 32
_cell_length_a 33.849959
_cell_length_b 8.735416
_cell_length_c 5.235042
_cell_angle_alpha 90.000000
_cell_angle_beta 90.000000
_cell_angle_gamma 90.000000
_cell_volume 1547.967753
_symmetry_space_group_name_H-M "P C C A"
_symmetry_group_IT_number 54
_symmetry_cell_setting 'orthorhombic'
loop_
_space_group_symop_operation_xyz
x,y,z
1/2-x,-y,z
1/2+x,-y,1/2-z
-x,y,1/2-z
-x,-y,-z
1/2+x,y,-z
1/2-x,y,1/2+z
x,-y,1/2+z
loop_
_atom_site_type_symbol
_atom_site_label
_atom_site_fract_x
_atom_site_fract_y
_atom_site_fract_z
Si Si1 0.454061 0.905383 0.757865
Si Si2 0.706192 0.933945 0.774304
Si Si3 0.592491 0.406594 0.248051
Si Si4 0.814792 0.592896 0.252321
O O1 0.500000 0.862001 0.750000
O O2 0.429563 0.752192 0.725848
O O3 0.442700 0.017168 0.525744
O O4 0.708391 0.752090 0.752011
O O5 0.750000 0.000000 0.806491
O O6 0.683716 0.010647 0.532293
O O7 0.579866 0.512699 0.485107
O O8 0.638868 0.372167 0.254213
O O9 0.801749 0.498947 0.501319
#
# Coordination Sequence:
#
# PCOD8223140 Si02
#       4
#     8   8   8   8
#     4  10  21  36  54  80 113 147 183 223 270 321
#     4  10  21  38  56  81 110 138 178 222 266 325
#     4  10  21  36  56  82 109 142 185 226 270 321
#     4  10  21  38  58  81 110 143 180 225 273 321
#
# _framework density 20.672264999999999
#
# number of rings (size 3 to 8) (size 9 to 14) (size 15 to 20)
#    0.000    2.000    0.000    3.000    0.000    3.000 
#    0.000   15.000    0.000    0.000    0.000    0.000 
#    0.000    0.000    0.000    0.000    0.000    0.000 
#
# Total GULP energy -396867.667856 kJ/mol
# GULP energy per Si atom -12402.114621 kJ/mol
# Density = 2.062521 g / cm^3
# Si number density = 20.672265 Si / 1000 Ang^3
#
#
#
# Elastic Constant Matrix: (Units=GPa)
#
#
# Indices 1 2 3 4 5 6 
#
# 1 32.7494 36.3319 5.8501 0.0000 0.0000 0.0000
# 2 36.3319 138.3861 26.6425 0.0000 0.0000 0.0000
# 3 5.8501 26.6425 151.8706 0.0000 0.0000 0.0000
# 4 0.0000 0.0000 0.0000 39.4634 0.0000 0.0000
# 5 0.0000 0.0000 0.0000 0.0000 -1.4904 0.0000
# 6 0.0000 0.0000 0.0000 0.0000 0.0000 -3.2215
#
#
#
# Elastic Compliance Matrix: (Units=1/GPa)
#
#
# Indices 1 2 3 4 5 6 
#
# 1 0.043100 -0.011380 0.000336 0.000000 0.000000 0.000000
# 2 -0.011380 0.010484 -0.001401 0.000000 0.000000 0.000000
# 3 0.000336 -0.001401 0.006817 0.000000 0.000000 0.000000
# 4 0.000000 0.000000 0.000000 0.025340 0.000000 0.000000
# 5 0.000000 0.000000 0.000000 0.000000 -0.670963 0.000000
# 6 0.000000 0.000000 0.000000 0.000000 0.000000 -0.310410
#
#
# Mechanical properties :
#
#
# Convention : Reuss Voigt Hill
#
# Bulk Modulus (GPa) = 28.15995 51.18389 39.67192
# Shear Modulus (GPa) = -5.82136 23.89573 9.03718
#
# Velocity S-wave (km/s) = -1.67992 3.40359 2.09312
# Velocity P-wave (km/s) = 3.14465 6.34502 5.00740
#
# Compressibility (1/GPa) = 0.03551143
#
# Stress axis : x y z
#
# Youngs Moduli (GPa) = 23.20182 95.38695 146.68482
#
# Poissons Ratio (x) = 1.08553 -0.04932
# Poissons Ratio (y) = 0.26404 0.20547
# Poissons Ratio (z) = -0.00780 0.13361
#
# Static dielectric constant tensor:
#      x y z
#    x 3.468860 0.000000 0.000000 
#    y 0.000000 3.628290 0.000000 
#    z 0.000000 0.000000 5.804810 
# 
# 
# High freq. dielectric constant tensor:
#      x y z
#    x 1.780820 0.000000 0.000000 
#    y 0.000000 1.817930 0.000000 
#    z 0.000000 0.000000 1.842740 
# 
# From -- ./inp_files/2065.got.cif
#   From: 2010.03.12/outbox.cif.g09.slc.cpg/sg54_2_cif.got.tgz:2065.got - 2010.04.16 15:00:50.
