data_PCOD8223651
_publ_section_title
;
Structure prediction by ZEFSAII (Michael W. Deem and Ramdas Pophale) SiO2 
 PCOD8223651
Probable space group: P C C A
;
_chemical_formula_sum "Si O2"
_cell_formula_units_Z 60
_cell_length_a 25.447138
_cell_length_b 9.295408
_cell_length_c 11.396811
_cell_angle_alpha 90.000000
_cell_angle_beta 90.000000
_cell_angle_gamma 90.000000
_cell_volume 2695.819113
_symmetry_space_group_name_H-M "P C C A"
_symmetry_group_IT_number 54
_symmetry_cell_setting 'orthorhombic'
loop_
_space_group_symop_operation_xyz
x,y,z
1/2-x,-y,z
1/2+x,-y,1/2-z
-x,y,1/2-z
-x,-y,-z
1/2+x,y,-z
1/2-x,y,1/2+z
x,-y,1/2+z
loop_
_atom_site_type_symbol
_atom_site_label
_atom_site_fract_x
_atom_site_fract_y
_atom_site_fract_z
Si Si1 0.554425 0.057205 0.049002
Si Si2 0.399937 0.332385 0.559123
Si Si3 0.275260 0.149520 0.196659
Si Si4 0.500000 0.818188 0.750000
Si Si5 0.852563 0.832231 0.512623
Si Si6 0.423602 0.628569 0.629601
Si Si7 0.319648 0.319537 0.756779
Si Si8 0.842858 0.370784 0.673384
O O1 0.545566 0.086262 0.188477
O O2 0.604923 0.957062 0.034297
O O3 0.563662 0.202060 0.977093
O O4 0.500000 0.000000 0.000000
O O5 0.437375 0.471277 0.579251
O O6 0.372334 0.299960 0.682446
O O7 0.354659 0.365970 0.464238
O O8 0.228994 0.266011 0.177171
O O9 0.313113 0.222189 0.294028
O O10 0.250000 0.000000 0.242582
O O11 0.307258 0.116804 0.077286
O O12 0.476096 0.722494 0.644221
O O13 0.882413 0.695122 0.461245
O O14 0.824164 0.785391 0.631490
O O15 0.398086 0.621117 0.758650
O O16 0.309848 0.485410 0.795042
#
# Coordination Sequence:
#
# PCOD8223651 Si02
#       8
#     8   8   8   4   8   8   8   8
#     4  12  27  45  71 103 146 194 234 300 368 439
#     4  11  24  45  73 102 140 186 241 301 365 424
#     4  11  26  44  71 104 138 184 238 291 362 437
#     4  12  24  44  72 100 144 192 246 288 378 428
#     4  11  25  46  70 105 150 182 241 305 359 435
#     4  10  22  46  70 100 138 185 240 304 355 423
#     4  11  25  44  72 103 138 191 237 293 361 435
#     4  10  22  45  69 101 140 182 233 301 361 420
#
# _framework density 22.256684
#
# number of rings (size 3 to 8) (size 9 to 14) (size 15 to 20)
#    0.000    1.067    4.000    1.200    5.600    1.067 
#    4.800    0.000    0.000    0.000    0.000    0.000 
#    0.000    0.000    0.000    0.000    0.000    0.000 
#
# Total GULP energy -743977.257058 kJ/mol
# GULP energy per Si atom -12399.620951 kJ/mol
# Density = 2.220603 g / cm^3
# Si number density = 22.256684 Si / 1000 Ang^3
#
#
#
# Elastic Constant Matrix: (Units=GPa)
#
#
# Indices 1 2 3 4 5 6 
#
# 1 100.7640 57.3393 36.0870 0.0000 0.0000 0.0000
# 2 57.3393 142.2194 45.8578 0.0000 0.0000 0.0000
# 3 36.0870 45.8578 100.8291 0.0000 0.0000 0.0000
# 4 0.0000 0.0000 0.0000 30.2902 0.0000 0.0000
# 5 0.0000 0.0000 0.0000 0.0000 33.4732 0.0000
# 6 0.0000 0.0000 0.0000 0.0000 0.0000 47.6590
#
#
#
# Elastic Compliance Matrix: (Units=1/GPa)
#
#
# Indices 1 2 3 4 5 6 
#
# 1 0.013505 -0.004554 -0.002762 0.000000 0.000000 0.000000
# 2 -0.004554 0.009776 -0.002816 0.000000 0.000000 0.000000
# 3 -0.002762 -0.002816 0.012187 0.000000 0.000000 0.000000
# 4 0.000000 0.000000 0.000000 0.033014 0.000000 0.000000
# 5 0.000000 0.000000 0.000000 0.000000 0.029875 0.000000
# 6 0.000000 0.000000 0.000000 0.000000 0.000000 0.020982
#
#
# Mechanical properties :
#
#
# Convention : Reuss Voigt Hill
#
# Bulk Modulus (GPa) = 65.77739 69.15342 67.46540
# Shear Modulus (GPa) = 34.56118 35.91972 35.24045
#
# Velocity S-wave (km/s) = 3.94489 4.02168 3.98347
# Velocity P-wave (km/s) = 7.09702 7.25972 7.17883
#
# Compressibility (1/GPa) = 0.01520279
#
# Stress axis : x y z
#
# Youngs Moduli (GPa) = 74.04691 102.29610 82.05397
#
# Poissons Ratio (x) = 0.46588 0.22665
# Poissons Ratio (y) = 0.33723 0.23107
# Poissons Ratio (z) = 0.20453 0.28807
#
# Static dielectric constant tensor:
#      x y z
#    x 3.855570 0.000000 0.000000 
#    y 0.000000 4.188410 0.000000 
#    z 0.000000 0.000000 3.964030 
# 
# 
# High freq. dielectric constant tensor:
#      x y z
#    x 1.871630 0.000000 0.000000 
#    y 0.000000 1.888710 0.000000 
#    z 0.000000 0.000000 1.873870 
# 
# From -- ./inp_files/10356.got.cif
#   From: 2010.03.12/outbox.cif.g09.slc.cpg/sg54_6_cif.got.tgz:10356.got - 2010.04.16 15:00:50.
