data_PCOD8223363
_publ_section_title
;
Structure prediction by ZEFSAII (Michael W. Deem and Ramdas Pophale) SiO2 
 PCOD8223363
Probable space group: P C C A
;
_chemical_formula_sum "Si O2"
_cell_formula_units_Z 40
_cell_length_a 29.622607
_cell_length_b 6.417080
_cell_length_c 9.866126
_cell_angle_alpha 90.000000
_cell_angle_beta 90.000000
_cell_angle_gamma 90.000000
_cell_volume 1875.458195
_symmetry_space_group_name_H-M "P C C A"
_symmetry_group_IT_number 54
_symmetry_cell_setting 'orthorhombic'
loop_
_space_group_symop_operation_xyz
x,y,z
1/2-x,-y,z
1/2+x,-y,1/2-z
-x,y,1/2-z
-x,-y,-z
1/2+x,y,-z
1/2-x,y,1/2+z
x,-y,1/2+z
loop_
_atom_site_type_symbol
_atom_site_label
_atom_site_fract_x
_atom_site_fract_y
_atom_site_fract_z
Si Si1 0.325403 0.696687 0.305550
Si Si2 0.925027 0.285128 0.194202
Si Si3 0.459050 0.602056 0.577316
Si Si4 0.000000 0.956453 0.250000
Si Si5 0.750000 0.000000 0.288063
Si Si6 0.205754 0.381400 0.584693
O O1 0.374456 0.790748 0.265736
O O2 0.328650 0.617261 0.459686
O O3 0.316424 0.497522 0.211547
O O4 0.284710 0.863170 0.300518
O O5 0.941212 0.462500 0.298849
O O6 0.921382 0.369529 0.039405
O O7 0.959809 0.095434 0.189918
O O8 0.500000 0.500000 0.500000
O O9 0.477056 0.821167 0.632893
O O10 0.781679 0.854851 0.378785
O O11 0.250000 0.500000 0.533640
#
# Coordination Sequence:
#
# PCOD8223363 Si02
#       6
#     8   8   8   4   4   8
#     4  11  24  42  65  99 131 169 220 271 328 395
#     4  12  26  41  69 100 130 178 223 271 335 404
#     4  12  23  47  66  93 136 172 219 276 336 389
#     4  12  24  44  70  94 130 176 222 274 330 402
#     4  10  22  42  66  96 130 174 216 274 328 388
#     4  10  21  42  67  91 130 173 214 270 331 387
#
# _framework density 21.328119999999998
#
# number of rings (size 3 to 8) (size 9 to 14) (size 15 to 20)
#    0.000    0.800    4.000    4.200    0.000    4.800 
#    0.000    0.000    0.000    0.000    0.000    0.000 
#    0.000    0.000    0.000    0.000    0.000    0.000 
#
# Total GULP energy -495894.484979 kJ/mol
# GULP energy per Si atom -12397.362124 kJ/mol
# Density = 2.127958 g / cm^3
# Si number density = 21.328120 Si / 1000 Ang^3
#
#
#
# Elastic Constant Matrix: (Units=GPa)
#
#
# Indices 1 2 3 4 5 6 
#
# 1 139.3936 42.8692 48.2922 0.0000 0.0000 0.0000
# 2 42.8692 111.6938 62.8511 0.0000 0.0000 0.0000
# 3 48.2922 62.8511 157.8239 0.0000 0.0000 0.0000
# 4 0.0000 0.0000 0.0000 24.1588 0.0000 0.0000
# 5 0.0000 0.0000 0.0000 0.0000 14.7080 0.0000
# 6 0.0000 0.0000 0.0000 0.0000 0.0000 19.8257
#
#
#
# Elastic Compliance Matrix: (Units=1/GPa)
#
#
# Indices 1 2 3 4 5 6 
#
# 1 0.008462 -0.002308 -0.001670 0.000000 0.000000 0.000000
# 2 -0.002308 0.012168 -0.004140 0.000000 0.000000 0.000000
# 3 -0.001670 -0.004140 0.008496 0.000000 0.000000 0.000000
# 4 0.000000 0.000000 0.000000 0.041393 0.000000 0.000000
# 5 0.000000 0.000000 0.000000 0.000000 0.067990 0.000000
# 6 0.000000 0.000000 0.000000 0.000000 0.000000 0.050439
#
#
# Mechanical properties :
#
#
# Convention : Reuss Voigt Hill
#
# Bulk Modulus (GPa) = 77.57570 79.65960 78.61765
# Shear Modulus (GPa) = 23.86844 28.73177 26.30011
#
# Velocity S-wave (km/s) = 3.34893 3.67431 3.51539
# Velocity P-wave (km/s) = 7.16975 7.44523 7.30878
#
# Compressibility (1/GPa) = 0.01289063
#
# Stress axis : x y z
#
# Youngs Moduli (GPa) = 118.16970 82.18069 117.70547
#
# Poissons Ratio (x) = 0.18968 0.19659
# Poissons Ratio (y) = 0.27275 0.48725
# Poissons Ratio (z) = 0.19737 0.34020
#
# Static dielectric constant tensor:
#      x y z
#    x 4.315910 0.000000 0.000000 
#    y 0.000000 6.337600 0.000000 
#    z 0.000000 0.000000 3.484400 
# 
# 
# High freq. dielectric constant tensor:
#      x y z
#    x 1.841870 0.000000 0.000000 
#    y 0.000000 1.831800 0.000000 
#    z 0.000000 0.000000 1.850640 
# 
# From -- ./inp_files/10188.got.cif
#   From: 2010.03.12/outbox.cif.g09.slc.cpg/sg54_6_cif.got.tgz:10188.got - 2010.04.16 15:00:50.
