data_PCOD8223378
_publ_section_title
;
Structure prediction by ZEFSAII (Michael W. Deem and Ramdas Pophale) SiO2 
 PCOD8223378
Probable space group: P C C A
;
_chemical_formula_sum "Si O2"
_cell_formula_units_Z 60
_cell_length_a 18.552014
_cell_length_b 6.386018
_cell_length_c 23.323418
_cell_angle_alpha 90.000000
_cell_angle_beta 90.000000
_cell_angle_gamma 90.000000
_cell_volume 2763.206854
_symmetry_space_group_name_H-M "P C C A"
_symmetry_group_IT_number 54
_symmetry_cell_setting 'orthorhombic'
loop_
_space_group_symop_operation_xyz
x,y,z
1/2-x,-y,z
1/2+x,-y,1/2-z
-x,y,1/2-z
-x,-y,-z
1/2+x,y,-z
1/2-x,y,1/2+z
x,-y,1/2+z
loop_
_atom_site_type_symbol
_atom_site_label
_atom_site_fract_x
_atom_site_fract_y
_atom_site_fract_z
Si Si1 0.250000 0.000000 0.932189
Si Si2 0.420375 0.936800 0.818409
Si Si3 0.584178 0.706685 0.090412
Si Si4 0.675537 0.381684 0.383669
Si Si5 0.688057 0.369710 0.137507
Si Si6 0.414341 0.926673 0.688088
Si Si7 0.370154 0.096947 0.017848
Si Si8 0.076690 0.750428 0.596846
O O1 0.259727 0.789549 0.896195
O O2 0.180215 0.003404 0.970826
O O3 0.367875 0.737578 0.820064
O O4 0.409786 0.009203 0.753042
O O5 0.503103 0.866528 0.829231
O O6 0.392564 0.103036 0.865994
O O7 0.638494 0.513375 0.096445
O O8 0.502461 0.656118 0.107896
O O9 0.580250 0.755160 0.022064
O O10 0.750000 0.500000 0.367245
O O11 0.638308 0.269830 0.328015
O O12 0.680098 0.208746 0.434073
O O13 0.626062 0.552872 0.413957
O O14 0.750000 0.500000 0.171621
O O15 0.392526 0.132496 0.652997
O O16 0.420484 0.917114 0.044941
#
# Coordination Sequence:
#
# PCOD8223378 Si02
#       8
#     4   8   8   8   8   8   8   8
#     4  12  24  42  60  88 136 168 204 256 314 388
#     4  10  21  43  66  92 128 166 212 272 327 380
#     4  11  23  39  64  93 125 167 217 268 325 381
#     4  11  24  40  62  95 126 171 217 259 318 390
#     4  12  23  38  61  94 128 168 209 257 317 385
#     4   9  22  43  67  91 125 168 214 267 327 382
#     4  11  23  38  62  89 128 171 209 261 327 378
#     4  10  23  42  63  91 124 165 218 268 318 382
#
# _framework density 21.713901
#
# number of rings (size 3 to 8) (size 9 to 14) (size 15 to 20)
#    0.000    1.333    2.667    2.000    3.733    3.733 
#    0.000    5.333    0.000    0.000    0.000    0.000 
#    0.000    0.000    0.000    0.000    0.000    0.000 
#
# Total GULP energy -743292.568066 kJ/mol
# GULP energy per Si atom -12388.209468 kJ/mol
# Density = 2.166448 g / cm^3
# Si number density = 21.713901 Si / 1000 Ang^3
#
#
#
# Elastic Constant Matrix: (Units=GPa)
#
#
# Indices 1 2 3 4 5 6 
#
# 1 89.9819 38.1491 8.6689 0.0000 0.0000 0.0000
# 2 38.1491 78.7935 19.1288 0.0000 0.0000 0.0000
# 3 8.6689 19.1288 100.1379 0.0000 0.0000 0.0000
# 4 0.0000 0.0000 0.0000 21.6321 0.0000 0.0000
# 5 0.0000 0.0000 0.0000 0.0000 25.3627 0.0000
# 6 0.0000 0.0000 0.0000 0.0000 0.0000 43.4795
#
#
#
# Elastic Compliance Matrix: (Units=1/GPa)
#
#
# Indices 1 2 3 4 5 6 
#
# 1 0.013985 -0.006792 0.000087 0.000000 0.000000 0.000000
# 2 -0.006792 0.016607 -0.002584 0.000000 0.000000 0.000000
# 3 0.000087 -0.002584 0.010472 0.000000 0.000000 0.000000
# 4 0.000000 0.000000 0.000000 0.046228 0.000000 0.000000
# 5 0.000000 0.000000 0.000000 0.000000 0.039428 0.000000
# 6 0.000000 0.000000 0.000000 0.000000 0.000000 0.022999
#
#
# Mechanical properties :
#
#
# Convention : Reuss Voigt Hill
#
# Bulk Modulus (GPa) = 44.47391 44.53410 44.50400
# Shear Modulus (GPa) = 28.44251 31.62595 30.03423
#
# Velocity S-wave (km/s) = 3.62315 3.82053 3.72315
# Velocity P-wave (km/s) = 6.16678 6.32582 6.24680
#
# Compressibility (1/GPa) = 0.02248509
#
# Stress axis : x y z
#
# Youngs Moduli (GPa) = 71.50772 60.21473 95.48908
#
# Poissons Ratio (x) = 0.40897 -0.00829
# Poissons Ratio (y) = 0.48567 0.24678
# Poissons Ratio (z) = -0.00621 0.15562
#
# Static dielectric constant tensor:
#      x y z
#    x 3.875890 0.000000 0.000000 
#    y 0.000000 3.885410 0.000000 
#    z 0.000000 0.000000 3.836660 
# 
# 
# High freq. dielectric constant tensor:
#      x y z
#    x 1.866180 0.000000 0.000000 
#    y 0.000000 1.848760 0.000000 
#    z 0.000000 0.000000 1.840180 
# 
# From -- ./inp_files/24782.got.cif
#   From: 2010.03.12/outbox.cif.g09.slc.cpg/sg54_13_cif.got.tgz:24782.got - 2010.04.16 15:00:50.
