data_PCOD8223909
_publ_section_title
;
Structure prediction by ZEFSAII (Michael W. Deem and Ramdas Pophale) SiO2 
 PCOD8223909
Probable space group: P C C A
;
_chemical_formula_sum "Si O2"
_cell_formula_units_Z 64
_cell_length_a 16.661203
_cell_length_b 11.685206
_cell_length_c 15.150416
_cell_angle_alpha 90.000000
_cell_angle_beta 90.000000
_cell_angle_gamma 90.000000
_cell_volume 2949.628268
_symmetry_space_group_name_H-M "P C C A"
_symmetry_group_IT_number 54
_symmetry_cell_setting 'orthorhombic'
loop_
_space_group_symop_operation_xyz
x,y,z
1/2-x,-y,z
1/2+x,-y,1/2-z
-x,y,1/2-z
-x,-y,-z
1/2+x,y,-z
1/2-x,y,1/2+z
x,-y,1/2+z
loop_
_atom_site_type_symbol
_atom_site_label
_atom_site_fract_x
_atom_site_fract_y
_atom_site_fract_z
Si Si1 0.654244 0.492209 0.513192
Si Si2 0.345748 0.505341 0.184904
Si Si3 0.138140 0.335858 0.842649
Si Si4 0.583495 0.910221 0.702995
Si Si5 0.816778 0.273691 0.107071
Si Si6 0.338636 0.041543 0.953043
Si Si7 0.593201 0.242336 0.772128
Si Si8 0.842002 0.977956 0.861064
O O1 0.750000 0.500000 0.508688
O O2 0.621654 0.476404 0.413658
O O3 0.614404 0.599584 0.565406
O O4 0.633624 0.382033 0.571824
O O5 0.250000 0.500000 0.189560
O O6 0.379080 0.416391 0.257571
O O7 0.379283 0.630957 0.201966
O O8 0.086993 0.220509 0.831536
O O9 0.231258 0.306645 0.852587
O O10 0.500000 0.940337 0.750000
O O11 0.600660 0.997611 0.623351
O O12 0.644914 0.931142 0.782885
O O13 0.863779 0.208054 0.182923
O O14 0.820794 0.177087 0.032689
O O15 0.250000 0.000000 0.927962
O O16 0.381743 0.003808 0.043929
O O17 0.500000 0.234592 0.750000
O O18 0.625951 0.150101 0.842162
O O19 0.750000 0.000000 0.883605
#
# Coordination Sequence:
#
# PCOD8223909 Si02
#       8
#     8   8   8   8   8   8   8   8
#     4   9  21  36  63 100 127 166 225 280 329 392
#     4  11  22  39  71  98 128 175 224 277 337 416
#     4  11  21  41  66  95 133 174 228 277 337 401
#     4  12  26  43  63  96 139 177 218 285 351 415
#     4  11  20  42  67  91 132 176 222 284 333 405
#     4  11  24  42  71 100 132 176 233 286 346 415
#     4  12  25  44  67  98 138 184 226 281 353 422
#     4  11  26  44  71 101 129 176 236 283 342 424
#
# _framework density 21.697648999999998
#
# number of rings (size 3 to 8) (size 9 to 14) (size 15 to 20)
#    0.000    1.000    5.000    1.875    3.500    3.000 
#    0.000    0.625    0.000    0.000    0.000    0.000 
#    0.000    0.000    0.000    0.000    0.000    0.000 
#
# Total GULP energy -792864.783315 kJ/mol
# GULP energy per Si atom -12388.512239 kJ/mol
# Density = 2.164826 g / cm^3
# Si number density = 21.697649 Si / 1000 Ang^3
#
#
#
# Elastic Constant Matrix: (Units=GPa)
#
#
# Indices 1 2 3 4 5 6 
#
# 1 51.2028 21.5251 18.9710 0.0000 0.0000 0.0000
# 2 21.5251 153.9930 49.7458 0.0000 0.0000 0.0000
# 3 18.9710 49.7458 150.4305 0.0000 0.0000 0.0000
# 4 0.0000 0.0000 0.0000 30.1868 0.0000 0.0000
# 5 0.0000 0.0000 0.0000 0.0000 -3.8790 0.0000
# 6 0.0000 0.0000 0.0000 0.0000 0.0000 22.6098
#
#
#
# Elastic Compliance Matrix: (Units=1/GPa)
#
#
# Indices 1 2 3 4 5 6 
#
# 1 0.021223 -0.002353 -0.001898 0.000000 0.000000 0.000000
# 2 -0.002353 0.007531 -0.002194 0.000000 0.000000 0.000000
# 3 -0.001898 -0.002194 0.007612 0.000000 0.000000 0.000000
# 4 0.000000 0.000000 0.000000 0.033127 0.000000 0.000000
# 5 0.000000 0.000000 0.000000 0.000000 -0.257800 0.000000
# 6 0.000000 0.000000 0.000000 0.000000 0.000000 0.044229
#
#
# Mechanical properties :
#
#
# Convention : Reuss Voigt Hill
#
# Bulk Modulus (GPa) = 42.59668 59.56779 51.08224
# Shear Modulus (GPa) = -40.53133 27.47581 -6.52776
#
# Velocity S-wave (km/s) = -4.32673 3.56238 -1.73639
# Velocity P-wave (km/s) = 2.29919 6.66587 4.42423
#
# Compressibility (1/GPa) = 0.02347601
#
# Stress axis : x y z
#
# Youngs Moduli (GPa) = 47.11919 132.77695 131.36389
#
# Poissons Ratio (x) = 0.31246 0.24936
# Poissons Ratio (y) = 0.11089 0.28818
# Poissons Ratio (z) = 0.08944 0.29128
#
# Static dielectric constant tensor:
#      x y z
#    x 3.632470 0.000000 0.000000 
#    y 0.000000 4.215840 0.000000 
#    z 0.000000 0.000000 4.893570 
# 
# 
# High freq. dielectric constant tensor:
#      x y z
#    x 1.816920 0.000000 0.000000 
#    y 0.000000 1.868990 0.000000 
#    z 0.000000 0.000000 1.870300 
# 
# From -- ./inp_files/14323.got.cif
#   From: 2010.03.12/outbox.cif.g09.slc.cpg/sg54_8_cif.got.tgz:14323.got - 2010.04.16 15:00:50.
