data_PCOD8223201
_publ_section_title
;
Structure prediction by ZEFSAII (Michael W. Deem and Ramdas Pophale) SiO2 
 PCOD8223201
Probable space group: P C C A
;
_chemical_formula_sum "Si O2"
_cell_formula_units_Z 44
_cell_length_a 16.127090
_cell_length_b 8.491508
_cell_length_c 15.761942
_cell_angle_alpha 90.000000
_cell_angle_beta 90.000000
_cell_angle_gamma 90.000000
_cell_volume 2158.492569
_symmetry_space_group_name_H-M "P C C A"
_symmetry_group_IT_number 54
_symmetry_cell_setting 'orthorhombic'
loop_
_space_group_symop_operation_xyz
x,y,z
1/2-x,-y,z
1/2+x,-y,1/2-z
-x,y,1/2-z
-x,-y,-z
1/2+x,y,-z
1/2-x,y,1/2+z
x,-y,1/2+z
loop_
_atom_site_type_symbol
_atom_site_label
_atom_site_fract_x
_atom_site_fract_y
_atom_site_fract_z
Si Si1 0.084236 0.677763 0.782956
Si Si2 0.214726 0.333814 0.137041
Si Si3 0.500000 0.384503 0.250000
Si Si4 0.841438 0.933276 0.966575
Si Si5 0.876582 0.146978 0.816311
Si Si6 0.847310 0.973966 0.645817
O O1 0.149182 0.640095 0.709835
O O2 0.056269 0.499892 0.811276
O O3 0.127684 0.787562 0.853882
O O4 0.000000 0.765219 0.750000
O O5 0.250000 0.500000 0.104371
O O6 0.167286 0.250056 0.058682
O O7 0.285289 0.219635 0.174568
O O8 0.445578 0.282643 0.184602
O O9 0.750000 0.000000 0.976289
O O10 0.892823 0.027672 0.894414
O O11 0.884543 0.951515 0.058936
O O12 0.887288 0.054222 0.727995
O O13 0.750000 0.000000 0.651073
#
# Coordination Sequence:
#
# PCOD8223201 Si02
#       6
#     8   8   4   8   8   8
#     4  10  21  38  58  89 122 163 205 250 317 364
#     4  11  18  38  64  86 125 165 199 252 320 368
#     4  10  24  36  60  90 122 168 202 258 320 368
#     4   9  21  36  60  97 119 158 211 257 302 370
#     4  11  20  38  61  90 120 159 210 254 311 369
#     4  11  20  38  66  91 119 158 214 257 300 374
#
# _framework density 20.384598
#
# number of rings (size 3 to 8) (size 9 to 14) (size 15 to 20)
#    0.545    1.091    5.455    0.545    1.273    0.000 
#    0.000   10.909    0.000    0.000    0.000    0.000 
#    0.000    0.000    0.000    0.000    0.000    0.000 
#
# Total GULP energy -545110.333954 kJ/mol
# GULP energy per Si atom -12388.871226 kJ/mol
# Density = 2.033820 g / cm^3
# Si number density = 20.384598 Si / 1000 Ang^3
#
#
#
# Elastic Constant Matrix: (Units=GPa)
#
#
# Indices 1 2 3 4 5 6 
#
# 1 68.4176 35.8663 19.8909 0.0000 0.0000 0.0000
# 2 35.8663 149.7627 68.5628 0.0000 0.0000 0.0000
# 3 19.8909 68.5628 147.6864 0.0000 0.0000 0.0000
# 4 0.0000 0.0000 0.0000 6.1023 0.0000 0.0000
# 5 0.0000 0.0000 0.0000 0.0000 2.0570 0.0000
# 6 0.0000 0.0000 0.0000 0.0000 0.0000 33.4366
#
#
#
# Elastic Compliance Matrix: (Units=1/GPa)
#
#
# Indices 1 2 3 4 5 6 
#
# 1 0.016744 -0.003781 -0.000500 0.000000 0.000000 0.000000
# 2 -0.003781 0.009333 -0.003824 0.000000 0.000000 0.000000
# 3 -0.000500 -0.003824 0.008614 0.000000 0.000000 0.000000
# 4 0.000000 0.000000 0.000000 0.163873 0.000000 0.000000
# 5 0.000000 0.000000 0.000000 0.000000 0.486152 0.000000
# 6 0.000000 0.000000 0.000000 0.000000 0.000000 0.029907
#
#
# Mechanical properties :
#
#
# Convention : Reuss Voigt Hill
#
# Bulk Modulus (GPa) = 54.10857 68.27853 61.19355
# Shear Modulus (GPa) = 6.78433 24.42228 15.60330
#
# Velocity S-wave (km/s) = 1.82631 3.46508 2.76967
# Velocity P-wave (km/s) = 5.57213 7.04109 6.34923
#
# Compressibility (1/GPa) = 0.01848136
#
# Stress axis : x y z
#
# Youngs Moduli (GPa) = 59.72450 107.14356 116.09635
#
# Poissons Ratio (x) = 0.40512 0.05802
# Poissons Ratio (y) = 0.22582 0.44392
# Poissons Ratio (z) = 0.02985 0.40968
#
# Static dielectric constant tensor:
#      x y z
#    x 3.759300 0.000000 0.000000 
#    y 0.000000 3.931320 0.000000 
#    z 0.000000 0.000000 3.837210 
# 
# 
# High freq. dielectric constant tensor:
#      x y z
#    x 1.793690 0.000000 0.000000 
#    y 0.000000 1.803760 0.000000 
#    z 0.000000 0.000000 1.760990 
# 
# From -- ./inp_files/14024.got.cif
#   From: 2010.03.12/outbox.cif.g09.slc.cpg/sg54_8_cif.got.tgz:14024.got - 2010.04.16 15:00:50.
