data_PCOD8223139
_publ_section_title
;
Structure prediction by ZEFSAII (Michael W. Deem and Ramdas Pophale) SiO2 
 PCOD8223139
Probable space group: P C C A
;
_chemical_formula_sum "Si O2"
_cell_formula_units_Z 36
_cell_length_a 5.032597
_cell_length_b 23.642591
_cell_length_c 13.947739
_cell_angle_alpha 90.000000
_cell_angle_beta 90.000000
_cell_angle_gamma 90.000000
_cell_volume 1659.552652
_symmetry_space_group_name_H-M "P C C A"
_symmetry_group_IT_number 54
_symmetry_cell_setting 'orthorhombic'
loop_
_space_group_symop_operation_xyz
x,y,z
1/2-x,-y,z
1/2+x,-y,1/2-z
-x,y,1/2-z
-x,-y,-z
1/2+x,y,-z
1/2-x,y,1/2+z
x,-y,1/2+z
loop_
_atom_site_type_symbol
_atom_site_label
_atom_site_fract_x
_atom_site_fract_y
_atom_site_fract_z
Si Si1 0.829984 0.606106 0.435849
Si Si2 0.755665 0.288993 0.315483
Si Si3 0.000000 0.536170 0.250000
Si Si4 0.308609 0.059405 0.558806
Si Si5 0.257738 0.163317 0.687470
O O1 0.553063 0.590541 0.486295
O O2 0.802592 0.672082 0.407709
O O3 0.883152 0.572709 0.337556
O O4 0.500000 0.288889 0.250000
O O5 0.821950 0.225839 0.355268
O O6 0.000000 0.311819 0.250000
O O7 0.250000 0.500000 0.288561
O O8 0.621087 0.059409 0.535732
O O9 0.210689 0.116204 0.608740
O O10 0.250000 0.000000 0.615513
O O11 0.500000 0.140776 0.750000
O O12 0.000000 0.169339 0.750000
#
# Coordination Sequence:
#
# PCOD8223139 Si02
#       5
#     8   8   4   8   8
#     4  12  26  43  72 104 130 174 226 261 321 395
#     4  10  21  40  64  89 130 168 202 263 331 377
#     4  12  28  48  72  98 140 182 210 276 330 364
#     4  10  21  36  54  78 115 159 201 254 315 370
#     4  10  21  36  58  88 117 157 203 254 310 370
#
# _framework density 21.692592999999999
#
# number of rings (size 3 to 8) (size 9 to 14) (size 15 to 20)
#    0.000    1.333    1.111    4.000    1.556    5.333 
#    0.000    0.000    0.000    0.000    0.000    0.000 
#    0.000    0.000    0.000    0.000    0.000    0.000 
#
# Total GULP energy -446181.290336 kJ/mol
# GULP energy per Si atom -12393.924732 kJ/mol
# Density = 2.164322 g / cm^3
# Si number density = 21.692593 Si / 1000 Ang^3
#
#
#
# Elastic Constant Matrix: (Units=GPa)
#
#
# Indices 1 2 3 4 5 6 
#
# 1 129.4051 26.8716 24.6240 0.0000 0.0000 0.0000
# 2 26.8716 121.9581 50.1177 0.0000 0.0000 0.0000
# 3 24.6240 50.1177 77.0999 0.0000 0.0000 0.0000
# 4 0.0000 0.0000 0.0000 28.9453 0.0000 0.0000
# 5 0.0000 0.0000 0.0000 0.0000 32.2192 0.0000
# 6 0.0000 0.0000 0.0000 0.0000 0.0000 34.2625
#
#
#
# Elastic Compliance Matrix: (Units=1/GPa)
#
#
# Indices 1 2 3 4 5 6 
#
# 1 0.008318 -0.001011 -0.001999 0.000000 0.000000 0.000000
# 2 -0.001011 0.011311 -0.007030 0.000000 0.000000 0.000000
# 3 -0.001999 -0.007030 0.018178 0.000000 0.000000 0.000000
# 4 0.000000 0.000000 0.000000 0.034548 0.000000 0.000000
# 5 0.000000 0.000000 0.000000 0.000000 0.031037 0.000000
# 6 0.000000 0.000000 0.000000 0.000000 0.000000 0.029186
#
#
# Mechanical properties :
#
#
# Convention : Reuss Voigt Hill
#
# Bulk Modulus (GPa) = 56.41069 59.07663 57.74366
# Shear Modulus (GPa) = 31.53208 34.20871 32.87039
#
# Velocity S-wave (km/s) = 3.81673 3.97542 3.89689
# Velocity P-wave (km/s) = 6.74420 6.95447 6.85014
#
# Compressibility (1/GPa) = 0.01772714
#
# Stress axis : x y z
#
# Youngs Moduli (GPa) = 120.21995 88.40848 55.01073
#
# Poissons Ratio (x) = 0.08940 0.10998
# Poissons Ratio (y) = 0.12156 0.38671
# Poissons Ratio (z) = 0.24036 0.62148
#
# Static dielectric constant tensor:
#      x y z
#    x 4.044280 0.000000 0.000000 
#    y 0.000000 4.595390 0.000000 
#    z 0.000000 0.000000 3.462170 
# 
# 
# High freq. dielectric constant tensor:
#      x y z
#    x 1.878150 0.000000 0.000000 
#    y 0.000000 1.871540 0.000000 
#    z 0.000000 0.000000 1.813650 
# 
# From -- ./inp_files/6357.got.cif
#   From: 2010.03.12/outbox.cif.g09.slc.cpg/sg54_4_cif.got.tgz:6357.got - 2010.04.16 15:00:50.
