data_PCOD8223344
_publ_section_title
;
Structure prediction by ZEFSAII (Michael W. Deem and Ramdas Pophale) SiO2 
 PCOD8223344
Probable space group: P C C A
;
_chemical_formula_sum "Si O2"
_cell_formula_units_Z 28
_cell_length_a 14.833809
_cell_length_b 5.076596
_cell_length_c 17.276468
_cell_angle_alpha 90.000000
_cell_angle_beta 90.000000
_cell_angle_gamma 90.000000
_cell_volume 1301.008836
_symmetry_space_group_name_H-M "P C C A"
_symmetry_group_IT_number 54
_symmetry_cell_setting 'orthorhombic'
loop_
_space_group_symop_operation_xyz
x,y,z
1/2-x,-y,z
1/2+x,-y,1/2-z
-x,y,1/2-z
-x,-y,-z
1/2+x,y,-z
1/2-x,y,1/2+z
x,-y,1/2+z
loop_
_atom_site_type_symbol
_atom_site_label
_atom_site_fract_x
_atom_site_fract_y
_atom_site_fract_z
Si Si1 0.750000 0.500000 0.764873
Si Si2 0.941355 0.444016 0.826213
Si Si3 0.496274 0.077019 0.911365
Si Si4 0.298896 0.750816 0.382939
O O1 0.835288 0.386555 0.812357
O O2 0.714210 0.263033 0.710099
O O3 0.935534 0.693491 0.884825
O O4 0.000000 0.517723 0.750000
O O5 0.989389 0.186717 0.861777
O O6 0.403203 0.228596 0.898554
O O7 0.500000 0.000000 0.000000
O O8 0.250000 0.500000 0.423295
O O9 0.250000 0.000000 0.419723
#
# Coordination Sequence:
#
# PCOD8223344 Si02
#       4
#     4   8   8   8
#     4  10  24  40  72 104 134 174 252 294 346 400
#     4  12  24  44  75 100 136 186 243 295 343 425
#     4  12  26  46  67 103 147 184 225 290 372 428
#     4  10  21  41  68  96 133 177 231 280 351 411
#
# _framework density 21.521758999999999
#
# number of rings (size 3 to 8) (size 9 to 14) (size 15 to 20)
#    0.857    0.000    2.857    5.143    4.000    0.000 
#    7.714    0.000    0.000    0.000    0.000    0.000 
#    0.000    0.000    0.000    0.000    0.000    0.000 
#
# Total GULP energy -346917.650451 kJ/mol
# GULP energy per Si atom -12389.916088 kJ/mol
# Density = 2.147277 g / cm^3
# Si number density = 21.521759 Si / 1000 Ang^3
#
#
#
# Elastic Constant Matrix: (Units=GPa)
#
#
# Indices 1 2 3 4 5 6 
#
# 1 145.2550 36.9940 59.5252 0.0000 0.0000 0.0000
# 2 36.9940 162.5330 50.9987 0.0000 0.0000 0.0000
# 3 59.5252 50.9987 108.9072 0.0000 0.0000 0.0000
# 4 0.0000 0.0000 0.0000 20.2374 0.0000 0.0000
# 5 0.0000 0.0000 0.0000 0.0000 -2.2727 0.0000
# 6 0.0000 0.0000 0.0000 0.0000 0.0000 38.8447
#
#
#
# Elastic Compliance Matrix: (Units=1/GPa)
#
#
# Indices 1 2 3 4 5 6 
#
# 1 0.008919 -0.000587 -0.004600 0.000000 0.000000 0.000000
# 2 -0.000587 0.007251 -0.003075 0.000000 0.000000 0.000000
# 3 -0.004600 -0.003075 0.013136 0.000000 0.000000 0.000000
# 4 0.000000 0.000000 0.000000 0.049414 0.000000 0.000000
# 5 0.000000 0.000000 0.000000 0.000000 -0.439996 0.000000
# 6 0.000000 0.000000 0.000000 0.000000 0.000000 0.025744
#
#
# Mechanical properties :
#
#
# Convention : Reuss Voigt Hill
#
# Bulk Modulus (GPa) = 78.22862 79.08122 78.65492
# Shear Modulus (GPa) = -15.88570 29.30701 6.71065
#
# Velocity S-wave (km/s) = -2.71979 3.69418 1.76772
# Velocity P-wave (km/s) = 5.15408 7.41758 6.38690
#
# Compressibility (1/GPa) = 0.01278304
#
# Stress axis : x y z
#
# Youngs Moduli (GPa) = 112.12057 137.91357 76.12513
#
# Poissons Ratio (x) = 0.08091 0.35018
# Poissons Ratio (y) = 0.06577 0.23407
# Poissons Ratio (z) = 0.51577 0.42406
#
# Static dielectric constant tensor:
#      x y z
#    x 4.070350 0.000000 0.000000 
#    y 0.000000 3.597690 0.000000 
#    z 0.000000 0.000000 3.793090 
# 
# 
# High freq. dielectric constant tensor:
#      x y z
#    x 1.854490 0.000000 0.000000 
#    y 0.000000 1.858660 0.000000 
#    z 0.000000 0.000000 1.815130 
# 
# From -- ./inp_files/17537.got.cif
#   From: 2010.03.12/outbox.cif.g09.slc.cpg/sg54_9_cif.got.tgz:17537.got - 2010.04.16 15:00:50.
