data_PCOD8223277
_publ_section_title
;
Structure prediction by ZEFSAII (Michael W. Deem and Ramdas Pophale) SiO2 
 PCOD8223277
Probable space group: P C C A
;
_chemical_formula_sum "Si O2"
_cell_formula_units_Z 60
_cell_length_a 24.490130
_cell_length_b 8.653512
_cell_length_c 12.539420
_cell_angle_alpha 90.000000
_cell_angle_beta 90.000000
_cell_angle_gamma 90.000000
_cell_volume 2657.424531
_symmetry_space_group_name_H-M "P C C A"
_symmetry_group_IT_number 54
_symmetry_cell_setting 'orthorhombic'
loop_
_space_group_symop_operation_xyz
x,y,z
1/2-x,-y,z
1/2+x,-y,1/2-z
-x,y,1/2-z
-x,-y,-z
1/2+x,y,-z
1/2-x,y,1/2+z
x,-y,1/2+z
loop_
_atom_site_type_symbol
_atom_site_label
_atom_site_fract_x
_atom_site_fract_y
_atom_site_fract_z
Si Si1 0.344710 0.914335 0.402885
Si Si2 0.284652 0.247751 0.079938
Si Si3 0.690419 0.543900 0.738772
Si Si4 0.929521 0.361314 0.439998
Si Si5 0.671573 0.744005 0.543721
Si Si6 0.589409 0.679959 0.212763
Si Si7 0.250000 0.000000 0.746686
Si Si8 0.510074 0.412014 0.135153
O O1 0.332251 0.800910 0.500704
O O2 0.399023 0.840036 0.349707
O O3 0.354444 0.084476 0.450950
O O4 0.294415 0.916389 0.320601
O O5 0.303255 0.405675 0.137329
O O6 0.278859 0.124936 0.173840
O O7 0.229726 0.260950 0.012157
O O8 0.750000 0.500000 0.693644
O O9 0.671116 0.684768 0.664620
O O10 0.647809 0.403866 0.731818
O O11 0.866375 0.365449 0.471779
O O12 0.935888 0.268359 0.328182
O O13 0.951838 0.533737 0.412927
O O14 0.962753 0.299787 0.545729
O O15 0.548094 0.565268 0.151807
O O16 0.500000 0.328492 0.250000
#
# Coordination Sequence:
#
# PCOD8223277 Si02
#       8
#     8   8   8   8   8   8   4   8
#     4  12  24  39  62  90 130 175 212 255 316 399
#     4  12  23  37  60  85 132 174 214 251 315 370
#     4  12  25  37  57  92 130 164 212 268 300 373
#     4  10  21  39  69  91 124 161 212 269 330 378
#     4  12  22  40  62  93 127 170 217 259 316 388
#     4  11  24  40  63  94 128 163 213 264 323 381
#     4  12  18  40  54  82 118 172 216 244 296 380
#     4   9  20  42  67  96 123 161 208 270 336 388
#
# _framework density 22.578251000000002
#
# number of rings (size 3 to 8) (size 9 to 14) (size 15 to 20)
#    0.000    0.800    5.333    3.200    1.867    2.667 
#    0.000    0.667    0.000    2.400    0.000    0.000 
#    0.000    0.000    0.000    0.000    0.000    0.000 
#
# Total GULP energy -743451.959747 kJ/mol
# GULP energy per Si atom -12390.865996 kJ/mol
# Density = 2.252686 g / cm^3
# Si number density = 22.578251 Si / 1000 Ang^3
#
#
#
# Elastic Constant Matrix: (Units=GPa)
#
#
# Indices 1 2 3 4 5 6 
#
# 1 62.5539 27.3190 23.3989 0.0000 0.0000 0.0000
# 2 27.3190 57.3859 24.9517 0.0000 0.0000 0.0000
# 3 23.3989 24.9517 135.1384 0.0000 0.0000 0.0000
# 4 0.0000 0.0000 0.0000 32.8098 0.0000 0.0000
# 5 0.0000 0.0000 0.0000 0.0000 45.9916 0.0000
# 6 0.0000 0.0000 0.0000 0.0000 0.0000 26.2228
#
#
#
# Elastic Compliance Matrix: (Units=1/GPa)
#
#
# Indices 1 2 3 4 5 6 
#
# 1 0.020627 -0.008988 -0.001912 0.000000 0.000000 0.000000
# 2 -0.008988 0.022864 -0.002665 0.000000 0.000000 0.000000
# 3 -0.001912 -0.002665 0.008223 0.000000 0.000000 0.000000
# 4 0.000000 0.000000 0.000000 0.030479 0.000000 0.000000
# 5 0.000000 0.000000 0.000000 0.000000 0.021743 0.000000
# 6 0.000000 0.000000 0.000000 0.000000 0.000000 0.038135
#
#
# Mechanical properties :
#
#
# Convention : Reuss Voigt Hill
#
# Bulk Modulus (GPa) = 40.67899 45.15746 42.91822
# Shear Modulus (GPa) = 28.18573 32.96544 30.57559
#
# Velocity S-wave (km/s) = 3.53704 3.82521 3.68395
# Velocity P-wave (km/s) = 5.89380 6.28916 6.09469
#
# Compressibility (1/GPa) = 0.02458271
#
# Stress axis : x y z
#
# Youngs Moduli (GPa) = 48.48066 43.73756 121.61069
#
# Poissons Ratio (x) = 0.39312 0.23251
# Poissons Ratio (y) = 0.43575 0.32412
# Poissons Ratio (z) = 0.09269 0.11657
#
# Static dielectric constant tensor:
#      x y z
#    x 4.144430 0.000000 0.000000 
#    y 0.000000 3.604350 0.000000 
#    z 0.000000 0.000000 4.593570 
# 
# 
# High freq. dielectric constant tensor:
#      x y z
#    x 1.878380 0.000000 0.000000 
#    y 0.000000 1.840350 0.000000 
#    z 0.000000 0.000000 1.926930 
# 
# From -- ./inp_files/14961.got.cif
#   From: 2010.03.12/outbox.cif.g09.slc.cpg/sg54_8_cif.got.tgz:14961.got - 2010.04.16 15:00:50.
