data_PCOD8223714
_publ_section_title
;
Structure prediction by ZEFSAII (Michael W. Deem and Ramdas Pophale) SiO2 
 PCOD8223714
Probable space group: P C C A
;
_chemical_formula_sum "Si O2"
_cell_formula_units_Z 48
_cell_length_a 9.176307
_cell_length_b 16.975366
_cell_length_c 15.174338
_cell_angle_alpha 90.000000
_cell_angle_beta 90.000000
_cell_angle_gamma 90.000000
_cell_volume 2363.724382
_symmetry_space_group_name_H-M "P C C A"
_symmetry_group_IT_number 54
_symmetry_cell_setting 'orthorhombic'
loop_
_space_group_symop_operation_xyz
x,y,z
1/2-x,-y,z
1/2+x,-y,1/2-z
-x,y,1/2-z
-x,-y,-z
1/2+x,y,-z
1/2-x,y,1/2+z
x,-y,1/2+z
loop_
_atom_site_type_symbol
_atom_site_label
_atom_site_fract_x
_atom_site_fract_y
_atom_site_fract_z
Si Si1 0.000000 0.207732 0.250000
Si Si2 0.334339 0.579850 0.907719
Si Si3 0.592422 0.902262 0.410496
Si Si4 0.678358 0.417567 0.415649
Si Si5 0.500000 0.177048 0.250000
Si Si6 0.227779 0.307459 0.748556
Si Si7 0.568414 0.913968 0.913939
O O1 0.967832 0.151615 0.332398
O O2 0.880516 0.271868 0.224541
O O3 0.250000 0.500000 0.878896
O O4 0.505511 0.567641 0.928322
O O5 0.332272 0.640731 0.828098
O O6 0.250212 0.613568 0.993245
O O7 0.510768 0.879594 0.500130
O O8 0.764143 0.887546 0.419052
O O9 0.555252 0.993428 0.395801
O O10 0.750000 0.500000 0.388930
O O11 0.723233 0.356195 0.341344
O O12 0.637460 0.229800 0.268438
O O13 0.522642 0.122739 0.165498
#
# Coordination Sequence:
#
# PCOD8223714 Si02
#       7
#     4   8   8   8   4   8   8
#     4  12  27  42  63  96 132 168 214 254 325 380
#     4  11  24  44  68  94 125 169 213 260 314 371
#     4  10  23  44  64  98 120 172 214 263 309 380
#     4  11  24  44  68  95 125 166 216 260 311 375
#     4  12  23  46  59  96 128 174 198 268 315 380
#     4  12  27  42  64  93 133 165 210 258 320 378
#     4  10  23  42  70  89 130 164 218 260 315 370
#
# _framework density 20.306936
#
# number of rings (size 3 to 8) (size 9 to 14) (size 15 to 20)
#    0.000    1.000    3.333    3.000    7.000    2.667 
#    0.000    0.000    0.000    0.000    0.000    0.000 
#    0.000    0.000    0.000    0.000    0.000    0.000 
#
# Total GULP energy -595041.714635 kJ/mol
# GULP energy per Si atom -12396.702388 kJ/mol
# Density = 2.026072 g / cm^3
# Si number density = 20.306936 Si / 1000 Ang^3
#
#
#
# Elastic Constant Matrix: (Units=GPa)
#
#
# Indices 1 2 3 4 5 6 
#
# 1 85.7828 28.1754 29.4266 0.0000 0.0000 0.0000
# 2 28.1754 65.8874 63.6378 0.0000 0.0000 0.0000
# 3 29.4266 63.6378 151.1156 0.0000 0.0000 0.0000
# 4 0.0000 0.0000 0.0000 -58.0713 0.0000 0.0000
# 5 0.0000 0.0000 0.0000 0.0000 32.1968 0.0000
# 6 0.0000 0.0000 0.0000 0.0000 0.0000 38.4993
#
#
#
# Elastic Compliance Matrix: (Units=1/GPa)
#
#
# Indices 1 2 3 4 5 6 
#
# 1 0.013572 -0.005480 -0.000335 0.000000 0.000000 0.000000
# 2 -0.005480 0.027796 -0.010638 0.000000 0.000000 0.000000
# 3 -0.000335 -0.010638 0.011163 0.000000 0.000000 0.000000
# 4 0.000000 0.000000 0.000000 -0.017220 0.000000 0.000000
# 5 0.000000 0.000000 0.000000 0.000000 0.031059 0.000000
# 6 0.000000 0.000000 0.000000 0.000000 0.000000 0.025974
#
#
# Mechanical properties :
#
#
# Convention : Reuss Voigt Hill
#
# Bulk Modulus (GPa) = 50.95876 60.58506 55.77191
# Shear Modulus (GPa) = 37.93833 14.62802 26.28318
#
# Velocity S-wave (km/s) = 4.32701 2.68684 3.60153
# Velocity P-wave (km/s) = 7.07904 6.28688 6.69469
#
# Compressibility (1/GPa) = 0.01962371
#
# Stress axis : x y z
#
# Youngs Moduli (GPa) = 73.67956 35.97637 89.58405
#
# Poissons Ratio (x) = 0.19716 0.03002
# Poissons Ratio (y) = 0.40379 0.95302
# Poissons Ratio (z) = 0.02469 0.38273
#
# Static dielectric constant tensor:
#      x y z
#    x 3.888710 0.000000 0.000000 
#    y 0.000000 3.718220 0.000000 
#    z 0.000000 0.000000 3.751270 
# 
# 
# High freq. dielectric constant tensor:
#      x y z
#    x 1.809900 0.000000 0.000000 
#    y 0.000000 1.800020 0.000000 
#    z 0.000000 0.000000 1.804730 
# 
# From -- ./inp_files/11770.got.cif
#   From: 2010.03.12/outbox.cif.g09.slc.cpg/sg54_6_cif.got.tgz:11770.got - 2010.04.16 15:00:50.
