data_PCOD8223657
_publ_section_title
;
Structure prediction by ZEFSAII (Michael W. Deem and Ramdas Pophale) SiO2 
 PCOD8223657
Probable space group: P C C A
;
_chemical_formula_sum "Si O2"
_cell_formula_units_Z 44
_cell_length_a 23.105648
_cell_length_b 8.521603
_cell_length_c 10.341414
_cell_angle_alpha 90.000000
_cell_angle_beta 90.000000
_cell_angle_gamma 90.000000
_cell_volume 2036.195040
_symmetry_space_group_name_H-M "P C C A"
_symmetry_group_IT_number 54
_symmetry_cell_setting 'orthorhombic'
loop_
_space_group_symop_operation_xyz
x,y,z
1/2-x,-y,z
1/2+x,-y,1/2-z
-x,y,1/2-z
-x,-y,-z
1/2+x,y,-z
1/2-x,y,1/2+z
x,-y,1/2+z
loop_
_atom_site_type_symbol
_atom_site_label
_atom_site_fract_x
_atom_site_fract_y
_atom_site_fract_z
Si Si1 0.750000 0.500000 0.768572
Si Si2 0.334731 0.736398 0.840385
Si Si3 0.355743 0.338818 0.621648
Si Si4 0.123422 0.050993 0.281525
Si Si5 0.442554 0.083219 0.044696
Si Si6 0.560352 0.401808 0.318494
O O1 0.775099 0.358621 0.680435
O O2 0.801489 0.546952 0.863445
O O3 0.390936 0.650635 0.782968
O O4 0.328612 0.911230 0.779811
O O5 0.348308 0.757786 0.991004
O O6 0.351617 0.219109 0.741872
O O7 0.415540 0.438206 0.616523
O O8 0.102179 0.065846 0.428152
O O9 0.074730 0.005267 0.176741
O O10 0.450966 0.268057 0.073915
O O11 0.500000 0.000000 0.000000
O O12 0.500000 0.442348 0.250000
#
# Coordination Sequence:
#
# PCOD8223657 Si02
#       6
#     4   8   8   8   8   8
#     4  10  24  44  72  96 128 176 224 290 344 400
#     4  10  22  46  65  98 134 173 231 281 338 409
#     4  11  24  44  68  99 135 177 229 280 347 408
#     4  11  23  42  65  98 135 179 225 282 341 406
#     4  11  22  41  66  96 139 184 230 276 336 408
#     4  10  24  40  67 100 139 179 226 283 339 410
#
# _framework density 21.608931999999999
#
# number of rings (size 3 to 8) (size 9 to 14) (size 15 to 20)
#    0.000    1.455    1.818    3.273    5.091    2.909 
#    3.273    1.818    0.000    0.000    0.000    0.000 
#    0.000    0.000    0.000    0.000    0.000    0.000 
#
# Total GULP energy -545486.963484 kJ/mol
# GULP energy per Si atom -12397.430988 kJ/mol
# Density = 2.155975 g / cm^3
# Si number density = 21.608932 Si / 1000 Ang^3
#
#
#
# Elastic Constant Matrix: (Units=GPa)
#
#
# Indices 1 2 3 4 5 6 
#
# 1 104.8822 50.6099 23.2870 0.0000 0.0000 0.0000
# 2 50.6099 143.9674 34.2432 0.0000 0.0000 0.0000
# 3 23.2870 34.2432 97.7360 0.0000 0.0000 0.0000
# 4 0.0000 0.0000 0.0000 38.0586 0.0000 0.0000
# 5 0.0000 0.0000 0.0000 0.0000 22.3344 0.0000
# 6 0.0000 0.0000 0.0000 0.0000 0.0000 23.7919
#
#
#
# Elastic Compliance Matrix: (Units=1/GPa)
#
#
# Indices 1 2 3 4 5 6 
#
# 1 0.011672 -0.003754 -0.001466 0.000000 0.000000 0.000000
# 2 -0.003754 0.008785 -0.002183 0.000000 0.000000 0.000000
# 3 -0.001466 -0.002183 0.011346 0.000000 0.000000 0.000000
# 4 0.000000 0.000000 0.000000 0.026275 0.000000 0.000000
# 5 0.000000 0.000000 0.000000 0.000000 0.044774 0.000000
# 6 0.000000 0.000000 0.000000 0.000000 0.000000 0.042031
#
#
# Mechanical properties :
#
#
# Convention : Reuss Voigt Hill
#
# Bulk Modulus (GPa) = 58.83808 62.54064 60.68936
# Shear Modulus (GPa) = 30.23797 32.73333 31.48565
#
# Velocity S-wave (km/s) = 3.74482 3.89627 3.82130
# Velocity P-wave (km/s) = 6.78129 7.01756 6.90044
#
# Compressibility (1/GPa) = 0.01699580
#
# Stress axis : x y z
#
# Youngs Moduli (GPa) = 85.67841 113.82809 88.13805
#
# Poissons Ratio (x) = 0.42736 0.12917
# Poissons Ratio (y) = 0.32167 0.19245
# Poissons Ratio (z) = 0.12556 0.24854
#
# Static dielectric constant tensor:
#      x y z
#    x 3.764600 0.000000 0.000000 
#    y 0.000000 4.318160 0.000000 
#    z 0.000000 0.000000 3.978880 
# 
# 
# High freq. dielectric constant tensor:
#      x y z
#    x 1.833480 0.000000 0.000000 
#    y 0.000000 1.861410 0.000000 
#    z 0.000000 0.000000 1.852520 
# 
# From -- ./inp_files/9837.got.cif
#   From: 2010.03.12/outbox.cif.g09.slc.cpg/sg54_5_cif.got.tgz:9837.got - 2010.04.16 15:00:50.
