data_PCOD8223485
_publ_section_title
;
Structure prediction by ZEFSAII (Michael W. Deem and Ramdas Pophale) SiO2 
 PCOD8223485
Probable space group: P C C A
;
_chemical_formula_sum "Si O2"
_cell_formula_units_Z 48
_cell_length_a 9.391961
_cell_length_b 13.867878
_cell_length_c 17.450259
_cell_angle_alpha 90.000000
_cell_angle_beta 90.000000
_cell_angle_gamma 90.000000
_cell_volume 2272.836369
_symmetry_space_group_name_H-M "P C C A"
_symmetry_group_IT_number 54
_symmetry_cell_setting 'orthorhombic'
loop_
_space_group_symop_operation_xyz
x,y,z
1/2-x,-y,z
1/2+x,-y,1/2-z
-x,y,1/2-z
-x,-y,-z
1/2+x,y,-z
1/2-x,y,1/2+z
x,-y,1/2+z
loop_
_atom_site_type_symbol
_atom_site_label
_atom_site_fract_x
_atom_site_fract_y
_atom_site_fract_z
Si Si1 0.781194 0.226283 0.405310
Si Si2 0.992038 0.357108 0.160273
Si Si3 0.898122 0.953992 0.819291
Si Si4 0.498617 0.848894 0.659625
Si Si5 0.784223 0.270598 0.581412
Si Si6 0.092330 0.530007 0.428491
O O1 0.872975 0.133808 0.377772
O O2 0.623974 0.222274 0.370651
O O3 0.762607 0.232152 0.496047
O O4 0.859132 0.323229 0.376515
O O5 0.864914 0.298747 0.119510
O O6 0.967312 0.471316 0.145258
O O7 0.000000 0.336919 0.250000
O O8 0.000000 0.918140 0.750000
O O9 0.750000 0.000000 0.786624
O O10 0.973384 0.040445 0.866762
O O11 0.500000 0.844599 0.750000
O O12 0.652201 0.817558 0.629337
O O13 0.902841 0.355931 0.586774
O O14 0.250000 0.500000 0.450773
O O15 0.000000 0.500000 0.500000
#
# Coordination Sequence:
#
# PCOD8223485 Si02
#       6
#     8   8   8   8   8   8
#     4  11  21  37  64  91 125 168 207 262 315 378
#     4  11  23  40  63  94 124 163 217 261 311 378
#     4   9  20  38  60  89 127 168 212 257 316 376
#     4  10  22  40  60  88 127 168 211 258 313 374
#     4  11  23  40  63  92 128 162 210 262 317 379
#     4  10  22  40  62  88 123 164 205 254 321 380
#
# _framework density 21.118984999999999
#
# number of rings (size 3 to 8) (size 9 to 14) (size 15 to 20)
#    0.000    1.667    1.667    2.500    2.333    4.000 
#    0.000    5.833    0.000    0.000    0.000    0.000 
#    0.000    0.000    0.000    0.000    0.000    0.000 
#
# Total GULP energy -595103.327754 kJ/mol
# GULP energy per Si atom -12397.985995 kJ/mol
# Density = 2.107092 g / cm^3
# Si number density = 21.118985 Si / 1000 Ang^3
#
#
#
# Elastic Constant Matrix: (Units=GPa)
#
#
# Indices 1 2 3 4 5 6 
#
# 1 49.4320 29.0489 33.5192 0.0000 0.0000 0.0000
# 2 29.0489 85.3065 34.0265 0.0000 0.0000 0.0000
# 3 33.5192 34.0265 135.4897 0.0000 0.0000 0.0000
# 4 0.0000 0.0000 0.0000 45.9928 0.0000 0.0000
# 5 0.0000 0.0000 0.0000 0.0000 42.6216 0.0000
# 6 0.0000 0.0000 0.0000 0.0000 0.0000 36.5621
#
#
#
# Elastic Compliance Matrix: (Units=1/GPa)
#
#
# Indices 1 2 3 4 5 6 
#
# 1 0.028094 -0.007551 -0.005054 0.000000 0.000000 0.000000
# 2 -0.007551 0.015057 -0.001913 0.000000 0.000000 0.000000
# 3 -0.005054 -0.001913 0.009111 0.000000 0.000000 0.000000
# 4 0.000000 0.000000 0.000000 0.021743 0.000000 0.000000
# 5 0.000000 0.000000 0.000000 0.000000 0.023462 0.000000
# 6 0.000000 0.000000 0.000000 0.000000 0.000000 0.027351
#
#
# Mechanical properties :
#
#
# Convention : Reuss Voigt Hill
#
# Bulk Modulus (GPa) = 43.05487 51.49082 47.27285
# Shear Modulus (GPa) = 30.94131 36.61089 33.77610
#
# Velocity S-wave (km/s) = 3.83181 4.16811 4.00349
# Velocity P-wave (km/s) = 6.32519 6.89916 6.61840
#
# Compressibility (1/GPa) = 0.02322617
#
# Stress axis : x y z
#
# Youngs Moduli (GPa) = 35.59462 66.41496 109.75193
#
# Poissons Ratio (x) = 0.50149 0.55469
# Poissons Ratio (y) = 0.26877 0.20999
# Poissons Ratio (z) = 0.17989 0.12707
#
# Static dielectric constant tensor:
#      x y z
#    x 3.917350 0.000000 0.000000 
#    y 0.000000 4.383630 0.000000 
#    z 0.000000 0.000000 3.665610 
# 
# 
# High freq. dielectric constant tensor:
#      x y z
#    x 1.839280 0.000000 0.000000 
#    y 0.000000 1.834520 0.000000 
#    z 0.000000 0.000000 1.816110 
# 
# From -- ./inp_files/16625.got.cif
#   From: 2010.03.12/outbox.cif.g09.slc.cpg/sg54_9_cif.got.tgz:16625.got - 2010.04.16 15:00:50.
