data_PCOD8223158
_publ_section_title
;
Structure prediction by ZEFSAII (Michael W. Deem and Ramdas Pophale) SiO2 
 PCOD8223158
Probable space group: P C C A
;
_chemical_formula_sum "Si O2"
_cell_formula_units_Z 28
_cell_length_a 9.563961
_cell_length_b 7.860717
_cell_length_c 15.969879
_cell_angle_alpha 90.000000
_cell_angle_beta 90.000000
_cell_angle_gamma 90.000000
_cell_volume 1200.608969
_symmetry_space_group_name_H-M "P C C A"
_symmetry_group_IT_number 54
_symmetry_cell_setting 'orthorhombic'
loop_
_space_group_symop_operation_xyz
x,y,z
1/2-x,-y,z
1/2+x,-y,1/2-z
-x,y,1/2-z
-x,-y,-z
1/2+x,y,-z
1/2-x,y,1/2+z
x,-y,1/2+z
loop_
_atom_site_type_symbol
_atom_site_label
_atom_site_fract_x
_atom_site_fract_y
_atom_site_fract_z
Si Si1 0.081979 0.857396 0.453153
Si Si2 0.250000 0.000000 0.308924
Si Si3 0.336059 0.660881 0.490003
Si Si4 0.355658 0.352633 0.791841
O O1 0.117981 0.922991 0.360759
O O2 0.228799 0.818785 0.499217
O O3 0.977455 0.691509 0.455074
O O4 0.000000 0.000000 0.500000
O O5 0.306257 0.835415 0.257892
O O6 0.250000 0.500000 0.524282
O O7 0.373418 0.646266 0.392006
O O8 0.250000 0.500000 0.763369
O O9 0.500000 0.401070 0.750000
#
# Coordination Sequence:
#
# PCOD8223158 Si02
#       4
#     8   4   8   8
#     4  11  17  35  60  88 122 153 188 249 309 366
#     4  10  22  40  68  90 128 156 202 260 312 360
#     4  10  21  36  59  89 122 158 198 248 308 365
#     4  10  22  42  64  85 121 165 210 256 296 354
#
# _framework density 23.321494999999999
#
# number of rings (size 3 to 8) (size 9 to 14) (size 15 to 20)
#    0.000    1.714    5.714    0.857    0.000    1.143 
#    0.000   14.286    0.000    0.000    0.000    0.000 
#    0.000    0.000    0.000    0.000    0.000    0.000 
#
# Total GULP energy -346912.895867 kJ/mol
# GULP energy per Si atom -12389.746281 kJ/mol
# Density = 2.326841 g / cm^3
# Si number density = 23.321495 Si / 1000 Ang^3
#
#
#
# Elastic Constant Matrix: (Units=GPa)
#
#
# Indices 1 2 3 4 5 6 
#
# 1 185.5152 56.7473 46.9739 0.0000 0.0000 0.0000
# 2 56.7473 131.4047 29.2466 0.0000 0.0000 0.0000
# 3 46.9739 29.2466 25.1626 0.0000 0.0000 0.0000
# 4 0.0000 0.0000 0.0000 5.3892 0.0000 0.0000
# 5 0.0000 0.0000 0.0000 0.0000 19.7990 0.0000
# 6 0.0000 0.0000 0.0000 0.0000 0.0000 62.8296
#
#
#
# Elastic Compliance Matrix: (Units=1/GPa)
#
#
# Indices 1 2 3 4 5 6 
#
# 1 0.010227 -0.000226 -0.018830 0.000000 0.000000 0.000000
# 2 -0.000226 0.010271 -0.011516 0.000000 0.000000 0.000000
# 3 -0.018830 -0.011516 0.088280 0.000000 0.000000 0.000000
# 4 0.000000 0.000000 0.000000 0.185558 0.000000 0.000000
# 5 0.000000 0.000000 0.000000 0.000000 0.050507 0.000000
# 6 0.000000 0.000000 0.000000 0.000000 0.000000 0.015916
#
#
# Mechanical properties :
#
#
# Convention : Reuss Voigt Hill
#
# Bulk Modulus (GPa) = 20.99379 67.55757 44.27568
# Shear Modulus (GPa) = 11.42120 31.54454 21.48287
#
# Velocity S-wave (km/s) = 2.21538 3.68175 3.03836
# Velocity P-wave (km/s) = 3.94529 6.86328 5.59776
#
# Compressibility (1/GPa) = 0.04763314
#
# Stress axis : x y z
#
# Youngs Moduli (GPa) = 97.77619 97.36397 11.32758
#
# Poissons Ratio (x) = 0.02197 0.21330
# Poissons Ratio (y) = 0.02206 0.13045
# Poissons Ratio (z) = 1.84117 1.12129
#
# Static dielectric constant tensor:
#      x y z
#    x 5.072840 0.000000 0.000000 
#    y 0.000000 10.374530 0.000000 
#    z 0.000000 0.000000 3.700900 
# 
# 
# High freq. dielectric constant tensor:
#      x y z
#    x 1.943760 0.000000 0.000000 
#    y 0.000000 1.956940 0.000000 
#    z 0.000000 0.000000 1.843640 
# 
# From -- ./inp_files/16138.got.cif
#   From: 2010.03.12/outbox.cif.g09.slc.cpg/sg54_9_cif.got.tgz:16138.got - 2010.04.16 15:00:50.
