data_PCOD8223204
_publ_section_title
;
Structure prediction by ZEFSAII (Michael W. Deem and Ramdas Pophale) SiO2 
 PCOD8223204
Probable space group: P C C A
;
_chemical_formula_sum "Si O2"
_cell_formula_units_Z 40
_cell_length_a 8.746524
_cell_length_b 7.739238
_cell_length_c 28.531690
_cell_angle_alpha 90.000000
_cell_angle_beta 90.000000
_cell_angle_gamma 90.000000
_cell_volume 1931.350922
_symmetry_space_group_name_H-M "P C C A"
_symmetry_group_IT_number 54
_symmetry_cell_setting 'orthorhombic'
loop_
_space_group_symop_operation_xyz
x,y,z
1/2-x,-y,z
1/2+x,-y,1/2-z
-x,y,1/2-z
-x,-y,-z
1/2+x,y,-z
1/2-x,y,1/2+z
x,-y,1/2+z
loop_
_atom_site_type_symbol
_atom_site_label
_atom_site_fract_x
_atom_site_fract_y
_atom_site_fract_z
Si Si1 0.059151 0.169831 0.135014
Si Si2 0.353697 0.331518 0.039998
Si Si3 0.567484 0.518670 0.301174
Si Si4 0.579276 0.789860 0.862662
Si Si5 0.550096 0.169241 0.971557
O O1 0.997540 0.318592 0.169731
O O2 0.239191 0.195613 0.137570
O O3 0.994297 0.183415 0.082247
O O4 0.009228 0.976782 0.150846
O O5 0.250000 0.500000 0.049400
O O6 0.456827 0.279958 0.085045
O O7 0.233823 0.178616 0.027791
O O8 0.472858 0.337271 0.996700
O O9 0.750000 0.500000 0.299572
O O10 0.500000 0.534147 0.250000
O O11 0.507711 0.343720 0.325668
O O12 0.500000 0.000000 0.000000
#
# Coordination Sequence:
#
# PCOD8223204 Si02
#       5
#     8   8   8   8   8
#     4   9  18  34  57  81 111 148 189 229 278 344
#     4  11  21  34  55  84 117 156 199 237 283 343
#     4  10  21  38  60  82 108 141 187 240 290 341
#     4   9  17  34  57  82 106 147 192 230 273 344
#     4  11  20  35  56  83 118 153 195 237 283 341
#
# _framework density 20.710892000000001
#
# number of rings (size 3 to 8) (size 9 to 14) (size 15 to 20)
#    0.000    2.000    2.000    4.200    0.000    0.800 
#    0.000    3.000    0.000    0.000    0.000    0.000 
#    0.000    0.000    0.000    0.000    0.000    0.000 
#
# Total GULP energy -495532.097163 kJ/mol
# GULP energy per Si atom -12388.302429 kJ/mol
# Density = 2.066375 g / cm^3
# Si number density = 20.710892 Si / 1000 Ang^3
#
#
#
# Elastic Constant Matrix: (Units=GPa)
#
#
# Indices 1 2 3 4 5 6 
#
# 1 14.0757 3.4452 21.4381 0.0000 0.0000 0.0000
# 2 3.4452 166.6954 92.0948 0.0000 0.0000 0.0000
# 3 21.4381 92.0948 179.9320 0.0000 0.0000 0.0000
# 4 0.0000 0.0000 0.0000 38.2673 0.0000 0.0000
# 5 0.0000 0.0000 0.0000 0.0000 29.1917 0.0000
# 6 0.0000 0.0000 0.0000 0.0000 0.0000 10.4012
#
#
#
# Elastic Compliance Matrix: (Units=1/GPa)
#
#
# Indices 1 2 3 4 5 6 
#
# 1 0.090518 0.005699 -0.013702 0.000000 0.000000 0.000000
# 2 0.005699 0.008723 -0.005144 0.000000 0.000000 0.000000
# 3 -0.013702 -0.005144 0.009823 0.000000 0.000000 0.000000
# 4 0.000000 0.000000 0.000000 0.026132 0.000000 0.000000
# 5 0.000000 0.000000 0.000000 0.000000 0.034256 0.000000
# 6 0.000000 0.000000 0.000000 0.000000 0.000000 0.096143
#
#
# Mechanical properties :
#
#
# Convention : Reuss Voigt Hill
#
# Bulk Modulus (GPa) = 12.08155 66.07324 39.07740
# Shear Modulus (GPa) = 15.65056 31.82039 23.73548
#
# Velocity S-wave (km/s) = 2.75192 3.92396 3.38899
# Velocity P-wave (km/s) = 3.99294 7.24581 5.85002
#
# Compressibility (1/GPa) = 0.08277082
#
# Stress axis : x y z
#
# Youngs Moduli (GPa) = 11.04756 114.64049 101.80355
#
# Poissons Ratio (x) = -0.65334 1.39488
# Poissons Ratio (y) = -0.06296 0.52364
# Poissons Ratio (z) = 0.15137 0.58967
#
# Static dielectric constant tensor:
#      x y z
#    x 3.172030 0.000000 0.000000 
#    y 0.000000 4.278930 0.000000 
#    z 0.000000 0.000000 3.795570 
# 
# 
# High freq. dielectric constant tensor:
#      x y z
#    x 1.755030 0.000000 0.000000 
#    y 0.000000 1.836510 0.000000 
#    z 0.000000 0.000000 1.804930 
# 
# From -- ./inp_files/23286.got.cif
#   From: 2010.03.12/outbox.cif.g09.slc.cpg/sg54_12_cif.got.tgz:23286.got - 2010.04.16 15:00:50.
