data_PCOD8223254
_publ_section_title
;
Structure prediction by ZEFSAII (Michael W. Deem and Ramdas Pophale) SiO2 
 PCOD8223254
Probable space group: P C C A
;
_chemical_formula_sum "Si O2"
_cell_formula_units_Z 24
_cell_length_a 5.158514
_cell_length_b 13.057377
_cell_length_c 15.552431
_cell_angle_alpha 90.000000
_cell_angle_beta 90.000000
_cell_angle_gamma 90.000000
_cell_volume 1047.559839
_symmetry_space_group_name_H-M "P C C A"
_symmetry_group_IT_number 54
_symmetry_cell_setting 'orthorhombic'
loop_
_space_group_symop_operation_xyz
x,y,z
1/2-x,-y,z
1/2+x,-y,1/2-z
-x,y,1/2-z
-x,-y,-z
1/2+x,y,-z
1/2-x,y,1/2+z
x,-y,1/2+z
loop_
_atom_site_type_symbol
_atom_site_label
_atom_site_fract_x
_atom_site_fract_y
_atom_site_fract_z
Si Si1 0.258862 0.882142 0.445807
Si Si2 0.049318 0.613612 0.463596
Si Si3 0.747258 0.284376 0.194508
O O1 0.480548 0.855798 0.514600
O O2 0.313224 0.814664 0.361800
O O3 0.250000 0.000000 0.416628
O O4 0.270712 0.669295 0.523166
O O5 0.154947 0.619716 0.366017
O O6 0.000000 0.500000 0.500000
O O7 0.500000 0.254253 0.250000
O O8 0.000000 0.316693 0.250000
#
# Coordination Sequence:
#
# PCOD8223254 Si02
#       3
#     8   8   8
#     4  10  21  39  63  89 123 173 221 253 301 387
#     4  10  21  41  65  85 113 162 208 248 306 382
#     4  12  24  38  61  95 130 160 203 270 332 374
#
# _framework density 22.910388999999999
#
# number of rings (size 3 to 8) (size 9 to 14) (size 15 to 20)
#    0.000    1.333    0.000    6.000    0.000    1.333 
#    0.000   13.333    0.000    0.000    0.000    0.000 
#    0.000    0.000    0.000    0.000    0.000    0.000 
#
# Total GULP energy -297352.293739 kJ/mol
# GULP energy per Si atom -12389.678906 kJ/mol
# Density = 2.285824 g / cm^3
# Si number density = 22.910389 Si / 1000 Ang^3
#
#
#
# Elastic Constant Matrix: (Units=GPa)
#
#
# Indices 1 2 3 4 5 6 
#
# 1 189.9700 37.9295 55.6503 0.0000 0.0000 0.0000
# 2 37.9295 87.9775 51.3091 0.0000 0.0000 0.0000
# 3 55.6503 51.3091 137.3806 0.0000 0.0000 0.0000
# 4 0.0000 0.0000 0.0000 27.5713 0.0000 0.0000
# 5 0.0000 0.0000 0.0000 0.0000 50.5191 0.0000
# 6 0.0000 0.0000 0.0000 0.0000 0.0000 30.3667
#
#
#
# Elastic Compliance Matrix: (Units=1/GPa)
#
#
# Indices 1 2 3 4 5 6 
#
# 1 0.006129 -0.001527 -0.001912 0.000000 0.000000 0.000000
# 2 -0.001527 0.014912 -0.004951 0.000000 0.000000 0.000000
# 3 -0.001912 -0.004951 0.009903 0.000000 0.000000 0.000000
# 4 0.000000 0.000000 0.000000 0.036270 0.000000 0.000000
# 5 0.000000 0.000000 0.000000 0.000000 0.019794 0.000000
# 6 0.000000 0.000000 0.000000 0.000000 0.000000 0.032931
#
#
# Mechanical properties :
#
#
# Convention : Reuss Voigt Hill
#
# Bulk Modulus (GPa) = 70.60445 78.34510 74.47477
# Shear Modulus (GPa) = 35.35042 39.72071 37.53557
#
# Velocity S-wave (km/s) = 3.93235 4.16834 4.05206
# Velocity P-wave (km/s) = 7.17652 7.57874 7.38037
#
# Compressibility (1/GPa) = 0.01416341
#
# Stress axis : x y z
#
# Youngs Moduli (GPa) = 163.15536 67.05875 100.98147
#
# Poissons Ratio (x) = 0.10240 0.19312
# Poissons Ratio (y) = 0.24915 0.49995
# Poissons Ratio (z) = 0.31203 0.33200
#
# Static dielectric constant tensor:
#      x y z
#    x 180.907390 0.000000 0.000000 
#    y 0.000000 4.989350 0.000000 
#    z 0.000000 0.000000 4.128820 
# 
# 
# High freq. dielectric constant tensor:
#      x y z
#    x 1.948370 0.000000 0.000000 
#    y 0.000000 1.907820 0.000000 
#    z 0.000000 0.000000 1.885850 
# 
# From -- ./inp_files/10680.got.cif
#   From: 2010.03.12/outbox.cif.g09.slc.cpg/sg54_6_cif.got.tgz:10680.got - 2010.04.16 15:00:50.
