data_PCOD8223151
_publ_section_title
;
Structure prediction by ZEFSAII (Michael W. Deem and Ramdas Pophale) SiO2 
 PCOD8223151
Probable space group: P C C A
;
_chemical_formula_sum "Si O2"
_cell_formula_units_Z 64
_cell_length_a 17.261652
_cell_length_b 9.274438
_cell_length_c 20.160814
_cell_angle_alpha 90.000000
_cell_angle_beta 90.000000
_cell_angle_gamma 90.000000
_cell_volume 3227.587479
_symmetry_space_group_name_H-M "P C C A"
_symmetry_group_IT_number 54
_symmetry_cell_setting 'orthorhombic'
loop_
_space_group_symop_operation_xyz
x,y,z
1/2-x,-y,z
1/2+x,-y,1/2-z
-x,y,1/2-z
-x,-y,-z
1/2+x,y,-z
1/2-x,y,1/2+z
x,-y,1/2+z
loop_
_atom_site_type_symbol
_atom_site_label
_atom_site_fract_x
_atom_site_fract_y
_atom_site_fract_z
Si Si1 0.161750 0.456596 0.750012
Si Si2 0.092175 0.846330 0.249876
Si Si3 0.436333 0.873853 0.607213
Si Si4 0.913153 0.047457 0.133543
Si Si5 0.677313 0.907951 0.004919
Si Si6 0.672550 0.579275 0.017698
Si Si7 0.933453 0.378402 0.142777
Si Si8 0.086905 0.456911 0.611649
O O1 0.250000 0.500000 0.766927
O O2 0.142625 0.292327 0.771281
O O3 0.103306 0.560183 0.789801
O O4 0.148251 0.467830 0.671385
O O5 0.110934 0.902048 0.175601
O O6 0.000000 0.807839 0.250000
O O7 0.116977 0.974320 0.298941
O O8 0.391389 0.943455 0.545833
O O9 0.449005 0.702007 0.601128
O O10 0.518606 0.950133 0.604955
O O11 0.941522 0.207265 0.150274
O O12 0.845019 0.049715 0.079728
O O13 0.750000 0.000000 0.982064
O O14 0.696949 0.740184 0.997776
O O15 0.750000 0.500000 0.038902
O O16 0.617320 0.574732 0.080552
O O17 0.630958 0.498956 0.955965
O O18 0.019108 0.433954 0.129229
#
# Coordination Sequence:
#
# PCOD8223151 Si02
#       8
#     8   8   8   8   8   8   8   8
#     4  11  22  37  58  83 112 149 186 228 280 333
#     4   9  19  38  60  80 108 147 183 223 277 333
#     4   9  19  38  59  79 107 144 185 226 275 328
#     4  10  21  36  57  84 112 143 183 230 276 326
#     4  10  22  37  55  81 112 146 185 225 271 330
#     4  10  22  39  57  83 116 148 184 230 283 331
#     4  11  22  36  58  87 113 144 189 233 274 329
#     4  10  21  39  60  83 111 147 190 233 276 332
#
# _framework density 19.829052000000001
#
# number of rings (size 3 to 8) (size 9 to 14) (size 15 to 20)
#    0.000    2.000    0.000    4.125    0.000    8.000 
#    0.000    4.375    0.000    0.000    0.000    0.000 
#    0.000    0.000    0.000    0.000    0.000    0.000 
#
# Total GULP energy -793676.957584 kJ/mol
# GULP energy per Si atom -12401.202462 kJ/mol
# Density = 1.978392 g / cm^3
# Si number density = 19.829052 Si / 1000 Ang^3
#
#
#
# Elastic Constant Matrix: (Units=GPa)
#
#
# Indices 1 2 3 4 5 6 
#
# 1 66.4797 38.9108 7.0626 0.0000 0.0000 0.0000
# 2 38.9108 82.6266 32.1558 0.0000 0.0000 0.0000
# 3 7.0626 32.1558 85.4790 0.0000 0.0000 0.0000
# 4 0.0000 0.0000 0.0000 28.8279 0.0000 0.0000
# 5 0.0000 0.0000 0.0000 0.0000 -92.6936 0.0000
# 6 0.0000 0.0000 0.0000 0.0000 0.0000 31.3559
#
#
#
# Elastic Compliance Matrix: (Units=1/GPa)
#
#
# Indices 1 2 3 4 5 6 
#
# 1 0.021159 -0.010876 0.002343 0.000000 0.000000 0.000000
# 2 -0.010876 0.019769 -0.006538 0.000000 0.000000 0.000000
# 3 0.002343 -0.006538 0.013965 0.000000 0.000000 0.000000
# 4 0.000000 0.000000 0.000000 0.034689 0.000000 0.000000
# 5 0.000000 0.000000 0.000000 0.000000 -0.010788 0.000000
# 6 0.000000 0.000000 0.000000 0.000000 0.000000 0.031892
#
#
# Mechanical properties :
#
#
# Convention : Reuss Voigt Hill
#
# Bulk Modulus (GPa) = 40.40323 43.42709 41.91516
# Shear Modulus (GPa) = 33.53959 3.92846 18.73403
#
# Velocity S-wave (km/s) = 4.11717 1.40907 3.07706
# Velocity P-wave (km/s) = 6.55907 4.95939 5.81451
#
# Compressibility (1/GPa) = 0.02475049
#
# Stress axis : x y z
#
# Youngs Moduli (GPa) = 47.26090 50.58432 71.60912
#
# Poissons Ratio (x) = 0.55017 -0.16779
# Poissons Ratio (y) = 0.51402 0.46819
# Poissons Ratio (z) = -0.11074 0.33073
#
# Static dielectric constant tensor:
#      x y z
#    x 3.383700 0.000000 0.000000 
#    y 0.000000 3.631070 0.000000 
#    z 0.000000 0.000000 3.918500 
# 
# 
# High freq. dielectric constant tensor:
#      x y z
#    x 1.758750 0.000000 0.000000 
#    y 0.000000 1.770610 0.000000 
#    z 0.000000 0.000000 1.792290 
# 
# From -- ./inp_files/21976.got.cif
#   From: 2010.03.12/outbox.cif.g09.slc.cpg/sg54_11_cif.got.tgz:21976.got - 2010.04.16 15:00:50.
