data_PCOD8223702
_publ_section_title
;
Structure prediction by ZEFSAII (Michael W. Deem and Ramdas Pophale) SiO2 
 PCOD8223702
Probable space group: P C C A
;
_chemical_formula_sum "Si O2"
_cell_formula_units_Z 40
_cell_length_a 12.877162
_cell_length_b 14.662536
_cell_length_c 9.553326
_cell_angle_alpha 90.000000
_cell_angle_beta 90.000000
_cell_angle_gamma 90.000000
_cell_volume 1803.781169
_symmetry_space_group_name_H-M "P C C A"
_symmetry_group_IT_number 54
_symmetry_cell_setting 'orthorhombic'
loop_
_space_group_symop_operation_xyz
x,y,z
1/2-x,-y,z
1/2+x,-y,1/2-z
-x,y,1/2-z
-x,-y,-z
1/2+x,y,-z
1/2-x,y,1/2+z
x,-y,1/2+z
loop_
_atom_site_type_symbol
_atom_site_label
_atom_site_fract_x
_atom_site_fract_y
_atom_site_fract_z
Si Si1 0.759077 0.261615 0.555150
Si Si2 0.925005 0.024468 0.369604
Si Si3 0.625762 0.569264 0.127546
Si Si4 0.401299 0.596333 0.051952
Si Si5 0.776820 0.860682 0.323893
O O1 0.706883 0.350799 0.613640
O O2 0.863917 0.300240 0.480283
O O3 0.689213 0.215900 0.434599
O O4 0.773376 0.184236 0.671770
O O5 0.867114 0.934489 0.315459
O O6 0.000000 0.062563 0.250000
O O7 0.833555 0.099954 0.385790
O O8 0.000000 0.000000 0.500000
O O9 0.524934 0.600757 0.039886
O O10 0.618278 0.556183 0.293468
O O11 0.655291 0.471628 0.059474
#
# Coordination Sequence:
#
# PCOD8223702 Si02
#       5
#     8   8   8   8   8
#     4  12  23  41  65  97 137 168 212 285 329 378
#     4  11  24  47  72  93 132 179 213 271 345 403
#     4  10  23  42  64  92 131 178 225 263 325 390
#     4  10  23  42  64  92 130 180 222 267 321 394
#     4  11  26  42  66 105 131 165 233 274 328 419
#
# _framework density 22.175640000000001
#
# number of rings (size 3 to 8) (size 9 to 14) (size 15 to 20)
#    0.000    1.200    2.000    3.000    2.800    9.600 
#    0.000    0.000    0.000    0.000    0.000    0.000 
#    0.000    0.000    0.000    0.000    0.000    0.000 
#
# Total GULP energy -495570.900451 kJ/mol
# GULP energy per Si atom -12389.272511 kJ/mol
# Density = 2.212517 g / cm^3
# Si number density = 22.175640 Si / 1000 Ang^3
#
#
#
# Elastic Constant Matrix: (Units=GPa)
#
#
# Indices 1 2 3 4 5 6 
#
# 1 72.7527 27.4965 15.4323 0.0000 0.0000 0.0000
# 2 27.4965 100.2634 29.5986 0.0000 0.0000 0.0000
# 3 15.4323 29.5986 117.9179 0.0000 0.0000 0.0000
# 4 0.0000 0.0000 0.0000 48.8367 0.0000 0.0000
# 5 0.0000 0.0000 0.0000 0.0000 30.9890 0.0000
# 6 0.0000 0.0000 0.0000 0.0000 0.0000 25.0451
#
#
#
# Elastic Compliance Matrix: (Units=1/GPa)
#
#
# Indices 1 2 3 4 5 6 
#
# 1 0.015451 -0.003932 -0.001035 0.000000 0.000000 0.000000
# 2 -0.003932 0.011772 -0.002440 0.000000 0.000000 0.000000
# 3 -0.001035 -0.002440 0.009229 0.000000 0.000000 0.000000
# 4 0.000000 0.000000 0.000000 0.020476 0.000000 0.000000
# 5 0.000000 0.000000 0.000000 0.000000 0.032269 0.000000
# 6 0.000000 0.000000 0.000000 0.000000 0.000000 0.039928
#
#
# Mechanical properties :
#
#
# Convention : Reuss Voigt Hill
#
# Bulk Modulus (GPa) = 46.21700 48.44321 47.33010
# Shear Modulus (GPa) = 33.07920 35.53461 34.30690
#
# Velocity S-wave (km/s) = 3.86643 4.00736 3.93753
# Velocity P-wave (km/s) = 6.38897 6.58062 6.48551
#
# Compressibility (1/GPa) = 0.02163706
#
# Stress axis : x y z
#
# Youngs Moduli (GPa) = 64.72189 84.94445 108.35961
#
# Poissons Ratio (x) = 0.33397 0.11217
# Poissons Ratio (y) = 0.25446 0.26445
# Poissons Ratio (z) = 0.06700 0.20730
#
# Static dielectric constant tensor:
#      x y z
#    x 4.198600 0.000000 0.000000 
#    y 0.000000 4.191390 0.000000 
#    z 0.000000 0.000000 4.109240 
# 
# 
# High freq. dielectric constant tensor:
#      x y z
#    x 1.874170 0.000000 0.000000 
#    y 0.000000 1.882950 0.000000 
#    z 0.000000 0.000000 1.881290 
# 
# From -- ./inp_files/3424.got.cif
#   From: 2010.03.12/outbox.cif.g09.slc.cpg/sg54_2_cif.got.tgz:3424.got - 2010.04.16 15:00:50.
