data_PCOD8223582
_publ_section_title
;
Structure prediction by ZEFSAII (Michael W. Deem and Ramdas Pophale) SiO2 
 PCOD8223582
Probable space group: P C C A
;
_chemical_formula_sum "Si O2"
_cell_formula_units_Z 60
_cell_length_a 18.936536
_cell_length_b 11.044829
_cell_length_c 13.797732
_cell_angle_alpha 90.000000
_cell_angle_beta 90.000000
_cell_angle_gamma 90.000000
_cell_volume 2885.806713
_symmetry_space_group_name_H-M "P C C A"
_symmetry_group_IT_number 54
_symmetry_cell_setting 'orthorhombic'
loop_
_space_group_symop_operation_xyz
x,y,z
1/2-x,-y,z
1/2+x,-y,1/2-z
-x,y,1/2-z
-x,-y,-z
1/2+x,y,-z
1/2-x,y,1/2+z
x,-y,1/2+z
loop_
_atom_site_type_symbol
_atom_site_label
_atom_site_fract_x
_atom_site_fract_y
_atom_site_fract_z
Si Si1 0.571384 0.932588 0.474349
Si Si2 0.763131 0.667398 0.059187
Si Si3 0.679155 0.944521 0.836181
Si Si4 0.582798 0.649366 0.487492
Si Si5 0.476715 0.442534 0.140079
Si Si6 0.250000 0.500000 0.771267
Si Si7 0.331828 0.332011 0.127579
Si Si8 0.811493 0.073688 0.618677
O O1 0.566976 0.788123 0.456130
O O2 0.614918 0.954318 0.570582
O O3 0.500000 0.000000 0.500000
O O4 0.609525 0.999811 0.385057
O O5 0.834365 0.616802 0.005940
O O6 0.702960 0.663548 0.978283
O O7 0.725694 0.600433 0.150252
O O8 0.788134 0.789341 0.108592
O O9 0.684949 0.800239 0.833644
O O10 0.677279 0.981552 0.724660
O O11 0.750000 0.000000 0.885254
O O12 0.551573 0.570722 0.399498
O O13 0.544494 0.611166 0.586138
O O14 0.500000 0.460259 0.250000
O O15 0.415941 0.343312 0.122105
O O16 0.192133 0.439054 0.701231
O O17 0.750000 0.000000 0.564738
#
# Coordination Sequence:
#
# PCOD8223582 Si02
#       8
#     8   8   8   8   8   4   8   8
#     4  11  23  42  67  97 130 172 222 275 330 405
#     4  11  22  41  66  94 133 163 223 278 318 402
#     4  11  23  43  67  96 131 169 216 272 335 394
#     4  10  23  44  64  94 130 177 219 270 340 387
#     4  11  24  42  65  92 136 179 219 268 331 403
#     4  12  22  36  58  98 128 164 222 266 320 380
#     4  12  24  40  67 100 127 177 218 273 335 386
#     4  10  22  42  66  94 129 172 210 269 338 388
#
# _framework density 20.791412999999999
#
# number of rings (size 3 to 8) (size 9 to 14) (size 15 to 20)
#    0.000    1.067    1.333    6.400    1.867    1.600 
#    2.400    0.000    0.000    0.000    0.000    0.000 
#    0.000    0.000    0.000    0.000    0.000    0.000 
#
# Total GULP energy -743376.378752 kJ/mol
# GULP energy per Si atom -12389.606313 kJ/mol
# Density = 2.074409 g / cm^3
# Si number density = 20.791413 Si / 1000 Ang^3
#
#
#
# Elastic Constant Matrix: (Units=GPa)
#
#
# Indices 1 2 3 4 5 6 
#
# 1 104.5533 54.3813 37.3788 0.0000 0.0000 0.0000
# 2 54.3813 94.4013 38.5558 0.0000 0.0000 0.0000
# 3 37.3788 38.5558 123.7027 0.0000 0.0000 0.0000
# 4 0.0000 0.0000 0.0000 37.9851 0.0000 0.0000
# 5 0.0000 0.0000 0.0000 0.0000 44.8224 0.0000
# 6 0.0000 0.0000 0.0000 0.0000 0.0000 38.5045
#
#
#
# Elastic Compliance Matrix: (Units=1/GPa)
#
#
# Indices 1 2 3 4 5 6 
#
# 1 0.014066 -0.007296 -0.001976 0.000000 0.000000 0.000000
# 2 -0.007296 0.015922 -0.002758 0.000000 0.000000 0.000000
# 3 -0.001976 -0.002758 0.009541 0.000000 0.000000 0.000000
# 4 0.000000 0.000000 0.000000 0.026326 0.000000 0.000000
# 5 0.000000 0.000000 0.000000 0.000000 0.022310 0.000000
# 6 0.000000 0.000000 0.000000 0.000000 0.000000 0.025971
#
#
# Mechanical properties :
#
#
# Convention : Reuss Voigt Hill
#
# Bulk Modulus (GPa) = 64.64708 64.80991 64.72850
# Shear Modulus (GPa) = 34.87906 37.08517 35.98212
#
# Velocity S-wave (km/s) = 4.10026 4.22794 4.16459
# Velocity P-wave (km/s) = 7.31962 7.42113 7.37055
#
# Compressibility (1/GPa) = 0.01546860
#
# Stress axis : x y z
#
# Youngs Moduli (GPa) = 71.09499 62.80493 104.81360
#
# Poissons Ratio (x) = 0.45820 0.20714
# Poissons Ratio (y) = 0.51868 0.28910
# Poissons Ratio (z) = 0.14050 0.17323
#
# Static dielectric constant tensor:
#      x y z
#    x 3.881970 0.000000 0.000000 
#    y 0.000000 4.049850 0.000000 
#    z 0.000000 0.000000 3.883250 
# 
# 
# High freq. dielectric constant tensor:
#      x y z
#    x 1.813220 0.000000 0.000000 
#    y 0.000000 1.825260 0.000000 
#    z 0.000000 0.000000 1.827350 
# 
# From -- ./inp_files/9603.got.cif
#   From: 2010.03.12/outbox.cif.g09.slc.cpg/sg54_5_cif.got.tgz:9603.got - 2010.04.16 15:00:50.
