data_PCOD8223732
_publ_section_title
;
Structure prediction by ZEFSAII (Michael W. Deem and Ramdas Pophale) SiO2 
 PCOD8223732
Probable space group: P C C A
;
_chemical_formula_sum "Si O2"
_cell_formula_units_Z 40
_cell_length_a 8.628421
_cell_length_b 8.262676
_cell_length_c 23.935882
_cell_angle_alpha 90.000000
_cell_angle_beta 90.000000
_cell_angle_gamma 90.000000
_cell_volume 1706.481112
_symmetry_space_group_name_H-M "P C C A"
_symmetry_group_IT_number 54
_symmetry_cell_setting 'orthorhombic'
loop_
_space_group_symop_operation_xyz
x,y,z
1/2-x,-y,z
1/2+x,-y,1/2-z
-x,y,1/2-z
-x,-y,-z
1/2+x,y,-z
1/2-x,y,1/2+z
x,-y,1/2+z
loop_
_atom_site_type_symbol
_atom_site_label
_atom_site_fract_x
_atom_site_fract_y
_atom_site_fract_z
Si Si1 0.120157 0.889232 0.355307
Si Si2 0.873855 0.120407 0.335460
Si Si3 0.941324 0.690557 0.447349
Si Si4 0.423307 0.326104 0.561733
Si Si5 0.684857 0.679323 0.742387
O O1 0.212722 0.760375 0.317532
O O2 0.012527 0.806136 0.401001
O O3 0.250000 0.000000 0.385417
O O4 0.012711 0.002342 0.314366
O O5 0.958934 0.234303 0.380827
O O6 0.784678 0.221666 0.288044
O O7 0.750000 0.000000 0.364678
O O8 0.758512 0.686872 0.446604
O O9 0.994017 0.506827 0.433915
O O10 0.996400 0.754541 0.507826
O O11 0.750000 0.500000 0.742792
O O12 0.500000 0.676134 0.750000
#
# Coordination Sequence:
#
# PCOD8223732 Si02
#       5
#     8   8   8   8   8
#     4  12  29  47  72 110 148 189 243 305 362 431
#     4  12  25  48  75 104 149 190 233 303 372 418
#     4  10  23  46  70 107 144 192 242 297 357 436
#     4  10  23  43  75 103 146 191 241 295 362 433
#     4  12  29  49  75 104 143 195 246 294 362 442
#
# _framework density 23.440047
#
# number of rings (size 3 to 8) (size 9 to 14) (size 15 to 20)
#    0.000    0.800    4.000    0.600   11.200    1.600 
#    3.600    0.000    0.000    0.000    0.000    0.000 
#    0.000    0.000    0.000    0.000    0.000    0.000 
#
# Total GULP energy -495656.350244 kJ/mol
# GULP energy per Si atom -12391.408756 kJ/mol
# Density = 2.338670 g / cm^3
# Si number density = 23.440047 Si / 1000 Ang^3
#
#
#
# Elastic Constant Matrix: (Units=GPa)
#
#
# Indices 1 2 3 4 5 6 
#
# 1 91.2838 64.5875 46.7441 0.0000 0.0000 0.0000
# 2 64.5875 95.4780 27.0561 0.0000 0.0000 0.0000
# 3 46.7441 27.0561 87.6381 0.0000 0.0000 0.0000
# 4 0.0000 0.0000 0.0000 16.0726 0.0000 0.0000
# 5 0.0000 0.0000 0.0000 0.0000 -2.3149 0.0000
# 6 0.0000 0.0000 0.0000 0.0000 0.0000 47.9140
#
#
#
# Elastic Compliance Matrix: (Units=1/GPa)
#
#
# Indices 1 2 3 4 5 6 
#
# 1 0.026683 -0.015361 -0.009490 0.000000 0.000000 0.000000
# 2 -0.015361 0.020321 0.001920 0.000000 0.000000 0.000000
# 3 -0.009490 0.001920 0.015880 0.000000 0.000000 0.000000
# 4 0.000000 0.000000 0.000000 0.062218 0.000000 0.000000
# 5 0.000000 0.000000 0.000000 0.000000 -0.431986 0.000000
# 6 0.000000 0.000000 0.000000 0.000000 0.000000 0.020871
#
#
# Mechanical properties :
#
#
# Convention : Reuss Voigt Hill
#
# Bulk Modulus (GPa) = 58.75042 61.24169 59.99605
# Shear Modulus (GPa) = -21.32391 21.40182 0.03896
#
# Velocity S-wave (km/s) = -3.01943 3.02494 0.12906
# Velocity P-wave (km/s) = 3.60036 6.19548 5.06688
#
# Compressibility (1/GPa) = 0.01702116
#
# Stress axis : x y z
#
# Youngs Moduli (GPa) = 37.47729 49.21082 62.97410
#
# Poissons Ratio (x) = 0.75592 0.59761
# Poissons Ratio (y) = 0.57568 -0.12089
# Poissons Ratio (z) = 0.35565 -0.09447
#
# Static dielectric constant tensor:
#      x y z
#    x 4.495720 0.000000 0.000000 
#    y 0.000000 4.712960 0.000000 
#    z 0.000000 0.000000 4.013000 
# 
# 
# High freq. dielectric constant tensor:
#      x y z
#    x 1.945690 0.000000 0.000000 
#    y 0.000000 1.942550 0.000000 
#    z 0.000000 0.000000 1.911210 
# 
# From -- ./inp_files/23281.got.cif
#   From: 2010.03.12/outbox.cif.g09.slc.cpg/sg54_12_cif.got.tgz:23281.got - 2010.04.16 15:00:50.
