data_PCOD8223914
_publ_section_title
;
Structure prediction by ZEFSAII (Michael W. Deem and Ramdas Pophale) SiO2 
 PCOD8223914
Probable space group: P C C A
;
_chemical_formula_sum "Si O2"
_cell_formula_units_Z 48
_cell_length_a 23.927792
_cell_length_b 5.068775
_cell_length_c 18.683725
_cell_angle_alpha 90.000000
_cell_angle_beta 90.000000
_cell_angle_gamma 90.000000
_cell_volume 2266.047999
_symmetry_space_group_name_H-M "P C C A"
_symmetry_group_IT_number 54
_symmetry_cell_setting 'orthorhombic'
loop_
_space_group_symop_operation_xyz
x,y,z
1/2-x,-y,z
1/2+x,-y,1/2-z
-x,y,1/2-z
-x,-y,-z
1/2+x,y,-z
1/2-x,y,1/2+z
x,-y,1/2+z
loop_
_atom_site_type_symbol
_atom_site_label
_atom_site_fract_x
_atom_site_fract_y
_atom_site_fract_z
Si Si1 0.877535 0.439089 0.870305
Si Si2 0.876924 0.049750 0.999973
Si Si3 0.786411 0.254673 0.432525
Si Si4 0.077890 0.225149 0.361520
Si Si5 0.473664 0.282812 0.551834
Si Si6 0.434467 0.266421 0.269912
O O1 0.823986 0.637636 0.865415
O O2 0.932338 0.594789 0.891006
O O3 0.891605 0.304781 0.795361
O O4 0.862758 0.232360 0.932562
O O5 0.874376 0.199331 0.076493
O O6 0.829388 0.822819 0.996980
O O7 0.940364 0.936600 0.993685
O O8 0.750000 0.500000 0.461754
O O9 0.750000 0.000000 0.408466
O O10 0.078553 0.520368 0.331326
O O11 0.019573 0.149489 0.398491
O O12 0.084801 0.018602 0.297645
O O13 0.500000 0.500000 0.500000
O O14 0.500000 0.275779 0.250000
#
# Coordination Sequence:
#
# PCOD8223914 Si02
#       6
#     8   8   8   8   8   8
#     4  11  24  41  68  98 133 177 231 273 331 400
#     4  11  24  40  70  96 129 171 232 276 332 395
#     4  11  24  44  73 102 121 160 228 305 345 386
#     4  12  25  40  61  94 142 182 213 260 328 391
#     4  11  21  37  60  99 135 180 223 268 315 395
#     4  12  26  40  60  95 145 185 217 257 320 397
#
# _framework density 21.182251999999998
#
# number of rings (size 3 to 8) (size 9 to 14) (size 15 to 20)
#    0.000    0.667    5.000    3.000    7.000    0.000 
#    0.000    0.000    0.000    6.000    0.000    0.000 
#    0.000    0.000    0.000    0.000    0.000    0.000 
#
# Total GULP energy -594996.901669 kJ/mol
# GULP energy per Si atom -12395.768785 kJ/mol
# Density = 2.113404 g / cm^3
# Si number density = 21.182252 Si / 1000 Ang^3
#
#
#
# Elastic Constant Matrix: (Units=GPa)
#
#
# Indices 1 2 3 4 5 6 
#
# 1 82.5124 15.1842 27.2008 0.0000 0.0000 0.0000
# 2 15.1842 83.2766 18.9859 0.0000 0.0000 0.0000
# 3 27.2008 18.9859 96.8300 0.0000 0.0000 0.0000
# 4 0.0000 0.0000 0.0000 44.6563 0.0000 0.0000
# 5 0.0000 0.0000 0.0000 0.0000 8.5475 0.0000
# 6 0.0000 0.0000 0.0000 0.0000 0.0000 50.2013
#
#
#
# Elastic Compliance Matrix: (Units=1/GPa)
#
#
# Indices 1 2 3 4 5 6 
#
# 1 0.013577 -0.001681 -0.003484 0.000000 0.000000 0.000000
# 2 -0.001681 0.012778 -0.002033 0.000000 0.000000 0.000000
# 3 -0.003484 -0.002033 0.011705 0.000000 0.000000 0.000000
# 4 0.000000 0.000000 0.000000 0.022393 0.000000 0.000000
# 5 0.000000 0.000000 0.000000 0.000000 0.116994 0.000000
# 6 0.000000 0.000000 0.000000 0.000000 0.000000 0.019920
#
#
# Mechanical properties :
#
#
# Convention : Reuss Voigt Hill
#
# Bulk Modulus (GPa) = 42.26042 42.81788 42.53915
# Shear Modulus (GPa) = 22.76323 34.09756 28.43040
#
# Velocity S-wave (km/s) = 3.28172 4.01649 3.66755
# Velocity P-wave (km/s) = 5.86121 6.46278 6.16933
#
# Compressibility (1/GPa) = 0.02366280
#
# Stress axis : x y z
#
# Youngs Moduli (GPa) = 73.65153 78.25793 85.43462
#
# Poissons Ratio (x) = 0.13157 0.29769
# Poissons Ratio (y) = 0.12383 0.17371
# Poissons Ratio (z) = 0.25663 0.15911
#
# Static dielectric constant tensor:
#      x y z
#    x 4.004980 0.000000 0.000000 
#    y 0.000000 3.948140 0.000000 
#    z 0.000000 0.000000 3.671620 
# 
# 
# High freq. dielectric constant tensor:
#      x y z
#    x 1.818410 0.000000 0.000000 
#    y 0.000000 1.852210 0.000000 
#    z 0.000000 0.000000 1.808360 
# 
# From -- ./inp_files/19057.got.cif
#   From: 2010.03.12/outbox.cif.g09.slc.cpg/sg54_10_cif.got.tgz:19057.got - 2010.04.16 15:00:50.
