data_PCOD8223206
_publ_section_title
;
Structure prediction by ZEFSAII (Michael W. Deem and Ramdas Pophale) SiO2 
 PCOD8223206
Probable space group: P C C A
;
_chemical_formula_sum "Si O2"
_cell_formula_units_Z 44
_cell_length_a 18.540049
_cell_length_b 5.884162
_cell_length_c 18.504193
_cell_angle_alpha 90.000000
_cell_angle_beta 90.000000
_cell_angle_gamma 90.000000
_cell_volume 2018.671484
_symmetry_space_group_name_H-M "P C C A"
_symmetry_group_IT_number 54
_symmetry_cell_setting 'orthorhombic'
loop_
_space_group_symop_operation_xyz
x,y,z
1/2-x,-y,z
1/2+x,-y,1/2-z
-x,y,1/2-z
-x,-y,-z
1/2+x,y,-z
1/2-x,y,1/2+z
x,-y,1/2+z
loop_
_atom_site_type_symbol
_atom_site_label
_atom_site_fract_x
_atom_site_fract_y
_atom_site_fract_z
Si Si1 0.354801 0.848504 0.184995
Si Si2 0.565723 0.864172 0.085012
Si Si3 0.484005 0.475811 0.672217
Si Si4 0.250000 0.500000 0.749199
Si Si5 0.421347 0.132759 0.073842
Si Si6 0.176241 0.118851 0.822408
O O1 0.430202 0.724520 0.192157
O O2 0.286654 0.680818 0.194799
O O3 0.353947 0.997419 0.110786
O O4 0.354398 0.027624 0.248281
O O5 0.555844 0.637885 0.135103
O O6 0.486829 0.958130 0.070447
O O7 0.615062 0.066656 0.118254
O O8 0.600346 0.792921 0.007551
O O9 0.500000 0.596094 0.750000
O O10 0.444198 0.646685 0.618695
O O11 0.192336 0.383906 0.804457
O O12 0.250000 0.000000 0.847991
#
# Coordination Sequence:
#
# PCOD8223206 Si02
#       6
#     8   8   8   4   8   8
#     4  10  21  39  57  93 120 162 210 261 311 365
#     4  10  22  41  56  91 130 162 203 259 317 377
#     4  11  21  35  65  93 120 165 210 255 311 374
#     4  10  22  38  62  88 124 164 220 272 300 374
#     4  10  23  36  62  90 129 162 200 262 319 376
#     4  10  21  38  60  86 120 162 216 261 306 373
#
# _framework density 21.796513000000001
#
# number of rings (size 3 to 8) (size 9 to 14) (size 15 to 20)
#    0.000    1.818    1.818    1.636    5.091    0.000 
#    0.000    5.455    0.000    0.000    0.000    0.000 
#    0.000    0.000    0.000    0.000    0.000    0.000 
#
# Total GULP energy -545177.882566 kJ/mol
# GULP energy per Si atom -12390.406422 kJ/mol
# Density = 2.174690 g / cm^3
# Si number density = 21.796513 Si / 1000 Ang^3
#
#
#
# Elastic Constant Matrix: (Units=GPa)
#
#
# Indices 1 2 3 4 5 6 
#
# 1 61.5805 25.7119 46.4130 0.0000 0.0000 0.0000
# 2 25.7119 106.4695 61.4511 0.0000 0.0000 0.0000
# 3 46.4130 61.4511 182.0693 0.0000 0.0000 0.0000
# 4 0.0000 0.0000 0.0000 19.3600 0.0000 0.0000
# 5 0.0000 0.0000 0.0000 0.0000 17.7717 0.0000
# 6 0.0000 0.0000 0.0000 0.0000 0.0000 32.6273
#
#
#
# Elastic Compliance Matrix: (Units=1/GPa)
#
#
# Indices 1 2 3 4 5 6 
#
# 1 0.020588 -0.002413 -0.004434 0.000000 0.000000 0.000000
# 2 -0.002413 0.011947 -0.003417 0.000000 0.000000 0.000000
# 3 -0.004434 -0.003417 0.007776 0.000000 0.000000 0.000000
# 4 0.000000 0.000000 0.000000 0.051653 0.000000 0.000000
# 5 0.000000 0.000000 0.000000 0.000000 0.056269 0.000000
# 6 0.000000 0.000000 0.000000 0.000000 0.000000 0.030649
#
#
# Mechanical properties :
#
#
# Convention : Reuss Voigt Hill
#
# Bulk Modulus (GPa) = 50.54720 68.58571 59.56645
# Shear Modulus (GPa) = 24.27115 28.38802 26.32959
#
# Velocity S-wave (km/s) = 3.34059 3.61281 3.47936
# Velocity P-wave (km/s) = 6.17416 6.99556 6.59765
#
# Compressibility (1/GPa) = 0.01978349
#
# Stress axis : x y z
#
# Youngs Moduli (GPa) = 48.57151 83.69989 128.59864
#
# Poissons Ratio (x) = 0.20195 0.57020
# Poissons Ratio (y) = 0.11719 0.43947
# Poissons Ratio (z) = 0.21536 0.28603
#
# Static dielectric constant tensor:
#      x y z
#    x 3.944660 0.000000 0.000000 
#    y 0.000000 3.969540 0.000000 
#    z 0.000000 0.000000 4.311570 
# 
# 
# High freq. dielectric constant tensor:
#      x y z
#    x 1.839430 0.000000 0.000000 
#    y 0.000000 1.857810 0.000000 
#    z 0.000000 0.000000 1.851010 
# 
# From -- ./inp_files/19011.got.cif
#   From: 2010.03.12/outbox.cif.g09.slc.cpg/sg54_10_cif.got.tgz:19011.got - 2010.04.16 15:00:50.
