data_PCOD8223449
_publ_section_title
;
Structure prediction by ZEFSAII (Michael W. Deem and Ramdas Pophale) SiO2 
 PCOD8223449
Probable space group: P C C A
;
_chemical_formula_sum "Si O2"
_cell_formula_units_Z 24
_cell_length_a 13.078962
_cell_length_b 13.647888
_cell_length_c 5.182129
_cell_angle_alpha 90.000000
_cell_angle_beta 90.000000
_cell_angle_gamma 90.000000
_cell_volume 925.011107
_symmetry_space_group_name_H-M "P C C A"
_symmetry_group_IT_number 54
_symmetry_cell_setting 'orthorhombic'
loop_
_space_group_symop_operation_xyz
x,y,z
1/2-x,-y,z
1/2+x,-y,1/2-z
-x,y,1/2-z
-x,-y,-z
1/2+x,y,-z
1/2-x,y,1/2+z
x,-y,1/2+z
loop_
_atom_site_type_symbol
_atom_site_label
_atom_site_fract_x
_atom_site_fract_y
_atom_site_fract_z
Si Si1 0.881959 0.952425 0.310843
Si Si2 0.933372 0.748260 0.496356
Si Si3 0.363009 0.541772 0.390997
O O1 0.865682 0.841989 0.414108
O O2 0.000000 0.975403 0.250000
O O3 0.832868 0.026025 0.527505
O O4 0.858687 0.657860 0.559047
O O5 0.000000 0.717152 0.250000
O O6 0.000000 0.774812 0.750000
O O7 0.250000 0.500000 0.330812
O O8 0.420090 0.480997 0.619423
#
# Coordination Sequence:
#
# PCOD8223449 Si02
#       3
#     8   8   8
#     4   9  16  28  46  73 111 143 166 204 261 319
#     4  11  21  32  53  84 111 139 180 225 263 310
#     4  10  22  39  55  74 103 146 186 221 271 322
#
# _framework density 25.945636
#
# number of rings (size 3 to 8) (size 9 to 14) (size 15 to 20)
#    0.000    2.000    0.000    7.000    0.000    4.000 
#    0.000    0.000    0.000    0.000    0.000   28.000 
#    0.000    0.000    0.000    0.000    0.000    2.000 
#
# Total GULP energy -297370.480693 kJ/mol
# GULP energy per Si atom -12390.436696 kJ/mol
# Density = 2.588658 g / cm^3
# Si number density = 25.945636 Si / 1000 Ang^3
#
#
#
# Elastic Constant Matrix: (Units=GPa)
#
#
# Indices 1 2 3 4 5 6 
#
# 1 39.2220 21.4330 -2.8652 0.0000 0.0000 0.0000
# 2 21.4330 221.2313 74.3376 0.0000 0.0000 0.0000
# 3 -2.8652 74.3376 229.6783 0.0000 0.0000 0.0000
# 4 0.0000 0.0000 0.0000 52.1416 0.0000 0.0000
# 5 0.0000 0.0000 0.0000 0.0000 -61.8772 0.0000
# 6 0.0000 0.0000 0.0000 0.0000 0.0000 31.2759
#
#
#
# Elastic Compliance Matrix: (Units=1/GPa)
#
#
# Indices 1 2 3 4 5 6 
#
# 1 0.027285 -0.003094 0.001342 0.000000 0.000000 0.000000
# 2 -0.003094 0.005423 -0.001794 0.000000 0.000000 0.000000
# 3 0.001342 -0.001794 0.004951 0.000000 0.000000 0.000000
# 4 0.000000 0.000000 0.000000 0.019179 0.000000 0.000000
# 5 0.000000 0.000000 0.000000 0.000000 -0.016161 0.000000
# 6 0.000000 0.000000 0.000000 0.000000 0.000000 0.031974
#
#
# Mechanical properties :
#
#
# Convention : Reuss Voigt Hill
#
# Bulk Modulus (GPa) = 32.71564 75.10474 53.91019
# Shear Modulus (GPa) = 55.59841 30.78979 43.19410
#
# Velocity S-wave (km/s) = 4.63415 3.44859 4.08461
# Velocity P-wave (km/s) = 6.42421 6.69827 6.56267
#
# Compressibility (1/GPa) = 0.03056642
#
# Stress axis : x y z
#
# Youngs Moduli (GPa) = 36.65050 184.41201 201.97122
#
# Poissons Ratio (x) = 0.57062 -0.27102
# Poissons Ratio (y) = 0.11341 0.36227
# Poissons Ratio (z) = -0.04918 0.33078
#
# Static dielectric constant tensor:
#      x y z
#    x 4.442030 0.000000 0.000000 
#    y 0.000000 4.485280 0.000000 
#    z 0.000000 0.000000 6.034090 
# 
# 
# High freq. dielectric constant tensor:
#      x y z
#    x 2.010220 0.000000 0.000000 
#    y 0.000000 2.030460 0.000000 
#    z 0.000000 0.000000 2.088820 
# 
# From -- ./inp_files/302.got.cif
#   From: 2010.03.12/outbox.cif.g09.slc.cpg/sg54_1_cif.got.tgz:302.got - 2010.04.16 15:00:50.
