data_PCOD8223989
_publ_section_title
;
Structure prediction by ZEFSAII (Michael W. Deem and Ramdas Pophale) SiO2 
 PCOD8223989
Probable space group: P C C A
;
_chemical_formula_sum "Si O2"
_cell_formula_units_Z 32
_cell_length_a 9.959254
_cell_length_b 6.838874
_cell_length_c 20.684164
_cell_angle_alpha 90.000000
_cell_angle_beta 90.000000
_cell_angle_gamma 90.000000
_cell_volume 1408.800132
_symmetry_space_group_name_H-M "P C C A"
_symmetry_group_IT_number 54
_symmetry_cell_setting 'orthorhombic'
loop_
_space_group_symop_operation_xyz
x,y,z
1/2-x,-y,z
1/2+x,-y,1/2-z
-x,y,1/2-z
-x,-y,-z
1/2+x,y,-z
1/2-x,y,1/2+z
x,-y,1/2+z
loop_
_atom_site_type_symbol
_atom_site_label
_atom_site_fract_x
_atom_site_fract_y
_atom_site_fract_z
Si Si1 0.368965 0.654613 0.953013
Si Si2 0.389905 0.977428 0.854541
Si Si3 0.500000 0.281507 0.250000
Si Si4 0.750000 0.500000 0.805411
Si Si5 0.056760 0.334524 0.095358
O O1 0.250000 0.500000 0.953522
O O2 0.339503 0.853232 0.916037
O O3 0.493637 0.549738 0.916581
O O4 0.394242 0.733682 0.025261
O O5 0.495116 0.857191 0.812280
O O6 0.250000 0.000000 0.814217
O O7 0.449427 0.183725 0.876191
O O8 0.364953 0.410704 0.241627
O O9 0.822186 0.655524 0.852926
#
# Coordination Sequence:
#
# PCOD8223989 Si02
#       5
#     8   8   4   4   8
#     4  11  22  47  72 113 148 187 242 305 378 439
#     4  12  27  46  74 110 144 196 246 309 362 443
#     4  12  32  48  74 106 150 198 254 296 364 442
#     4  12  28  52  74 106 146 206 246 312 368 442
#     4  11  25  46  76 105 149 190 245 305 377 439
#
# _framework density 22.714364
#
# number of rings (size 3 to 8) (size 9 to 14) (size 15 to 20)
#    0.000    0.500    6.250    0.750    8.750    0.000 
#    4.500    0.000    0.000    0.000    0.000    0.000 
#    0.000    0.000    0.000    0.000    0.000    0.000 
#
# Total GULP energy -396678.712500 kJ/mol
# GULP energy per Si atom -12396.209766 kJ/mol
# Density = 2.266266 g / cm^3
# Si number density = 22.714364 Si / 1000 Ang^3
#
#
#
# Elastic Constant Matrix: (Units=GPa)
#
#
# Indices 1 2 3 4 5 6 
#
# 1 119.3082 32.6506 35.3683 0.0000 0.0000 0.0000
# 2 32.6506 84.8378 42.5465 0.0000 0.0000 0.0000
# 3 35.3683 42.5465 90.0674 0.0000 0.0000 0.0000
# 4 0.0000 0.0000 0.0000 4.9063 0.0000 0.0000
# 5 0.0000 0.0000 0.0000 0.0000 35.6252 0.0000
# 6 0.0000 0.0000 0.0000 0.0000 0.0000 46.3208
#
#
#
# Elastic Compliance Matrix: (Units=1/GPa)
#
#
# Indices 1 2 3 4 5 6 
#
# 1 0.009853 -0.002426 -0.002723 0.000000 0.000000 0.000000
# 2 -0.002426 0.016044 -0.006626 0.000000 0.000000 0.000000
# 3 -0.002723 -0.006626 0.015302 0.000000 0.000000 0.000000
# 4 0.000000 0.000000 0.000000 0.203818 0.000000 0.000000
# 5 0.000000 0.000000 0.000000 0.000000 0.028070 0.000000
# 6 0.000000 0.000000 0.000000 0.000000 0.000000 0.021589
#
#
# Mechanical properties :
#
#
# Convention : Reuss Voigt Hill
#
# Bulk Modulus (GPa) = 56.66322 57.26049 56.96185
# Shear Modulus (GPa) = 15.42691 29.61366 22.52028
#
# Velocity S-wave (km/s) = 2.60892 3.61465 3.15215
# Velocity P-wave (km/s) = 5.83741 6.53335 6.19516
#
# Compressibility (1/GPa) = 0.01764813
#
# Stress axis : x y z
#
# Youngs Moduli (GPa) = 101.49324 62.32824 65.35035
#
# Poissons Ratio (x) = 0.15124 0.17794
# Poissons Ratio (y) = 0.24627 0.43302
# Poissons Ratio (z) = 0.27635 0.41300
#
# Static dielectric constant tensor:
#      x y z
#    x 4.277510 0.000000 0.000000 
#    y 0.000000 3.892030 0.000000 
#    z 0.000000 0.000000 4.127800 
# 
# 
# High freq. dielectric constant tensor:
#      x y z
#    x 1.909670 0.000000 0.000000 
#    y 0.000000 1.890650 0.000000 
#    z 0.000000 0.000000 1.901850 
# 
# From -- ./inp_files/20865.got.cif
#   From: 2010.03.12/outbox.cif.g09.slc.cpg/sg54_11_cif.got.tgz:20865.got - 2010.04.16 15:00:50.
