data_PCOD8223624
_publ_section_title
;
Structure prediction by ZEFSAII (Michael W. Deem and Ramdas Pophale) SiO2 
 PCOD8223624
Probable space group: P C C A
;
_chemical_formula_sum "Si O2"
_cell_formula_units_Z 32
_cell_length_a 8.619164
_cell_length_b 5.386729
_cell_length_c 29.330270
_cell_angle_alpha 90.000000
_cell_angle_beta 90.000000
_cell_angle_gamma 90.000000
_cell_volume 1361.778059
_symmetry_space_group_name_H-M "P C C A"
_symmetry_group_IT_number 54
_symmetry_cell_setting 'orthorhombic'
loop_
_space_group_symop_operation_xyz
x,y,z
1/2-x,-y,z
1/2+x,-y,1/2-z
-x,y,1/2-z
-x,-y,-z
1/2+x,y,-z
1/2-x,y,1/2+z
x,-y,1/2+z
loop_
_atom_site_type_symbol
_atom_site_label
_atom_site_fract_x
_atom_site_fract_y
_atom_site_fract_z
Si Si1 0.851770 0.257422 0.217967
Si Si2 0.250000 0.000000 0.437403
Si Si3 0.250000 0.000000 0.579483
Si Si4 0.517294 0.676488 0.957637
Si Si5 0.029616 0.699400 0.882113
O O1 0.750000 0.500000 0.233433
O O2 0.931664 0.333029 0.170485
O O3 0.000000 0.212878 0.250000
O O4 0.750000 0.000000 0.216153
O O5 0.390174 0.110153 0.467036
O O6 0.187523 0.216410 0.405582
O O7 0.311750 0.793226 0.544049
O O8 0.112368 0.893937 0.611337
O O9 0.506466 0.558763 0.907065
O O10 0.500000 0.500000 0.000000
#
# Coordination Sequence:
#
# PCOD8223624 Si02
#       5
#     8   4   4   8   8
#     4  12  28  51  82 119 159 205 261 325 397 477
#     4  10  22  43  69  96 136 194 239 300 368 451
#     4  10  26  43  67 106 138 194 247 312 378 451
#     4  11  25  44  68 102 144 194 250 313 372 454
#     4  11  24  44  73 103 146 188 251 298 386 452
#
# _framework density 23.498688999999999
#
# number of rings (size 3 to 8) (size 9 to 14) (size 15 to 20)
#    0.000    1.000    1.250    3.750    5.250   12.000 
#    0.000    3.750    0.000    0.000    0.000    0.000 
#    0.000    0.000    0.000    0.000    0.000    0.000 
#
# Total GULP energy -396573.693841 kJ/mol
# GULP energy per Si atom -12392.927933 kJ/mol
# Density = 2.344520 g / cm^3
# Si number density = 23.498689 Si / 1000 Ang^3
#
#
#
# Elastic Constant Matrix: (Units=GPa)
#
#
# Indices 1 2 3 4 5 6 
#
# 1 133.0671 47.0594 52.0889 0.0000 0.0000 0.0000
# 2 47.0594 125.6805 43.1301 0.0000 0.0000 0.0000
# 3 52.0889 43.1301 133.9496 0.0000 0.0000 0.0000
# 4 0.0000 0.0000 0.0000 32.9948 0.0000 0.0000
# 5 0.0000 0.0000 0.0000 0.0000 60.9177 0.0000
# 6 0.0000 0.0000 0.0000 0.0000 0.0000 52.0766
#
#
#
# Elastic Compliance Matrix: (Units=1/GPa)
#
#
# Indices 1 2 3 4 5 6 
#
# 1 0.009560 -0.002590 -0.002884 0.000000 0.000000 0.000000
# 2 -0.002590 0.009647 -0.002099 0.000000 0.000000 0.000000
# 3 -0.002884 -0.002099 0.009263 0.000000 0.000000 0.000000
# 4 0.000000 0.000000 0.000000 0.030308 0.000000 0.000000
# 5 0.000000 0.000000 0.000000 0.000000 0.016416 0.000000
# 6 0.000000 0.000000 0.000000 0.000000 0.000000 0.019202
#
#
# Mechanical properties :
#
#
# Convention : Reuss Voigt Hill
#
# Bulk Modulus (GPa) = 75.05154 75.25043 75.15099
# Shear Modulus (GPa) = 43.86682 45.89242 44.87962
#
# Velocity S-wave (km/s) = 4.32531 4.42405 4.37496
# Velocity P-wave (km/s) = 7.54668 7.62817 7.58753
#
# Compressibility (1/GPa) = 0.01332418
#
# Stress axis : x y z
#
# Youngs Moduli (GPa) = 104.60573 103.66159 107.96034
#
# Poissons Ratio (x) = 0.26848 0.31131
# Poissons Ratio (y) = 0.27092 0.22661
# Poissons Ratio (z) = 0.30164 0.21758
#
# Static dielectric constant tensor:
#      x y z
#    x 4.654660 0.000000 0.000000 
#    y 0.000000 4.628300 0.000000 
#    z 0.000000 0.000000 4.050390 
# 
# 
# High freq. dielectric constant tensor:
#      x y z
#    x 1.959170 0.000000 0.000000 
#    y 0.000000 1.948430 0.000000 
#    z 0.000000 0.000000 1.912920 
# 
# From -- ./inp_files/27426.got.cif
#   From: 2010.03.12/outbox.cif.g09.slc.cpg/sg54_14_cif.got.tgz:27426.got - 2010.04.16 15:00:50.
