data_PCOD8223533
_publ_section_title
;
Structure prediction by ZEFSAII (Michael W. Deem and Ramdas Pophale) SiO2 
 PCOD8223533
Probable space group: P C C A
;
_chemical_formula_sum "Si O2"
_cell_formula_units_Z 40
_cell_length_a 5.263718
_cell_length_b 18.257316
_cell_length_c 18.620989
_cell_angle_alpha 90.000000
_cell_angle_beta 90.000000
_cell_angle_gamma 90.000000
_cell_volume 1789.502421
_symmetry_space_group_name_H-M "P C C A"
_symmetry_group_IT_number 54
_symmetry_cell_setting 'orthorhombic'
loop_
_space_group_symop_operation_xyz
x,y,z
1/2-x,-y,z
1/2+x,-y,1/2-z
-x,y,1/2-z
-x,-y,-z
1/2+x,y,-z
1/2-x,y,1/2+z
x,-y,1/2+z
loop_
_atom_site_type_symbol
_atom_site_label
_atom_site_fract_x
_atom_site_fract_y
_atom_site_fract_z
Si Si1 0.250000 0.000000 0.047049
Si Si2 0.500000 0.045908 0.250000
Si Si3 0.250000 0.500000 0.796130
Si Si4 0.663701 0.862784 0.863894
Si Si5 0.943462 0.271755 0.954029
Si Si6 0.344250 0.654822 0.821754
Si Si7 0.000000 0.227508 0.250000
O O1 0.195409 0.072367 0.094360
O O2 0.500000 0.000000 0.000000
O O3 0.560910 0.097637 0.181287
O O4 0.250000 0.000000 0.233408
O O5 0.500000 0.506853 0.750000
O O6 0.218497 0.575766 0.841636
O O7 0.538949 0.809852 0.922422
O O8 0.834652 0.822079 0.803726
O O9 0.970496 0.327205 0.887851
O O10 0.169620 0.284816 0.010390
O O11 0.500000 0.644344 0.750000
O O12 0.149827 0.720944 0.806660
#
# Coordination Sequence:
#
# PCOD8223533 Si02
#       7
#     4   4   4   8   8   8   4
#     4  12  30  48  68  92 136 192 240 296 368 446
#     4  12  27  46  72 101 130 174 232 312 371 424
#     4  10  22  40  76 110 150 190 244 304 362 430
#     4  12  26  47  72 101 139 185 245 303 374 437
#     4  12  27  46  71 105 149 194 241 297 369 440
#     4  11  23  46  74 113 146 196 248 306 360 446
#     4  12  23  46  76 113 140 190 244 320 379 434
#
# _framework density 22.35258
#
# number of rings (size 3 to 8) (size 9 to 14) (size 15 to 20)
#    0.000    0.400    4.000    4.200    1.400    3.200 
#    0.000    1.000    0.000    0.000    0.000    0.000 
#    0.000    0.000    0.000    0.000    0.000    0.000 
#
# Total GULP energy -495618.712169 kJ/mol
# GULP energy per Si atom -12390.467804 kJ/mol
# Density = 2.230170 g / cm^3
# Si number density = 22.352580 Si / 1000 Ang^3
#
#
#
# Elastic Constant Matrix: (Units=GPa)
#
#
# Indices 1 2 3 4 5 6 
#
# 1 103.0200 33.5248 36.7454 0.0000 0.0000 0.0000
# 2 33.5248 171.9168 63.2921 0.0000 0.0000 0.0000
# 3 36.7454 63.2921 124.7239 0.0000 0.0000 0.0000
# 4 0.0000 0.0000 0.0000 30.6864 0.0000 0.0000
# 5 0.0000 0.0000 0.0000 0.0000 39.4122 0.0000
# 6 0.0000 0.0000 0.0000 0.0000 0.0000 -16.9509
#
#
#
# Elastic Compliance Matrix: (Units=1/GPa)
#
#
# Indices 1 2 3 4 5 6 
#
# 1 0.011036 -0.001175 -0.002655 0.000000 0.000000 0.000000
# 2 -0.001175 0.007278 -0.003347 0.000000 0.000000 0.000000
# 3 -0.002655 -0.003347 0.010499 0.000000 0.000000 0.000000
# 4 0.000000 0.000000 0.000000 0.032588 0.000000 0.000000
# 5 0.000000 0.000000 0.000000 0.000000 0.025373 0.000000
# 6 0.000000 0.000000 0.000000 0.000000 0.000000 -0.058994
#
#
# Mechanical properties :
#
#
# Convention : Reuss Voigt Hill
#
# Bulk Modulus (GPa) = 69.16340 74.08724 71.62532
# Shear Modulus (GPa) = 106.48805 28.36943 67.42874
#
# Velocity S-wave (km/s) = 6.90967 3.56642 5.49831
# Velocity P-wave (km/s) = 9.72971 7.08350 8.51009
#
# Compressibility (1/GPa) = 0.01445851
#
# Stress axis : x y z
#
# Youngs Moduli (GPa) = 90.61091 137.39777 95.25041
#
# Poissons Ratio (x) = 0.16138 0.25293
# Poissons Ratio (y) = 0.10642 0.31883
# Poissons Ratio (z) = 0.24061 0.45991
#
# Static dielectric constant tensor:
#      x y z
#    x 4.382700 0.000000 0.000000 
#    y 0.000000 4.990530 0.000000 
#    z 0.000000 0.000000 3.965060 
# 
# 
# High freq. dielectric constant tensor:
#      x y z
#    x 1.871960 0.000000 0.000000 
#    y 0.000000 1.902450 0.000000 
#    z 0.000000 0.000000 1.883340 
# 
# From -- ./inp_files/15822.got.cif
#   From: 2010.03.12/outbox.cif.g09.slc.cpg/sg54_8_cif.got.tgz:15822.got - 2010.04.16 15:00:50.
