data_PCOD8223249
_publ_section_title
;
Structure prediction by ZEFSAII (Michael W. Deem and Ramdas Pophale) SiO2 
 PCOD8223249
Probable space group: P C C A
;
_chemical_formula_sum "Si O2"
_cell_formula_units_Z 56
_cell_length_a 14.428373
_cell_length_b 14.376289
_cell_length_c 12.431606
_cell_angle_alpha 90.000000
_cell_angle_beta 90.000000
_cell_angle_gamma 90.000000
_cell_volume 2578.644025
_symmetry_space_group_name_H-M "P C C A"
_symmetry_group_IT_number 54
_symmetry_cell_setting 'orthorhombic'
loop_
_space_group_symop_operation_xyz
x,y,z
1/2-x,-y,z
1/2+x,-y,1/2-z
-x,y,1/2-z
-x,-y,-z
1/2+x,y,-z
1/2-x,y,1/2+z
x,-y,1/2+z
loop_
_atom_site_type_symbol
_atom_site_label
_atom_site_fract_x
_atom_site_fract_y
_atom_site_fract_z
Si Si1 0.059385 0.529568 0.154334
Si Si2 0.586078 0.182390 0.962047
Si Si3 0.904958 0.384815 0.508708
Si Si4 0.780421 0.800682 0.768255
Si Si5 0.403228 0.116296 0.304517
Si Si6 0.211374 0.395034 0.787990
Si Si7 0.069248 0.900864 0.841644
O O1 0.120438 0.454533 0.088969
O O2 0.123371 0.607988 0.208822
O O3 0.000000 0.480143 0.250000
O O4 0.994155 0.581058 0.071463
O O5 0.563552 0.290633 0.951450
O O6 0.668793 0.162999 0.876913
O O7 0.492191 0.119845 0.948015
O O8 0.618850 0.165596 0.083134
O O9 0.817094 0.374355 0.588286
O O10 0.679238 0.848741 0.773011
O O11 0.777470 0.688062 0.754516
O O12 0.837652 0.839435 0.665107
O O13 0.500000 0.147102 0.250000
O O14 0.401714 0.006883 0.326098
O O15 0.250000 0.500000 0.781575
O O16 0.000000 0.864884 0.750000
#
# Coordination Sequence:
#
# PCOD8223249 Si02
#       7
#     8   8   8   8   8   8   8
#     4   9  21  39  62  87 124 173 217 275 327 393
#     4  11  23  41  69  98 131 175 228 273 345 404
#     4  10  21  39  62  93 126 168 229 269 335 403
#     4  11  24  42  67  97 136 175 222 275 335 409
#     4  11  24  44  69  98 134 173 223 285 340 403
#     4  11  23  39  61  91 137 173 219 275 335 393
#     4   9  22  44  67  96 131 170 220 278 336 401
#
# _framework density 21.716840999999999
#
# number of rings (size 3 to 8) (size 9 to 14) (size 15 to 20)
#    0.000    1.714    1.429    1.714    2.000    8.000 
#    0.000    4.286    0.000    0.000    0.000    0.000 
#    0.000    0.000    0.000    0.000    0.000    0.000 
#
# Total GULP energy -694082.010320 kJ/mol
# GULP energy per Si atom -12394.321613 kJ/mol
# Density = 2.166741 g / cm^3
# Si number density = 21.716841 Si / 1000 Ang^3
#
#
#
# Elastic Constant Matrix: (Units=GPa)
#
#
# Indices 1 2 3 4 5 6 
#
# 1 112.8976 51.8207 43.4702 0.0000 0.0000 0.0000
# 2 51.8207 121.0017 24.6059 0.0000 0.0000 0.0000
# 3 43.4702 24.6059 97.4808 0.0000 0.0000 0.0000
# 4 0.0000 0.0000 0.0000 20.6799 0.0000 0.0000
# 5 0.0000 0.0000 0.0000 0.0000 25.1897 0.0000
# 6 0.0000 0.0000 0.0000 0.0000 0.0000 27.9230
#
#
#
# Elastic Compliance Matrix: (Units=1/GPa)
#
#
# Indices 1 2 3 4 5 6 
#
# 1 0.012662 -0.004506 -0.004509 0.000000 0.000000 0.000000
# 2 -0.004506 0.010315 -0.000594 0.000000 0.000000 0.000000
# 3 -0.004509 -0.000594 0.012419 0.000000 0.000000 0.000000
# 4 0.000000 0.000000 0.000000 0.048356 0.000000 0.000000
# 5 0.000000 0.000000 0.000000 0.000000 0.039699 0.000000
# 6 0.000000 0.000000 0.000000 0.000000 0.000000 0.035813
#
#
# Mechanical properties :
#
#
# Convention : Reuss Voigt Hill
#
# Bulk Modulus (GPa) = 61.81380 63.46374 62.63877
# Shear Modulus (GPa) = 27.19245 28.85741 28.02493
#
# Velocity S-wave (km/s) = 3.54239 3.64923 3.59621
# Velocity P-wave (km/s) = 6.72731 6.85876 6.79335
#
# Compressibility (1/GPa) = 0.01617762
#
# Stress axis : x y z
#
# Youngs Moduli (GPa) = 78.97705 96.94760 80.52033
#
# Poissons Ratio (x) = 0.43682 0.36307
# Poissons Ratio (y) = 0.35585 0.04786
# Poissons Ratio (z) = 0.35611 0.05763
#
# Static dielectric constant tensor:
#      x y z
#    x 4.006430 0.000000 0.000000 
#    y 0.000000 3.876790 0.000000 
#    z 0.000000 0.000000 4.069920 
# 
# 
# High freq. dielectric constant tensor:
#      x y z
#    x 1.848600 0.000000 0.000000 
#    y 0.000000 1.855470 0.000000 
#    z 0.000000 0.000000 1.854420 
# 
# From -- ./inp_files/8454.got.cif
#   From: 2010.03.12/outbox.cif.g09.slc.cpg/sg54_5_cif.got.tgz:8454.got - 2010.04.16 15:00:50.
