data_PCOD8223851
_publ_section_title
;
Structure prediction by ZEFSAII (Michael W. Deem and Ramdas Pophale) SiO2 
 PCOD8223851
Probable space group: P C C A
;
_chemical_formula_sum "Si O2"
_cell_formula_units_Z 36
_cell_length_a 10.946463
_cell_length_b 5.315797
_cell_length_c 24.639273
_cell_angle_alpha 90.000000
_cell_angle_beta 90.000000
_cell_angle_gamma 90.000000
_cell_volume 1433.738973
_symmetry_space_group_name_H-M "P C C A"
_symmetry_group_IT_number 54
_symmetry_cell_setting 'orthorhombic'
loop_
_space_group_symop_operation_xyz
x,y,z
1/2-x,-y,z
1/2+x,-y,1/2-z
-x,y,1/2-z
-x,-y,-z
1/2+x,y,-z
1/2-x,y,1/2+z
x,-y,1/2+z
loop_
_atom_site_type_symbol
_atom_site_label
_atom_site_fract_x
_atom_site_fract_y
_atom_site_fract_z
Si Si1 0.750000 0.000000 0.691268
Si Si2 0.374152 0.348271 0.004905
Si Si3 0.551931 0.767311 0.881559
Si Si4 0.369382 0.343061 0.232819
Si Si5 0.595613 0.746210 0.111628
O O1 0.860687 0.091966 0.730171
O O2 0.710306 0.232457 0.652156
O O3 0.250000 0.500000 0.006794
O O4 0.376073 0.195645 0.061549
O O5 0.500000 0.500000 0.000000
O O6 0.366736 0.180216 0.950422
O O7 0.641567 0.711651 0.831358
O O8 0.456912 0.535401 0.885594
O O9 0.493731 0.034949 0.867790
O O10 0.250000 0.500000 0.249254
O O11 0.500000 0.470957 0.250000
#
# Coordination Sequence:
#
# PCOD8223851 Si02
#       5
#     4   8   8   8   8
#     4  12  28  44  78 110 150 212 260 314 382 468
#     4  10  24  47  78 112 151 195 248 314 383 458
#     4  11  25  51  74 114 150 201 250 326 384 454
#     4  12  27  48  76 109 156 203 262 320 387 462
#     4  11  26  47  78 108 156 197 260 306 391 465
#
# _framework density 25.109172000000001
#
# number of rings (size 3 to 8) (size 9 to 14) (size 15 to 20)
#    0.000    0.889    2.222    2.667    9.333    0.889 
#    0.000    0.000    0.000    0.000    0.000    0.000 
#    0.000    0.000    0.000    0.000    0.000    0.000 
#
# Total GULP energy -446052.760011 kJ/mol
# GULP energy per Si atom -12390.354445 kJ/mol
# Density = 2.505202 g / cm^3
# Si number density = 25.109172 Si / 1000 Ang^3
#
#
#
# Elastic Constant Matrix: (Units=GPa)
#
#
# Indices 1 2 3 4 5 6 
#
# 1 136.5342 14.7582 28.8388 0.0000 0.0000 0.0000
# 2 14.7582 44.8008 -11.5008 0.0000 0.0000 0.0000
# 3 28.8388 -11.5008 214.7014 0.0000 0.0000 0.0000
# 4 0.0000 0.0000 0.0000 38.6488 0.0000 0.0000
# 5 0.0000 0.0000 0.0000 0.0000 40.6626 0.0000
# 6 0.0000 0.0000 0.0000 0.0000 0.0000 15.7575
#
#
#
# Elastic Compliance Matrix: (Units=1/GPa)
#
#
# Indices 1 2 3 4 5 6 
#
# 1 0.007896 -0.002913 -0.001217 0.000000 0.000000 0.000000
# 2 -0.002913 0.023707 0.001661 0.000000 0.000000 0.000000
# 3 -0.001217 0.001661 0.004910 0.000000 0.000000 0.000000
# 4 0.000000 0.000000 0.000000 0.025874 0.000000 0.000000
# 5 0.000000 0.000000 0.000000 0.000000 0.024593 0.000000
# 6 0.000000 0.000000 0.000000 0.000000 0.000000 0.063462
#
#
# Mechanical properties :
#
#
# Convention : Reuss Voigt Hill
#
# Bulk Modulus (GPa) = 31.67002 51.13653 41.40328
# Shear Modulus (GPa) = 30.13779 43.27648 36.70714
#
# Velocity S-wave (km/s) = 3.46825 4.15605 3.82763
# Velocity P-wave (km/s) = 5.35525 6.59092 6.00495
#
# Compressibility (1/GPa) = 0.03157561
#
# Stress axis : x y z
#
# Youngs Moduli (GPa) = 126.64523 42.18127 203.66424
#
# Poissons Ratio (x) = 0.12289 0.24779
# Poissons Ratio (y) = 0.36897 -0.33834
# Poissons Ratio (z) = 0.15408 -0.07007
#
# Static dielectric constant tensor:
#      x y z
#    x 4.460170 0.000000 0.000000 
#    y 0.000000 4.070620 0.000000 
#    z 0.000000 0.000000 5.589000 
# 
# 
# High freq. dielectric constant tensor:
#      x y z
#    x 1.992510 0.000000 0.000000 
#    y 0.000000 1.970850 0.000000 
#    z 0.000000 0.000000 2.047250 
# 
# From -- ./inp_files/23819.got.cif
#   From: 2010.03.12/outbox.cif.g09.slc.cpg/sg54_12_cif.got.tgz:23819.got - 2010.04.16 15:00:50.
