data_PCOD8223053
_publ_section_title
;
Structure prediction by ZEFSAII (Michael W. Deem and Ramdas Pophale) SiO2 
 PCOD8223053
Probable space group: P C C A
;
_chemical_formula_sum "Si O2"
_cell_formula_units_Z 56
_cell_length_a 14.611969
_cell_length_b 7.700706
_cell_length_c 22.046277
_cell_angle_alpha 90.000000
_cell_angle_beta 90.000000
_cell_angle_gamma 90.000000
_cell_volume 2480.701704
_symmetry_space_group_name_H-M "P C C A"
_symmetry_group_IT_number 54
_symmetry_cell_setting 'orthorhombic'
loop_
_space_group_symop_operation_xyz
x,y,z
1/2-x,-y,z
1/2+x,-y,1/2-z
-x,y,1/2-z
-x,-y,-z
1/2+x,y,-z
1/2-x,y,1/2+z
x,-y,1/2+z
loop_
_atom_site_type_symbol
_atom_site_label
_atom_site_fract_x
_atom_site_fract_y
_atom_site_fract_z
Si Si1 0.108468 0.115078 0.861888
Si Si2 0.877339 0.656020 0.522999
Si Si3 0.500000 0.984426 0.250000
Si Si4 0.598925 0.646491 0.259391
Si Si5 0.802892 0.254186 0.143061
Si Si6 0.740877 0.813454 0.431882
Si Si7 0.250000 0.500000 0.157127
Si Si8 0.426471 0.732970 0.993275
O O1 0.036457 0.106596 0.805283
O O2 0.195690 0.231066 0.843140
O O3 0.144247 0.922268 0.873566
O O4 0.066616 0.196710 0.923769
O O5 0.825020 0.625576 0.586048
O O6 0.813899 0.779893 0.483837
O O7 0.890960 0.463539 0.497993
O O8 0.975183 0.752135 0.525202
O O9 0.579946 0.852465 0.276022
O O10 0.500000 0.553578 0.250000
O O11 0.656546 0.640723 0.198537
O O12 0.656072 0.532316 0.306628
O O13 0.760477 0.671189 0.381774
O O14 0.642482 0.834618 0.463806
O O15 0.750000 0.000000 0.399741
#
# Coordination Sequence:
#
# PCOD8223053 Si02
#       8
#     8   8   4   8   8   8   4   8
#     4  10  20  40  69 105 144 182 246 299 359 435
#     4  11  24  43  69 105 148 189 242 293 367 437
#     4   8  20  44  70 106 142 190 248 310 366 442
#     4   9  23  45  72 101 140 196 241 306 375 433
#     4  10  21  40  71 100 135 191 240 299 361 434
#     4  12  26  47  73 108 146 191 242 297 370 439
#     4  12  26  50  74 104 152 190 244 314 368 442
#     4  11  24  41  70 107 146 194 235 302 362 439
#
# _framework density 22.574258
#
# number of rings (size 3 to 8) (size 9 to 14) (size 15 to 20)
#    0.429    1.143    2.857    0.857    2.000    4.571 
#    7.714    0.000    1.571    2.571    0.000    0.000 
#    0.000    0.000    0.000    0.000    0.000    0.000 
#
# Total GULP energy -693886.014848 kJ/mol
# GULP energy per Si atom -12390.821694 kJ/mol
# Density = 2.252288 g / cm^3
# Si number density = 22.574258 Si / 1000 Ang^3
#
#
#
# Elastic Constant Matrix: (Units=GPa)
#
#
# Indices 1 2 3 4 5 6 
#
# 1 131.3842 37.5122 67.9277 0.0000 0.0000 0.0000
# 2 37.5122 78.9423 59.3318 0.0000 0.0000 0.0000
# 3 67.9277 59.3318 127.8465 0.0000 0.0000 0.0000
# 4 0.0000 0.0000 0.0000 34.3267 0.0000 0.0000
# 5 0.0000 0.0000 0.0000 0.0000 52.4427 0.0000
# 6 0.0000 0.0000 0.0000 0.0000 0.0000 5.3925
#
#
#
# Elastic Compliance Matrix: (Units=1/GPa)
#
#
# Indices 1 2 3 4 5 6 
#
# 1 0.010571 -0.001231 -0.005045 0.000000 0.000000 0.000000
# 2 -0.001231 0.019596 -0.008440 0.000000 0.000000 0.000000
# 3 -0.005045 -0.008440 0.014419 0.000000 0.000000 0.000000
# 4 0.000000 0.000000 0.000000 0.029132 0.000000 0.000000
# 5 0.000000 0.000000 0.000000 0.000000 0.019068 0.000000
# 6 0.000000 0.000000 0.000000 0.000000 0.000000 0.185442
#
#
# Mechanical properties :
#
#
# Convention : Reuss Voigt Hill
#
# Bulk Modulus (GPa) = 65.99162 74.19071 70.09116
# Shear Modulus (GPa) = 15.98907 29.99248 22.99078
#
# Velocity S-wave (km/s) = 2.66425 3.64897 3.19478
# Velocity P-wave (km/s) = 6.22583 7.11968 6.68770
#
# Compressibility (1/GPa) = 0.01515344
#
# Stress axis : x y z
#
# Youngs Moduli (GPa) = 94.59528 51.03097 69.35069
#
# Poissons Ratio (x) = 0.06284 0.34990
# Poissons Ratio (y) = 0.11648 0.58532
# Poissons Ratio (z) = 0.47727 0.43070
#
# Static dielectric constant tensor:
#      x y z
#    x 4.532890 0.000000 0.000000 
#    y 0.000000 3.941850 0.000000 
#    z 0.000000 0.000000 4.728440 
# 
# 
# High freq. dielectric constant tensor:
#      x y z
#    x 1.899830 0.000000 0.000000 
#    y 0.000000 1.888760 0.000000 
#    z 0.000000 0.000000 1.878700 
# 
# From -- ./inp_files/21650.got.cif
#   From: 2010.03.12/outbox.cif.g09.slc.cpg/sg54_11_cif.got.tgz:21650.got - 2010.04.16 15:00:50.
