data_PCOD8223193
_publ_section_title
;
Structure prediction by ZEFSAII (Michael W. Deem and Ramdas Pophale) SiO2 
 PCOD8223193
Probable space group: P C C A
;
_chemical_formula_sum "Si O2"
_cell_formula_units_Z 48
_cell_length_a 8.670831
_cell_length_b 9.560111
_cell_length_c 27.122146
_cell_angle_alpha 90.000000
_cell_angle_beta 90.000000
_cell_angle_gamma 90.000000
_cell_volume 2248.266068
_symmetry_space_group_name_H-M "P C C A"
_symmetry_group_IT_number 54
_symmetry_cell_setting 'orthorhombic'
loop_
_space_group_symop_operation_xyz
x,y,z
1/2-x,-y,z
1/2+x,-y,1/2-z
-x,y,1/2-z
-x,-y,-z
1/2+x,y,-z
1/2-x,y,1/2+z
x,-y,1/2+z
loop_
_atom_site_type_symbol
_atom_site_label
_atom_site_fract_x
_atom_site_fract_y
_atom_site_fract_z
Si Si1 0.732774 0.344316 0.066599
Si Si2 0.818399 0.654671 0.338956
Si Si3 0.674185 0.652979 0.673142
Si Si4 0.784250 0.143952 0.927799
Si Si5 0.490955 0.774326 0.005455
Si Si6 0.182066 0.155358 0.243862
O O1 0.750000 0.500000 0.084648
O O2 0.700737 0.272861 0.119604
O O3 0.593382 0.342437 0.027805
O O4 0.888513 0.290738 0.042838
O O5 0.750000 0.500000 0.342621
O O6 0.811849 0.722674 0.393436
O O7 0.716431 0.753773 0.304617
O O8 0.990873 0.641097 0.318153
O O9 0.750000 0.500000 0.681807
O O10 0.743369 0.764989 0.710347
O O11 0.927817 0.124127 0.965530
O O12 0.750000 0.000000 0.897469
O O13 0.634734 0.150906 0.961991
O O14 0.000000 0.143410 0.250000
O O15 0.250000 0.000000 0.238925
#
# Coordination Sequence:
#
# PCOD8223193 Si02
#       6
#     8   8   8   8   8   8
#     4  10  21  37  64  96 138 175 228 274 338 392
#     4  12  26  45  72 103 138 179 227 284 344 408
#     4  11  24  45  69 101 142 178 228 280 344 407
#     4  11  24  42  66  95 137 180 232 278 342 400
#     4  10  22  40  62  95 131 184 227 282 329 404
#     4  12  27  49  76 105 137 177 222 277 341 409
#
# _framework density 21.349786000000002
#
# number of rings (size 3 to 8) (size 9 to 14) (size 15 to 20)
#    0.000    1.000    1.667    4.500    7.000    2.667 
#    0.000    0.833    0.000    0.000    0.000    0.000 
#    0.000    0.000    0.000    0.000    0.000    0.000 
#
# Total GULP energy -594855.674338 kJ/mol
# GULP energy per Si atom -12392.826549 kJ/mol
# Density = 2.130119 g / cm^3
# Si number density = 21.349786 Si / 1000 Ang^3
#
#
#
# Elastic Constant Matrix: (Units=GPa)
#
#
# Indices 1 2 3 4 5 6 
#
# 1 157.3387 45.4703 34.0089 0.0000 0.0000 0.0000
# 2 45.4703 139.0395 45.5369 0.0000 0.0000 0.0000
# 3 34.0089 45.5369 106.1726 0.0000 0.0000 0.0000
# 4 0.0000 0.0000 0.0000 27.5526 0.0000 0.0000
# 5 0.0000 0.0000 0.0000 0.0000 32.1147 0.0000
# 6 0.0000 0.0000 0.0000 0.0000 0.0000 19.5739
#
#
#
# Elastic Compliance Matrix: (Units=1/GPa)
#
#
# Indices 1 2 3 4 5 6 
#
# 1 0.007222 -0.001866 -0.001513 0.000000 0.000000 0.000000
# 2 -0.001866 0.008850 -0.003198 0.000000 0.000000 0.000000
# 3 -0.001513 -0.003198 0.011275 0.000000 0.000000 0.000000
# 4 0.000000 0.000000 0.000000 0.036294 0.000000 0.000000
# 5 0.000000 0.000000 0.000000 0.000000 0.031138 0.000000
# 6 0.000000 0.000000 0.000000 0.000000 0.000000 0.051088
#
#
# Mechanical properties :
#
#
# Convention : Reuss Voigt Hill
#
# Bulk Modulus (GPa) = 70.45945 72.50923 71.48434
# Shear Modulus (GPa) = 30.53382 34.35056 32.44219
#
# Velocity S-wave (km/s) = 3.78586 4.01551 3.90238
# Velocity P-wave (km/s) = 7.22388 7.45221 7.33893
#
# Compressibility (1/GPa) = 0.01419256
#
# Stress axis : x y z
#
# Youngs Moduli (GPa) = 138.46387 112.99582 88.69363
#
# Poissons Ratio (x) = 0.21089 0.13418
# Poissons Ratio (y) = 0.25842 0.28363
# Poissons Ratio (z) = 0.20948 0.36134
#
# Static dielectric constant tensor:
#      x y z
#    x 4.525820 0.000000 0.000000 
#    y 0.000000 3.839520 0.000000 
#    z 0.000000 0.000000 3.971890 
# 
# 
# High freq. dielectric constant tensor:
#      x y z
#    x 1.857270 0.000000 0.000000 
#    y 0.000000 1.832360 0.000000 
#    z 0.000000 0.000000 1.852670 
# 
# From -- ./inp_files/27783.got.cif
#   From: 2010.03.12/outbox.cif.g09.slc.cpg/sg54_14_cif.got.tgz:27783.got - 2010.04.16 15:00:50.
