data_PCOD8223857
_publ_section_title
;
Structure prediction by ZEFSAII (Michael W. Deem and Ramdas Pophale) SiO2 
 PCOD8223857
Probable space group: P C C A
;
_chemical_formula_sum "Si O2"
_cell_formula_units_Z 40
_cell_length_a 13.907017
_cell_length_b 13.818777
_cell_length_c 9.217030
_cell_angle_alpha 90.000000
_cell_angle_beta 90.000000
_cell_angle_gamma 90.000000
_cell_volume 1771.310084
_symmetry_space_group_name_H-M "P C C A"
_symmetry_group_IT_number 54
_symmetry_cell_setting 'orthorhombic'
loop_
_space_group_symop_operation_xyz
x,y,z
1/2-x,-y,z
1/2+x,-y,1/2-z
-x,y,1/2-z
-x,-y,-z
1/2+x,y,-z
1/2-x,y,1/2+z
x,-y,1/2+z
loop_
_atom_site_type_symbol
_atom_site_label
_atom_site_fract_x
_atom_site_fract_y
_atom_site_fract_z
Si Si1 0.641857 0.916535 0.972623
Si Si2 0.000000 0.737996 0.750000
Si Si3 0.270701 0.179638 0.302115
Si Si4 0.829574 0.375797 0.165275
Si Si5 0.750000 0.500000 0.409491
Si Si6 0.577302 0.128068 0.981494
O O1 0.708100 0.861296 0.857217
O O2 0.640949 0.031950 0.948093
O O3 0.686575 0.887048 0.127597
O O4 0.530741 0.888021 0.965891
O O5 0.064160 0.669892 0.853245
O O6 0.075551 0.804308 0.660722
O O7 0.245409 0.292006 0.296285
O O8 0.370495 0.181048 0.388302
O O9 0.826960 0.448719 0.302543
O O10 0.806446 0.425074 0.011833
#
# Coordination Sequence:
#
# PCOD8223857 Si02
#       6
#     8   4   8   8   4   8
#     4  11  26  43  66 100 143 193 237 278 329 397
#     4  12  24  42  70 104 140 178 226 288 334 412
#     4  12  24  45  71 100 137 193 233 282 343 407
#     4  11  24  44  72 100 133 172 226 286 356 419
#     4  10  24  48  72  98 128 170 220 292 366 428
#     4  11  26  41  66 100 148 184 239 278 329 398
#
# _framework density 22.582155
#
# number of rings (size 3 to 8) (size 9 to 14) (size 15 to 20)
#    0.000    0.800    2.000    4.800    5.600    4.000 
#    0.000    0.000    0.000    0.000    0.000    0.000 
#    0.000    0.000    0.000    0.000    0.000    0.000 
#
# Total GULP energy -496069.948532 kJ/mol
# GULP energy per Si atom -12401.748713 kJ/mol
# Density = 2.253076 g / cm^3
# Si number density = 22.582155 Si / 1000 Ang^3
#
#
#
# Elastic Constant Matrix: (Units=GPa)
#
#
# Indices 1 2 3 4 5 6 
#
# 1 34.8545 39.4080 19.6385 0.0000 0.0000 0.0000
# 2 39.4080 121.9775 39.8695 0.0000 0.0000 0.0000
# 3 19.6385 39.8695 100.4547 0.0000 0.0000 0.0000
# 4 0.0000 0.0000 0.0000 37.1687 0.0000 0.0000
# 5 0.0000 0.0000 0.0000 0.0000 47.9378 0.0000
# 6 0.0000 0.0000 0.0000 0.0000 0.0000 36.4328
#
#
#
# Elastic Compliance Matrix: (Units=1/GPa)
#
#
# Indices 1 2 3 4 5 6 
#
# 1 0.046295 -0.013787 -0.003579 0.000000 0.000000 0.000000
# 2 -0.013787 0.013526 -0.002673 0.000000 0.000000 0.000000
# 3 -0.003579 -0.002673 0.011715 0.000000 0.000000 0.000000
# 4 0.000000 0.000000 0.000000 0.026904 0.000000 0.000000
# 5 0.000000 0.000000 0.000000 0.000000 0.020860 0.000000
# 6 0.000000 0.000000 0.000000 0.000000 0.000000 0.027448
#
#
# Mechanical properties :
#
#
# Convention : Reuss Voigt Hill
#
# Bulk Modulus (GPa) = 31.78722 50.56874 41.17798
# Shear Modulus (GPa) = 25.34037 34.86592 30.10315
#
# Velocity S-wave (km/s) = 3.35347 3.93359 3.65506
# Velocity P-wave (km/s) = 5.39455 6.56298 6.00724
#
# Compressibility (1/GPa) = 0.03145918
#
# Stress axis : x y z
#
# Youngs Moduli (GPa) = 21.60040 73.93016 85.35880
#
# Poissons Ratio (x) = 1.01929 0.30546
# Poissons Ratio (y) = 0.29781 0.22817
# Poissons Ratio (z) = 0.07730 0.19762
#
# Static dielectric constant tensor:
#      x y z
#    x 4.309230 0.000000 0.000000 
#    y 0.000000 4.280710 0.000000 
#    z 0.000000 0.000000 4.076110 
# 
# 
# High freq. dielectric constant tensor:
#      x y z
#    x 1.907160 0.000000 0.000000 
#    y 0.000000 1.892410 0.000000 
#    z 0.000000 0.000000 1.893770 
# 
# From -- ./inp_files/3454.got.cif
#   From: 2010.03.12/outbox.cif.g09.slc.cpg/sg54_2_cif.got.tgz:3454.got - 2010.04.16 15:00:50.
