data_PCOD8223972
_publ_section_title
;
Structure prediction by ZEFSAII (Michael W. Deem and Ramdas Pophale) SiO2 
 PCOD8223972
Probable space group: P C C A
;
_chemical_formula_sum "Si O2"
_cell_formula_units_Z 48
_cell_length_a 8.642138
_cell_length_b 13.418600
_cell_length_c 18.528989
_cell_angle_alpha 90.000000
_cell_angle_beta 90.000000
_cell_angle_gamma 90.000000
_cell_volume 2148.721491
_symmetry_space_group_name_H-M "P C C A"
_symmetry_group_IT_number 54
_symmetry_cell_setting 'orthorhombic'
loop_
_space_group_symop_operation_xyz
x,y,z
1/2-x,-y,z
1/2+x,-y,1/2-z
-x,y,1/2-z
-x,-y,-z
1/2+x,y,-z
1/2-x,y,1/2+z
x,-y,1/2+z
loop_
_atom_site_type_symbol
_atom_site_label
_atom_site_fract_x
_atom_site_fract_y
_atom_site_fract_z
Si Si1 0.069327 0.644607 0.916368
Si Si2 0.883323 0.259084 0.542767
Si Si3 0.387452 0.068218 0.545115
Si Si4 0.431727 0.518934 0.673957
Si Si5 0.069861 0.808264 0.674809
Si Si6 0.426323 0.753068 0.676108
O O1 0.249832 0.669162 0.926136
O O2 0.029203 0.531338 0.892205
O O3 0.009035 0.705335 0.847262
O O4 0.985401 0.671265 0.990913
O O5 0.819031 0.163905 0.498422
O O6 0.983311 0.206536 0.606110
O O7 0.475290 0.107861 0.616223
O O8 0.250000 0.000000 0.572780
O O9 0.500000 0.000000 0.500000
O O10 0.250000 0.500000 0.667301
O O11 0.500000 0.479745 0.750000
O O12 0.452575 0.635879 0.667539
O O13 0.252478 0.790965 0.676283
O O14 0.000000 0.845147 0.750000
O O15 0.500000 0.793316 0.750000
#
# Coordination Sequence:
#
# PCOD8223972 Si02
#       6
#     8   8   8   8   8   8
#     4  11  23  41  65  92 137 176 225 269 329 390
#     4  11  24  43  66  97 129 177 221 275 342 402
#     4  11  23  44  70  95 129 169 215 276 342 417
#     4  11  25  41  65  96 135 184 229 277 329 386
#     4  11  22  42  68  97 131 172 217 273 337 401
#     4  11  24  41  66  96 134 176 227 272 325 395
#
# _framework density 22.338864999999998
#
# number of rings (size 3 to 8) (size 9 to 14) (size 15 to 20)
#    0.000    1.000    1.667    6.500    4.667    0.667 
#    0.000    5.833    0.000    0.000    0.000    0.000 
#    0.000    0.000    0.000    0.000    0.000    0.000 
#
# Total GULP energy -595188.798783 kJ/mol
# GULP energy per Si atom -12399.766641 kJ/mol
# Density = 2.228802 g / cm^3
# Si number density = 22.338865 Si / 1000 Ang^3
#
#
#
# Elastic Constant Matrix: (Units=GPa)
#
#
# Indices 1 2 3 4 5 6 
#
# 1 127.3529 19.2661 49.6036 0.0000 0.0000 0.0000
# 2 19.2661 67.2445 33.9153 0.0000 0.0000 0.0000
# 3 49.6036 33.9153 158.8186 0.0000 0.0000 0.0000
# 4 0.0000 0.0000 0.0000 26.8843 0.0000 0.0000
# 5 0.0000 0.0000 0.0000 0.0000 41.2429 0.0000
# 6 0.0000 0.0000 0.0000 0.0000 0.0000 29.3083
#
#
#
# Elastic Compliance Matrix: (Units=1/GPa)
#
#
# Indices 1 2 3 4 5 6 
#
# 1 0.009041 -0.001307 -0.002545 0.000000 0.000000 0.000000
# 2 -0.001307 0.016855 -0.003191 0.000000 0.000000 0.000000
# 3 -0.002545 -0.003191 0.007773 0.000000 0.000000 0.000000
# 4 0.000000 0.000000 0.000000 0.037196 0.000000 0.000000
# 5 0.000000 0.000000 0.000000 0.000000 0.024247 0.000000
# 6 0.000000 0.000000 0.000000 0.000000 0.000000 0.034120
#
#
# Mechanical properties :
#
#
# Convention : Reuss Voigt Hill
#
# Bulk Modulus (GPa) = 51.06391 62.10957 56.58674
# Shear Modulus (GPa) = 33.36778 36.19584 34.78181
#
# Velocity S-wave (km/s) = 3.86905 4.02967 3.95018
# Velocity P-wave (km/s) = 6.54735 7.03667 6.79641
#
# Compressibility (1/GPa) = 0.01958330
#
# Stress axis : x y z
#
# Youngs Moduli (GPa) = 110.60652 59.32945 128.65472
#
# Poissons Ratio (x) = 0.07754 0.32739
# Poissons Ratio (y) = 0.14455 0.41056
# Poissons Ratio (z) = 0.28146 0.18933
#
# Static dielectric constant tensor:
#      x y z
#    x 3.662170 0.000000 0.000000 
#    y 0.000000 3.854930 0.000000 
#    z 0.000000 0.000000 4.564410 
# 
# 
# High freq. dielectric constant tensor:
#      x y z
#    x 1.882890 0.000000 0.000000 
#    y 0.000000 1.869940 0.000000 
#    z 0.000000 0.000000 1.894350 
# 
# From -- ./inp_files/16627.got.cif
#   From: 2010.03.12/outbox.cif.g09.slc.cpg/sg54_9_cif.got.tgz:16627.got - 2010.04.16 15:00:50.
