data_PCOD8223095
_publ_section_title
;
Structure prediction by ZEFSAII (Michael W. Deem and Ramdas Pophale) SiO2 
 PCOD8223095
Probable space group: P C C A
;
_chemical_formula_sum "Si O2"
_cell_formula_units_Z 48
_cell_length_a 16.960239
_cell_length_b 14.409200
_cell_length_c 9.856502
_cell_angle_alpha 90.000000
_cell_angle_beta 90.000000
_cell_angle_gamma 90.000000
_cell_volume 2408.766218
_symmetry_space_group_name_H-M "P C C A"
_symmetry_group_IT_number 54
_symmetry_cell_setting 'orthorhombic'
loop_
_space_group_symop_operation_xyz
x,y,z
1/2-x,-y,z
1/2+x,-y,1/2-z
-x,y,1/2-z
-x,-y,-z
1/2+x,y,-z
1/2-x,y,1/2+z
x,-y,1/2+z
loop_
_atom_site_type_symbol
_atom_site_label
_atom_site_fract_x
_atom_site_fract_y
_atom_site_fract_z
Si Si1 0.034648 0.127176 0.389932
Si Si2 0.315366 0.226877 0.274548
Si Si3 0.839335 0.467570 0.983787
Si Si4 0.173167 0.256887 0.470505
Si Si5 0.434679 0.920081 0.860262
Si Si6 0.409162 0.586739 0.789626
O O1 0.092956 0.201697 0.451423
O O2 0.000000 0.166463 0.250000
O O3 0.961791 0.113825 0.492020
O O4 0.080517 0.030397 0.364145
O O5 0.234568 0.233232 0.354757
O O6 0.354292 0.129532 0.316521
O O7 0.374906 0.310300 0.308855
O O8 0.291413 0.229724 0.116711
O O9 0.750000 0.500000 0.001247
O O10 0.849093 0.364303 0.039796
O O11 0.897898 0.533374 0.068660
O O12 0.863102 0.471193 0.825885
O O13 0.500000 0.894026 0.750000
O O14 0.500000 0.595531 0.750000
#
# Coordination Sequence:
#
# PCOD8223095 Si02
#       6
#     8   8   8   8   8   8
#     4  10  23  41  66  97 125 162 211 261 318 371
#     4  11  24  41  64  90 128 167 213 259 318 380
#     4  11  23  43  64  90 131 168 207 263 321 377
#     4  11  25  41  63  95 124 170 213 257 319 381
#     4  10  20  43  67  88 128 167 203 261 316 377
#     4  11  24  41  65  94 123 167 216 261 317 375
#
# _framework density 19.927215
#
# number of rings (size 3 to 8) (size 9 to 14) (size 15 to 20)
#    0.000    1.333    3.333    1.500    7.000    1.333 
#    0.000    1.667    0.000    0.000    0.000    0.000 
#    0.000    0.000    0.000    0.000    0.000    0.000 
#
# Total GULP energy -595481.609915 kJ/mol
# GULP energy per Si atom -12405.866873 kJ/mol
# Density = 1.988186 g / cm^3
# Si number density = 19.927215 Si / 1000 Ang^3
#
#
#
# Elastic Constant Matrix: (Units=GPa)
#
#
# Indices 1 2 3 4 5 6 
#
# 1 53.1416 13.6531 2.7113 0.0000 0.0000 0.0000
# 2 13.6531 77.9235 18.1350 0.0000 0.0000 0.0000
# 3 2.7113 18.1350 94.0665 0.0000 0.0000 0.0000
# 4 0.0000 0.0000 0.0000 28.4861 0.0000 0.0000
# 5 0.0000 0.0000 0.0000 0.0000 36.4116 0.0000
# 6 0.0000 0.0000 0.0000 0.0000 0.0000 26.4863
#
#
#
# Elastic Compliance Matrix: (Units=1/GPa)
#
#
# Indices 1 2 3 4 5 6 
#
# 1 0.019706 -0.003476 0.000102 0.000000 0.000000 0.000000
# 2 -0.003476 0.014049 -0.002608 0.000000 0.000000 0.000000
# 3 0.000102 -0.002608 0.011131 0.000000 0.000000 0.000000
# 4 0.000000 0.000000 0.000000 0.035105 0.000000 0.000000
# 5 0.000000 0.000000 0.000000 0.000000 0.027464 0.000000
# 6 0.000000 0.000000 0.000000 0.000000 0.000000 0.037755
#
#
# Mechanical properties :
#
#
# Convention : Reuss Voigt Hill
#
# Bulk Modulus (GPa) = 30.37625 32.68114 31.52870
# Shear Modulus (GPa) = 29.73570 30.98562 30.36066
#
# Velocity S-wave (km/s) = 3.86711 3.94755 3.90754
# Velocity P-wave (km/s) = 5.93431 6.10028 6.01787
#
# Compressibility (1/GPa) = 0.03292046
#
# Stress axis : x y z
#
# Youngs Moduli (GPa) = 50.74703 71.17819 89.84169
#
# Poissons Ratio (x) = 0.24745 -0.00919
# Poissons Ratio (y) = 0.17642 0.23434
# Poissons Ratio (z) = -0.00519 0.18566
#
# Static dielectric constant tensor:
#      x y z
#    x 3.489960 0.000000 0.000000 
#    y 0.000000 3.722420 0.000000 
#    z 0.000000 0.000000 3.878980 
# 
# 
# High freq. dielectric constant tensor:
#      x y z
#    x 1.764480 0.000000 0.000000 
#    y 0.000000 1.782790 0.000000 
#    z 0.000000 0.000000 1.795520 
# 
# From -- ./inp_files/4188.got.cif
#   From: 2010.03.12/outbox.cif.g09.slc.cpg/sg54_3_cif.got.tgz:4188.got - 2010.04.16 15:00:50.
