data_PCOD8223264
_publ_section_title
;
Structure prediction by ZEFSAII (Michael W. Deem and Ramdas Pophale) SiO2 
 PCOD8223264
Probable space group: P C C A
;
_chemical_formula_sum "Si O2"
_cell_formula_units_Z 64
_cell_length_a 24.019693
_cell_length_b 15.104417
_cell_length_c 8.882267
_cell_angle_alpha 90.000000
_cell_angle_beta 90.000000
_cell_angle_gamma 90.000000
_cell_volume 3222.517194
_symmetry_space_group_name_H-M "P C C A"
_symmetry_group_IT_number 54
_symmetry_cell_setting 'orthorhombic'
loop_
_space_group_symop_operation_xyz
x,y,z
1/2-x,-y,z
1/2+x,-y,1/2-z
-x,y,1/2-z
-x,-y,-z
1/2+x,y,-z
1/2-x,y,1/2+z
x,-y,1/2+z
loop_
_atom_site_type_symbol
_atom_site_label
_atom_site_fract_x
_atom_site_fract_y
_atom_site_fract_z
Si Si1 0.594768 0.922431 0.863699
Si Si2 0.558538 0.590380 0.677528
Si Si3 0.369117 0.759635 0.170694
Si Si4 0.941757 0.592630 0.822446
Si Si5 0.744704 0.802530 0.212136
Si Si6 0.058422 0.091899 0.314328
Si Si7 0.215318 0.079582 0.546115
Si Si8 0.132335 0.244005 0.824529
O O1 0.603928 0.830244 0.778379
O O2 0.570992 0.994110 0.748421
O O3 0.552735 0.910612 0.004186
O O4 0.652518 0.954842 0.937465
O O5 0.500000 0.619544 0.750000
O O6 0.579516 0.498370 0.748441
O O7 0.550447 0.579031 0.499801
O O8 0.604878 0.662785 0.717738
O O9 0.397270 0.667736 0.217395
O O10 0.303290 0.747933 0.202005
O O11 0.392909 0.840720 0.267904
O O12 0.379789 0.782019 0.996550
O O13 0.000000 0.621950 0.750000
O O14 0.720415 0.830375 0.050286
O O15 0.758509 0.895590 0.292966
O O16 0.801394 0.745535 0.202222
O O17 0.000000 0.127240 0.250000
O O18 0.250000 0.000000 0.472704
#
# Coordination Sequence:
#
# PCOD8223264 Si02
#       8
#     8   8   8   8   8   8   8   8
#     4  11  25  39  58  87 118 164 204 249 308 352
#     4  10  21  40  65  93 123 153 198 250 299 362
#     4  11  22  41  60  87 123 158 200 253 306 359
#     4  10  21  39  64  94 120 157 198 249 299 362
#     4  11  21  39  57  86 121 154 201 251 304 359
#     4  12  25  40  58  84 122 163 209 252 301 363
#     4  11  22  35  60  84 113 156 204 257 300 355
#     4  10  24  41  62  88 123 159 200 251 305 363
#
# _framework density 19.860250000000001
#
# number of rings (size 3 to 8) (size 9 to 14) (size 15 to 20)
#    0.000    1.250    2.500    4.125    3.500    4.500 
#    0.000    0.625    0.000    3.000    0.000    0.000 
#    0.000    0.000    0.000    0.000    0.000    0.000 
#
# Total GULP energy -793790.773833 kJ/mol
# GULP energy per Si atom -12402.980841 kJ/mol
# Density = 1.981505 g / cm^3
# Si number density = 19.860250 Si / 1000 Ang^3
#
#
#
# Elastic Constant Matrix: (Units=GPa)
#
#
# Indices 1 2 3 4 5 6 
#
# 1 105.7140 54.1442 28.6523 0.0000 0.0000 0.0000
# 2 54.1442 102.1462 46.4387 0.0000 0.0000 0.0000
# 3 28.6523 46.4387 103.7518 0.0000 0.0000 0.0000
# 4 0.0000 0.0000 0.0000 25.5396 0.0000 0.0000
# 5 0.0000 0.0000 0.0000 0.0000 30.8312 0.0000
# 6 0.0000 0.0000 0.0000 0.0000 0.0000 35.9444
#
#
#
# Elastic Compliance Matrix: (Units=1/GPa)
#
#
# Indices 1 2 3 4 5 6 
#
# 1 0.013018 -0.006611 -0.000636 0.000000 0.000000 0.000000
# 2 -0.006611 0.015649 -0.005178 0.000000 0.000000 0.000000
# 3 -0.000636 -0.005178 0.012132 0.000000 0.000000 0.000000
# 4 0.000000 0.000000 0.000000 0.039155 0.000000 0.000000
# 5 0.000000 0.000000 0.000000 0.000000 0.032435 0.000000
# 6 0.000000 0.000000 0.000000 0.000000 0.000000 0.027821
#
#
# Mechanical properties :
#
#
# Convention : Reuss Voigt Hill
#
# Bulk Modulus (GPa) = 62.70705 63.34247 63.02476
# Shear Modulus (GPa) = 29.34693 30.62150 29.98421
#
# Velocity S-wave (km/s) = 3.84822 3.93090 3.88978
# Velocity P-wave (km/s) = 7.16852 7.25024 7.20950
#
# Compressibility (1/GPa) = 0.01594717
#
# Stress axis : x y z
#
# Youngs Moduli (GPa) = 76.81684 63.90362 82.42782
#
# Poissons Ratio (x) = 0.42248 0.05242
# Poissons Ratio (y) = 0.50786 0.42685
# Poissons Ratio (z) = 0.04885 0.33092
#
# Static dielectric constant tensor:
#      x y z
#    x 3.667690 0.000000 0.000000 
#    y 0.000000 3.398490 0.000000 
#    z 0.000000 0.000000 3.762840 
# 
# 
# High freq. dielectric constant tensor:
#      x y z
#    x 1.776720 0.000000 0.000000 
#    y 0.000000 1.754830 0.000000 
#    z 0.000000 0.000000 1.794020 
# 
# From -- ./inp_files/5313.got.cif
#   From: 2010.03.12/outbox.cif.g09.slc.cpg/sg54_3_cif.got.tgz:5313.got - 2010.04.16 15:00:50.
