data_PCOD8223150
_publ_section_title
;
Structure prediction by ZEFSAII (Michael W. Deem and Ramdas Pophale) SiO2 
 PCOD8223150
Probable space group: P C C A
;
_chemical_formula_sum "Si O2"
_cell_formula_units_Z 36
_cell_length_a 4.903794
_cell_length_b 26.684242
_cell_length_c 12.215589
_cell_angle_alpha 90.000000
_cell_angle_beta 90.000000
_cell_angle_gamma 90.000000
_cell_volume 1598.458998
_symmetry_space_group_name_H-M "P C C A"
_symmetry_group_IT_number 54
_symmetry_cell_setting 'orthorhombic'
loop_
_space_group_symop_operation_xyz
x,y,z
1/2-x,-y,z
1/2+x,-y,1/2-z
-x,y,1/2-z
-x,-y,-z
1/2+x,y,-z
1/2-x,y,1/2+z
x,-y,1/2+z
loop_
_atom_site_type_symbol
_atom_site_label
_atom_site_fract_x
_atom_site_fract_y
_atom_site_fract_z
Si Si1 0.000000 0.698831 0.250000
Si Si2 0.500000 0.534094 0.750000
Si Si3 0.654934 0.049805 0.573604
Si Si4 0.500000 0.234650 0.750000
Si Si5 0.454113 0.383269 0.425107
Si Si6 0.783577 0.158623 0.073641
O O1 0.253483 0.731412 0.205128
O O2 0.897156 0.665449 0.148698
O O3 0.750000 0.500000 0.788394
O O4 0.595602 0.567534 0.647638
O O5 0.342051 0.047414 0.536327
O O6 0.694131 0.103692 0.632576
O O7 0.750000 0.000000 0.644174
O O8 0.362903 0.201549 0.843306
O O9 0.261349 0.383036 0.530566
O O10 0.472430 0.163958 0.034178
#
# Coordination Sequence:
#
# PCOD8223150 Si02
#       6
#     4   4   8   4   8   8
#     4  11  26  42  60  88 118 156 206 257 300 352
#     4  11  24  41  64 100 136 163 202 249 296 354
#     4   8  14  27  49  74 102 138 176 219 277 343
#     4  12  24  39  60  86 118 153 198 254 310 358
#     4  11  24  43  66  91 124 166 209 250 296 353
#     4  10  21  36  56  83 113 147 189 238 295 359
#
# _framework density 22.521691000000001
#
# number of rings (size 3 to 8) (size 9 to 14) (size 15 to 20)
#    0.000    1.778    0.000    4.000    0.000   11.556 
#    0.000    0.000    0.000   14.667    0.000    0.000 
#    0.000    0.000    0.000    0.000    0.000    0.000 
#
# Total GULP energy -446244.018396 kJ/mol
# GULP energy per Si atom -12395.667178 kJ/mol
# Density = 2.247043 g / cm^3
# Si number density = 22.521691 Si / 1000 Ang^3
#
#
#
# Elastic Constant Matrix: (Units=GPa)
#
#
# Indices 1 2 3 4 5 6 
#
# 1 90.7402 28.6778 1.8055 0.0000 0.0000 0.0000
# 2 28.6778 154.2745 34.9404 0.0000 0.0000 0.0000
# 3 1.8055 34.9404 59.9457 0.0000 0.0000 0.0000
# 4 0.0000 0.0000 0.0000 -6.4293 0.0000 0.0000
# 5 0.0000 0.0000 0.0000 0.0000 31.1452 0.0000
# 6 0.0000 0.0000 0.0000 0.0000 0.0000 40.1683
#
#
#
# Elastic Compliance Matrix: (Units=1/GPa)
#
#
# Indices 1 2 3 4 5 6 
#
# 1 0.011767 -0.002427 0.001060 0.000000 0.000000 0.000000
# 2 -0.002427 0.007969 -0.004572 0.000000 0.000000 0.000000
# 3 0.001060 -0.004572 0.019314 0.000000 0.000000 0.000000
# 4 0.000000 0.000000 0.000000 -0.155537 0.000000 0.000000
# 5 0.000000 0.000000 0.000000 0.000000 0.032108 0.000000
# 6 0.000000 0.000000 0.000000 0.000000 0.000000 0.024895
#
#
# Mechanical properties :
#
#
# Convention : Reuss Voigt Hill
#
# Bulk Modulus (GPa) = 36.80182 48.42311 42.61246
# Shear Modulus (GPa) = -129.70214 28.94594 -50.37810
#
# Velocity S-wave (km/s) = -7.59703 3.58892 -4.73469
# Velocity P-wave (km/s) = 7.78313 6.22263 3.30575
#
# Compressibility (1/GPa) = 0.02717257
#
# Stress axis : x y z
#
# Youngs Moduli (GPa) = 84.98670 125.49331 51.77480
#
# Poissons Ratio (x) = 0.30463 -0.05491
# Poissons Ratio (y) = 0.20630 0.23669
# Poissons Ratio (z) = -0.09013 0.57369
#
# Static dielectric constant tensor:
#      x y z
#    x 4.200880 0.000000 0.000000 
#    y 0.000000 4.548480 0.000000 
#    z 0.000000 0.000000 3.436300 
# 
# 
# High freq. dielectric constant tensor:
#      x y z
#    x 1.906450 0.000000 0.000000 
#    y 0.000000 1.916770 0.000000 
#    z 0.000000 0.000000 1.834900 
# 
# From -- ./inp_files/6412.got.cif
#   From: 2010.03.12/outbox.cif.g09.slc.cpg/sg54_4_cif.got.tgz:6412.got - 2010.04.16 15:00:50.
