data_PCOD8223797
_publ_section_title
;
Structure prediction by ZEFSAII (Michael W. Deem and Ramdas Pophale) SiO2 
 PCOD8223797
Probable space group: P C C A
;
_chemical_formula_sum "Si O2"
_cell_formula_units_Z 32
_cell_length_a 11.761541
_cell_length_b 14.041600
_cell_length_c 9.026255
_cell_angle_alpha 90.000000
_cell_angle_beta 90.000000
_cell_angle_gamma 90.000000
_cell_volume 1490.693723
_symmetry_space_group_name_H-M "P C C A"
_symmetry_group_IT_number 54
_symmetry_cell_setting 'orthorhombic'
loop_
_space_group_symop_operation_xyz
x,y,z
1/2-x,-y,z
1/2+x,-y,1/2-z
-x,y,1/2-z
-x,-y,-z
1/2+x,y,-z
1/2-x,y,1/2+z
x,-y,1/2+z
loop_
_atom_site_type_symbol
_atom_site_label
_atom_site_fract_x
_atom_site_fract_y
_atom_site_fract_z
Si Si1 0.250000 0.000000 0.467179
Si Si2 0.000000 0.553205 0.750000
Si Si3 0.131477 0.887483 0.714634
Si Si4 0.879834 0.372237 0.707479
Si Si5 0.178539 0.319910 0.102169
O O1 0.153760 0.955864 0.574192
O O2 0.303148 0.918762 0.363252
O O3 0.908174 0.483616 0.667629
O O4 0.935159 0.620340 0.864556
O O5 0.174416 0.783111 0.674715
O O6 0.000000 0.888853 0.750000
O O7 0.817938 0.315809 0.575512
O O8 0.794132 0.370647 0.845967
O O9 0.000000 0.320842 0.750000
#
# Coordination Sequence:
#
# PCOD8223797 Si02
#       5
#     4   4   8   8   8
#     4  10  24  44  66 102 128 168 212 270 346 390
#     4  10  24  42  68  92 140 178 226 266 330 372
#     4  11  23  43  71  97 132 169 215 274 326 403
#     4  10  27  41  65  96 138 180 222 272 321 385
#     4  12  23  44  68  99 132 180 226 268 328 393
#
# _framework density 21.466515000000001
#
# number of rings (size 3 to 8) (size 9 to 14) (size 15 to 20)
#    0.750    0.500    1.250    3.750    3.500    4.000 
#    0.000    6.250    0.000    0.000    0.000    0.000 
#    0.000    0.000    0.000    0.000    0.000    0.000 
#
# Total GULP energy -396730.108566 kJ/mol
# GULP energy per Si atom -12397.815893 kJ/mol
# Density = 2.141766 g / cm^3
# Si number density = 21.466515 Si / 1000 Ang^3
#
#
#
# Elastic Constant Matrix: (Units=GPa)
#
#
# Indices 1 2 3 4 5 6 
#
# 1 84.9084 6.0725 32.9166 0.0000 0.0000 0.0000
# 2 6.0725 98.8450 20.2314 0.0000 0.0000 0.0000
# 3 32.9166 20.2314 114.3722 0.0000 0.0000 0.0000
# 4 0.0000 0.0000 0.0000 25.8363 0.0000 0.0000
# 5 0.0000 0.0000 0.0000 0.0000 34.8128 0.0000
# 6 0.0000 0.0000 0.0000 0.0000 0.0000 30.3203
#
#
#
# Elastic Compliance Matrix: (Units=1/GPa)
#
#
# Indices 1 2 3 4 5 6 
#
# 1 0.013257 -0.000035 -0.003809 0.000000 0.000000 0.000000
# 2 -0.000035 0.010497 -0.001847 0.000000 0.000000 0.000000
# 3 -0.003809 -0.001847 0.010166 0.000000 0.000000 0.000000
# 4 0.000000 0.000000 0.000000 0.038705 0.000000 0.000000
# 5 0.000000 0.000000 0.000000 0.000000 0.028725 0.000000
# 6 0.000000 0.000000 0.000000 0.000000 0.000000 0.032981
#
#
# Mechanical properties :
#
#
# Convention : Reuss Voigt Hill
#
# Bulk Modulus (GPa) = 44.36856 46.28519 45.32687
# Shear Modulus (GPa) = 32.63161 34.12088 33.37625
#
# Velocity S-wave (km/s) = 3.90310 3.99117 3.94738
# Velocity P-wave (km/s) = 6.40514 6.54581 6.47586
#
# Compressibility (1/GPa) = 0.02253848
#
# Stress axis : x y z
#
# Youngs Moduli (GPa) = 75.43430 95.26544 98.36376
#
# Poissons Ratio (x) = 0.00331 0.37468
# Poissons Ratio (y) = 0.00262 0.18166
# Poissons Ratio (z) = 0.28734 0.17594
#
# Static dielectric constant tensor:
#      x y z
#    x 3.865000 0.000000 0.000000 
#    y 0.000000 3.827060 0.000000 
#    z 0.000000 0.000000 3.837940 
# 
# 
# High freq. dielectric constant tensor:
#      x y z
#    x 1.849410 0.000000 0.000000 
#    y 0.000000 1.835730 0.000000 
#    z 0.000000 0.000000 1.845260 
# 
# From -- ./inp_files/2823.got.cif
#   From: 2010.03.12/outbox.cif.g09.slc.cpg/sg54_2_cif.got.tgz:2823.got - 2010.04.16 15:00:50.
