data_PCOD8223127
_publ_section_title
;
Structure prediction by ZEFSAII (Michael W. Deem and Ramdas Pophale) SiO2 
 PCOD8223127
Probable space group: P C C A
;
_chemical_formula_sum "Si O2"
_cell_formula_units_Z 56
_cell_length_a 16.568767
_cell_length_b 33.168497
_cell_length_c 5.018495
_cell_angle_alpha 90.000000
_cell_angle_beta 90.000000
_cell_angle_gamma 90.000000
_cell_volume 2757.969625
_symmetry_space_group_name_H-M "P C C A"
_symmetry_group_IT_number 54
_symmetry_cell_setting 'orthorhombic'
loop_
_space_group_symop_operation_xyz
x,y,z
1/2-x,-y,z
1/2+x,-y,1/2-z
-x,y,1/2-z
-x,-y,-z
1/2+x,y,-z
1/2-x,y,1/2+z
x,-y,1/2+z
loop_
_atom_site_type_symbol
_atom_site_label
_atom_site_fract_x
_atom_site_fract_y
_atom_site_fract_z
Si Si1 0.198330 0.311072 0.121801
Si Si2 0.053005 0.253393 0.990132
Si Si3 0.946056 0.837584 0.008172
Si Si4 0.406761 0.974448 0.243020
Si Si5 0.304581 0.103277 0.638989
Si Si6 0.301864 0.597721 0.085422
Si Si7 0.904629 0.475861 0.260923
O O1 0.226312 0.303627 0.424139
O O2 0.130081 0.280440 0.037662
O O3 0.165018 0.356687 0.103294
O O4 0.000000 0.253208 0.250000
O O5 0.080768 0.207939 0.917292
O O6 0.000000 0.271700 0.750000
O O7 0.000000 0.856030 0.250000
O O8 0.865115 0.861694 0.947308
O O9 0.000000 0.838700 0.750000
O O10 0.500000 0.960430 0.250000
O O11 0.351809 0.938720 0.133655
O O12 0.387824 0.988398 0.543590
O O13 0.229598 0.106698 0.437347
O O14 0.227015 0.589981 0.284457
O O15 0.374062 0.568334 0.164679
O O16 0.872762 0.508363 0.477281
O O17 0.000000 0.472938 0.250000
#
# Coordination Sequence:
#
# PCOD8223127 Si02
#       7
#     8   8   8   8   8   8   8
#     4  10  21  37  57  83 117 150 181 230 287 339
#     4  10  21  38  61  88 113 147 194 235 277 335
#     4  10  22  41  62  83 116 156 192 233 280 341
#     4  10  22  40  61  83 112 155 198 233 282 346
#     4  12  25  38  59  91 121 151 192 243 295 340
#     4  10  21  36  54  79 108 142 183 220 268 331
#     4  10  21  36  53  76 106 139 179 228 278 322
#
# _framework density 20.304793
#
# number of rings (size 3 to 8) (size 9 to 14) (size 15 to 20)
#    0.000    1.714    0.000    3.857    0.000    6.857 
#    0.000    2.143    0.000    0.000    0.000    0.000 
#    0.000    0.000    0.000    0.000    0.000    0.000 
#
# Total GULP energy -694417.331159 kJ/mol
# GULP energy per Si atom -12400.309485 kJ/mol
# Density = 2.025858 g / cm^3
# Si number density = 20.304793 Si / 1000 Ang^3
#
#
#
# Elastic Constant Matrix: (Units=GPa)
#
#
# Indices 1 2 3 4 5 6 
#
# 1 73.4900 58.9944 22.5004 0.0000 0.0000 0.0000
# 2 58.9944 103.2431 22.5795 0.0000 0.0000 0.0000
# 3 22.5004 22.5795 101.4207 0.0000 0.0000 0.0000
# 4 0.0000 0.0000 0.0000 31.2561 0.0000 0.0000
# 5 0.0000 0.0000 0.0000 0.0000 37.8075 0.0000
# 6 0.0000 0.0000 0.0000 0.0000 0.0000 39.5069
#
#
#
# Elastic Compliance Matrix: (Units=1/GPa)
#
#
# Indices 1 2 3 4 5 6 
#
# 1 0.025757 -0.014157 -0.002562 0.000000 0.000000 0.000000
# 2 -0.014157 0.017963 -0.000858 0.000000 0.000000 0.000000
# 3 -0.002562 -0.000858 0.010619 0.000000 0.000000 0.000000
# 4 0.000000 0.000000 0.000000 0.031994 0.000000 0.000000
# 5 0.000000 0.000000 0.000000 0.000000 0.026450 0.000000
# 6 0.000000 0.000000 0.000000 0.000000 0.000000 0.025312
#
#
# Mechanical properties :
#
#
# Convention : Reuss Voigt Hill
#
# Bulk Modulus (GPa) = 52.12828 54.03360 53.08094
# Shear Modulus (GPa) = 27.83263 33.31940 30.57602
#
# Velocity S-wave (km/s) = 3.70637 4.05527 3.88474
# Velocity P-wave (km/s) = 6.63663 6.97108 6.80591
#
# Compressibility (1/GPa) = 0.01918345
#
# Stress axis : x y z
#
# Youngs Moduli (GPa) = 38.82499 55.66922 94.16664
#
# Poissons Ratio (x) = 0.78812 0.24128
# Poissons Ratio (y) = 0.54966 0.08083
# Poissons Ratio (z) = 0.09948 0.04778
#
# Static dielectric constant tensor:
#      x y z
#    x 3.433030 0.000000 0.000000 
#    y 0.000000 3.776190 0.000000 
#    z 0.000000 0.000000 4.037870 
# 
# 
# High freq. dielectric constant tensor:
#      x y z
#    x 1.780170 0.000000 0.000000 
#    y 0.000000 1.793220 0.000000 
#    z 0.000000 0.000000 1.817930 
# 
# From -- ./inp_files/764.got.cif
#   From: 2010.03.12/outbox.cif.g09.slc.cpg/sg54_1_cif.got.tgz:764.got - 2010.04.16 15:00:50.
