data_PCOD8223262
_publ_section_title
;
Structure prediction by ZEFSAII (Michael W. Deem and Ramdas Pophale) SiO2 
 PCOD8223262
Probable space group: P C C A
;
_chemical_formula_sum "Si O2"
_cell_formula_units_Z 60
_cell_length_a 9.712225
_cell_length_b 17.978083
_cell_length_c 16.766673
_cell_angle_alpha 90.000000
_cell_angle_beta 90.000000
_cell_angle_gamma 90.000000
_cell_volume 2927.581611
_symmetry_space_group_name_H-M "P C C A"
_symmetry_group_IT_number 54
_symmetry_cell_setting 'orthorhombic'
loop_
_space_group_symop_operation_xyz
x,y,z
1/2-x,-y,z
1/2+x,-y,1/2-z
-x,y,1/2-z
-x,-y,-z
1/2+x,y,-z
1/2-x,y,1/2+z
x,-y,1/2+z
loop_
_atom_site_type_symbol
_atom_site_label
_atom_site_fract_x
_atom_site_fract_y
_atom_site_fract_z
Si Si1 0.880347 0.763428 0.810067
Si Si2 0.468017 0.577600 0.544607
Si Si3 0.244913 0.087389 0.434663
Si Si4 0.432827 0.102285 0.580272
Si Si5 0.841594 0.856570 0.231754
Si Si6 0.099595 0.487479 0.182589
Si Si7 0.250000 0.000000 0.171700
Si Si8 0.174354 0.637544 0.562074
O O1 0.937631 0.837675 0.849813
O O2 0.743806 0.784454 0.760663
O O3 0.834416 0.709865 0.882453
O O4 0.000000 0.731889 0.750000
O O5 0.500000 0.500000 0.500000
O O6 0.465510 0.561417 0.640451
O O7 0.321660 0.615828 0.526024
O O8 0.578031 0.640353 0.517348
O O9 0.327849 0.120432 0.509331
O O10 0.307875 0.132139 0.360753
O O11 0.085495 0.101133 0.453973
O O12 0.250000 0.000000 0.419697
O O13 0.381508 0.023700 0.617695
O O14 0.000000 0.838855 0.250000
O O15 0.798534 0.931446 0.276162
O O16 0.250000 0.500000 0.221150
O O17 0.111990 0.427892 0.114116
O O18 0.000000 0.457086 0.250000
#
# Coordination Sequence:
#
# PCOD8223262 Si02
#       8
#     8   8   8   8   8   8   4   8
#     4  11  24  46  62  86 130 174 221 264 324 397
#     4   9  19  38  63  96 126 157 203 257 308 367
#     4  12  23  40  63  93 124 158 216 280 354 394
#     4  11  25  39  61  94 127 165 214 280 334 404
#     4  11  24  41  66  88 121 169 218 278 335 400
#     4   9  18  33  58  92 124 157 203 252 301 358
#     4  10  22  38  64  94 122 158 220 278 348 392
#     4  10  21  39  64  91 129 169 209 253 315 384
#
# _framework density 20.494731999999999
#
# number of rings (size 3 to 8) (size 9 to 14) (size 15 to 20)
#    0.000    1.600    2.667    2.800    3.733    3.200 
#    0.000    2.667    0.000    0.000    0.000    0.000 
#    0.000    0.000    0.000    0.000    0.000    0.000 
#
# Total GULP energy -743454.252780 kJ/mol
# GULP energy per Si atom -12390.904213 kJ/mol
# Density = 2.044809 g / cm^3
# Si number density = 20.494732 Si / 1000 Ang^3
#
#
#
# Elastic Constant Matrix: (Units=GPa)
#
#
# Indices 1 2 3 4 5 6 
#
# 1 159.5941 26.5435 48.1074 0.0000 0.0000 0.0000
# 2 26.5435 54.8850 9.0111 0.0000 0.0000 0.0000
# 3 48.1074 9.0111 64.4931 0.0000 0.0000 0.0000
# 4 0.0000 0.0000 0.0000 49.9913 0.0000 0.0000
# 5 0.0000 0.0000 0.0000 0.0000 21.0042 0.0000
# 6 0.0000 0.0000 0.0000 0.0000 0.0000 17.9263
#
#
#
# Elastic Compliance Matrix: (Units=1/GPa)
#
#
# Indices 1 2 3 4 5 6 
#
# 1 0.008592 -0.003176 -0.005966 0.000000 0.000000 0.000000
# 2 -0.003176 0.019822 -0.000400 0.000000 0.000000 0.000000
# 3 -0.005966 -0.000400 0.020011 0.000000 0.000000 0.000000
# 4 0.000000 0.000000 0.000000 0.020003 0.000000 0.000000
# 5 0.000000 0.000000 0.000000 0.000000 0.047609 0.000000
# 6 0.000000 0.000000 0.000000 0.000000 0.000000 0.055784
#
#
# Mechanical properties :
#
#
# Convention : Reuss Voigt Hill
#
# Bulk Modulus (GPa) = 34.08151 49.58845 41.83498
# Shear Modulus (GPa) = 24.91446 30.80505 27.85975
#
# Velocity S-wave (km/s) = 3.49040 3.88115 3.69095
# Velocity P-wave (km/s) = 5.73667 6.65828 6.21458
#
# Compressibility (1/GPa) = 0.02934142
#
# Stress axis : x y z
#
# Youngs Moduli (GPa) = 116.38249 50.44988 49.97159
#
# Poissons Ratio (x) = 0.16023 0.29811
# Poissons Ratio (y) = 0.36963 0.02001
# Poissons Ratio (z) = 0.69429 0.02020
#
# Static dielectric constant tensor:
#      x y z
#    x 4.025880 0.000000 0.000000 
#    y 0.000000 3.673350 0.000000 
#    z 0.000000 0.000000 5.020580 
# 
# 
# High freq. dielectric constant tensor:
#      x y z
#    x 1.813700 0.000000 0.000000 
#    y 0.000000 1.774300 0.000000 
#    z 0.000000 0.000000 1.806820 
# 
# From -- ./inp_files/16834.got.cif
#   From: 2010.03.12/outbox.cif.g09.slc.cpg/sg54_9_cif.got.tgz:16834.got - 2010.04.16 15:00:50.
