data_PCOD8223778
_publ_section_title
;
Structure prediction by ZEFSAII (Michael W. Deem and Ramdas Pophale) SiO2 
 PCOD8223778
Probable space group: P C C A
;
_chemical_formula_sum "Si O2"
_cell_formula_units_Z 40
_cell_length_a 8.974440
_cell_length_b 17.550476
_cell_length_c 11.456002
_cell_angle_alpha 90.000000
_cell_angle_beta 90.000000
_cell_angle_gamma 90.000000
_cell_volume 1804.385544
_symmetry_space_group_name_H-M "P C C A"
_symmetry_group_IT_number 54
_symmetry_cell_setting 'orthorhombic'
loop_
_space_group_symop_operation_xyz
x,y,z
1/2-x,-y,z
1/2+x,-y,1/2-z
-x,y,1/2-z
-x,-y,-z
1/2+x,y,-z
1/2-x,y,1/2+z
x,-y,1/2+z
loop_
_atom_site_type_symbol
_atom_site_label
_atom_site_fract_x
_atom_site_fract_y
_atom_site_fract_z
Si Si1 0.250000 0.500000 0.001101
Si Si2 0.848488 0.252373 0.571275
Si Si3 0.120475 0.058009 0.536957
Si Si4 0.449754 0.806275 0.383999
Si Si5 0.000000 0.150704 0.750000
Si Si6 0.999112 0.407519 0.886000
O O1 0.330153 0.433014 0.077547
O O2 0.118120 0.471664 0.918524
O O3 0.668336 0.262129 0.583150
O O4 0.883185 0.206071 0.688183
O O5 0.941103 0.330059 0.556625
O O6 0.897352 0.203891 0.457096
O O7 0.137540 0.117934 0.429256
O O8 0.089185 0.100293 0.658000
O O9 0.250000 0.000000 0.560652
O O10 0.000000 0.000000 0.500000
O O11 0.500000 0.810276 0.250000
O O12 0.000000 0.394725 0.750000
#
# Coordination Sequence:
#
# PCOD8223778 Si02
#       6
#     4   8   8   8   4   8
#     4  10  24  40  66 106 136 176 234 272 334 420
#     4  11  24  44  69 100 134 185 227 286 349 415
#     4  11  25  44  66  97 130 179 229 289 359 413
#     4  11  27  45  68 100 138 177 240 292 351 427
#     4  10  24  40  70  94 136 172 232 284 338 422
#     4  11  22  43  69  98 141 180 223 280 341 400
#
# _framework density 22.168212
#
# number of rings (size 3 to 8) (size 9 to 14) (size 15 to 20)
#    0.000    1.200    1.000    4.200    9.800    2.400 
#    0.000    5.000    0.000    0.000    0.000    0.000 
#    0.000    0.000    0.000    0.000    0.000    0.000 
#
# Total GULP energy -495615.020080 kJ/mol
# GULP energy per Si atom -12390.375502 kJ/mol
# Density = 2.211776 g / cm^3
# Si number density = 22.168212 Si / 1000 Ang^3
#
#
#
# Elastic Constant Matrix: (Units=GPa)
#
#
# Indices 1 2 3 4 5 6 
#
# 1 121.3286 25.4255 33.7222 0.0000 0.0000 0.0000
# 2 25.4255 94.8636 21.7210 0.0000 0.0000 0.0000
# 3 33.7222 21.7210 119.7840 0.0000 0.0000 0.0000
# 4 0.0000 0.0000 0.0000 27.0938 0.0000 0.0000
# 5 0.0000 0.0000 0.0000 0.0000 30.8770 0.0000
# 6 0.0000 0.0000 0.0000 0.0000 0.0000 36.6532
#
#
#
# Elastic Compliance Matrix: (Units=1/GPa)
#
#
# Indices 1 2 3 4 5 6 
#
# 1 0.009282 -0.001971 -0.002256 0.000000 0.000000 0.000000
# 2 -0.001971 0.011417 -0.001515 0.000000 0.000000 0.000000
# 3 -0.002256 -0.001515 0.009258 0.000000 0.000000 0.000000
# 4 0.000000 0.000000 0.000000 0.036909 0.000000 0.000000
# 5 0.000000 0.000000 0.000000 0.000000 0.032387 0.000000
# 6 0.000000 0.000000 0.000000 0.000000 0.000000 0.027283
#
#
# Mechanical properties :
#
#
# Convention : Reuss Voigt Hill
#
# Bulk Modulus (GPa) = 54.13458 55.30152 54.71805
# Shear Modulus (GPa) = 34.67955 35.93198 35.30577
#
# Velocity S-wave (km/s) = 3.95952 4.03038 3.99511
# Velocity P-wave (km/s) = 6.73622 6.83075 6.78365
#
# Compressibility (1/GPa) = 0.01847248
#
# Stress axis : x y z
#
# Youngs Moduli (GPa) = 107.73382 87.59052 108.01278
#
# Poissons Ratio (x) = 0.17267 0.24364
# Poissons Ratio (y) = 0.21238 0.16367
# Poissons Ratio (z) = 0.24301 0.13272
#
# Static dielectric constant tensor:
#      x y z
#    x 4.128370 0.000000 0.000000 
#    y 0.000000 4.202850 0.000000 
#    z 0.000000 0.000000 3.779690 
# 
# 
# High freq. dielectric constant tensor:
#      x y z
#    x 1.887160 0.000000 0.000000 
#    y 0.000000 1.874190 0.000000 
#    z 0.000000 0.000000 1.873710 
# 
# From -- ./inp_files/6899.got.cif
#   From: 2010.03.12/outbox.cif.g09.slc.cpg/sg54_4_cif.got.tgz:6899.got - 2010.04.16 15:00:50.
