data_PCOD8223361
_publ_section_title
;
Structure prediction by ZEFSAII (Michael W. Deem and Ramdas Pophale) SiO2 
 PCOD8223361
Probable space group: P C C A
;
_chemical_formula_sum "Si O2"
_cell_formula_units_Z 64
_cell_length_a 16.499919
_cell_length_b 11.163797
_cell_length_c 16.440250
_cell_angle_alpha 90.000000
_cell_angle_beta 90.000000
_cell_angle_gamma 90.000000
_cell_volume 3028.322758
_symmetry_space_group_name_H-M "P C C A"
_symmetry_group_IT_number 54
_symmetry_cell_setting 'orthorhombic'
loop_
_space_group_symop_operation_xyz
x,y,z
1/2-x,-y,z
1/2+x,-y,1/2-z
-x,y,1/2-z
-x,-y,-z
1/2+x,y,-z
1/2-x,y,1/2+z
x,-y,1/2+z
loop_
_atom_site_type_symbol
_atom_site_label
_atom_site_fract_x
_atom_site_fract_y
_atom_site_fract_z
Si Si1 0.394465 0.889186 0.059252
Si Si2 0.338107 0.148992 0.257189
Si Si3 0.851010 0.881415 0.760378
Si Si4 0.140651 0.710853 0.886756
Si Si5 0.436910 0.861361 0.516810
Si Si6 0.959070 0.720771 0.332166
Si Si7 0.452920 0.475492 0.417122
Si Si8 0.326530 0.728776 0.921331
O O1 0.379445 0.840712 0.150165
O O2 0.377285 0.030641 0.045253
O O3 0.491147 0.889013 0.045727
O O4 0.335497 0.813633 0.000213
O O5 0.244490 0.128862 0.244729
O O6 0.365051 0.246158 0.187417
O O7 0.363076 0.200340 0.344870
O O8 0.380732 0.018283 0.251862
O O9 0.885038 0.795425 0.689162
O O10 0.086430 0.592112 0.876216
O O11 0.236475 0.686463 0.895442
O O12 0.122144 0.768805 0.973523
O O13 0.485022 0.799566 0.590877
O O14 0.000000 0.768939 0.250000
O O15 0.983085 0.583050 0.352230
O O16 0.500000 0.500000 0.500000
O O17 0.379024 0.388417 0.438012
#
# Coordination Sequence:
#
# PCOD8223361 Si02
#       8
#     8   8   8   8   8   8   8   8
#     4  11  22  39  64 100 132 166 217 268 338 396
#     4  10  21  42  65  98 128 169 222 260 346 406
#     4  10  23  39  65 101 138 162 207 285 335 407
#     4  11  25  44  64  93 134 174 215 269 340 383
#     4  11  23  41  64  97 130 173 218 266 331 411
#     4  12  22  42  69  94 125 178 222 273 320 399
#     4  12  24  45  66  90 126 173 233 267 313 385
#     4  11  23  43  66  91 130 177 215 272 328 399
#
# _framework density 21.133808999999999
#
# number of rings (size 3 to 8) (size 9 to 14) (size 15 to 20)
#    0.000    1.000    5.000    1.125    1.750    3.000 
#    4.500    0.000    0.000    3.000    0.000    0.000 
#    0.000    0.000    0.000    0.000    0.000    0.000 
#
# Total GULP energy -793118.912921 kJ/mol
# GULP energy per Si atom -12392.483014 kJ/mol
# Density = 2.108571 g / cm^3
# Si number density = 21.133809 Si / 1000 Ang^3
#
#
#
# Elastic Constant Matrix: (Units=GPa)
#
#
# Indices 1 2 3 4 5 6 
#
# 1 56.5392 52.2246 43.0274 0.0000 0.0000 0.0000
# 2 52.2246 146.4844 71.8553 0.0000 0.0000 0.0000
# 3 43.0274 71.8553 155.1850 0.0000 0.0000 0.0000
# 4 0.0000 0.0000 0.0000 38.5115 0.0000 0.0000
# 5 0.0000 0.0000 0.0000 0.0000 37.2744 0.0000
# 6 0.0000 0.0000 0.0000 0.0000 0.0000 38.5467
#
#
#
# Elastic Compliance Matrix: (Units=1/GPa)
#
#
# Indices 1 2 3 4 5 6 
#
# 1 0.028254 -0.008061 -0.004101 0.000000 0.000000 0.000000
# 2 -0.008061 0.011133 -0.002920 0.000000 0.000000 0.000000
# 3 -0.004101 -0.002920 0.008933 0.000000 0.000000 0.000000
# 4 0.000000 0.000000 0.000000 0.025966 0.000000 0.000000
# 5 0.000000 0.000000 0.000000 0.000000 0.026828 0.000000
# 6 0.000000 0.000000 0.000000 0.000000 0.000000 0.025943
#
#
# Mechanical properties :
#
#
# Convention : Reuss Voigt Hill
#
# Bulk Modulus (GPa) = 55.08017 76.93589 66.00803
# Shear Modulus (GPa) = 30.62349 35.60662 33.11505
#
# Velocity S-wave (km/s) = 3.81074 4.10911 3.96273
# Velocity P-wave (km/s) = 6.74400 7.68090 7.22764
#
# Compressibility (1/GPa) = 0.01815535
#
# Stress axis : x y z
#
# Youngs Moduli (GPa) = 35.39305 89.82359 111.94479
#
# Poissons Ratio (x) = 0.72410 0.45911
# Poissons Ratio (y) = 0.28532 0.32685
# Poissons Ratio (z) = 0.14515 0.26226
#
# Static dielectric constant tensor:
#      x y z
#    x 3.803060 0.000000 0.000000 
#    y 0.000000 4.021660 0.000000 
#    z 0.000000 0.000000 3.937070 
# 
# 
# High freq. dielectric constant tensor:
#      x y z
#    x 1.828200 0.000000 0.000000 
#    y 0.000000 1.820950 0.000000 
#    z 0.000000 0.000000 1.837300 
# 
# From -- ./inp_files/14318.got.cif
#   From: 2010.03.12/outbox.cif.g09.slc.cpg/sg54_8_cif.got.tgz:14318.got - 2010.04.16 15:00:50.
