data_PCOD8223557
_publ_section_title
;
Structure prediction by ZEFSAII (Michael W. Deem and Ramdas Pophale) SiO2 
 PCOD8223557
Probable space group: P C C A
;
_chemical_formula_sum "Si O2"
_cell_formula_units_Z 32
_cell_length_a 10.319598
_cell_length_b 8.833107
_cell_length_c 17.026102
_cell_angle_alpha 90.000000
_cell_angle_beta 90.000000
_cell_angle_gamma 90.000000
_cell_volume 1551.999231
_symmetry_space_group_name_H-M "P C C A"
_symmetry_group_IT_number 54
_symmetry_cell_setting 'orthorhombic'
loop_
_space_group_symop_operation_xyz
x,y,z
1/2-x,-y,z
1/2+x,-y,1/2-z
-x,y,1/2-z
-x,-y,-z
1/2+x,y,-z
1/2-x,y,1/2+z
x,-y,1/2+z
loop_
_atom_site_type_symbol
_atom_site_label
_atom_site_fract_x
_atom_site_fract_y
_atom_site_fract_z
Si Si1 0.466402 0.597545 0.075118
Si Si2 0.250000 0.500000 0.186957
Si Si3 0.250000 0.000000 0.357533
Si Si4 0.630749 0.905275 0.495456
Si Si5 0.369482 0.720090 0.296867
O O1 0.376929 0.495390 0.132041
O O2 0.387812 0.748598 0.050309
O O3 0.601295 0.643354 0.118031
O O4 0.500000 0.500000 0.000000
O O5 0.254031 0.643325 0.246642
O O6 0.329684 0.118860 0.412795
O O7 0.158610 0.101941 0.303586
O O8 0.750000 0.000000 0.454650
O O9 0.500000 0.000000 0.500000
O O10 0.500000 0.700088 0.250000
#
# Coordination Sequence:
#
# PCOD8223557 Si02
#       5
#     8   4   4   8   8
#     4  11  24  43  69  99 133 178 236 287 341 417
#     4  10  26  42  64  94 136 184 208 286 354 412
#     4  10  22  42  70  92 134 178 222 286 340 408
#     4  10  22  41  67 102 136 171 233 291 343 398
#     4  10  23  47  58  98 138 168 227 275 345 420
#
# _framework density 20.618566999999999
#
# number of rings (size 3 to 8) (size 9 to 14) (size 15 to 20)
#    0.750    1.000    2.500    0.000   10.500    0.000 
#   13.500    0.000    0.000    0.000    0.000    0.000 
#    0.000    0.000    0.000    0.000    0.000    0.000 
#
# Total GULP energy -396473.883306 kJ/mol
# GULP energy per Si atom -12389.808853 kJ/mol
# Density = 2.057164 g / cm^3
# Si number density = 20.618567 Si / 1000 Ang^3
#
#
#
# Elastic Constant Matrix: (Units=GPa)
#
#
# Indices 1 2 3 4 5 6 
#
# 1 98.3034 55.7581 37.0844 0.0000 0.0000 0.0000
# 2 55.7581 116.5307 72.3417 0.0000 0.0000 0.0000
# 3 37.0844 72.3417 121.0180 0.0000 0.0000 0.0000
# 4 0.0000 0.0000 0.0000 40.2818 0.0000 0.0000
# 5 0.0000 0.0000 0.0000 0.0000 30.2229 0.0000
# 6 0.0000 0.0000 0.0000 0.0000 0.0000 43.3705
#
#
#
# Elastic Compliance Matrix: (Units=1/GPa)
#
#
# Indices 1 2 3 4 5 6 
#
# 1 0.013977 -0.006406 -0.000454 0.000000 0.000000 0.000000
# 2 -0.006406 0.016581 -0.007949 0.000000 0.000000 0.000000
# 3 -0.000454 -0.007949 0.013154 0.000000 0.000000 0.000000
# 4 0.000000 0.000000 0.000000 0.024825 0.000000 0.000000
# 5 0.000000 0.000000 0.000000 0.000000 0.033087 0.000000
# 6 0.000000 0.000000 0.000000 0.000000 0.000000 0.023057
#
#
# Mechanical properties :
#
#
# Convention : Reuss Voigt Hill
#
# Bulk Modulus (GPa) = 70.94689 74.02450 72.48570
# Shear Modulus (GPa) = 31.44689 34.15291 32.79990
#
# Velocity S-wave (km/s) = 3.90958 4.07432 3.99280
# Velocity P-wave (km/s) = 7.40700 7.62321 7.51588
#
# Compressibility (1/GPa) = 0.01409505
#
# Stress axis : x y z
#
# Youngs Moduli (GPa) = 71.54383 60.30876 76.02341
#
# Poissons Ratio (x) = 0.38636 0.03449
# Poissons Ratio (y) = 0.45834 0.60429
# Poissons Ratio (z) = 0.03245 0.47938
#
# Static dielectric constant tensor:
#      x y z
#    x 3.922320 0.000000 0.000000 
#    y 0.000000 3.694580 0.000000 
#    z 0.000000 0.000000 4.118870 
# 
# 
# High freq. dielectric constant tensor:
#      x y z
#    x 1.801190 0.000000 0.000000 
#    y 0.000000 1.793350 0.000000 
#    z 0.000000 0.000000 1.814720 
# 
# From -- ./inp_files/17040.got.cif
#   From: 2010.03.12/outbox.cif.g09.slc.cpg/sg54_9_cif.got.tgz:17040.got - 2010.04.16 15:00:50.
