data_PCOD8223109
_publ_section_title
;
Structure prediction by ZEFSAII (Michael W. Deem and Ramdas Pophale) SiO2 
 PCOD8223109
Probable space group: P C C A
;
_chemical_formula_sum "Si O2"
_cell_formula_units_Z 48
_cell_length_a 9.043232
_cell_length_b 12.193533
_cell_length_c 22.482970
_cell_angle_alpha 90.000000
_cell_angle_beta 90.000000
_cell_angle_gamma 90.000000
_cell_volume 2479.173446
_symmetry_space_group_name_H-M "P C C A"
_symmetry_group_IT_number 54
_symmetry_cell_setting 'orthorhombic'
loop_
_space_group_symop_operation_xyz
x,y,z
1/2-x,-y,z
1/2+x,-y,1/2-z
-x,y,1/2-z
-x,-y,-z
1/2+x,y,-z
1/2-x,y,1/2+z
x,-y,1/2+z
loop_
_atom_site_type_symbol
_atom_site_label
_atom_site_fract_x
_atom_site_fract_y
_atom_site_fract_z
Si Si1 0.453753 0.798537 0.627950
Si Si2 0.078851 0.386185 0.930229
Si Si3 0.126619 0.818219 0.594549
Si Si4 0.585448 0.634361 0.052417
Si Si5 0.379137 0.923665 0.973555
Si Si6 0.579339 0.991482 0.307831
O O1 0.522992 0.675696 0.630523
O O2 0.277680 0.781110 0.625499
O O3 0.540633 0.841914 0.570415
O O4 0.487136 0.885889 0.680172
O O5 0.240341 0.340030 0.947808
O O6 0.068755 0.515249 0.917199
O O7 0.967762 0.361562 0.984629
O O8 0.182457 0.856096 0.529871
O O9 0.053763 0.916989 0.633468
O O10 0.005168 0.721678 0.591988
O O11 0.250000 0.000000 0.944799
O O12 0.500000 0.000000 0.000000
O O13 0.500000 0.940886 0.250000
O O14 0.750000 0.000000 0.292360
#
# Coordination Sequence:
#
# PCOD8223109 Si02
#       6
#     8   8   8   8   8   8
#     4  11  22  35  55  79 111 144 179 223 271 324
#     4  10  21  34  50  79 112 149 184 219 264 321
#     4  11  21  36  54  79 112 144 177 224 271 323
#     4  10  21  34  51  77 114 148 183 221 264 320
#     4  12  21  32  48  78 114 143 178 217 266 330
#     4  10  23  41  57  80 109 140 181 227 275 323
#
# _framework density 19.361293
#
# number of rings (size 3 to 8) (size 9 to 14) (size 15 to 20)
#    0.000    1.333    5.000    1.500    2.333    4.000 
#    0.000    0.000    0.000    1.000    0.000    0.000 
#    0.000    0.000    0.000    0.000    0.000    0.000 
#
# Total GULP energy -594710.070539 kJ/mol
# GULP energy per Si atom -12389.793136 kJ/mol
# Density = 1.931723 g / cm^3
# Si number density = 19.361293 Si / 1000 Ang^3
#
#
#
# Elastic Constant Matrix: (Units=GPa)
#
#
# Indices 1 2 3 4 5 6 
#
# 1 97.5347 41.1923 12.0776 0.0000 0.0000 0.0000
# 2 41.1923 94.5475 18.4793 0.0000 0.0000 0.0000
# 3 12.0776 18.4793 59.7062 0.0000 0.0000 0.0000
# 4 0.0000 0.0000 0.0000 15.7856 0.0000 0.0000
# 5 0.0000 0.0000 0.0000 0.0000 23.9037 0.0000
# 6 0.0000 0.0000 0.0000 0.0000 0.0000 42.0989
#
#
#
# Elastic Compliance Matrix: (Units=1/GPa)
#
#
# Indices 1 2 3 4 5 6 
#
# 1 0.012610 -0.005317 -0.000905 0.000000 0.000000 0.000000
# 2 -0.005317 0.013500 -0.003103 0.000000 0.000000 0.000000
# 3 -0.000905 -0.003103 0.017892 0.000000 0.000000 0.000000
# 4 0.000000 0.000000 0.000000 0.063349 0.000000 0.000000
# 5 0.000000 0.000000 0.000000 0.000000 0.041835 0.000000
# 6 0.000000 0.000000 0.000000 0.000000 0.000000 0.023754
#
#
# Mechanical properties :
#
#
# Convention : Reuss Voigt Hill
#
# Bulk Modulus (GPa) = 39.44431 43.92074 41.68253
# Shear Modulus (GPa) = 24.99501 28.36025 26.67763
#
# Velocity S-wave (km/s) = 3.59692 3.83141 3.71601
# Velocity P-wave (km/s) = 6.13738 6.50438 6.32354
#
# Compressibility (1/GPa) = 0.02535220
#
# Stress axis : x y z
#
# Youngs Moduli (GPa) = 79.29904 74.07575 55.89068
#
# Poissons Ratio (x) = 0.39388 0.05059
# Poissons Ratio (y) = 0.42165 0.17341
# Poissons Ratio (z) = 0.07178 0.22983
#
# Static dielectric constant tensor:
#      x y z
#    x 3.619200 0.000000 0.000000 
#    y 0.000000 3.775290 0.000000 
#    z 0.000000 0.000000 2.949770 
# 
# 
# High freq. dielectric constant tensor:
#      x y z
#    x 1.770130 0.000000 0.000000 
#    y 0.000000 1.765610 0.000000 
#    z 0.000000 0.000000 1.691350 
# 
# From -- ./inp_files/23498.got.cif
#   From: 2010.03.12/outbox.cif.g09.slc.cpg/sg54_12_cif.got.tgz:23498.got - 2010.04.16 15:00:50.
