data_PCOD8223697
_publ_section_title
;
Structure prediction by ZEFSAII (Michael W. Deem and Ramdas Pophale) SiO2 
 PCOD8223697
Probable space group: P C C A
;
_chemical_formula_sum "Si O2"
_cell_formula_units_Z 24
_cell_length_a 5.045807
_cell_length_b 7.291130
_cell_length_c 25.534348
_cell_angle_alpha 90.000000
_cell_angle_beta 90.000000
_cell_angle_gamma 90.000000
_cell_volume 939.399338
_symmetry_space_group_name_H-M "P C C A"
_symmetry_group_IT_number 54
_symmetry_cell_setting 'orthorhombic'
loop_
_space_group_symop_operation_xyz
x,y,z
1/2-x,-y,z
1/2+x,-y,1/2-z
-x,y,1/2-z
-x,-y,-z
1/2+x,y,-z
1/2-x,y,1/2+z
x,-y,1/2+z
loop_
_atom_site_type_symbol
_atom_site_label
_atom_site_fract_x
_atom_site_fract_y
_atom_site_fract_z
Si Si1 0.858914 0.300421 0.198685
Si Si2 0.146538 0.797939 0.138085
Si Si3 0.484916 0.296269 0.023969
O O1 0.750000 0.500000 0.213113
O O2 0.601211 0.186560 0.178848
O O3 0.000000 0.210060 0.250000
O O4 0.097645 0.318049 0.156861
O O5 0.036317 0.699000 0.086480
O O6 0.250000 0.000000 0.125689
O O7 0.500000 0.500000 0.000000
O O8 0.744889 0.189513 0.004356
#
# Coordination Sequence:
#
# PCOD8223697 Si02
#       3
#     8   8   8
#     4  12  27  49  76 108 146 197 256 307 368 458
#     4  12  27  46  76 113 153 196 247 315 383 443
#     4  10  23  41  68 107 143 200 247 303 361 441
#
# _framework density 25.548238999999999
#
# number of rings (size 3 to 8) (size 9 to 14) (size 15 to 20)
#    0.000    0.667    0.000    7.000   14.000    4.000 
#    0.000    1.667    0.000    0.000    0.000    0.000 
#    0.000    0.000    0.000    0.000    0.000    0.000 
#
# Total GULP energy -297437.758701 kJ/mol
# GULP energy per Si atom -12393.239946 kJ/mol
# Density = 2.549009 g / cm^3
# Si number density = 25.548239 Si / 1000 Ang^3
#
#
#
# Elastic Constant Matrix: (Units=GPa)
#
#
# Indices 1 2 3 4 5 6 
#
# 1 255.1006 23.6447 76.0605 0.0000 0.0000 0.0000
# 2 23.6447 61.4592 39.9435 0.0000 0.0000 0.0000
# 3 76.0605 39.9435 155.2639 0.0000 0.0000 0.0000
# 4 0.0000 0.0000 0.0000 13.6034 0.0000 0.0000
# 5 0.0000 0.0000 0.0000 0.0000 64.1841 0.0000
# 6 0.0000 0.0000 0.0000 0.0000 0.0000 32.8786
#
#
#
# Elastic Compliance Matrix: (Units=1/GPa)
#
#
# Indices 1 2 3 4 5 6 
#
# 1 0.004597 -0.000366 -0.002158 0.000000 0.000000 0.000000
# 2 -0.000366 0.019567 -0.004854 0.000000 0.000000 0.000000
# 3 -0.002158 -0.004854 0.008747 0.000000 0.000000 0.000000
# 4 0.000000 0.000000 0.000000 0.073511 0.000000 0.000000
# 5 0.000000 0.000000 0.000000 0.000000 0.015580 0.000000
# 6 0.000000 0.000000 0.000000 0.000000 0.000000 0.030415
#
#
# Mechanical properties :
#
#
# Convention : Reuss Voigt Hill
#
# Bulk Modulus (GPa) = 55.08521 83.45793 69.27157
# Shear Modulus (GPa) = 28.86416 44.27823 36.57120
#
# Velocity S-wave (km/s) = 3.36488 4.16760 3.78756
# Velocity P-wave (km/s) = 6.05844 7.47638 6.80444
#
# Compressibility (1/GPa) = 0.01815369
#
# Stress axis : x y z
#
# Youngs Moduli (GPa) = 217.51538 51.10698 114.32978
#
# Poissons Ratio (x) = 0.01872 0.24672
# Poissons Ratio (y) = 0.07966 0.55500
# Poissons Ratio (z) = 0.46939 0.24809
#
# Static dielectric constant tensor:
#      x y z
#    x -1.025620 0.000000 0.000000 
#    y 0.000000 3.505170 0.000000 
#    z 0.000000 0.000000 4.487490 
# 
# 
# High freq. dielectric constant tensor:
#      x y z
#    x 2.068080 0.000000 0.000000 
#    y 0.000000 1.990290 0.000000 
#    z 0.000000 0.000000 2.018300 
# 
# From -- ./inp_files/22527.got.cif
#   From: 2010.03.12/outbox.cif.g09.slc.cpg/sg54_12_cif.got.tgz:22527.got - 2010.04.16 15:00:50.
