data_PCOD8223984
_publ_section_title
;
Structure prediction by ZEFSAII (Michael W. Deem and Ramdas Pophale) SiO2 
 PCOD8223984
Probable space group: P C C A
;
_chemical_formula_sum "Si O2"
_cell_formula_units_Z 56
_cell_length_a 21.493047
_cell_length_b 9.530675
_cell_length_c 14.101252
_cell_angle_alpha 90.000000
_cell_angle_beta 90.000000
_cell_angle_gamma 90.000000
_cell_volume 2888.546228
_symmetry_space_group_name_H-M "P C C A"
_symmetry_group_IT_number 54
_symmetry_cell_setting 'orthorhombic'
loop_
_space_group_symop_operation_xyz
x,y,z
1/2-x,-y,z
1/2+x,-y,1/2-z
-x,y,1/2-z
-x,-y,-z
1/2+x,y,-z
1/2-x,y,1/2+z
x,-y,1/2+z
loop_
_atom_site_type_symbol
_atom_site_label
_atom_site_fract_x
_atom_site_fract_y
_atom_site_fract_z
Si Si1 0.362096 0.496004 0.608857
Si Si2 0.830223 0.725044 0.744234
Si Si3 0.994954 0.384781 0.860302
Si Si4 0.128340 0.513689 0.393512
Si Si5 0.000063 0.926130 0.100333
Si Si6 0.814240 0.720012 0.251813
Si Si7 0.101055 0.016777 0.751155
O O1 0.345117 0.347084 0.655225
O O2 0.435335 0.519153 0.623544
O O3 0.344211 0.491098 0.498951
O O4 0.322109 0.618803 0.657650
O O5 0.853492 0.628966 0.658296
O O6 0.757333 0.751926 0.733689
O O7 0.864941 0.870681 0.736334
O O8 0.988272 0.239215 0.916978
O O9 0.000000 0.342851 0.750000
O O10 0.053683 0.473647 0.895937
O O11 0.157263 0.647485 0.341168
O O12 0.053922 0.994766 0.163598
O O13 0.933753 0.946957 0.151065
O O14 0.000000 0.000000 0.000000
O O15 0.848798 0.864496 0.272511
#
# Coordination Sequence:
#
# PCOD8223984 Si02
#       7
#     8   8   8   8   8   8   8
#     4  11  23  40  65  92 125 160 204 253 310 366
#     4  11  26  38  63  96 119 164 214 255 289 361
#     4  12  19  42  66  90 124 165 196 252 324 368
#     4  11  23  40  65  92 125 160 204 253 310 366
#     4  11  23  39  66  90 124 161 198 251 320 370
#     4  11  22  45  63  83 130 170 202 247 310 359
#     4  11  23  43  64  91 124 158 207 254 302 372
#
# _framework density 19.386915999999999
#
# number of rings (size 3 to 8) (size 9 to 14) (size 15 to 20)
#    0.000    0.857    7.143    2.571    4.000    4.571 
#    0.000    0.000    0.000    5.143    0.000    0.000 
#    0.000    0.000    0.000    0.000    0.000    0.000 
#
# Total GULP energy -694757.110751 kJ/mol
# GULP energy per Si atom -12406.376978 kJ/mol
# Density = 1.934279 g / cm^3
# Si number density = 19.386916 Si / 1000 Ang^3
#
#
#
# Elastic Constant Matrix: (Units=GPa)
#
#
# Indices 1 2 3 4 5 6 
#
# 1 104.9832 22.3237 -3.2112 0.0000 0.0000 0.0000
# 2 22.3237 91.0590 16.8660 0.0000 0.0000 0.0000
# 3 -3.2112 16.8660 114.8692 0.0000 0.0000 0.0000
# 4 0.0000 0.0000 0.0000 14.8784 0.0000 0.0000
# 5 0.0000 0.0000 0.0000 0.0000 10.5939 0.0000
# 6 0.0000 0.0000 0.0000 0.0000 0.0000 25.9884
#
#
#
# Elastic Compliance Matrix: (Units=1/GPa)
#
#
# Indices 1 2 3 4 5 6 
#
# 1 0.010098 -0.002599 0.000664 0.000000 0.000000 0.000000
# 2 -0.002599 0.011958 -0.001828 0.000000 0.000000 0.000000
# 3 0.000664 -0.001828 0.008993 0.000000 0.000000 0.000000
# 4 0.000000 0.000000 0.000000 0.067212 0.000000 0.000000
# 5 0.000000 0.000000 0.000000 0.000000 0.094394 0.000000
# 6 0.000000 0.000000 0.000000 0.000000 0.000000 0.038479
#
#
# Mechanical properties :
#
#
# Convention : Reuss Voigt Hill
#
# Bulk Modulus (GPa) = 42.51308 42.54091 42.52700
# Shear Modulus (GPa) = 20.28404 28.62101 24.45252
#
# Velocity S-wave (km/s) = 3.23813 3.84644 3.55532
# Velocity P-wave (km/s) = 5.99641 6.45891 6.23195
#
# Compressibility (1/GPa) = 0.02352217
#
# Stress axis : x y z
#
# Youngs Moduli (GPa) = 99.02746 83.62880 111.20297
#
# Poissons Ratio (x) = 0.21732 -0.07382
# Poissons Ratio (y) = 0.25733 0.20332
# Poissons Ratio (z) = -0.06574 0.15290
#
# Static dielectric constant tensor:
#      x y z
#    x 3.676200 0.000000 0.000000 
#    y 0.000000 3.828740 0.000000 
#    z 0.000000 0.000000 3.586090 
# 
# 
# High freq. dielectric constant tensor:
#      x y z
#    x 1.766290 0.000000 0.000000 
#    y 0.000000 1.755990 0.000000 
#    z 0.000000 0.000000 1.751410 
# 
# From -- ./inp_files/14674.got.cif
#   From: 2010.03.12/outbox.cif.g09.slc.cpg/sg54_8_cif.got.tgz:14674.got - 2010.04.16 15:00:50.
