data_PCOD8223460
_publ_section_title
;
Structure prediction by ZEFSAII (Michael W. Deem and Ramdas Pophale) SiO2 
 PCOD8223460
Probable space group: P C C A
;
_chemical_formula_sum "Si O2"
_cell_formula_units_Z 48
_cell_length_a 9.615101
_cell_length_b 19.280815
_cell_length_c 13.505059
_cell_angle_alpha 90.000000
_cell_angle_beta 90.000000
_cell_angle_gamma 90.000000
_cell_volume 2503.662151
_symmetry_space_group_name_H-M "P C C A"
_symmetry_group_IT_number 54
_symmetry_cell_setting 'orthorhombic'
loop_
_space_group_symop_operation_xyz
x,y,z
1/2-x,-y,z
1/2+x,-y,1/2-z
-x,y,1/2-z
-x,-y,-z
1/2+x,y,-z
1/2-x,y,1/2+z
x,-y,1/2+z
loop_
_atom_site_type_symbol
_atom_site_label
_atom_site_fract_x
_atom_site_fract_y
_atom_site_fract_z
Si Si1 0.000000 0.393875 0.250000
Si Si2 0.908483 0.505176 0.097381
Si Si3 0.264791 0.708249 0.216467
Si Si4 0.153311 0.934134 0.728417
Si Si5 0.815960 0.186300 0.116852
Si Si6 0.000000 0.620575 0.250000
Si Si7 0.865405 0.177449 0.428181
O O1 0.067376 0.439053 0.335212
O O2 0.117324 0.348341 0.198297
O O3 0.750000 0.500000 0.062265
O O4 0.941523 0.574598 0.159572
O O5 0.000000 0.500000 0.000000
O O6 0.285171 0.743224 0.323789
O O7 0.117634 0.670696 0.206564
O O8 0.279448 0.764623 0.130631
O O9 0.195880 0.879160 0.811471
O O10 0.160919 0.897281 0.621633
O O11 0.000000 0.962293 0.750000
O O12 0.250000 0.000000 0.729644
O O13 0.969558 0.193012 0.069576
O O14 0.694498 0.175615 0.037884
#
# Coordination Sequence:
#
# PCOD8223460 Si02
#       7
#     4   8   8   8   8   4   8
#     4  11  22  44  64  80 123 158 192 242 295 352
#     4  11  26  42  62  90 118 154 198 244 295 352
#     4  11  22  42  61  86 119 158 193 240 298 348
#     4   9  20  40  60  83 119 161 198 241 294 343
#     4  10  22  39  60  89 122 154 199 242 294 350
#     4  11  26  42  62  90 119 154 200 242 293 360
#     4  10  22  39  60  88 122 156 195 247 291 348
#
# _framework density 19.171914999999998
#
# number of rings (size 3 to 8) (size 9 to 14) (size 15 to 20)
#    0.000    1.667    3.333    1.000    4.667    4.667 
#    3.000    3.333    0.000    0.000    0.000    0.000 
#    0.000    0.000    0.000    0.000    0.000    0.000 
#
# Total GULP energy -595316.504098 kJ/mol
# GULP energy per Si atom -12402.427169 kJ/mol
# Density = 1.912828 g / cm^3
# Si number density = 19.171915 Si / 1000 Ang^3
#
#
#
# Elastic Constant Matrix: (Units=GPa)
#
#
# Indices 1 2 3 4 5 6 
#
# 1 119.5921 49.0872 24.9290 0.0000 0.0000 0.0000
# 2 49.0872 99.2618 10.9119 0.0000 0.0000 0.0000
# 3 24.9290 10.9119 78.7507 0.0000 0.0000 0.0000
# 4 0.0000 0.0000 0.0000 -1.2061 0.0000 0.0000
# 5 0.0000 0.0000 0.0000 0.0000 36.0411 0.0000
# 6 0.0000 0.0000 0.0000 0.0000 0.0000 41.0786
#
#
#
# Elastic Compliance Matrix: (Units=1/GPa)
#
#
# Indices 1 2 3 4 5 6 
#
# 1 0.011062 -0.005164 -0.002786 0.000000 0.000000 0.000000
# 2 -0.005164 0.012641 -0.000117 0.000000 0.000000 0.000000
# 3 -0.002786 -0.000117 0.013596 0.000000 0.000000 0.000000
# 4 0.000000 0.000000 0.000000 -0.829116 0.000000 0.000000
# 5 0.000000 0.000000 0.000000 0.000000 0.027746 0.000000
# 6 0.000000 0.000000 0.000000 0.000000 0.000000 0.024344
#
#
# Mechanical properties :
#
#
# Convention : Reuss Voigt Hill
#
# Bulk Modulus (GPa) = 47.24739 51.94010 49.59375
# Shear Modulus (GPa) = -6.97800 29.36115 11.19157
#
# Velocity S-wave (km/s) = -1.90987 3.91764 2.41871
# Velocity P-wave (km/s) = 4.45355 6.90032 5.80726
#
# Compressibility (1/GPa) = 0.02116519
#
# Stress axis : x y z
#
# Youngs Moduli (GPa) = 90.39759 79.10738 73.54841
#
# Poissons Ratio (x) = 0.40853 0.20492
# Poissons Ratio (y) = 0.46683 0.00859
# Poissons Ratio (z) = 0.25187 0.00924
#
# Static dielectric constant tensor:
#      x y z
#    x 3.387670 0.000000 0.000000 
#    y 0.000000 3.582750 0.000000 
#    z 0.000000 0.000000 3.340100 
# 
# 
# High freq. dielectric constant tensor:
#      x y z
#    x 1.758660 0.000000 0.000000 
#    y 0.000000 1.755330 0.000000 
#    z 0.000000 0.000000 1.739560 
# 
# From -- ./inp_files/11748.got.cif
#   From: 2010.03.12/outbox.cif.g09.slc.cpg/sg54_6_cif.got.tgz:11748.got - 2010.04.16 15:00:50.
