data_PCOD8223369
_publ_section_title
;
Structure prediction by ZEFSAII (Michael W. Deem and Ramdas Pophale) SiO2 
 PCOD8223369
Probable space group: P C C A
;
_chemical_formula_sum "Si O2"
_cell_formula_units_Z 48
_cell_length_a 27.087408
_cell_length_b 9.255944
_cell_length_c 8.865982
_cell_angle_alpha 90.000000
_cell_angle_beta 90.000000
_cell_angle_gamma 90.000000
_cell_volume 2222.874854
_symmetry_space_group_name_H-M "P C C A"
_symmetry_group_IT_number 54
_symmetry_cell_setting 'orthorhombic'
loop_
_space_group_symop_operation_xyz
x,y,z
1/2-x,-y,z
1/2+x,-y,1/2-z
-x,y,1/2-z
-x,-y,-z
1/2+x,y,-z
1/2-x,y,1/2+z
x,-y,1/2+z
loop_
_atom_site_type_symbol
_atom_site_label
_atom_site_fract_x
_atom_site_fract_y
_atom_site_fract_z
Si Si1 0.186215 0.777757 0.496323
Si Si2 0.393094 0.391825 0.674803
Si Si3 0.634359 0.651181 0.988333
Si Si4 0.613324 0.969745 0.037398
Si Si5 0.230271 0.343397 0.691328
Si Si6 0.553238 0.119479 0.810409
O O1 0.142108 0.674287 0.546429
O O2 0.228787 0.766133 0.623148
O O3 0.206439 0.733030 0.334431
O O4 0.164000 0.939919 0.480330
O O5 0.403110 0.554236 0.614807
O O6 0.442877 0.294783 0.682295
O O7 0.367348 0.395126 0.837418
O O8 0.619882 0.815983 0.956214
O O9 0.690376 0.625099 0.938396
O O10 0.564441 0.048453 0.971413
O O11 0.599200 0.940132 0.210822
O O12 0.250000 0.500000 0.740403
O O13 0.500000 0.074068 0.750000
#
# Coordination Sequence:
#
# PCOD8223369 Si02
#       6
#     8   8   8   8   8   8
#     4  11  23  40  61  91 128 166 214 261 318 369
#     4  10  22  39  62  90 124 165 208 267 319 377
#     4  11  22  40  62  89 127 170 214 257 319 371
#     4  10  23  42  65  93 129 170 203 264 333 381
#     4  12  23  36  64  92 125 167 219 259 298 377
#     4  10  21  42  68  96 125 163 214 266 326 398
#
# _framework density 21.593658000000001
#
# number of rings (size 3 to 8) (size 9 to 14) (size 15 to 20)
#    0.000    1.333    1.667    4.000    0.000    2.000 
#    0.000    5.833    0.000    0.000    0.000    0.000 
#    0.000    0.000    0.000    0.000    0.000    0.000 
#
# Total GULP energy -595094.097214 kJ/mol
# GULP energy per Si atom -12397.793692 kJ/mol
# Density = 2.154451 g / cm^3
# Si number density = 21.593658 Si / 1000 Ang^3
#
#
#
# Elastic Constant Matrix: (Units=GPa)
#
#
# Indices 1 2 3 4 5 6 
#
# 1 60.1386 37.8158 24.6538 0.0000 0.0000 0.0000
# 2 37.8158 158.1209 53.7671 0.0000 0.0000 0.0000
# 3 24.6538 53.7671 93.9157 0.0000 0.0000 0.0000
# 4 0.0000 0.0000 0.0000 32.9948 0.0000 0.0000
# 5 0.0000 0.0000 0.0000 0.0000 26.0662 0.0000
# 6 0.0000 0.0000 0.0000 0.0000 0.0000 28.5403
#
#
#
# Elastic Compliance Matrix: (Units=1/GPa)
#
#
# Indices 1 2 3 4 5 6 
#
# 1 0.020302 -0.003779 -0.003166 0.000000 0.000000 0.000000
# 2 -0.003779 0.008556 -0.003907 0.000000 0.000000 0.000000
# 3 -0.003166 -0.003907 0.013716 0.000000 0.000000 0.000000
# 4 0.000000 0.000000 0.000000 0.030308 0.000000 0.000000
# 5 0.000000 0.000000 0.000000 0.000000 0.038364 0.000000
# 6 0.000000 0.000000 0.000000 0.000000 0.000000 0.035038
#
#
# Mechanical properties :
#
#
# Convention : Reuss Voigt Hill
#
# Bulk Modulus (GPa) = 47.91310 60.51650 54.21480
# Shear Modulus (GPa) = 28.58050 30.58283 29.58166
#
# Velocity S-wave (km/s) = 3.64202 3.76744 3.70526
# Velocity P-wave (km/s) = 6.31842 6.85644 6.59292
#
# Compressibility (1/GPa) = 0.02087112
#
# Stress axis : x y z
#
# Youngs Moduli (GPa) = 49.25527 116.87156 72.91000
#
# Poissons Ratio (x) = 0.44164 0.23085
# Poissons Ratio (y) = 0.18613 0.28483
# Poissons Ratio (z) = 0.15595 0.45657
#
# Static dielectric constant tensor:
#      x y z
#    x 3.610580 0.000000 0.000000 
#    y 0.000000 4.207210 0.000000 
#    z 0.000000 0.000000 3.905200 
# 
# 
# High freq. dielectric constant tensor:
#      x y z
#    x 1.818450 0.000000 0.000000 
#    y 0.000000 1.855310 0.000000 
#    z 0.000000 0.000000 1.861980 
# 
# From -- ./inp_files/5849.got.cif
#   From: 2010.03.12/outbox.cif.g09.slc.cpg/sg54_3_cif.got.tgz:5849.got - 2010.04.16 15:00:50.
