data_PCOD8223960
_publ_section_title
;
Structure prediction by ZEFSAII (Michael W. Deem and Ramdas Pophale) SiO2 
 PCOD8223960
Probable space group: P C C A
;
_chemical_formula_sum "Si O2"
_cell_formula_units_Z 40
_cell_length_a 26.318263
_cell_length_b 7.337073
_cell_length_c 9.581524
_cell_angle_alpha 90.000000
_cell_angle_beta 90.000000
_cell_angle_gamma 90.000000
_cell_volume 1850.182864
_symmetry_space_group_name_H-M "P C C A"
_symmetry_group_IT_number 54
_symmetry_cell_setting 'orthorhombic'
loop_
_space_group_symop_operation_xyz
x,y,z
1/2-x,-y,z
1/2+x,-y,1/2-z
-x,y,1/2-z
-x,-y,-z
1/2+x,y,-z
1/2-x,y,1/2+z
x,-y,1/2+z
loop_
_atom_site_type_symbol
_atom_site_label
_atom_site_fract_x
_atom_site_fract_y
_atom_site_fract_z
Si Si1 0.605800 0.269230 0.304898
Si Si2 0.279277 0.672313 0.993722
Si Si3 0.606137 0.378374 0.989839
Si Si4 0.218970 0.837765 0.215225
Si Si5 0.034672 0.063428 0.125537
O O1 0.597818 0.417451 0.428931
O O2 0.658693 0.155318 0.316036
O O3 0.564133 0.113489 0.319440
O O4 0.598729 0.375015 0.157574
O O5 0.250000 0.500000 0.053885
O O6 0.336692 0.677247 0.047989
O O7 0.249642 0.832257 0.070844
O O8 0.275102 0.674413 0.826649
O O9 0.570198 0.230677 0.918175
O O10 0.250000 0.000000 0.293404
O O11 0.000000 0.139773 0.250000
O O12 0.000000 0.000000 0.000000
#
# Coordination Sequence:
#
# PCOD8223960 Si02
#       5
#     8   8   8   8   8
#     4  11  26  46  71 108 139 189 245 291 367 430
#     4  11  22  41  65 100 140 181 227 281 346 427
#     4  11  26  45  73 104 145 190 233 303 358 432
#     4  11  23  40  65 100 142 183 229 284 345 424
#     4  12  27  51  72 102 142 186 246 302 363 430
#
# _framework density 21.619485000000001
#
# number of rings (size 3 to 8) (size 9 to 14) (size 15 to 20)
#    0.000    0.800    4.000    2.400    5.600    3.200 
#    0.000    0.000    0.000    0.000    0.000    0.000 
#    0.000    0.000    0.000    0.000    0.000    0.000 
#
# Total GULP energy -495553.445675 kJ/mol
# GULP energy per Si atom -12388.836142 kJ/mol
# Density = 2.157028 g / cm^3
# Si number density = 21.619485 Si / 1000 Ang^3
#
#
#
# Elastic Constant Matrix: (Units=GPa)
#
#
# Indices 1 2 3 4 5 6 
#
# 1 147.1424 54.3053 48.8665 0.0000 0.0000 0.0000
# 2 54.3053 96.1832 12.6070 0.0000 0.0000 0.0000
# 3 48.8665 12.6070 79.2500 0.0000 0.0000 0.0000
# 4 0.0000 0.0000 0.0000 36.7663 0.0000 0.0000
# 5 0.0000 0.0000 0.0000 0.0000 86.5004 0.0000
# 6 0.0000 0.0000 0.0000 0.0000 0.0000 46.2469
#
#
#
# Elastic Compliance Matrix: (Units=1/GPa)
#
#
# Indices 1 2 3 4 5 6 
#
# 1 0.010636 -0.005255 -0.005722 0.000000 0.000000 0.000000
# 2 -0.005255 0.013215 0.001138 0.000000 0.000000 0.000000
# 3 -0.005722 0.001138 0.015966 0.000000 0.000000 0.000000
# 4 0.000000 0.000000 0.000000 0.027199 0.000000 0.000000
# 5 0.000000 0.000000 0.000000 0.000000 0.011561 0.000000
# 6 0.000000 0.000000 0.000000 0.000000 0.000000 0.021623
#
#
# Mechanical properties :
#
#
# Convention : Reuss Voigt Hill
#
# Bulk Modulus (GPa) = 49.65759 61.57035 55.61397
# Shear Modulus (GPa) = 39.49760 47.68916 43.59338
#
# Velocity S-wave (km/s) = 4.27891 4.70173 4.49530
# Velocity P-wave (km/s) = 6.88701 7.61682 7.26109
#
# Compressibility (1/GPa) = 0.02013791
#
# Stress axis : x y z
#
# Youngs Moduli (GPa) = 94.02029 75.67342 62.63436
#
# Poissons Ratio (x) = 0.39767 0.35841
# Poissons Ratio (y) = 0.49408 -0.07129
# Poissons Ratio (z) = 0.53801 -0.08613
#
# Static dielectric constant tensor:
#      x y z
#    x 3.062400 0.000000 0.000000 
#    y 0.000000 3.710990 0.000000 
#    z 0.000000 0.000000 3.944420 
# 
# 
# High freq. dielectric constant tensor:
#      x y z
#    x 1.860110 0.000000 0.000000 
#    y 0.000000 1.848020 0.000000 
#    z 0.000000 0.000000 1.863860 
# 
# From -- ./inp_files/5003.got.cif
#   From: 2010.03.12/outbox.cif.g09.slc.cpg/sg54_3_cif.got.tgz:5003.got - 2010.04.16 15:00:50.
