data_PCOD8223766
_publ_section_title
;
Structure prediction by ZEFSAII (Michael W. Deem and Ramdas Pophale) SiO2 
 PCOD8223766
Probable space group: P C C A
;
_chemical_formula_sum "Si O2"
_cell_formula_units_Z 48
_cell_length_a 8.431046
_cell_length_b 9.254365
_cell_length_c 27.057530
_cell_angle_alpha 90.000000
_cell_angle_beta 90.000000
_cell_angle_gamma 90.000000
_cell_volume 2111.136099
_symmetry_space_group_name_H-M "P C C A"
_symmetry_group_IT_number 54
_symmetry_cell_setting 'orthorhombic'
loop_
_space_group_symop_operation_xyz
x,y,z
1/2-x,-y,z
1/2+x,-y,1/2-z
-x,y,1/2-z
-x,-y,-z
1/2+x,y,-z
1/2-x,y,1/2+z
x,-y,1/2+z
loop_
_atom_site_type_symbol
_atom_site_label
_atom_site_fract_x
_atom_site_fract_y
_atom_site_fract_z
Si Si1 0.891181 0.398565 0.207704
Si Si2 0.604290 0.900952 0.966092
Si Si3 0.096946 0.230964 0.885482
Si Si4 0.841125 0.646047 0.539930
Si Si5 0.565133 0.531258 0.383816
Si Si6 0.167671 0.853772 0.277721
O O1 0.750000 0.500000 0.188340
O O2 0.804568 0.263228 0.233513
O O3 0.000000 0.472280 0.250000
O O4 0.004959 0.363309 0.160568
O O5 0.522304 0.871898 0.914360
O O6 0.750000 0.000000 0.951986
O O7 0.637446 0.745638 0.991727
O O8 0.500000 0.000000 0.000000
O O9 0.250161 0.260536 0.919153
O O10 0.141919 0.144525 0.836548
O O11 0.017644 0.380890 0.871074
O O12 0.750000 0.500000 0.524029
O O13 0.010671 0.598558 0.563463
O O14 0.750000 0.500000 0.384553
O O15 0.000000 0.825551 0.250000
O O16 0.250000 0.000000 0.259364
#
# Coordination Sequence:
#
# PCOD8223766 Si02
#       6
#     8   8   8   8   8   8
#     4  12  23  43  74 105 139 184 234 298 351 427
#     4  12  27  45  72 107 140 190 250 295 363 433
#     4  11  25  47  72 101 149 187 238 299 357 434
#     4  10  23  48  72  99 147 196 233 295 368 427
#     4  11  24  41  72 112 139 184 242 292 366 428
#     4  12  28  50  74 103 146 191 236 292 367 434
#
# _framework density 22.736574000000001
#
# number of rings (size 3 to 8) (size 9 to 14) (size 15 to 20)
#    0.000    0.667    5.000    2.000    7.000    4.000 
#    0.000    0.000    0.000    0.000    0.000    0.000 
#    0.000    0.000    0.000    0.000    0.000    0.000 
#
# Total GULP energy -595081.438602 kJ/mol
# GULP energy per Si atom -12397.529971 kJ/mol
# Density = 2.268482 g / cm^3
# Si number density = 22.736574 Si / 1000 Ang^3
#
#
#
# Elastic Constant Matrix: (Units=GPa)
#
#
# Indices 1 2 3 4 5 6 
#
# 1 146.8600 32.1390 29.9751 0.0000 0.0000 0.0000
# 2 32.1390 92.0732 10.0561 0.0000 0.0000 0.0000
# 3 29.9751 10.0561 77.2259 0.0000 0.0000 0.0000
# 4 0.0000 0.0000 0.0000 29.3371 0.0000 0.0000
# 5 0.0000 0.0000 0.0000 0.0000 42.0301 0.0000
# 6 0.0000 0.0000 0.0000 0.0000 0.0000 39.1308
#
#
#
# Elastic Compliance Matrix: (Units=1/GPa)
#
#
# Indices 1 2 3 4 5 6 
#
# 1 0.007909 -0.002460 -0.002749 0.000000 0.000000 0.000000
# 2 -0.002460 0.011783 -0.000579 0.000000 0.000000 0.000000
# 3 -0.002749 -0.000579 0.014092 0.000000 0.000000 0.000000
# 4 0.000000 0.000000 0.000000 0.034087 0.000000 0.000000
# 5 0.000000 0.000000 0.000000 0.000000 0.023792 0.000000
# 6 0.000000 0.000000 0.000000 0.000000 0.000000 0.025555
#
#
# Mechanical properties :
#
#
# Convention : Reuss Voigt Hill
#
# Bulk Modulus (GPa) = 45.03449 51.16662 48.10055
# Shear Modulus (GPa) = 36.71132 38.36553 37.53843
#
# Velocity S-wave (km/s) = 4.02261 4.11225 4.06768
# Velocity P-wave (km/s) = 6.43625 6.71568 6.57745
#
# Compressibility (1/GPa) = 0.02220520
#
# Stress axis : x y z
#
# Youngs Moduli (GPa) = 126.44137 84.86801 70.96405
#
# Poissons Ratio (x) = 0.20881 0.19511
# Poissons Ratio (y) = 0.31109 0.04111
# Poissons Ratio (z) = 0.34764 0.04917
#
# Static dielectric constant tensor:
#      x y z
#    x 3.974700 0.000000 0.000000 
#    y 0.000000 4.174720 0.000000 
#    z 0.000000 0.000000 3.965070 
# 
# 
# High freq. dielectric constant tensor:
#      x y z
#    x 1.912770 0.000000 0.000000 
#    y 0.000000 1.891160 0.000000 
#    z 0.000000 0.000000 1.898060 
# 
# From -- ./inp_files/27702.got.cif
#   From: 2010.03.12/outbox.cif.g09.slc.cpg/sg54_14_cif.got.tgz:27702.got - 2010.04.16 15:00:50.
