data_PCOD8223423
_publ_section_title
;
Structure prediction by ZEFSAII (Michael W. Deem and Ramdas Pophale) SiO2 
 PCOD8223423
Probable space group: P C C A
;
_chemical_formula_sum "Si O2"
_cell_formula_units_Z 44
_cell_length_a 21.169952
_cell_length_b 10.768811
_cell_length_c 9.606459
_cell_angle_alpha 90.000000
_cell_angle_beta 90.000000
_cell_angle_gamma 90.000000
_cell_volume 2190.034527
_symmetry_space_group_name_H-M "P C C A"
_symmetry_group_IT_number 54
_symmetry_cell_setting 'orthorhombic'
loop_
_space_group_symop_operation_xyz
x,y,z
1/2-x,-y,z
1/2+x,-y,1/2-z
-x,y,1/2-z
-x,-y,-z
1/2+x,y,-z
1/2-x,y,1/2+z
x,-y,1/2+z
loop_
_atom_site_type_symbol
_atom_site_label
_atom_site_fract_x
_atom_site_fract_y
_atom_site_fract_z
Si Si1 0.365356 0.930908 0.442968
Si Si2 0.651119 0.644877 0.688037
Si Si3 0.425997 0.881877 0.732001
Si Si4 0.680162 0.546181 0.412786
Si Si5 0.750000 0.000000 0.399951
Si Si6 0.779785 0.235481 0.230793
O O1 0.412513 0.893780 0.567206
O O2 0.329570 0.808745 0.385807
O O3 0.400205 0.998538 0.315719
O O4 0.311711 0.020822 0.505875
O O5 0.603236 0.757995 0.703376
O O6 0.636904 0.564196 0.549982
O O7 0.644646 0.557321 0.821824
O O8 0.723439 0.687624 0.660941
O O9 0.500000 0.874716 0.750000
O O10 0.750000 0.500000 0.451833
O O11 0.681674 0.678639 0.336000
O O12 0.756247 0.878659 0.305218
#
# Coordination Sequence:
#
# PCOD8223423 Si02
#       6
#     8   8   8   8   4   8
#     4  12  23  41  66  95 133 166 213 269 337 391
#     4  11  23  40  64  93 130 165 215 263 323 387
#     4  12  27  45  65  90 132 180 227 268 315 387
#     4  10  22  37  63  95 132 163 205 261 334 393
#     4  12  20  36  64 104 130 162 200 274 342 392
#     4  11  20  36  64  98 130 163 202 267 341 389
#
# _framework density 20.091009
#
# number of rings (size 3 to 8) (size 9 to 14) (size 15 to 20)
#    0.000    0.727    3.636    6.000    5.091    0.000 
#    0.000    0.909    0.000    0.000    0.000    0.000 
#    0.000    0.000    0.000    0.000    0.000    0.000 
#
# Total GULP energy -545735.318144 kJ/mol
# GULP energy per Si atom -12403.075412 kJ/mol
# Density = 2.004528 g / cm^3
# Si number density = 20.091009 Si / 1000 Ang^3
#
#
#
# Elastic Constant Matrix: (Units=GPa)
#
#
# Indices 1 2 3 4 5 6 
#
# 1 88.3286 27.5034 42.0754 0.0000 0.0000 0.0000
# 2 27.5034 98.7820 46.5888 0.0000 0.0000 0.0000
# 3 42.0754 46.5888 126.7480 0.0000 0.0000 0.0000
# 4 0.0000 0.0000 0.0000 35.3377 0.0000 0.0000
# 5 0.0000 0.0000 0.0000 0.0000 23.4307 0.0000
# 6 0.0000 0.0000 0.0000 0.0000 0.0000 12.9107
#
#
#
# Elastic Compliance Matrix: (Units=1/GPa)
#
#
# Indices 1 2 3 4 5 6 
#
# 1 0.013777 -0.002031 -0.003827 0.000000 0.000000 0.000000
# 2 -0.002031 0.012546 -0.003937 0.000000 0.000000 0.000000
# 3 -0.003827 -0.003937 0.010607 0.000000 0.000000 0.000000
# 4 0.000000 0.000000 0.000000 0.028298 0.000000 0.000000
# 5 0.000000 0.000000 0.000000 0.000000 0.042679 0.000000
# 6 0.000000 0.000000 0.000000 0.000000 0.000000 0.077455
#
#
# Mechanical properties :
#
#
# Convention : Reuss Voigt Hill
#
# Bulk Modulus (GPa) = 57.67131 60.68820 59.17975
# Shear Modulus (GPa) = 23.72683 27.51523 25.62103
#
# Velocity S-wave (km/s) = 3.44025 3.70473 3.57494
# Velocity P-wave (km/s) = 6.67441 6.96938 6.82349
#
# Compressibility (1/GPa) = 0.01733964
#
# Stress axis : x y z
#
# Youngs Moduli (GPa) = 72.58662 79.70868 94.27528
#
# Poissons Ratio (x) = 0.16188 0.36077
# Poissons Ratio (y) = 0.14742 0.37118
# Poissons Ratio (z) = 0.27777 0.31383
#
# Static dielectric constant tensor:
#      x y z
#    x 3.288150 0.000000 0.000000 
#    y 0.000000 3.709030 0.000000 
#    z 0.000000 0.000000 3.862950 
# 
# 
# High freq. dielectric constant tensor:
#      x y z
#    x 1.735740 0.000000 0.000000 
#    y 0.000000 1.794240 0.000000 
#    z 0.000000 0.000000 1.807160 
# 
# From -- ./inp_files/5099.got.cif
#   From: 2010.03.12/outbox.cif.g09.slc.cpg/sg54_3_cif.got.tgz:5099.got - 2010.04.16 15:00:50.
