data_PCOD8223596
_publ_section_title
;
Structure prediction by ZEFSAII (Michael W. Deem and Ramdas Pophale) SiO2 
 PCOD8223596
Probable space group: P C C A
;
_chemical_formula_sum "Si O2"
_cell_formula_units_Z 64
_cell_length_a 17.812282
_cell_length_b 15.800732
_cell_length_c 10.809136
_cell_angle_alpha 90.000000
_cell_angle_beta 90.000000
_cell_angle_gamma 90.000000
_cell_volume 3042.199918
_symmetry_space_group_name_H-M "P C C A"
_symmetry_group_IT_number 54
_symmetry_cell_setting 'orthorhombic'
loop_
_space_group_symop_operation_xyz
x,y,z
1/2-x,-y,z
1/2+x,-y,1/2-z
-x,y,1/2-z
-x,-y,-z
1/2+x,y,-z
1/2-x,y,1/2+z
x,-y,1/2+z
loop_
_atom_site_type_symbol
_atom_site_label
_atom_site_fract_x
_atom_site_fract_y
_atom_site_fract_z
Si Si1 0.083537 0.031680 0.476582
Si Si2 0.583657 0.833889 0.238420
Si Si3 0.585805 0.528575 0.009476
Si Si4 0.681306 0.268354 0.168254
Si Si5 0.178128 0.159524 0.602448
Si Si6 0.339437 0.131105 0.513367
Si Si7 0.589933 0.423824 0.241547
Si Si8 0.341940 0.699901 0.411688
O O1 0.089333 0.093669 0.362200
O O2 0.115735 0.084580 0.595806
O O3 0.134639 0.951539 0.438345
O O4 0.000000 0.000000 0.500000
O O5 0.500000 0.800561 0.250000
O O6 0.612259 0.874517 0.363457
O O7 0.630863 0.750356 0.208414
O O8 0.620696 0.466593 0.114215
O O9 0.603576 0.620342 0.066111
O O10 0.500000 0.500000 0.000000
O O11 0.618569 0.527006 0.867610
O O12 0.700157 0.189622 0.259825
O O13 0.641919 0.220647 0.053255
O O14 0.623813 0.330154 0.237420
O O15 0.754520 0.320445 0.120147
O O16 0.251055 0.123020 0.534574
O O17 0.148862 0.242939 0.532539
O O18 0.500000 0.417674 0.250000
#
# Coordination Sequence:
#
# PCOD8223596 Si02
#       8
#     8   8   8   8   8   8   8   8
#     4  11  24  41  63  94 132 178 225 281 340 400
#     4  11  23  40  64  92 131 168 221 281 340 402
#     4  10  22  43  67  97 135 174 221 281 346 418
#     4  11  23  41  69  97 130 177 224 280 342 413
#     4  10  22  44  65  92 133 177 221 279 338 407
#     4  11  24  41  63  98 128 174 230 274 342 412
#     4  10  23  42  68 101 135 175 228 272 345 418
#     4  10  22  42  68  93 130 172 222 275 338 416
#
# _framework density 21.037407999999999
#
# number of rings (size 3 to 8) (size 9 to 14) (size 15 to 20)
#    0.000    1.500    3.750    0.375    1.750    6.000 
#    0.000    1.250    0.000    0.000    0.000    0.000 
#    0.000    0.000    0.000    0.000    0.000    0.000 
#
# Total GULP energy -793052.863829 kJ/mol
# GULP energy per Si atom -12391.450997 kJ/mol
# Density = 2.098953 g / cm^3
# Si number density = 21.037408 Si / 1000 Ang^3
#
#
#
# Elastic Constant Matrix: (Units=GPa)
#
#
# Indices 1 2 3 4 5 6 
#
# 1 83.7202 62.4058 26.9103 0.0000 0.0000 0.0000
# 2 62.4058 109.6048 42.7334 0.0000 0.0000 0.0000
# 3 26.9103 42.7334 113.3199 0.0000 0.0000 0.0000
# 4 0.0000 0.0000 0.0000 22.5285 0.0000 0.0000
# 5 0.0000 0.0000 0.0000 0.0000 27.5049 0.0000
# 6 0.0000 0.0000 0.0000 0.0000 0.0000 42.9551
#
#
#
# Elastic Compliance Matrix: (Units=1/GPa)
#
#
# Indices 1 2 3 4 5 6 
#
# 1 0.020782 -0.011616 -0.000554 0.000000 0.000000 0.000000
# 2 -0.011616 0.017190 -0.003724 0.000000 0.000000 0.000000
# 3 -0.000554 -0.003724 0.010360 0.000000 0.000000 0.000000
# 4 0.000000 0.000000 0.000000 0.044388 0.000000 0.000000
# 5 0.000000 0.000000 0.000000 0.000000 0.036357 0.000000
# 6 0.000000 0.000000 0.000000 0.000000 0.000000 0.023280
#
#
# Mechanical properties :
#
#
# Convention : Reuss Voigt Hill
#
# Bulk Modulus (GPa) = 60.44976 63.41600 61.93288
# Shear Modulus (GPa) = 26.36290 30.23738 28.30014
#
# Velocity S-wave (km/s) = 3.54382 3.79531 3.67172
# Velocity P-wave (km/s) = 6.74846 7.02963 6.89047
#
# Compressibility (1/GPa) = 0.01654266
#
# Stress axis : x y z
#
# Youngs Moduli (GPa) = 48.11926 58.17502 96.52067
#
# Poissons Ratio (x) = 0.67578 0.05352
# Poissons Ratio (y) = 0.55897 0.35941
# Poissons Ratio (z) = 0.02668 0.21663
#
# Static dielectric constant tensor:
#      x y z
#    x 3.750010 0.000000 0.000000 
#    y 0.000000 2.108160 0.000000 
#    z 0.000000 0.000000 4.171210 
# 
# 
# High freq. dielectric constant tensor:
#      x y z
#    x 1.814950 0.000000 0.000000 
#    y 0.000000 1.821620 0.000000 
#    z 0.000000 0.000000 1.833830 
# 
# From -- ./inp_files/9093.got.cif
#   From: 2010.03.12/outbox.cif.g09.slc.cpg/sg54_5_cif.got.tgz:9093.got - 2010.04.16 15:00:50.
