data_PCOD8223641
_publ_section_title
;
Structure prediction by ZEFSAII (Michael W. Deem and Ramdas Pophale) SiO2 
 PCOD8223641
Probable space group: P C C A
;
_chemical_formula_sum "Si O2"
_cell_formula_units_Z 44
_cell_length_a 17.165360
_cell_length_b 9.160021
_cell_length_c 13.273494
_cell_angle_alpha 90.000000
_cell_angle_beta 90.000000
_cell_angle_gamma 90.000000
_cell_volume 2087.058600
_symmetry_space_group_name_H-M "P C C A"
_symmetry_group_IT_number 54
_symmetry_cell_setting 'orthorhombic'
loop_
_space_group_symop_operation_xyz
x,y,z
1/2-x,-y,z
1/2+x,-y,1/2-z
-x,y,1/2-z
-x,-y,-z
1/2+x,y,-z
1/2-x,y,1/2+z
x,-y,1/2+z
loop_
_atom_site_type_symbol
_atom_site_label
_atom_site_fract_x
_atom_site_fract_y
_atom_site_fract_z
Si Si1 0.010490 0.313326 0.928823
Si Si2 0.629854 0.143220 0.734047
Si Si3 0.000000 0.906353 0.250000
Si Si4 0.590270 0.599341 0.104841
Si Si5 0.164085 0.771583 0.542960
Si Si6 0.250000 0.500000 0.467147
Si Si7 0.750000 0.000000 0.091862
O O1 0.035462 0.460657 0.869568
O O2 0.990842 0.189336 0.849550
O O3 0.077730 0.268244 0.006835
O O4 0.932730 0.339472 0.994231
O O5 0.579043 0.277386 0.689846
O O6 0.663986 0.182156 0.841788
O O7 0.577155 0.000754 0.741027
O O8 0.701629 0.111856 0.660190
O O9 0.680252 0.551301 0.105105
O O10 0.221434 0.633227 0.536600
O O11 0.192461 0.906647 0.476734
#
# Coordination Sequence:
#
# PCOD8223641 Si02
#       7
#     8   8   4   8   8   4   4
#     4  10  24  44  68  95 137 178 232 288 333 413
#     4  12  26  41  71 102 136 184 224 281 350 421
#     4  12  26  42  70 102 132 184 224 278 360 402
#     4  10  23  44  67  97 136 178 231 284 341 406
#     4  11  24  45  67  99 137 178 228 281 346 405
#     4  10  22  44  70  96 134 182 222 292 332 400
#     4  12  24  46  64 102 142 178 224 284 340 420
#
# _framework density 21.082301000000001
#
# number of rings (size 3 to 8) (size 9 to 14) (size 15 to 20)
#    0.000    1.091    3.636    1.636    2.545    8.727 
#    0.000    0.000    0.000    0.000    0.000    0.000 
#    0.000    0.000    0.000    0.000    0.000    0.000 
#
# Total GULP energy -545877.940913 kJ/mol
# GULP energy per Si atom -12406.316839 kJ/mol
# Density = 2.103432 g / cm^3
# Si number density = 21.082301 Si / 1000 Ang^3
#
#
#
# Elastic Constant Matrix: (Units=GPa)
#
#
# Indices 1 2 3 4 5 6 
#
# 1 66.9110 22.3345 25.6896 0.0000 0.0000 0.0000
# 2 22.3345 127.8911 63.0458 0.0000 0.0000 0.0000
# 3 25.6896 63.0458 120.0357 0.0000 0.0000 0.0000
# 4 0.0000 0.0000 0.0000 28.7825 0.0000 0.0000
# 5 0.0000 0.0000 0.0000 0.0000 27.2632 0.0000
# 6 0.0000 0.0000 0.0000 0.0000 0.0000 37.4082
#
#
#
# Elastic Compliance Matrix: (Units=1/GPa)
#
#
# Indices 1 2 3 4 5 6 
#
# 1 0.016505 -0.001540 -0.002724 0.000000 0.000000 0.000000
# 2 -0.001540 0.010695 -0.005288 0.000000 0.000000 0.000000
# 3 -0.002724 -0.005288 0.011691 0.000000 0.000000 0.000000
# 4 0.000000 0.000000 0.000000 0.034743 0.000000 0.000000
# 5 0.000000 0.000000 0.000000 0.000000 0.036679 0.000000
# 6 0.000000 0.000000 0.000000 0.000000 0.000000 0.026732
#
#
# Mechanical properties :
#
#
# Convention : Reuss Voigt Hill
#
# Bulk Modulus (GPa) = 50.53406 59.66417 55.09912
# Shear Modulus (GPa) = 30.72323 32.27530 31.49927
#
# Velocity S-wave (km/s) = 3.82160 3.91694 3.86956
# Velocity P-wave (km/s) = 6.59506 6.98703 6.79387
#
# Compressibility (1/GPa) = 0.01978863
#
# Stress axis : x y z
#
# Youngs Moduli (GPa) = 60.58812 93.50486 85.53646
#
# Poissons Ratio (x) = 0.14397 0.23297
# Poissons Ratio (y) = 0.09329 0.45228
# Poissons Ratio (z) = 0.16502 0.49441
#
# Static dielectric constant tensor:
#      x y z
#    x 3.859250 0.000000 0.000000 
#    y 0.000000 4.133620 0.000000 
#    z 0.000000 0.000000 3.588140 
# 
# 
# High freq. dielectric constant tensor:
#      x y z
#    x 1.832040 0.000000 0.000000 
#    y 0.000000 1.849330 0.000000 
#    z 0.000000 0.000000 1.817590 
# 
# From -- ./inp_files/14052.got.cif
#   From: 2010.03.12/outbox.cif.g09.slc.cpg/sg54_8_cif.got.tgz:14052.got - 2010.04.16 15:00:50.
