data_PCOD8223872
_publ_section_title
;
Structure prediction by ZEFSAII (Michael W. Deem and Ramdas Pophale) SiO2 
 PCOD8223872
Probable space group: P C C A
;
_chemical_formula_sum "Si O2"
_cell_formula_units_Z 40
_cell_length_a 17.952947
_cell_length_b 8.792210
_cell_length_c 11.269695
_cell_angle_alpha 90.000000
_cell_angle_beta 90.000000
_cell_angle_gamma 90.000000
_cell_volume 1778.877180
_symmetry_space_group_name_H-M "P C C A"
_symmetry_group_IT_number 54
_symmetry_cell_setting 'orthorhombic'
loop_
_space_group_symop_operation_xyz
x,y,z
1/2-x,-y,z
1/2+x,-y,1/2-z
-x,y,1/2-z
-x,-y,-z
1/2+x,y,-z
1/2-x,y,1/2+z
x,-y,1/2+z
loop_
_atom_site_type_symbol
_atom_site_label
_atom_site_fract_x
_atom_site_fract_y
_atom_site_fract_z
Si Si1 0.196654 0.137886 0.178026
Si Si2 0.414946 0.285253 0.282269
Si Si3 0.330033 0.768614 0.544230
Si Si4 0.827790 0.574730 0.661928
Si Si5 0.586050 0.045840 0.008698
O O1 0.242431 0.206105 0.065881
O O2 0.174531 0.262952 0.273876
O O3 0.250000 0.000000 0.228889
O O4 0.117163 0.089162 0.122250
O O5 0.500000 0.279932 0.250000
O O6 0.368845 0.224464 0.171755
O O7 0.393973 0.461354 0.304056
O O8 0.399466 0.178949 0.395904
O O9 0.338744 0.607341 0.478303
O O10 0.366017 0.896381 0.456729
O O11 0.750000 0.500000 0.692997
O O12 0.500000 0.000000 0.000000
#
# Coordination Sequence:
#
# PCOD8223872 Si02
#       5
#     8   8   8   8   8
#     4  10  25  46  75 105 141 194 254 302 370 449
#     4  12  27  46  72 108 150 191 248 308 380 456
#     4  11  26  46  72 104 143 194 249 306 371 444
#     4  12  27  43  74 105 151 189 243 307 384 445
#     4  11  25  47  75 102 144 194 253 308 367 445
#
# _framework density 22.486094999999999
#
# number of rings (size 3 to 8) (size 9 to 14) (size 15 to 20)
#    0.000    0.800    4.000    1.200   11.200    3.200 
#    0.000    0.000    0.000    0.000    0.000    0.000 
#    0.000    0.000    0.000    0.000    0.000    0.000 
#
# Total GULP energy -495680.357862 kJ/mol
# GULP energy per Si atom -12392.008947 kJ/mol
# Density = 2.243492 g / cm^3
# Si number density = 22.486095 Si / 1000 Ang^3
#
#
#
# Elastic Constant Matrix: (Units=GPa)
#
#
# Indices 1 2 3 4 5 6 
#
# 1 91.5420 18.8957 26.1692 0.0000 0.0000 0.0000
# 2 18.8957 132.2870 59.4582 0.0000 0.0000 0.0000
# 3 26.1692 59.4582 77.3971 0.0000 0.0000 0.0000
# 4 0.0000 0.0000 0.0000 59.8809 0.0000 0.0000
# 5 0.0000 0.0000 0.0000 0.0000 30.0222 0.0000
# 6 0.0000 0.0000 0.0000 0.0000 0.0000 74.1795
#
#
#
# Elastic Compliance Matrix: (Units=1/GPa)
#
#
# Indices 1 2 3 4 5 6 
#
# 1 0.012095 0.000169 -0.004219 0.000000 0.000000 0.000000
# 2 0.000169 0.011548 -0.008929 0.000000 0.000000 0.000000
# 3 -0.004219 -0.008929 0.021206 0.000000 0.000000 0.000000
# 4 0.000000 0.000000 0.000000 0.016700 0.000000 0.000000
# 5 0.000000 0.000000 0.000000 0.000000 0.033309 0.000000
# 6 0.000000 0.000000 0.000000 0.000000 0.000000 0.013481
#
#
# Mechanical properties :
#
#
# Convention : Reuss Voigt Hill
#
# Bulk Modulus (GPa) = 52.93424 56.69690 54.81557
# Shear Modulus (GPa) = 35.56318 45.93005 40.74662
#
# Velocity S-wave (km/s) = 3.98120 4.52441 4.26147
# Velocity P-wave (km/s) = 6.68770 7.25001 6.97452
#
# Compressibility (1/GPa) = 0.01889136
#
# Stress axis : x y z
#
# Youngs Moduli (GPa) = 82.67692 86.59218 47.15593
#
# Poissons Ratio (x) = -0.01461 0.19896
# Poissons Ratio (y) = -0.01395 0.42104
# Poissons Ratio (z) = 0.34883 0.77316
#
# Static dielectric constant tensor:
#      x y z
#    x 3.659940 0.000000 0.000000 
#    y 0.000000 4.864260 0.000000 
#    z 0.000000 0.000000 3.915030 
# 
# 
# High freq. dielectric constant tensor:
#      x y z
#    x 1.887860 0.000000 0.000000 
#    y 0.000000 1.902450 0.000000 
#    z 0.000000 0.000000 1.885470 
# 
# From -- ./inp_files/8709.got.cif
#   From: 2010.03.12/outbox.cif.g09.slc.cpg/sg54_5_cif.got.tgz:8709.got - 2010.04.16 15:00:50.
