data_PCOD8223630
_publ_section_title
;
Structure prediction by ZEFSAII (Michael W. Deem and Ramdas Pophale) SiO2 
 PCOD8223630
Probable space group: P C C A
;
_chemical_formula_sum "Si O2"
_cell_formula_units_Z 28
_cell_length_a 14.381608
_cell_length_b 5.078583
_cell_length_c 17.515231
_cell_angle_alpha 90.000000
_cell_angle_beta 90.000000
_cell_angle_gamma 90.000000
_cell_volume 1279.280768
_symmetry_space_group_name_H-M "P C C A"
_symmetry_group_IT_number 54
_symmetry_cell_setting 'orthorhombic'
loop_
_space_group_symop_operation_xyz
x,y,z
1/2-x,-y,z
1/2+x,-y,1/2-z
-x,y,1/2-z
-x,-y,-z
1/2+x,y,-z
1/2-x,y,1/2+z
x,-y,1/2+z
loop_
_atom_site_type_symbol
_atom_site_label
_atom_site_fract_x
_atom_site_fract_y
_atom_site_fract_z
Si Si1 0.412371 0.770150 0.567515
Si Si2 0.525604 0.738120 0.098675
Si Si3 0.750000 0.500000 0.352035
Si Si4 0.692719 0.738955 0.205778
O O1 0.411128 0.791807 0.475932
O O2 0.485961 0.554999 0.596137
O O3 0.309475 0.695374 0.595163
O O4 0.441929 0.050720 0.602928
O O5 0.589544 0.766636 0.172983
O O6 0.683477 0.676508 0.296742
O O7 0.750000 0.500000 0.165547
O O8 0.750000 0.000000 0.190175
#
# Coordination Sequence:
#
# PCOD8223630 Si02
#       4
#     8   8   4   8
#     4  10  23  41  67  92 126 161 222 260 318 375
#     4  10  22  44  64  93 122 172 210 264 315 382
#     4  10  26  40  62 100 128 168 208 270 318 388
#     4  10  23  41  60  95 127 167 213 253 328 384
#
# _framework density 21.8873
#
# number of rings (size 3 to 8) (size 9 to 14) (size 15 to 20)
#    0.857    1.143    0.000    1.714    6.000    1.143 
#    0.000    0.000    0.000    0.000    0.000    0.000 
#    0.000    0.000    0.000    0.000    0.000    0.000 
#
# Total GULP energy -347201.054950 kJ/mol
# GULP energy per Si atom -12400.037677 kJ/mol
# Density = 2.183748 g / cm^3
# Si number density = 21.887300 Si / 1000 Ang^3
#
#
#
# Elastic Constant Matrix: (Units=GPa)
#
#
# Indices 1 2 3 4 5 6 
#
# 1 78.1080 10.6699 57.1780 0.0000 0.0000 0.0000
# 2 10.6699 114.9924 23.2725 0.0000 0.0000 0.0000
# 3 57.1780 23.2725 86.9197 0.0000 0.0000 0.0000
# 4 0.0000 0.0000 0.0000 4.7885 0.0000 0.0000
# 5 0.0000 0.0000 0.0000 0.0000 39.6874 0.0000
# 6 0.0000 0.0000 0.0000 0.0000 0.0000 41.7820
#
#
#
# Elastic Compliance Matrix: (Units=1/GPa)
#
#
# Indices 1 2 3 4 5 6 
#
# 1 0.024816 0.001059 -0.016608 0.000000 0.000000 0.000000
# 2 0.001059 0.009240 -0.003170 0.000000 0.000000 0.000000
# 3 -0.016608 -0.003170 0.023279 0.000000 0.000000 0.000000
# 4 0.000000 0.000000 0.000000 0.208834 0.000000 0.000000
# 5 0.000000 0.000000 0.000000 0.000000 0.025197 0.000000
# 6 0.000000 0.000000 0.000000 0.000000 0.000000 0.023934
#
#
# Mechanical properties :
#
#
# Convention : Reuss Voigt Hill
#
# Bulk Modulus (GPa) = 50.26372 51.36232 50.81302
# Shear Modulus (GPa) = 13.91324 29.84489 21.87907
#
# Velocity S-wave (km/s) = 2.52400 3.69666 3.16511
# Velocity P-wave (km/s) = 5.61326 6.46050 6.05173
#
# Compressibility (1/GPa) = 0.01989507
#
# Stress axis : x y z
#
# Youngs Moduli (GPa) = 40.29685 108.22975 42.95748
#
# Poissons Ratio (x) = -0.11457 0.71344
# Poissons Ratio (y) = -0.04266 0.13618
# Poissons Ratio (z) = 0.66925 0.34311
#
# Static dielectric constant tensor:
#      x y z
#    x 4.450660 0.000000 0.000000 
#    y 0.000000 4.019750 0.000000 
#    z 0.000000 0.000000 3.849680 
# 
# 
# High freq. dielectric constant tensor:
#      x y z
#    x 1.844430 0.000000 0.000000 
#    y 0.000000 1.876630 0.000000 
#    z 0.000000 0.000000 1.851550 
# 
# From -- ./inp_files/16936.got.cif
#   From: 2010.03.12/outbox.cif.g09.slc.cpg/sg54_9_cif.got.tgz:16936.got - 2010.04.16 15:00:50.
