data_PCOD8223889
_publ_section_title
;
Structure prediction by ZEFSAII (Michael W. Deem and Ramdas Pophale) SiO2 
 PCOD8223889
Probable space group: P C C A
;
_chemical_formula_sum "Si O2"
_cell_formula_units_Z 28
_cell_length_a 12.668282
_cell_length_b 11.401168
_cell_length_c 8.623513
_cell_angle_alpha 90.000000
_cell_angle_beta 90.000000
_cell_angle_gamma 90.000000
_cell_volume 1245.521676
_symmetry_space_group_name_H-M "P C C A"
_symmetry_group_IT_number 54
_symmetry_cell_setting 'orthorhombic'
loop_
_space_group_symop_operation_xyz
x,y,z
1/2-x,-y,z
1/2+x,-y,1/2-z
-x,y,1/2-z
-x,-y,-z
1/2+x,y,-z
1/2-x,y,1/2+z
x,-y,1/2+z
loop_
_atom_site_type_symbol
_atom_site_label
_atom_site_fract_x
_atom_site_fract_y
_atom_site_fract_z
Si Si1 0.796520 0.852185 0.939248
Si Si2 0.500000 0.529850 0.750000
Si Si3 0.880040 0.948001 0.258296
Si Si4 0.848964 0.411486 0.491845
O O1 0.673722 0.876827 0.900122
O O2 0.865483 0.913421 0.800608
O O3 0.824177 0.913688 0.099680
O O4 0.806955 0.713595 0.940099
O O5 0.584061 0.605539 0.650718
O O6 0.429861 0.450023 0.639234
O O7 0.000000 0.910203 0.250000
O O8 0.750000 0.500000 0.514889
#
# Coordination Sequence:
#
# PCOD8223889 Si02
#       4
#     8   4   8   8
#     4  11  26  45  73 105 150 185 250 290 365 428
#     4  10  26  48  70 110 136 192 248 278 394 408
#     4  11  25  47  71 108 145 194 234 299 358 431
#     4  11  26  47  75 107 145 188 239 309 353 438
#
# _framework density 22.480540000000001
#
# number of rings (size 3 to 8) (size 9 to 14) (size 15 to 20)
#    0.000    1.143    0.000    5.143   12.000    2.286 
#    0.000    0.000    0.000    0.000    0.000    0.000 
#    0.000    0.000    0.000    0.000    0.000    0.000 
#
# Total GULP energy -346981.838425 kJ/mol
# GULP energy per Si atom -12392.208515 kJ/mol
# Density = 2.242937 g / cm^3
# Si number density = 22.480540 Si / 1000 Ang^3
#
#
#
# Elastic Constant Matrix: (Units=GPa)
#
#
# Indices 1 2 3 4 5 6 
#
# 1 204.3324 62.8303 76.6173 0.0000 0.0000 0.0000
# 2 62.8303 120.3420 25.5022 0.0000 0.0000 0.0000
# 3 76.6173 25.5022 120.9794 0.0000 0.0000 0.0000
# 4 0.0000 0.0000 0.0000 21.7270 0.0000 0.0000
# 5 0.0000 0.0000 0.0000 0.0000 41.3608 0.0000
# 6 0.0000 0.0000 0.0000 0.0000 0.0000 15.8493
#
#
#
# Elastic Compliance Matrix: (Units=1/GPa)
#
#
# Indices 1 2 3 4 5 6 
#
# 1 0.007307 -0.002967 -0.004002 0.000000 0.000000 0.000000
# 2 -0.002967 0.009903 -0.000209 0.000000 0.000000 0.000000
# 3 -0.004002 -0.000209 0.010844 0.000000 0.000000 0.000000
# 4 0.000000 0.000000 0.000000 0.046026 0.000000 0.000000
# 5 0.000000 0.000000 0.000000 0.000000 0.024177 0.000000
# 6 0.000000 0.000000 0.000000 0.000000 0.000000 0.063094
#
#
# Mechanical properties :
#
#
# Convention : Reuss Voigt Hill
#
# Bulk Modulus (GPa) = 72.99756 86.17260 79.58508
# Shear Modulus (GPa) = 27.73572 34.50103 31.11837
#
# Velocity S-wave (km/s) = 3.51631 3.92178 3.72457
# Velocity P-wave (km/s) = 7.00199 7.67610 7.34678
#
# Compressibility (1/GPa) = 0.01369909
#
# Stress axis : x y z
#
# Youngs Moduli (GPa) = 136.85685 100.98140 92.21331
#
# Poissons Ratio (x) = 0.29959 0.36905
# Poissons Ratio (y) = 0.40603 0.01923
# Poissons Ratio (z) = 0.54772 0.02106
#
# Static dielectric constant tensor:
#      x y z
#    x 4.446070 0.000000 0.000000 
#    y 0.000000 3.922080 0.000000 
#    z 0.000000 0.000000 4.564490 
# 
# 
# High freq. dielectric constant tensor:
#      x y z
#    x 1.898400 0.000000 0.000000 
#    y 0.000000 1.873800 0.000000 
#    z 0.000000 0.000000 1.907400 
# 
# From -- ./inp_files/3188.got.cif
#   From: 2010.03.12/outbox.cif.g09.slc.cpg/sg54_2_cif.got.tgz:3188.got - 2010.04.16 15:00:50.
