data_PCOD8223742
_publ_section_title
;
Structure prediction by ZEFSAII (Michael W. Deem and Ramdas Pophale) SiO2 
 PCOD8223742
Probable space group: P C C A
;
_chemical_formula_sum "Si O2"
_cell_formula_units_Z 44
_cell_length_a 14.458632
_cell_length_b 16.838034
_cell_length_c 8.092597
_cell_angle_alpha 90.000000
_cell_angle_beta 90.000000
_cell_angle_gamma 90.000000
_cell_volume 1970.182694
_symmetry_space_group_name_H-M "P C C A"
_symmetry_group_IT_number 54
_symmetry_cell_setting 'orthorhombic'
loop_
_space_group_symop_operation_xyz
x,y,z
1/2-x,-y,z
1/2+x,-y,1/2-z
-x,y,1/2-z
-x,-y,-z
1/2+x,y,-z
1/2-x,y,1/2+z
x,-y,1/2+z
loop_
_atom_site_type_symbol
_atom_site_label
_atom_site_fract_x
_atom_site_fract_y
_atom_site_fract_z
Si Si1 0.500000 0.664486 0.250000
Si Si2 0.654763 0.401262 0.540148
Si Si3 0.000000 0.985153 0.750000
Si Si4 0.185708 0.242506 0.654093
Si Si5 0.750000 0.500000 0.796476
Si Si6 0.452574 0.883427 0.518631
Si Si7 0.123613 0.221881 0.023040
O O1 0.446347 0.609414 0.381792
O O2 0.567234 0.716391 0.364381
O O3 0.690752 0.323823 0.446894
O O4 0.723346 0.422411 0.691149
O O5 0.661593 0.474489 0.410128
O O6 0.062991 0.043321 0.641885
O O7 0.069653 0.924927 0.844311
O O8 0.110671 0.190334 0.558130
O O9 0.156485 0.256336 0.844309
O O10 0.285903 0.200546 0.633215
O O11 0.560280 0.854646 0.516318
#
# Coordination Sequence:
#
# PCOD8223742 Si02
#       7
#     4   8   4   8   4   8   8
#     4  12  25  42  72 103 138 186 242 298 357 414
#     4  11  24  44  71 101 143 190 229 299 351 434
#     4  10  23  44  72  97 154 186 232 304 373 412
#     4  12  25  45  73 107 141 189 254 295 353 432
#     4  10  24  48  68 102 150 184 232 288 378 418
#     4  11  23  46  71 102 141 196 235 298 362 429
#     4  12  25  43  71 110 138 182 247 303 350 427
#
# _framework density 22.332954000000001
#
# number of rings (size 3 to 8) (size 9 to 14) (size 15 to 20)
#    0.000    0.727    3.636    3.818    2.545    2.182 
#    0.000    5.455    0.000    0.000    0.000    0.000 
#    0.000    0.000    0.000    0.000    0.000    0.000 
#
# Total GULP energy -545119.770553 kJ/mol
# GULP energy per Si atom -12389.085694 kJ/mol
# Density = 2.228212 g / cm^3
# Si number density = 22.332954 Si / 1000 Ang^3
#
#
#
# Elastic Constant Matrix: (Units=GPa)
#
#
# Indices 1 2 3 4 5 6 
#
# 1 119.5602 37.0138 62.2977 0.0000 0.0000 0.0000
# 2 37.0138 97.4985 69.4429 0.0000 0.0000 0.0000
# 3 62.2977 69.4429 167.3115 0.0000 0.0000 0.0000
# 4 0.0000 0.0000 0.0000 -16.5258 0.0000 0.0000
# 5 0.0000 0.0000 0.0000 0.0000 34.1590 0.0000
# 6 0.0000 0.0000 0.0000 0.0000 0.0000 11.8885
#
#
#
# Elastic Compliance Matrix: (Units=1/GPa)
#
#
# Indices 1 2 3 4 5 6 
#
# 1 0.010576 -0.001718 -0.003225 0.000000 0.000000 0.000000
# 2 -0.001718 0.014840 -0.005520 0.000000 0.000000 0.000000
# 3 -0.003225 -0.005520 0.009469 0.000000 0.000000 0.000000
# 4 0.000000 0.000000 0.000000 -0.060511 0.000000 0.000000
# 5 0.000000 0.000000 0.000000 0.000000 0.029275 0.000000
# 6 0.000000 0.000000 0.000000 0.000000 0.000000 0.084115
#
#
# Mechanical properties :
#
#
# Convention : Reuss Voigt Hill
#
# Bulk Modulus (GPa) = 71.63561 80.20878 75.92219
# Shear Modulus (GPa) = 44.11423 20.27873 32.19648
#
# Velocity S-wave (km/s) = 4.44925 3.01660 3.80104
# Velocity P-wave (km/s) = 7.65116 6.93730 7.30296
#
# Compressibility (1/GPa) = 0.01395954
#
# Stress axis : x y z
#
# Youngs Moduli (GPa) = 94.55134 67.38431 105.61224
#
# Poissons Ratio (x) = 0.11578 0.34059
# Poissons Ratio (y) = 0.16246 0.58295
# Poissons Ratio (z) = 0.30492 0.37194
#
# Static dielectric constant tensor:
#      x y z
#    x 3.937690 0.000000 0.000000 
#    y 0.000000 4.007870 0.000000 
#    z 0.000000 0.000000 4.679340 
# 
# 
# High freq. dielectric constant tensor:
#      x y z
#    x 1.851800 0.000000 0.000000 
#    y 0.000000 1.879140 0.000000 
#    z 0.000000 0.000000 1.915570 
# 
# From -- ./inp_files/3546.got.cif
#   From: 2010.03.12/outbox.cif.g09.slc.cpg/sg54_2_cif.got.tgz:3546.got - 2010.04.16 15:00:50.
