data_PCOD8223620
_publ_section_title
;
Structure prediction by ZEFSAII (Michael W. Deem and Ramdas Pophale) SiO2 
 PCOD8223620
Probable space group: P C C A
;
_chemical_formula_sum "Si O2"
_cell_formula_units_Z 40
_cell_length_a 12.670560
_cell_length_b 11.798126
_cell_length_c 13.113303
_cell_angle_alpha 90.000000
_cell_angle_beta 90.000000
_cell_angle_gamma 90.000000
_cell_volume 1960.292761
_symmetry_space_group_name_H-M "P C C A"
_symmetry_group_IT_number 54
_symmetry_cell_setting 'orthorhombic'
loop_
_space_group_symop_operation_xyz
x,y,z
1/2-x,-y,z
1/2+x,-y,1/2-z
-x,y,1/2-z
-x,-y,-z
1/2+x,y,-z
1/2-x,y,1/2+z
x,-y,1/2+z
loop_
_atom_site_type_symbol
_atom_site_label
_atom_site_fract_x
_atom_site_fract_y
_atom_site_fract_z
Si Si1 0.750000 0.500000 0.943985
Si Si2 0.110806 0.635177 0.201027
Si Si3 0.163146 0.900623 0.892426
Si Si4 0.000000 0.979211 0.750000
Si Si5 0.970350 0.161446 0.920629
Si Si6 0.815812 0.701472 0.089131
O O1 0.846786 0.461914 0.872907
O O2 0.798864 0.600320 0.010341
O O3 0.107445 0.750951 0.135595
O O4 0.186277 0.652787 0.296870
O O5 0.000000 0.597632 0.250000
O O6 0.215376 0.780712 0.910460
O O7 0.250000 0.000000 0.903783
O O8 0.103865 0.905745 0.781546
O O9 0.073858 0.899742 0.979309
O O10 0.015171 0.056265 0.652567
O O11 0.079802 0.227853 0.941558
#
# Coordination Sequence:
#
# PCOD8223620 Si02
#       6
#     4   8   8   4   8   8
#     4  12  24  44  72  96 134 186 230 286 344 406
#     4  10  22  43  67  92 136 177 219 285 339 399
#     4  12  25  43  71 103 137 182 228 280 350 419
#     4  12  24  42  68  98 140 178 220 282 344 412
#     4  11  22  45  67  98 139 177 223 284 344 404
#     4  11  24  44  69 102 135 178 236 281 345 408
#
# _framework density 20.405117000000001
#
# number of rings (size 3 to 8) (size 9 to 14) (size 15 to 20)
#    0.000    0.800    7.000    1.200    0.000    7.200 
#    3.600    0.000    0.000    0.000    0.000    0.000 
#    0.000    0.000    0.000    0.000    0.000    0.000 
#
# Total GULP energy -495761.343080 kJ/mol
# GULP energy per Si atom -12394.033577 kJ/mol
# Density = 2.035867 g / cm^3
# Si number density = 20.405117 Si / 1000 Ang^3
#
#
#
# Elastic Constant Matrix: (Units=GPa)
#
#
# Indices 1 2 3 4 5 6 
#
# 1 86.9938 41.7077 59.7582 0.0000 0.0000 0.0000
# 2 41.7077 74.9651 42.8956 0.0000 0.0000 0.0000
# 3 59.7582 42.8956 107.3401 0.0000 0.0000 0.0000
# 4 0.0000 0.0000 0.0000 -19.9880 0.0000 0.0000
# 5 0.0000 0.0000 0.0000 0.0000 23.8074 0.0000
# 6 0.0000 0.0000 0.0000 0.0000 0.0000 -5.0504
#
#
#
# Elastic Compliance Matrix: (Units=1/GPa)
#
#
# Indices 1 2 3 4 5 6 
#
# 1 0.020734 -0.006392 -0.008989 0.000000 0.000000 0.000000
# 2 -0.006392 0.019265 -0.004140 0.000000 0.000000 0.000000
# 3 -0.008989 -0.004140 0.015975 0.000000 0.000000 0.000000
# 4 0.000000 0.000000 0.000000 -0.050030 0.000000 0.000000
# 5 0.000000 0.000000 0.000000 0.000000 0.042004 0.000000
# 6 0.000000 0.000000 0.000000 0.000000 0.000000 -0.198004
#
#
# Mechanical properties :
#
#
# Convention : Reuss Voigt Hill
#
# Bulk Modulus (GPa) = 59.05963 62.00242 60.53102
# Shear Modulus (GPa) = -47.45187 8.08295 -19.68446
#
# Velocity S-wave (km/s) = -4.82756 1.99245 -3.10930
# Velocity P-wave (km/s) = 1.43787 5.97870 4.10350
#
# Compressibility (1/GPa) = 0.01693204
#
# Stress axis : x y z
#
# Youngs Moduli (GPa) = 48.22921 51.90775 62.59885
#
# Poissons Ratio (x) = 0.33182 0.56268
# Poissons Ratio (y) = 0.30830 0.25916
# Poissons Ratio (z) = 0.43351 0.21489
#
# Static dielectric constant tensor:
#      x y z
#    x 3.405840 0.000000 0.000000 
#    y 0.000000 3.808850 0.000000 
#    z 0.000000 0.000000 4.123020 
# 
# 
# High freq. dielectric constant tensor:
#      x y z
#    x 1.799310 0.000000 0.000000 
#    y 0.000000 1.800980 0.000000 
#    z 0.000000 0.000000 1.809640 
# 
# From -- ./inp_files/8249.got.cif
#   From: 2010.03.12/outbox.cif.g09.slc.cpg/sg54_5_cif.got.tgz:8249.got - 2010.04.16 15:00:50.
