data_PCOD8223552
_publ_section_title
;
Structure prediction by ZEFSAII (Michael W. Deem and Ramdas Pophale) SiO2 
 PCOD8223552
Probable space group: P C C A
;
_chemical_formula_sum "Si O2"
_cell_formula_units_Z 32
_cell_length_a 13.475164
_cell_length_b 5.003669
_cell_length_c 18.844343
_cell_angle_alpha 90.000000
_cell_angle_beta 90.000000
_cell_angle_gamma 90.000000
_cell_volume 1270.584733
_symmetry_space_group_name_H-M "P C C A"
_symmetry_group_IT_number 54
_symmetry_cell_setting 'orthorhombic'
loop_
_space_group_symop_operation_xyz
x,y,z
1/2-x,-y,z
1/2+x,-y,1/2-z
-x,y,1/2-z
-x,-y,-z
1/2+x,y,-z
1/2-x,y,1/2+z
x,-y,1/2+z
loop_
_atom_site_type_symbol
_atom_site_label
_atom_site_fract_x
_atom_site_fract_y
_atom_site_fract_z
Si Si1 0.149824 0.657869 0.139619
Si Si2 0.934905 0.425081 0.141384
Si Si3 0.682569 0.243102 0.511966
Si Si4 0.605627 0.907914 0.723495
O O1 0.250000 0.500000 0.131164
O O2 0.171094 0.857024 0.206208
O O3 0.053897 0.461808 0.147702
O O4 0.135821 0.824038 0.065899
O O5 0.908794 0.306064 0.064596
O O6 0.873626 0.699645 0.158334
O O7 0.892634 0.213149 0.199197
O O8 0.750000 0.500000 0.507437
O O9 0.750000 0.000000 0.539949
O O10 0.500000 0.811489 0.750000
#
# Coordination Sequence:
#
# PCOD8223552 Si02
#       4
#     8   8   8   8
#     4  10  24  45  71 102 138 182 233 290 350 416
#     4  11  23  44  69  97 135 178 226 281 342 411
#     4  11  25  44  67 101 139 182 232 284 345 413
#     4  10  22  41  65  94 128 170 223 279 338 404
#
# _framework density 25.185258000000001
#
# number of rings (size 3 to 8) (size 9 to 14) (size 15 to 20)
#    0.000    1.500    0.000    4.500    0.000   15.000 
#    0.000   17.500    0.000    0.000    0.000    0.000 
#    0.000    0.000    0.000    0.000    0.000    0.000 
#
# Total GULP energy -396462.600827 kJ/mol
# GULP energy per Si atom -12389.456276 kJ/mol
# Density = 2.512793 g / cm^3
# Si number density = 25.185258 Si / 1000 Ang^3
#
#
#
# Elastic Constant Matrix: (Units=GPa)
#
#
# Indices 1 2 3 4 5 6 
#
# 1 82.2120 39.9057 40.5394 0.0000 0.0000 0.0000
# 2 39.9057 126.6849 15.8821 0.0000 0.0000 0.0000
# 3 40.5394 15.8821 123.4382 0.0000 0.0000 0.0000
# 4 0.0000 0.0000 0.0000 26.9259 0.0000 0.0000
# 5 0.0000 0.0000 0.0000 0.0000 60.8746 0.0000
# 6 0.0000 0.0000 0.0000 0.0000 0.0000 23.8011
#
#
#
# Elastic Compliance Matrix: (Units=1/GPa)
#
#
# Indices 1 2 3 4 5 6 
#
# 1 0.016880 -0.004698 -0.004939 0.000000 0.000000 0.000000
# 2 -0.004698 0.009330 0.000342 0.000000 0.000000 0.000000
# 3 -0.004939 0.000342 0.009679 0.000000 0.000000 0.000000
# 4 0.000000 0.000000 0.000000 0.037139 0.000000 0.000000
# 5 0.000000 0.000000 0.000000 0.000000 0.016427 0.000000
# 6 0.000000 0.000000 0.000000 0.000000 0.000000 0.042015
#
#
# Mechanical properties :
#
#
# Convention : Reuss Voigt Hill
#
# Bulk Modulus (GPa) = 57.80313 58.33218 58.06765
# Shear Modulus (GPa) = 32.08706 38.05421 35.07063
#
# Velocity S-wave (km/s) = 3.57324 3.89134 3.73568
# Velocity P-wave (km/s) = 6.32654 6.58798 6.45858
#
# Compressibility (1/GPa) = 0.01730010
#
# Stress axis : x y z
#
# Youngs Moduli (GPa) = 59.24337 107.17543 103.31365
#
# Poissons Ratio (x) = 0.50349 0.51028
# Poissons Ratio (y) = 0.27832 -0.03537
# Poissons Ratio (z) = 0.29261 -0.03669
#
# Static dielectric constant tensor:
#      x y z
#    x 4.345250 0.000000 0.000000 
#    y 0.000000 4.270090 0.000000 
#    z 0.000000 0.000000 7.016400 
# 
# 
# High freq. dielectric constant tensor:
#      x y z
#    x 1.988570 0.000000 0.000000 
#    y 0.000000 1.998750 0.000000 
#    z 0.000000 0.000000 2.026960 
# 
# From -- ./inp_files/21292.got.cif
#   From: 2010.03.12/outbox.cif.g09.slc.cpg/sg54_11_cif.got.tgz:21292.got - 2010.04.16 15:00:50.
