data_PCOD8223417
_publ_section_title
;
Structure prediction by ZEFSAII (Michael W. Deem and Ramdas Pophale) SiO2 
 PCOD8223417
Probable space group: P C C A
;
_chemical_formula_sum "Si O2"
_cell_formula_units_Z 60
_cell_length_a 23.784489
_cell_length_b 8.654407
_cell_length_c 14.397124
_cell_angle_alpha 90.000000
_cell_angle_beta 90.000000
_cell_angle_gamma 90.000000
_cell_volume 2963.513335
_symmetry_space_group_name_H-M "P C C A"
_symmetry_group_IT_number 54
_symmetry_cell_setting 'orthorhombic'
loop_
_space_group_symop_operation_xyz
x,y,z
1/2-x,-y,z
1/2+x,-y,1/2-z
-x,y,1/2-z
-x,-y,-z
1/2+x,y,-z
1/2-x,y,1/2+z
x,-y,1/2+z
loop_
_atom_site_type_symbol
_atom_site_label
_atom_site_fract_x
_atom_site_fract_y
_atom_site_fract_z
Si Si1 0.813347 0.448929 0.940805
Si Si2 0.870650 0.051274 0.575369
Si Si3 0.250000 0.000000 0.206355
Si Si4 0.700578 0.335501 0.101751
Si Si5 0.355281 0.118944 0.101291
Si Si6 0.435341 0.219999 0.268373
Si Si7 0.809909 0.770334 0.665760
Si Si8 0.635971 0.508984 0.751125
O O1 0.750000 0.500000 0.912277
O O2 0.827177 0.266315 0.951284
O O3 0.855194 0.506778 0.860552
O O4 0.829180 0.539719 0.034577
O O5 0.818812 0.167963 0.568446
O O6 0.920347 0.130487 0.635499
O O7 0.888016 0.993004 0.472271
O O8 0.847853 0.900261 0.623860
O O9 0.195723 0.976153 0.143878
O O10 0.262983 0.846626 0.266834
O O11 0.769572 0.334058 0.096212
O O12 0.682832 0.374786 0.207307
O O13 0.399069 0.158942 0.181844
O O14 0.500000 0.189258 0.250000
O O15 0.423153 0.405696 0.275239
O O16 0.857185 0.662095 0.711332
#
# Coordination Sequence:
#
# PCOD8223417 Si02
#       8
#     8   8   4   8   8   8   8   8
#     4  11  21  33  54  86 125 170 202 239 300 382
#     4  11  23  37  60  95 127 164 207 262 323 380
#     4  12  22  36  62  96 140 174 196 252 324 404
#     4  11  21  35  54  89 130 173 196 239 313 385
#     4  11  24  38  60  97 130 168 213 262 323 391
#     4  10  23  48  67  83 120 171 228 283 327 366
#     4  12  20  36  58  89 138 167 205 246 308 398
#     4  10  22  37  58  84 115 162 215 263 306 365
#
# _framework density 20.246238999999999
#
# number of rings (size 3 to 8) (size 9 to 14) (size 15 to 20)
#    0.000    1.067    2.667    6.000    5.600    0.533 
#    0.000    0.667    0.000   20.000    0.000    0.000 
#    0.000    0.000    0.000    0.000    0.000    0.000 
#
# Total GULP energy -743545.330165 kJ/mol
# GULP energy per Si atom -12392.422169 kJ/mol
# Density = 2.020016 g / cm^3
# Si number density = 20.246239 Si / 1000 Ang^3
#
#
#
# Elastic Constant Matrix: (Units=GPa)
#
#
# Indices 1 2 3 4 5 6 
#
# 1 100.0791 25.7331 34.4447 0.0000 0.0000 0.0000
# 2 25.7331 95.5992 45.9943 0.0000 0.0000 0.0000
# 3 34.4447 45.9943 93.2864 0.0000 0.0000 0.0000
# 4 0.0000 0.0000 0.0000 28.8127 0.0000 0.0000
# 5 0.0000 0.0000 0.0000 0.0000 10.3344 0.0000
# 6 0.0000 0.0000 0.0000 0.0000 0.0000 20.0380
#
#
#
# Elastic Compliance Matrix: (Units=1/GPa)
#
#
# Indices 1 2 3 4 5 6 
#
# 1 0.011586 -0.001390 -0.003593 0.000000 0.000000 0.000000
# 2 -0.001390 0.013880 -0.006330 0.000000 0.000000 0.000000
# 3 -0.003593 -0.006330 0.015167 0.000000 0.000000 0.000000
# 4 0.000000 0.000000 0.000000 0.034707 0.000000 0.000000
# 5 0.000000 0.000000 0.000000 0.000000 0.096764 0.000000
# 6 0.000000 0.000000 0.000000 0.000000 0.000000 0.049905
#
#
# Mechanical properties :
#
#
# Convention : Reuss Voigt Hill
#
# Bulk Modulus (GPa) = 55.53261 55.70101 55.61681
# Shear Modulus (GPa) = 19.94910 24.02320 21.98615
#
# Velocity S-wave (km/s) = 3.14239 3.44837 3.29893
# Velocity P-wave (km/s) = 6.37607 6.58988 6.48386
#
# Compressibility (1/GPa) = 0.01800744
#
# Stress axis : x y z
#
# Youngs Moduli (GPa) = 86.31084 72.04561 65.93176
#
# Poissons Ratio (x) = 0.10016 0.23686
# Poissons Ratio (y) = 0.12000 0.41736
# Poissons Ratio (z) = 0.31007 0.45606
#
# Static dielectric constant tensor:
#      x y z
#    x 3.227280 0.000000 0.000000 
#    y 0.000000 4.186330 0.000000 
#    z 0.000000 0.000000 4.038010 
# 
# 
# High freq. dielectric constant tensor:
#      x y z
#    x 1.729100 0.000000 0.000000 
#    y 0.000000 1.814790 0.000000 
#    z 0.000000 0.000000 1.808600 
# 
# From -- ./inp_files/14953.got.cif
#   From: 2010.03.12/outbox.cif.g09.slc.cpg/sg54_8_cif.got.tgz:14953.got - 2010.04.16 15:00:50.
