data_PCOD8223301
_publ_section_title
;
Structure prediction by ZEFSAII (Michael W. Deem and Ramdas Pophale) SiO2 
 PCOD8223301
Probable space group: P C C A
;
_chemical_formula_sum "Si O2"
_cell_formula_units_Z 56
_cell_length_a 10.510549
_cell_length_b 17.361209
_cell_length_c 14.607096
_cell_angle_alpha 90.000000
_cell_angle_beta 90.000000
_cell_angle_gamma 90.000000
_cell_volume 2665.442082
_symmetry_space_group_name_H-M "P C C A"
_symmetry_group_IT_number 54
_symmetry_cell_setting 'orthorhombic'
loop_
_space_group_symop_operation_xyz
x,y,z
1/2-x,-y,z
1/2+x,-y,1/2-z
-x,y,1/2-z
-x,-y,-z
1/2+x,y,-z
1/2-x,y,1/2+z
x,-y,1/2+z
loop_
_atom_site_type_symbol
_atom_site_label
_atom_site_fract_x
_atom_site_fract_y
_atom_site_fract_z
Si Si1 0.986025 0.844152 0.351629
Si Si2 0.810530 0.288783 0.891364
Si Si3 0.375289 0.459526 0.085045
Si Si4 0.374479 0.050759 0.012848
Si Si5 0.380788 0.465437 0.871160
Si Si6 0.253559 0.191239 0.930606
Si Si7 0.365641 0.699924 0.279876
O O1 0.924952 0.759896 0.348877
O O2 0.887504 0.905964 0.391222
O O3 0.000000 0.874682 0.250000
O O4 0.113781 0.843051 0.412375
O O5 0.873586 0.367853 0.920815
O O6 0.708873 0.310737 0.814428
O O7 0.748612 0.244588 0.978419
O O8 0.250000 0.500000 0.127208
O O9 0.488695 0.488746 0.153572
O O10 0.384230 0.482085 0.979238
O O11 0.352550 0.119574 0.938709
O O12 0.250000 0.000000 0.016525
O O13 0.500000 0.000000 0.000000
O O14 0.250000 0.500000 0.829570
O O15 0.389523 0.378131 0.836817
O O16 0.292498 0.240196 0.843078
O O17 0.500000 0.735423 0.250000
#
# Coordination Sequence:
#
# PCOD8223301 Si02
#       7
#     8   8   8   8   8   8   8
#     4  11  24  45  71 105 139 178 235 278 340 413
#     4  11  25  40  72  97 135 189 229 287 356 408
#     4  10  21  40  64  93 130 183 233 285 350 408
#     4  11  24  48  76 103 139 185 218 271 345 410
#     4  10  23  40  62  92 133 179 233 291 348 403
#     4  11  25  46  71 101 142 176 228 290 337 417
#     4  12  26  42  65 102 138 179 237 291 348 410
#
# _framework density 21.009647999999999
#
# number of rings (size 3 to 8) (size 9 to 14) (size 15 to 20)
#    0.000    1.143    4.286    0.857    6.000    2.857 
#    2.571    0.000    0.000    0.000    0.000    0.000 
#    0.000    0.000    0.000    0.000    0.000    0.000 
#
# Total GULP energy -694072.975646 kJ/mol
# GULP energy per Si atom -12394.160279 kJ/mol
# Density = 2.096183 g / cm^3
# Si number density = 21.009648 Si / 1000 Ang^3
#
#
#
# Elastic Constant Matrix: (Units=GPa)
#
#
# Indices 1 2 3 4 5 6 
#
# 1 137.0493 44.6145 24.4616 0.0000 0.0000 0.0000
# 2 44.6145 118.6393 14.4342 0.0000 0.0000 0.0000
# 3 24.4616 14.4342 63.3851 0.0000 0.0000 0.0000
# 4 0.0000 0.0000 0.0000 12.6768 0.0000 0.0000
# 5 0.0000 0.0000 0.0000 0.0000 28.0303 0.0000
# 6 0.0000 0.0000 0.0000 0.0000 0.0000 32.1676
#
#
#
# Elastic Compliance Matrix: (Units=1/GPa)
#
#
# Indices 1 2 3 4 5 6 
#
# 1 0.008742 -0.002959 -0.002700 0.000000 0.000000 0.000000
# 2 -0.002959 0.009671 -0.001060 0.000000 0.000000 0.000000
# 3 -0.002700 -0.001060 0.017060 0.000000 0.000000 0.000000
# 4 0.000000 0.000000 0.000000 0.078884 0.000000 0.000000
# 5 0.000000 0.000000 0.000000 0.000000 0.035676 0.000000
# 6 0.000000 0.000000 0.000000 0.000000 0.000000 0.031087
#
#
# Mechanical properties :
#
#
# Convention : Reuss Voigt Hill
#
# Bulk Modulus (GPa) = 45.38384 54.01047 49.69715
# Shear Modulus (GPa) = 24.76450 30.27919 27.52184
#
# Velocity S-wave (km/s) = 3.43697 3.80044 3.62327
# Velocity P-wave (km/s) = 6.11545 6.70977 6.41949
#
# Compressibility (1/GPa) = 0.02203428
#
# Stress axis : x y z
#
# Youngs Moduli (GPa) = 114.39355 103.40613 58.61682
#
# Poissons Ratio (x) = 0.30597 0.15825
# Poissons Ratio (y) = 0.33848 0.06215
# Poissons Ratio (z) = 0.30884 0.10964
#
# Static dielectric constant tensor:
#      x y z
#    x 4.465870 0.000000 0.000000 
#    y 0.000000 3.864090 0.000000 
#    z 0.000000 0.000000 3.775170 
# 
# 
# High freq. dielectric constant tensor:
#      x y z
#    x 1.837170 0.000000 0.000000 
#    y 0.000000 1.826080 0.000000 
#    z 0.000000 0.000000 1.823910 
# 
# From -- ./inp_files/12736.got.cif
#   From: 2010.03.12/outbox.cif.g09.slc.cpg/sg54_7_cif.got.tgz:12736.got - 2010.04.16 15:00:50.
