data_PCOD8223653
_publ_section_title
;
Structure prediction by ZEFSAII (Michael W. Deem and Ramdas Pophale) SiO2 
 PCOD8223653
Probable space group: P C C A
;
_chemical_formula_sum "Si O2"
_cell_formula_units_Z 40
_cell_length_a 9.989108
_cell_length_b 11.739245
_cell_length_c 15.953221
_cell_angle_alpha 90.000000
_cell_angle_beta 90.000000
_cell_angle_gamma 90.000000
_cell_volume 1870.747858
_symmetry_space_group_name_H-M "P C C A"
_symmetry_group_IT_number 54
_symmetry_cell_setting 'orthorhombic'
loop_
_space_group_symop_operation_xyz
x,y,z
1/2-x,-y,z
1/2+x,-y,1/2-z
-x,y,1/2-z
-x,-y,-z
1/2+x,y,-z
1/2-x,y,1/2+z
x,-y,1/2+z
loop_
_atom_site_type_symbol
_atom_site_label
_atom_site_fract_x
_atom_site_fract_y
_atom_site_fract_z
Si Si1 0.873105 0.250677 0.876742
Si Si2 0.500000 0.600101 0.750000
Si Si3 0.078734 0.231598 0.164421
Si Si4 0.070917 0.385426 0.462188
Si Si5 0.750000 0.500000 0.665977
Si Si6 0.404135 0.003449 0.078190
O O1 0.985296 0.324007 0.831854
O O2 0.735853 0.256537 0.823599
O O3 0.928085 0.122421 0.875423
O O4 0.860200 0.304824 0.968818
O O5 0.631098 0.527547 0.730537
O O6 0.000000 0.259120 0.250000
O O7 0.038513 0.313397 0.088134
O O8 0.058410 0.099446 0.140238
O O9 0.192419 0.405732 0.397479
O O10 0.000000 0.500000 0.500000
O O11 0.250000 0.000000 0.047350
O O12 0.500000 0.000000 0.000000
#
# Coordination Sequence:
#
# PCOD8223653 Si02
#       6
#     8   4   8   8   4   8
#     4  11  25  45  71 102 141 184 234 287 355 424
#     4  12  28  44  70 102 150 180 240 292 356 420
#     4  11  25  45  71 103 143 185 232 295 350 419
#     4  12  24  44  72 101 139 185 238 283 352 423
#     4  12  28  44  68 106 138 196 232 296 354 422
#     4  10  22  45  71 104 137 181 234 284 350 421
#
# _framework density 21.381824000000002
#
# number of rings (size 3 to 8) (size 9 to 14) (size 15 to 20)
#    0.000    0.800    4.000    2.400    5.600    0.800 
#    3.600    0.000    0.000    0.000    0.000    0.000 
#    0.000    0.000    0.000    0.000    0.000    0.000 
#
# Total GULP energy -495879.727496 kJ/mol
# GULP energy per Si atom -12396.993187 kJ/mol
# Density = 2.133316 g / cm^3
# Si number density = 21.381824 Si / 1000 Ang^3
#
#
#
# Elastic Constant Matrix: (Units=GPa)
#
#
# Indices 1 2 3 4 5 6 
#
# 1 104.3027 41.6858 49.0064 0.0000 0.0000 0.0000
# 2 41.6858 134.0172 48.8376 0.0000 0.0000 0.0000
# 3 49.0064 48.8376 111.2318 0.0000 0.0000 0.0000
# 4 0.0000 0.0000 0.0000 -9.6053 0.0000 0.0000
# 5 0.0000 0.0000 0.0000 0.0000 49.7142 0.0000
# 6 0.0000 0.0000 0.0000 0.0000 0.0000 24.1433
#
#
#
# Elastic Compliance Matrix: (Units=1/GPa)
#
#
# Indices 1 2 3 4 5 6 
#
# 1 0.012643 -0.002265 -0.004576 0.000000 0.000000 0.000000
# 2 -0.002265 0.009289 -0.003080 0.000000 0.000000 0.000000
# 3 -0.004576 -0.003080 0.012359 0.000000 0.000000 0.000000
# 4 0.000000 0.000000 0.000000 -0.104109 0.000000 0.000000
# 5 0.000000 0.000000 0.000000 0.000000 0.020115 0.000000
# 6 0.000000 0.000000 0.000000 0.000000 0.000000 0.041419
#
#
# Mechanical properties :
#
#
# Convention : Reuss Voigt Hill
#
# Bulk Modulus (GPa) = 69.21404 69.84570 69.52987
# Shear Modulus (GPa) = 305.38061 26.85191 166.11626
#
# Velocity S-wave (km/s) = 11.96380 3.54761 8.82378
# Velocity P-wave (km/s) = 14.94270 7.03687 11.67908
#
# Compressibility (1/GPa) = 0.01444793
#
# Stress axis : x y z
#
# Youngs Moduli (GPa) = 79.09799 107.65642 80.91513
#
# Poissons Ratio (x) = 0.24385 0.37023
# Poissons Ratio (y) = 0.17916 0.24925
# Poissons Ratio (z) = 0.36192 0.33163
#
# Static dielectric constant tensor:
#      x y z
#    x 3.951390 0.000000 0.000000 
#    y 0.000000 3.875920 0.000000 
#    z 0.000000 0.000000 3.846870 
# 
# 
# High freq. dielectric constant tensor:
#      x y z
#    x 1.846230 0.000000 0.000000 
#    y 0.000000 1.854440 0.000000 
#    z 0.000000 0.000000 1.839410 
# 
# From -- ./inp_files/16380.got.cif
#   From: 2010.03.12/outbox.cif.g09.slc.cpg/sg54_9_cif.got.tgz:16380.got - 2010.04.16 15:00:50.
