data_PCOD8223266
_publ_section_title
;
Structure prediction by ZEFSAII (Michael W. Deem and Ramdas Pophale) SiO2 
 PCOD8223266
Probable space group: P C C A
;
_chemical_formula_sum "Si O2"
_cell_formula_units_Z 64
_cell_length_a 9.104839
_cell_length_b 21.876449
_cell_length_c 14.933916
_cell_angle_alpha 90.000000
_cell_angle_beta 90.000000
_cell_angle_gamma 90.000000
_cell_volume 2974.560477
_symmetry_space_group_name_H-M "P C C A"
_symmetry_group_IT_number 54
_symmetry_cell_setting 'orthorhombic'
loop_
_space_group_symop_operation_xyz
x,y,z
1/2-x,-y,z
1/2+x,-y,1/2-z
-x,y,1/2-z
-x,-y,-z
1/2+x,y,-z
1/2-x,y,1/2+z
x,-y,1/2+z
loop_
_atom_site_type_symbol
_atom_site_label
_atom_site_fract_x
_atom_site_fract_y
_atom_site_fract_z
Si Si1 0.163648 0.057678 0.718366
Si Si2 0.656574 0.442289 0.792475
Si Si3 0.236583 0.072184 0.910686
Si Si4 0.849972 0.677885 0.068794
Si Si5 0.676657 0.691492 0.243733
Si Si6 0.866377 0.545193 0.999489
Si Si7 0.337675 0.266561 0.087312
Si Si8 0.425277 0.130057 0.053728
O O1 0.251390 0.083577 0.804271
O O2 0.165085 0.106282 0.639297
O O3 0.000000 0.038758 0.750000
O O4 0.250000 0.000000 0.678813
O O5 0.750000 0.500000 0.760803
O O6 0.500000 0.453925 0.750000
O O7 0.722459 0.378656 0.758583
O O8 0.659311 0.433537 0.898588
O O9 0.089908 0.105235 0.944537
O O10 0.250000 0.000000 0.932365
O O11 0.368809 0.105769 0.959080
O O12 0.740883 0.704568 0.145024
O O13 0.019524 0.691380 0.088128
O O14 0.859467 0.604573 0.061965
O O15 0.788712 0.708628 0.978545
O O16 0.500000 0.701806 0.250000
O O17 0.761282 0.734861 0.314743
O O18 0.750000 0.500000 0.041745
O O19 0.000000 0.500000 0.000000
O O20 0.404819 0.202088 0.056891
#
# Coordination Sequence:
#
# PCOD8223266 Si02
#       8
#     8   8   8   8   8   8   8   8
#     4   9  20  38  61  90 129 165 207 259 316 376
#     4  10  24  41  64  96 132 158 216 273 339 412
#     4  10  21  39  64  98 132 170 211 265 329 381
#     4  12  26  45  71  91 137 175 220 281 339 405
#     4  11  26  46  68  94 129 175 223 281 339 404
#     4  11  25  41  66  97 126 166 213 273 348 410
#     4  12  26  46  66 100 130 181 231 274 332 401
#     4  11  23  40  66  93 133 170 220 265 316 387
#
# _framework density 21.515784
#
# number of rings (size 3 to 8) (size 9 to 14) (size 15 to 20)
#    0.000    1.250    1.250    3.375    8.750    6.000 
#    0.000    0.625    0.000    0.000    0.000    0.000 
#    0.000    0.000    0.000    0.000    0.000    0.000 
#
# Total GULP energy -793225.870012 kJ/mol
# GULP energy per Si atom -12394.154219 kJ/mol
# Density = 2.146681 g / cm^3
# Si number density = 21.515784 Si / 1000 Ang^3
#
#
#
# Elastic Constant Matrix: (Units=GPa)
#
#
# Indices 1 2 3 4 5 6 
#
# 1 85.8547 21.5848 16.0344 0.0000 0.0000 0.0000
# 2 21.5848 86.0524 2.6158 0.0000 0.0000 0.0000
# 3 16.0344 2.6158 73.9281 0.0000 0.0000 0.0000
# 4 0.0000 0.0000 0.0000 25.9382 0.0000 0.0000
# 5 0.0000 0.0000 0.0000 0.0000 35.6886 0.0000
# 6 0.0000 0.0000 0.0000 0.0000 0.0000 56.3991
#
#
#
# Elastic Compliance Matrix: (Units=1/GPa)
#
#
# Indices 1 2 3 4 5 6 
#
# 1 0.012947 -0.003166 -0.002696 0.000000 0.000000 0.000000
# 2 -0.003166 0.012407 0.000248 0.000000 0.000000 0.000000
# 3 -0.002696 0.000248 0.014103 0.000000 0.000000 0.000000
# 4 0.000000 0.000000 0.000000 0.038553 0.000000 0.000000
# 5 0.000000 0.000000 0.000000 0.000000 0.028020 0.000000
# 6 0.000000 0.000000 0.000000 0.000000 0.000000 0.017731
#
#
# Mechanical properties :
#
#
# Convention : Reuss Voigt Hill
#
# Bulk Modulus (GPa) = 35.42480 36.25612 35.84046
# Shear Modulus (GPa) = 34.62632 37.31185 35.96909
#
# Velocity S-wave (km/s) = 4.01602 4.16884 4.09314
# Velocity P-wave (km/s) = 6.16481 6.32929 6.24759
#
# Compressibility (1/GPa) = 0.02822881
#
# Stress axis : x y z
#
# Youngs Moduli (GPa) = 77.23817 80.59745 70.90865
#
# Poissons Ratio (x) = 0.25514 0.19118
# Poissons Ratio (y) = 0.24450 -0.01756
# Poissons Ratio (z) = 0.20824 -0.01995
#
# Static dielectric constant tensor:
#      x y z
#    x 3.079260 0.000000 0.000000 
#    y 0.000000 3.891880 0.000000 
#    z 0.000000 0.000000 4.110140 
# 
# 
# High freq. dielectric constant tensor:
#      x y z
#    x 1.850080 0.000000 0.000000 
#    y 0.000000 1.843180 0.000000 
#    z 0.000000 0.000000 1.856000 
# 
# From -- ./inp_files/11943.got.cif
#   From: 2010.03.12/outbox.cif.g09.slc.cpg/sg54_6_cif.got.tgz:11943.got - 2010.04.16 15:00:50.
