data_PCOD8223251
_publ_section_title
;
Structure prediction by ZEFSAII (Michael W. Deem and Ramdas Pophale) SiO2 
 PCOD8223251
Probable space group: P C C A
;
_chemical_formula_sum "Si O2"
_cell_formula_units_Z 52
_cell_length_a 24.647761
_cell_length_b 8.095314
_cell_length_c 13.001976
_cell_angle_alpha 90.000000
_cell_angle_beta 90.000000
_cell_angle_gamma 90.000000
_cell_volume 2594.302015
_symmetry_space_group_name_H-M "P C C A"
_symmetry_group_IT_number 54
_symmetry_cell_setting 'orthorhombic'
loop_
_space_group_symop_operation_xyz
x,y,z
1/2-x,-y,z
1/2+x,-y,1/2-z
-x,y,1/2-z
-x,-y,-z
1/2+x,y,-z
1/2-x,y,1/2+z
x,-y,1/2+z
loop_
_atom_site_type_symbol
_atom_site_label
_atom_site_fract_x
_atom_site_fract_y
_atom_site_fract_z
Si Si1 0.766254 0.731376 0.181310
Si Si2 0.250000 0.000000 0.676875
Si Si3 0.447608 0.481705 0.679559
Si Si4 0.684231 0.763744 0.463567
Si Si5 0.170606 0.567834 0.729890
Si Si6 0.063646 0.830928 0.538091
Si Si7 0.476747 0.843620 0.637434
O O1 0.777279 0.730492 0.060449
O O2 0.801148 0.599380 0.241205
O O3 0.700946 0.706325 0.199572
O O4 0.785111 0.891857 0.243022
O O5 0.207887 0.909228 0.604533
O O6 0.500000 0.474136 0.750000
O O7 0.394028 0.444293 0.749079
O O8 0.453630 0.336348 0.596714
O O9 0.444296 0.667532 0.630323
O O10 0.680292 0.601069 0.391977
O O11 0.625087 0.816920 0.501992
O O12 0.027698 0.841377 0.437659
O O13 0.059836 0.997256 0.607670
O O14 0.500000 0.874102 0.750000
#
# Coordination Sequence:
#
# PCOD8223251 Si02
#       7
#     8   4   8   8   8   8   8
#     4  10  21  39  63  85 127 160 209 257 314 379
#     4  10  22  38  60  90 120 158 206 258 308 378
#     4  10  21  39  66  93 127 163 208 262 318 384
#     4  10  22  39  62  88 125 163 207 261 312 375
#     4   9  22  40  61  90 118 163 208 261 312 376
#     4  10  22  40  59  93 126 163 210 260 312 382
#     4  10  22  38  63  88 125 167 206 259 317 374
#
# _framework density 20.043927
#
# number of rings (size 3 to 8) (size 9 to 14) (size 15 to 20)
#    0.000    2.154    0.000    1.385    6.462    4.923 
#    0.000    9.231    0.000    0.000    0.000    0.000 
#    0.000    0.000    0.000    0.000    0.000    0.000 
#
# Total GULP energy -644311.848870 kJ/mol
# GULP energy per Si atom -12390.612478 kJ/mol
# Density = 1.999831 g / cm^3
# Si number density = 20.043927 Si / 1000 Ang^3
#
#
#
# Elastic Constant Matrix: (Units=GPa)
#
#
# Indices 1 2 3 4 5 6 
#
# 1 113.3390 29.7069 58.6194 0.0000 0.0000 0.0000
# 2 29.7069 128.0948 59.6999 0.0000 0.0000 0.0000
# 3 58.6194 59.6999 121.2893 0.0000 0.0000 0.0000
# 4 0.0000 0.0000 0.0000 26.3073 0.0000 0.0000
# 5 0.0000 0.0000 0.0000 0.0000 29.8589 0.0000
# 6 0.0000 0.0000 0.0000 0.0000 0.0000 62.3659
#
#
#
# Elastic Compliance Matrix: (Units=1/GPa)
#
#
# Indices 1 2 3 4 5 6 
#
# 1 0.011765 -0.000102 -0.005636 0.000000 0.000000 0.000000
# 2 -0.000102 0.010132 -0.004938 0.000000 0.000000 0.000000
# 3 -0.005636 -0.004938 0.013399 0.000000 0.000000 0.000000
# 4 0.000000 0.000000 0.000000 0.038012 0.000000 0.000000
# 5 0.000000 0.000000 0.000000 0.000000 0.033491 0.000000
# 6 0.000000 0.000000 0.000000 0.000000 0.000000 0.016034
#
#
# Mechanical properties :
#
#
# Convention : Reuss Voigt Hill
#
# Bulk Modulus (GPa) = 71.71212 73.19732 72.45472
# Shear Modulus (GPa) = 33.59510 38.01955 35.80733
#
# Velocity S-wave (km/s) = 4.09843 4.35996 4.23122
# Velocity P-wave (km/s) = 7.63225 7.87042 7.75225
#
# Compressibility (1/GPa) = 0.01394464
#
# Stress axis : x y z
#
# Youngs Moduli (GPa) = 85.00074 98.70128 74.63287
#
# Poissons Ratio (x) = 0.01004 0.42061
# Poissons Ratio (y) = 0.00865 0.36851
# Poissons Ratio (z) = 0.47905 0.48736
#
# Static dielectric constant tensor:
#      x y z
#    x 3.588380 0.000000 0.000000 
#    y 0.000000 4.188380 0.000000 
#    z 0.000000 0.000000 3.562080 
# 
# 
# High freq. dielectric constant tensor:
#      x y z
#    x 1.780530 0.000000 0.000000 
#    y 0.000000 1.798190 0.000000 
#    z 0.000000 0.000000 1.778410 
# 
# From -- ./inp_files/10299.got.cif
#   From: 2010.03.12/outbox.cif.g09.slc.cpg/sg54_6_cif.got.tgz:10299.got - 2010.04.16 15:00:50.
