data_PCOD8223082
_publ_section_title
;
Structure prediction by ZEFSAII (Michael W. Deem and Ramdas Pophale) SiO2 
 PCOD8223082
Probable space group: P C C A
;
_chemical_formula_sum "Si O2"
_cell_formula_units_Z 44
_cell_length_a 17.656079
_cell_length_b 8.674753
_cell_length_c 13.690558
_cell_angle_alpha 90.000000
_cell_angle_beta 90.000000
_cell_angle_gamma 90.000000
_cell_volume 2096.874946
_symmetry_space_group_name_H-M "P C C A"
_symmetry_group_IT_number 54
_symmetry_cell_setting 'orthorhombic'
loop_
_space_group_symop_operation_xyz
x,y,z
1/2-x,-y,z
1/2+x,-y,1/2-z
-x,y,1/2-z
-x,-y,-z
1/2+x,y,-z
1/2-x,y,1/2+z
x,-y,1/2+z
loop_
_atom_site_type_symbol
_atom_site_label
_atom_site_fract_x
_atom_site_fract_y
_atom_site_fract_z
Si Si1 0.500000 0.930913 0.250000
Si Si2 0.899494 0.499095 0.816024
Si Si3 0.750000 0.000000 0.661309
Si Si4 0.956572 0.658160 0.629211
Si Si5 0.250000 0.500000 0.062410
Si Si6 0.635000 0.847271 0.798653
Si Si7 0.827617 0.219679 0.012037
O O1 0.488442 0.827078 0.345809
O O2 0.427200 0.030663 0.229041
O O3 0.903697 0.601861 0.718761
O O4 0.822258 0.537559 0.870971
O O5 0.900155 0.321506 0.783586
O O6 0.972932 0.539572 0.884561
O O7 0.706315 0.876049 0.727838
O O8 0.808535 0.904102 0.594738
O O9 0.904369 0.681461 0.534091
O O10 0.238197 0.651788 0.996654
O O11 0.661895 0.869551 0.910256
#
# Coordination Sequence:
#
# PCOD8223082 Si02
#       7
#     4   8   4   8   4   8   8
#     4  10  20  42  66  92 130 176 208 274 332 396
#     4   9  22  41  66  94 131 172 212 282 329 396
#     4  12  26  44  66  98 138 182 216 284 338 404
#     4  10  22  41  68  98 128 175 223 267 341 395
#     4  10  24  40  66 100 126 172 228 278 334 394
#     4  11  24  43  67  97 132 174 224 271 340 402
#     4  11  26  43  66 101 129 180 224 278 335 411
#
# _framework density 20.983606999999999
#
# number of rings (size 3 to 8) (size 9 to 14) (size 15 to 20)
#    0.000    1.818    1.818    1.636    7.636    6.545 
#    3.273    0.000    0.000    0.000    0.000    0.000 
#    0.000    0.000    0.000    0.000    0.000    0.000 
#
# Total GULP energy -545532.199841 kJ/mol
# GULP energy per Si atom -12398.459087 kJ/mol
# Density = 2.093585 g / cm^3
# Si number density = 20.983607 Si / 1000 Ang^3
#
#
#
# Elastic Constant Matrix: (Units=GPa)
#
#
# Indices 1 2 3 4 5 6 
#
# 1 122.4827 43.3179 42.7242 0.0000 0.0000 0.0000
# 2 43.3179 96.8078 17.0330 0.0000 0.0000 0.0000
# 3 42.7242 17.0330 86.1858 0.0000 0.0000 0.0000
# 4 0.0000 0.0000 0.0000 19.0155 0.0000 0.0000
# 5 0.0000 0.0000 0.0000 0.0000 34.8414 0.0000
# 6 0.0000 0.0000 0.0000 0.0000 0.0000 4.9995
#
#
#
# Elastic Compliance Matrix: (Units=1/GPa)
#
#
# Indices 1 2 3 4 5 6 
#
# 1 0.011327 -0.004227 -0.004779 0.000000 0.000000 0.000000
# 2 -0.004227 0.012280 -0.000331 0.000000 0.000000 0.000000
# 3 -0.004779 -0.000331 0.014038 0.000000 0.000000 0.000000
# 4 0.000000 0.000000 0.000000 0.052589 0.000000 0.000000
# 5 0.000000 0.000000 0.000000 0.000000 0.028701 0.000000
# 6 0.000000 0.000000 0.000000 0.000000 0.000000 0.200020
#
#
# Mechanical properties :
#
#
# Convention : Reuss Voigt Hill
#
# Bulk Modulus (GPa) = 52.72088 56.84739 54.78414
# Shear Modulus (GPa) = 14.53689 25.26469 19.90079
#
# Velocity S-wave (km/s) = 2.63492 3.47366 3.08295
# Velocity P-wave (km/s) = 5.86825 6.57561 6.23197
#
# Compressibility (1/GPa) = 0.01896782
#
# Stress axis : x y z
#
# Youngs Moduli (GPa) = 88.28754 81.43591 71.23748
#
# Poissons Ratio (x) = 0.34426 0.34047
# Poissons Ratio (y) = 0.37322 0.02360
# Poissons Ratio (z) = 0.42196 0.02698
#
# Static dielectric constant tensor:
#      x y z
#    x 3.898520 0.000000 0.000000 
#    y 0.000000 3.894390 0.000000 
#    z 0.000000 0.000000 3.676110 
# 
# 
# High freq. dielectric constant tensor:
#      x y z
#    x 1.831380 0.000000 0.000000 
#    y 0.000000 1.831450 0.000000 
#    z 0.000000 0.000000 1.813800 
# 
# From -- ./inp_files/14061.got.cif
#   From: 2010.03.12/outbox.cif.g09.slc.cpg/sg54_8_cif.got.tgz:14061.got - 2010.04.16 15:00:50.
