data_PCOD8223172
_publ_section_title
;
Structure prediction by ZEFSAII (Michael W. Deem and Ramdas Pophale) SiO2 
 PCOD8223172
Probable space group: P C C A
;
_chemical_formula_sum "Si O2"
_cell_formula_units_Z 48
_cell_length_a 14.705541
_cell_length_b 27.715462
_cell_length_c 5.232292
_cell_angle_alpha 90.000000
_cell_angle_beta 90.000000
_cell_angle_gamma 90.000000
_cell_volume 2132.529765
_symmetry_space_group_name_H-M "P C C A"
_symmetry_group_IT_number 54
_symmetry_cell_setting 'orthorhombic'
loop_
_space_group_symop_operation_xyz
x,y,z
1/2-x,-y,z
1/2+x,-y,1/2-z
-x,y,1/2-z
-x,-y,-z
1/2+x,y,-z
1/2-x,y,1/2+z
x,-y,1/2+z
loop_
_atom_site_type_symbol
_atom_site_label
_atom_site_fract_x
_atom_site_fract_y
_atom_site_fract_z
Si Si1 0.891188 0.629852 0.260673
Si Si2 0.808385 0.113770 0.341500
Si Si3 0.693661 0.778424 0.373481
Si Si4 0.105106 0.317984 0.238549
Si Si5 0.397978 0.020208 0.532724
Si Si6 0.850955 0.520610 0.330253
O O1 0.854130 0.663732 0.491780
O O2 0.848102 0.577652 0.297741
O O3 0.000000 0.626563 0.250000
O O4 0.851881 0.652228 0.997944
O O5 0.732030 0.105376 0.558945
O O6 0.848866 0.167941 0.352558
O O7 0.891625 0.076862 0.395887
O O8 0.726673 0.771574 0.664571
O O9 0.617949 0.738912 0.307962
O O10 0.000000 0.329293 0.250000
O O11 0.500000 0.000000 0.500000
O O12 0.348411 0.009417 0.262648
O O13 0.750000 0.500000 0.370942
O O14 0.902260 0.504993 0.591940
#
# Coordination Sequence:
#
# PCOD8223172 Si02
#       6
#     8   8   8   8   8   8
#     4  10  21  38  61  83 116 157 196 239 294 353
#     4  10  21  37  61  85 120 162 199 244 305 356
#     4  10  21  40  60  91 122 153 201 251 298 361
#     4  10  21  40  61  89 119 153 201 245 297 360
#     4  10  21  37  56  84 123 153 204 250 291 353
#     4  10  21  38  53  80 118 147 192 237 287 350
#
# _framework density 22.508478
#
# number of rings (size 3 to 8) (size 9 to 14) (size 15 to 20)
#    0.000    2.000    0.000    3.000    0.000    2.667 
#   21.000    0.000    7.333    0.000    0.000    0.000 
#    0.000    0.000    0.000    0.000    0.000    0.000 
#
# Total GULP energy -594865.450105 kJ/mol
# GULP energy per Si atom -12393.030211 kJ/mol
# Density = 2.245725 g / cm^3
# Si number density = 22.508478 Si / 1000 Ang^3
#
#
#
# Elastic Constant Matrix: (Units=GPa)
#
#
# Indices 1 2 3 4 5 6 
#
# 1 23.5928 24.4904 5.1852 0.0000 0.0000 0.0000
# 2 24.4904 187.6612 57.6767 0.0000 0.0000 0.0000
# 3 5.1852 57.6767 195.5665 0.0000 0.0000 0.0000
# 4 0.0000 0.0000 0.0000 41.5818 0.0000 0.0000
# 5 0.0000 0.0000 0.0000 0.0000 9.8386 0.0000
# 6 0.0000 0.0000 0.0000 0.0000 0.0000 33.3024
#
#
#
# Elastic Compliance Matrix: (Units=1/GPa)
#
#
# Indices 1 2 3 4 5 6 
#
# 1 0.049102 -0.006607 0.000647 0.000000 0.000000 0.000000
# 2 -0.006607 0.006749 -0.001815 0.000000 0.000000 0.000000
# 3 0.000647 -0.001815 0.005632 0.000000 0.000000 0.000000
# 4 0.000000 0.000000 0.000000 0.024049 0.000000 0.000000
# 5 0.000000 0.000000 0.000000 0.000000 0.101641 0.000000
# 6 0.000000 0.000000 0.000000 0.000000 0.000000 0.030028
#
#
# Mechanical properties :
#
#
# Convention : Reuss Voigt Hill
#
# Bulk Modulus (GPa) = 21.77156 64.61389 43.19272
# Shear Modulus (GPa) = 20.15634 38.24243 29.19939
#
# Velocity S-wave (km/s) = 2.99574 4.12639 3.60566
# Velocity P-wave (km/s) = 4.65398 7.17437 6.04695
#
# Compressibility (1/GPa) = 0.04593149
#
# Stress axis : x y z
#
# Youngs Moduli (GPa) = 20.36591 148.17370 177.57097
#
# Poissons Ratio (x) = 0.97893 -0.11481
# Poissons Ratio (y) = 0.13455 0.32233
# Poissons Ratio (z) = -0.01317 0.26897
#
# Static dielectric constant tensor:
#      x y z
#    x 3.290560 0.000000 0.000000 
#    y 0.000000 4.169660 0.000000 
#    z 0.000000 0.000000 8.433300 
# 
# 
# High freq. dielectric constant tensor:
#      x y z
#    x 1.836090 0.000000 0.000000 
#    y 0.000000 1.897010 0.000000 
#    z 0.000000 0.000000 1.928320 
# 
# From -- ./inp_files/1024.got.cif
#   From: 2010.03.12/outbox.cif.g09.slc.cpg/sg54_1_cif.got.tgz:1024.got - 2010.04.16 15:00:50.
