data_PCOD8223825
_publ_section_title
;
Structure prediction by ZEFSAII (Michael W. Deem and Ramdas Pophale) SiO2 
 PCOD8223825
Probable space group: P C C A
;
_chemical_formula_sum "Si O2"
_cell_formula_units_Z 36
_cell_length_a 19.741436
_cell_length_b 5.314994
_cell_length_c 14.928730
_cell_angle_alpha 90.000000
_cell_angle_beta 90.000000
_cell_angle_gamma 90.000000
_cell_volume 1566.406160
_symmetry_space_group_name_H-M "P C C A"
_symmetry_group_IT_number 54
_symmetry_cell_setting 'orthorhombic'
loop_
_space_group_symop_operation_xyz
x,y,z
1/2-x,-y,z
1/2+x,-y,1/2-z
-x,y,1/2-z
-x,-y,-z
1/2+x,y,-z
1/2-x,y,1/2+z
x,-y,1/2+z
loop_
_atom_site_type_symbol
_atom_site_label
_atom_site_fract_x
_atom_site_fract_y
_atom_site_fract_z
Si Si1 0.750000 0.500000 0.132303
Si Si2 0.370069 0.201185 0.913191
Si Si3 0.579006 0.069576 0.401860
Si Si4 0.499106 0.443710 0.644417
Si Si5 0.822261 0.120840 0.743141
O O1 0.706626 0.691161 0.070880
O O2 0.692150 0.386606 0.196684
O O3 0.425926 0.415347 0.895807
O O4 0.369764 0.032354 0.824516
O O5 0.389015 0.036079 0.999741
O O6 0.527663 0.304848 0.404111
O O7 0.638512 0.151288 0.335202
O O8 0.544490 0.807243 0.375538
O O9 0.500000 0.495352 0.750000
O O10 0.750000 0.000000 0.763379
#
# Coordination Sequence:
#
# PCOD8223825 Si02
#       5
#     4   8   8   8   8
#     4  10  24  44  72  96 142 188 228 302 342 432
#     4  11  25  45  70 103 142 181 243 283 365 409
#     4  12  27  44  75 105 140 187 236 293 349 424
#     4  12  25  46  73 104 145 186 232 296 352 421
#     4  10  24  45  68 101 140 187 233 292 351 422
#
# _framework density 22.982544999999998
#
# number of rings (size 3 to 8) (size 9 to 14) (size 15 to 20)
#    0.000    0.889    2.222    3.333    9.333    3.556 
#    0.000    0.000    0.000    0.000    0.000    0.000 
#    0.000    0.000    0.000    0.000    0.000    0.000 
#
# Total GULP energy -446395.481257 kJ/mol
# GULP energy per Si atom -12399.874479 kJ/mol
# Density = 2.293024 g / cm^3
# Si number density = 22.982545 Si / 1000 Ang^3
#
#
#
# Elastic Constant Matrix: (Units=GPa)
#
#
# Indices 1 2 3 4 5 6 
#
# 1 91.6495 4.1183 36.5935 0.0000 0.0000 0.0000
# 2 4.1183 69.3957 -11.7868 0.0000 0.0000 0.0000
# 3 36.5935 -11.7868 93.5809 0.0000 0.0000 0.0000
# 4 0.0000 0.0000 0.0000 5.6882 0.0000 0.0000
# 5 0.0000 0.0000 0.0000 0.0000 22.0290 0.0000
# 6 0.0000 0.0000 0.0000 0.0000 0.0000 25.3635
#
#
#
# Elastic Compliance Matrix: (Units=1/GPa)
#
#
# Indices 1 2 3 4 5 6 
#
# 1 0.013120 -0.001686 -0.005343 0.000000 0.000000 0.000000
# 2 -0.001686 0.014942 0.002541 0.000000 0.000000 0.000000
# 3 -0.005343 0.002541 0.013095 0.000000 0.000000 0.000000
# 4 0.000000 0.000000 0.000000 0.175804 0.000000 0.000000
# 5 0.000000 0.000000 0.000000 0.000000 0.045395 0.000000
# 6 0.000000 0.000000 0.000000 0.000000 0.000000 0.039427
#
#
# Mechanical properties :
#
#
# Convention : Reuss Voigt Hill
#
# Bulk Modulus (GPa) = 31.07330 34.71959 32.89645
# Shear Modulus (GPa) = 15.55283 25.66287 20.60785
#
# Velocity S-wave (km/s) = 2.60421 3.34522 2.99770
# Velocity P-wave (km/s) = 4.75314 5.48273 5.13092
#
# Compressibility (1/GPa) = 0.03218197
#
# Stress axis : x y z
#
# Youngs Moduli (GPa) = 76.21854 66.92628 76.36345
#
# Poissons Ratio (x) = 0.11284 0.40800
# Poissons Ratio (y) = 0.12851 -0.19406
# Poissons Ratio (z) = 0.40722 -0.17008
#
# Static dielectric constant tensor:
#      x y z
#    x 4.325490 0.000000 0.000000 
#    y 0.000000 4.109050 0.000000 
#    z 0.000000 0.000000 4.103940 
# 
# 
# High freq. dielectric constant tensor:
#      x y z
#    x 1.925610 0.000000 0.000000 
#    y 0.000000 1.909230 0.000000 
#    z 0.000000 0.000000 1.905220 
# 
# From -- ./inp_files/14426.got.cif
#   From: 2010.03.12/outbox.cif.g09.slc.cpg/sg54_8_cif.got.tgz:14426.got - 2010.04.16 15:00:50.
