data_PCOD8223642
_publ_section_title
;
Structure prediction by ZEFSAII (Michael W. Deem and Ramdas Pophale) SiO2 
 PCOD8223642
Probable space group: P C C A
;
_chemical_formula_sum "Si O2"
_cell_formula_units_Z 40
_cell_length_a 8.447883
_cell_length_b 9.047919
_cell_length_c 24.014182
_cell_angle_alpha 90.000000
_cell_angle_beta 90.000000
_cell_angle_gamma 90.000000
_cell_volume 1835.542278
_symmetry_space_group_name_H-M "P C C A"
_symmetry_group_IT_number 54
_symmetry_cell_setting 'orthorhombic'
loop_
_space_group_symop_operation_xyz
x,y,z
1/2-x,-y,z
1/2+x,-y,1/2-z
-x,y,1/2-z
-x,-y,-z
1/2+x,y,-z
1/2-x,y,1/2+z
x,-y,1/2+z
loop_
_atom_site_type_symbol
_atom_site_label
_atom_site_fract_x
_atom_site_fract_y
_atom_site_fract_z
Si Si1 0.566690 0.524562 0.440554
Si Si2 0.750000 0.000000 0.484494
Si Si3 0.456215 0.849107 0.426858
Si Si4 0.414623 0.586801 0.840163
Si Si5 0.000000 0.377235 0.250000
Si Si6 0.717825 0.841864 0.189334
O O1 0.750000 0.500000 0.440569
O O2 0.500000 0.500000 0.500000
O O3 0.512505 0.683068 0.419767
O O4 0.491144 0.401754 0.400676
O O5 0.610492 0.944026 0.443983
O O6 0.820696 0.872325 0.525602
O O7 0.386430 0.883267 0.365555
O O8 0.250000 0.500000 0.841894
O O9 0.534371 0.492415 0.800669
O O10 0.382666 0.758072 0.824829
O O11 0.857938 0.267130 0.235155
O O12 0.750000 0.000000 0.218444
#
# Coordination Sequence:
#
# PCOD8223642 Si02
#       6
#     8   4   8   8   4   8
#     4  12  25  38  65 101 139 182 237 281 339 427
#     4  10  24  38  72  94 152 184 216 292 356 420
#     4  11  22  44  63 103 137 187 230 280 355 422
#     4  10  22  44  71  93 135 182 227 295 350 407
#     4  10  22  46  66  98 130 178 236 286 358 412
#     4  11  24  44  73 101 137 179 232 295 353 423
#
# _framework density 21.791924000000002
#
# number of rings (size 3 to 8) (size 9 to 14) (size 15 to 20)
#    0.000    1.200    5.000    1.800    2.800    4.800 
#    1.800    0.000    0.000    0.000    0.000    0.000 
#    0.000    0.000    0.000    0.000    0.000    0.000 
#
# Total GULP energy -495605.157055 kJ/mol
# GULP energy per Si atom -12390.128926 kJ/mol
# Density = 2.174232 g / cm^3
# Si number density = 21.791924 Si / 1000 Ang^3
#
#
#
# Elastic Constant Matrix: (Units=GPa)
#
#
# Indices 1 2 3 4 5 6 
#
# 1 87.3851 56.9263 45.3631 0.0000 0.0000 0.0000
# 2 56.9263 137.8780 39.2282 0.0000 0.0000 0.0000
# 3 45.3631 39.2282 113.4340 0.0000 0.0000 0.0000
# 4 0.0000 0.0000 0.0000 28.0194 0.0000 0.0000
# 5 0.0000 0.0000 0.0000 0.0000 39.1209 0.0000
# 6 0.0000 0.0000 0.0000 0.0000 0.0000 35.4250
#
#
#
# Elastic Compliance Matrix: (Units=1/GPa)
#
#
# Indices 1 2 3 4 5 6 
#
# 1 0.017997 -0.005970 -0.005133 0.000000 0.000000 0.000000
# 2 -0.005970 0.010025 -0.001079 0.000000 0.000000 0.000000
# 3 -0.005133 -0.001079 0.011241 0.000000 0.000000 0.000000
# 4 0.000000 0.000000 0.000000 0.035690 0.000000 0.000000
# 5 0.000000 0.000000 0.000000 0.000000 0.025562 0.000000
# 6 0.000000 0.000000 0.000000 0.000000 0.000000 0.028229
#
#
# Mechanical properties :
#
#
# Convention : Reuss Voigt Hill
#
# Bulk Modulus (GPa) = 67.11713 69.08136 68.09925
# Shear Modulus (GPa) = 31.63065 33.65834 32.64449
#
# Velocity S-wave (km/s) = 3.81397 3.93432 3.87461
# Velocity P-wave (km/s) = 7.08951 7.23932 7.16480
#
# Compressibility (1/GPa) = 0.01489932
#
# Stress axis : x y z
#
# Youngs Moduli (GPa) = 55.56378 99.75202 88.95624
#
# Poissons Ratio (x) = 0.59556 0.45657
# Poissons Ratio (y) = 0.33174 0.09601
# Poissons Ratio (z) = 0.28519 0.10766
#
# Static dielectric constant tensor:
#      x y z
#    x 4.121540 0.000000 0.000000 
#    y 0.000000 4.398010 0.000000 
#    z 0.000000 0.000000 3.993410 
# 
# 
# High freq. dielectric constant tensor:
#      x y z
#    x 1.848400 0.000000 0.000000 
#    y 0.000000 1.862610 0.000000 
#    z 0.000000 0.000000 1.857340 
# 
# From -- ./inp_files/23289.got.cif
#   From: 2010.03.12/outbox.cif.g09.slc.cpg/sg54_12_cif.got.tgz:23289.got - 2010.04.16 15:00:50.
