data_PCOD8223314
_publ_section_title
;
Structure prediction by ZEFSAII (Michael W. Deem and Ramdas Pophale) SiO2 
 PCOD8223314
Probable space group: P C C A
;
_chemical_formula_sum "Si O2"
_cell_formula_units_Z 48
_cell_length_a 16.589003
_cell_length_b 8.621582
_cell_length_c 16.729396
_cell_angle_alpha 90.000000
_cell_angle_beta 90.000000
_cell_angle_gamma 90.000000
_cell_volume 2392.695927
_symmetry_space_group_name_H-M "P C C A"
_symmetry_group_IT_number 54
_symmetry_cell_setting 'orthorhombic'
loop_
_space_group_symop_operation_xyz
x,y,z
1/2-x,-y,z
1/2+x,-y,1/2-z
-x,y,1/2-z
-x,-y,-z
1/2+x,y,-z
1/2-x,y,1/2+z
x,-y,1/2+z
loop_
_atom_site_type_symbol
_atom_site_label
_atom_site_fract_x
_atom_site_fract_y
_atom_site_fract_z
Si Si1 0.973562 0.334476 0.028789
Si Si2 0.552319 0.161920 0.826294
Si Si3 0.671430 0.594911 0.130716
Si Si4 0.617593 0.671815 0.739395
Si Si5 0.220795 0.827774 0.749378
Si Si6 0.506784 0.811226 0.863187
O O1 0.881582 0.362454 0.054331
O O2 0.027696 0.271319 0.100799
O O3 0.982255 0.212071 0.957201
O O4 0.000000 0.500000 0.000000
O O5 0.500000 0.214209 0.750000
O O6 0.648076 0.183304 0.814037
O O7 0.536124 0.982200 0.843362
O O8 0.750000 0.500000 0.101894
O O9 0.624549 0.499159 0.200619
O O10 0.692803 0.763170 0.165177
O O11 0.703199 0.723282 0.776650
O O12 0.556841 0.679018 0.814564
O O13 0.585404 0.787732 0.668215
O O14 0.250000 0.000000 0.762229
#
# Coordination Sequence:
#
# PCOD8223314 Si02
#       6
#     8   8   8   8   8   8
#     4  12  26  42  65  99 136 173 219 275 334 407
#     4  12  23  42  70  96 125 176 226 276 336 404
#     4  10  23  42  64  98 133 179 225 269 341 396
#     4  10  21  40  68  92 127 176 215 277 331 399
#     4  11  21  41  69  96 125 167 235 278 326 399
#     4  11  22  42  67  95 135 171 222 276 340 398
#
# _framework density 20.061053000000001
#
# number of rings (size 3 to 8) (size 9 to 14) (size 15 to 20)
#    0.000    1.000    6.667    0.500    2.333    0.000 
#    3.000    0.000    0.000    0.000    0.000    0.000 
#    0.000    0.000    0.000    0.000    0.000    0.000 
#
# Total GULP energy -595033.552759 kJ/mol
# GULP energy per Si atom -12396.532349 kJ/mol
# Density = 2.001539 g / cm^3
# Si number density = 20.061053 Si / 1000 Ang^3
#
#
#
# Elastic Constant Matrix: (Units=GPa)
#
#
# Indices 1 2 3 4 5 6 
#
# 1 138.2457 37.7542 61.0278 0.0000 0.0000 0.0000
# 2 37.7542 62.4226 43.3028 0.0000 0.0000 0.0000
# 3 61.0278 43.3028 135.5495 0.0000 0.0000 0.0000
# 4 0.0000 0.0000 0.0000 19.9252 0.0000 0.0000
# 5 0.0000 0.0000 0.0000 0.0000 31.9002 0.0000
# 6 0.0000 0.0000 0.0000 0.0000 0.0000 31.1950
#
#
#
# Elastic Compliance Matrix: (Units=1/GPa)
#
#
# Indices 1 2 3 4 5 6 
#
# 1 0.009624 -0.003616 -0.003178 0.000000 0.000000 0.000000
# 2 -0.003616 0.021940 -0.005381 0.000000 0.000000 0.000000
# 3 -0.003178 -0.005381 0.010527 0.000000 0.000000 0.000000
# 4 0.000000 0.000000 0.000000 0.050188 0.000000 0.000000
# 5 0.000000 0.000000 0.000000 0.000000 0.031348 0.000000
# 6 0.000000 0.000000 0.000000 0.000000 0.000000 0.032056
#
#
# Mechanical properties :
#
#
# Convention : Reuss Voigt Hill
#
# Bulk Modulus (GPa) = 56.36615 68.93193 62.64904
# Shear Modulus (GPa) = 26.88963 29.54630 28.21796
#
# Velocity S-wave (km/s) = 3.66511 3.84190 3.75454
# Velocity P-wave (km/s) = 6.78741 7.35635 7.07760
#
# Compressibility (1/GPa) = 0.01774114
#
# Stress axis : x y z
#
# Youngs Moduli (GPa) = 103.90867 45.57956 94.99427
#
# Poissons Ratio (x) = 0.16483 0.30186
# Poissons Ratio (y) = 0.37577 0.51114
# Poissons Ratio (z) = 0.33018 0.24525
#
# Static dielectric constant tensor:
#      x y z
#    x 4.026910 0.000000 0.000000 
#    y 0.000000 3.687830 0.000000 
#    z 0.000000 0.000000 1.779600 
# 
# 
# High freq. dielectric constant tensor:
#      x y z
#    x 1.796350 0.000000 0.000000 
#    y 0.000000 1.793680 0.000000 
#    z 0.000000 0.000000 1.760550 
# 
# From -- ./inp_files/14147.got.cif
#   From: 2010.03.12/outbox.cif.g09.slc.cpg/sg54_8_cif.got.tgz:14147.got - 2010.04.16 15:00:50.
