data_PCOD8223458
_publ_section_title
;
Structure prediction by ZEFSAII (Michael W. Deem and Ramdas Pophale) SiO2 
 PCOD8223458
Probable space group: P C C A
;
_chemical_formula_sum "Si O2"
_cell_formula_units_Z 48
_cell_length_a 8.860704
_cell_length_b 18.440919
_cell_length_c 13.701320
_cell_angle_alpha 90.000000
_cell_angle_beta 90.000000
_cell_angle_gamma 90.000000
_cell_volume 2238.789176
_symmetry_space_group_name_H-M "P C C A"
_symmetry_group_IT_number 54
_symmetry_cell_setting 'orthorhombic'
loop_
_space_group_symop_operation_xyz
x,y,z
1/2-x,-y,z
1/2+x,-y,1/2-z
-x,y,1/2-z
-x,-y,-z
1/2+x,y,-z
1/2-x,y,1/2+z
x,-y,1/2+z
loop_
_atom_site_type_symbol
_atom_site_label
_atom_site_fract_x
_atom_site_fract_y
_atom_site_fract_z
Si Si1 0.092207 0.901495 0.149841
Si Si2 0.955933 0.609705 0.453541
Si Si3 0.423202 0.475098 0.849645
Si Si4 0.932242 0.059977 0.351779
Si Si5 0.707197 0.710503 0.494712
Si Si6 0.455215 0.812667 0.464066
O O1 0.272813 0.899867 0.164259
O O2 0.000000 0.889604 0.250000
O O3 0.067273 0.980395 0.097583
O O4 0.042801 0.836160 0.078185
O O5 0.934726 0.586173 0.567100
O O6 0.811176 0.659237 0.425199
O O7 0.969357 0.541810 0.382332
O O8 0.104961 0.658206 0.438787
O O9 0.250000 0.500000 0.835389
O O10 0.500000 0.445748 0.750000
O O11 0.000000 0.038789 0.250000
O O12 0.049517 0.113617 0.403652
O O13 0.600665 0.764802 0.434123
O O14 0.812337 0.762171 0.561461
#
# Coordination Sequence:
#
# PCOD8223458 Si02
#       6
#     8   8   8   8   8   8
#     4  10  22  39  60  87 118 156 205 260 308 351
#     4  10  22  45  63  88 128 160 196 246 300 340
#     4  11  24  40  69  97 121 157 203 245 294 348
#     4  10  22  39  60  87 118 156 205 260 308 351
#     4  10  22  39  65  84 124 166 196 242 298 366
#     4  11  21  41  61  87 117 162 208 244 301 363
#
# _framework density 21.440159999999999
#
# number of rings (size 3 to 8) (size 9 to 14) (size 15 to 20)
#    0.000    1.667    3.333    0.500    4.667    0.000 
#    0.000   10.000    0.000    0.000    0.000    0.000 
#    0.000    0.000    0.000    0.000    0.000    0.000 
#
# Total GULP energy -594667.431238 kJ/mol
# GULP energy per Si atom -12388.904817 kJ/mol
# Density = 2.139136 g / cm^3
# Si number density = 21.440160 Si / 1000 Ang^3
#
#
#
# Elastic Constant Matrix: (Units=GPa)
#
#
# Indices 1 2 3 4 5 6 
#
# 1 109.6644 36.4498 12.3922 0.0000 0.0000 0.0000
# 2 36.4498 102.7318 21.4484 0.0000 0.0000 0.0000
# 3 12.3922 21.4484 68.9988 0.0000 0.0000 0.0000
# 4 0.0000 0.0000 0.0000 15.6171 0.0000 0.0000
# 5 0.0000 0.0000 0.0000 0.0000 17.5207 0.0000
# 6 0.0000 0.0000 0.0000 0.0000 0.0000 38.0850
#
#
#
# Elastic Compliance Matrix: (Units=1/GPa)
#
#
# Indices 1 2 3 4 5 6 
#
# 1 0.010376 -0.003521 -0.000769 0.000000 0.000000 0.000000
# 2 -0.003521 0.011604 -0.002975 0.000000 0.000000 0.000000
# 3 -0.000769 -0.002975 0.015556 0.000000 0.000000 0.000000
# 4 0.000000 0.000000 0.000000 0.064032 0.000000 0.000000
# 5 0.000000 0.000000 0.000000 0.000000 0.057075 0.000000
# 6 0.000000 0.000000 0.000000 0.000000 0.000000 0.026257
#
#
# Mechanical properties :
#
#
# Convention : Reuss Voigt Hill
#
# Bulk Modulus (GPa) = 43.46587 46.88619 45.17603
# Shear Modulus (GPa) = 24.14300 28.31820 26.23060
#
# Velocity S-wave (km/s) = 3.35933 3.63823 3.50156
# Velocity P-wave (km/s) = 5.94676 6.29005 6.12081
#
# Compressibility (1/GPa) = 0.02300656
#
# Stress axis : x y z
#
# Youngs Moduli (GPa) = 96.37736 86.17417 64.28439
#
# Poissons Ratio (x) = 0.30341 0.04944
# Poissons Ratio (y) = 0.33933 0.19124
# Poissons Ratio (z) = 0.07412 0.25636
#
# Static dielectric constant tensor:
#      x y z
#    x 4.156060 0.000000 0.000000 
#    y 0.000000 4.123180 0.000000 
#    z 0.000000 0.000000 3.337820 
# 
# 
# High freq. dielectric constant tensor:
#      x y z
#    x 1.858650 0.000000 0.000000 
#    y 0.000000 1.864000 0.000000 
#    z 0.000000 0.000000 1.784360 
# 
# From -- ./inp_files/11712.got.cif
#   From: 2010.03.12/outbox.cif.g09.slc.cpg/sg54_6_cif.got.tgz:11712.got - 2010.04.16 15:00:50.
