data_PCOD8223149
_publ_section_title
;
Structure prediction by ZEFSAII (Michael W. Deem and Ramdas Pophale) SiO2 
 PCOD8223149
Probable space group: P C C A
;
_chemical_formula_sum "Si O2"
_cell_formula_units_Z 64
_cell_length_a 8.675331
_cell_length_b 20.446989
_cell_length_c 17.592233
_cell_angle_alpha 90.000000
_cell_angle_beta 90.000000
_cell_angle_gamma 90.000000
_cell_volume 3120.587652
_symmetry_space_group_name_H-M "P C C A"
_symmetry_group_IT_number 54
_symmetry_cell_setting 'orthorhombic'
loop_
_space_group_symop_operation_xyz
x,y,z
1/2-x,-y,z
1/2+x,-y,1/2-z
-x,y,1/2-z
-x,-y,-z
1/2+x,y,-z
1/2-x,y,1/2+z
x,-y,1/2+z
loop_
_atom_site_type_symbol
_atom_site_label
_atom_site_fract_x
_atom_site_fract_y
_atom_site_fract_z
Si Si1 0.432805 0.492869 0.330318
Si Si2 0.423332 0.618696 0.570675
Si Si3 0.060530 0.381181 0.094056
Si Si4 0.575125 0.245983 0.830527
Si Si5 0.398491 0.874058 0.069435
Si Si6 0.569378 0.993806 0.329867
Si Si7 0.435405 0.257671 0.169536
Si Si8 0.036363 0.873959 0.094335
O O1 0.250000 0.500000 0.326710
O O2 0.500000 0.469015 0.250000
O O3 0.481120 0.439971 0.392526
O O4 0.507084 0.561986 0.350281
O O5 0.462957 0.618291 0.482516
O O6 0.241035 0.609142 0.578792
O O7 0.475228 0.687092 0.607628
O O8 0.016895 0.314345 0.136273
O O9 0.500000 0.230464 0.750000
O O10 0.528386 0.189068 0.889458
O O11 0.756103 0.247474 0.819108
O O12 0.215224 0.872959 0.074299
O O13 0.469482 0.938699 0.107924
O O14 0.437561 0.873993 0.981480
O O15 0.500000 0.971649 0.250000
O O16 0.493930 0.061978 0.356806
O O17 0.750000 0.000000 0.318587
O O18 0.500000 0.280925 0.250000
O O19 0.512499 0.189773 0.142693
#
# Coordination Sequence:
#
# PCOD8223149 Si02
#       8
#     8   8   8   8   8   8   8   8
#     4  12  25  42  63  88 118 152 190 236 285 340
#     4  11  23  40  61  87 117 152 192 236 285 340
#     4  11  23  40  61  87 117 152 192 236 285 340
#     4  10  22  38  58  84 115 149 190 235 283 337
#     4  10  21  37  56  83 114 148 189 234 281 335
#     4  10  21  36  56  82 114 148 189 234 280 334
#     4  10  22  38  58  84 115 149 190 235 283 337
#     4  10  21  37  56  83 114 148 189 234 281 335
#
# _framework density 20.508956999999999
#
# number of rings (size 3 to 8) (size 9 to 14) (size 15 to 20)
#    0.000    1.500    0.000    4.875    0.000    6.000 
#    0.000    0.000    0.000    0.000    0.000    0.000 
#    0.000    0.000    0.000    0.000    0.000    0.000 
#
# Total GULP energy -793988.293436 kJ/mol
# GULP energy per Si atom -12406.067085 kJ/mol
# Density = 2.046228 g / cm^3
# Si number density = 20.508957 Si / 1000 Ang^3
#
#
#
# Elastic Constant Matrix: (Units=GPa)
#
#
# Indices 1 2 3 4 5 6 
#
# 1 48.6450 18.6635 12.9597 0.0000 0.0000 0.0000
# 2 18.6635 106.5245 0.7000 0.0000 0.0000 0.0000
# 3 12.9597 0.7000 86.0634 0.0000 0.0000 0.0000
# 4 0.0000 0.0000 0.0000 83.3808 0.0000 0.0000
# 5 0.0000 0.0000 0.0000 0.0000 47.7558 0.0000
# 6 0.0000 0.0000 0.0000 0.0000 0.0000 9.5791
#
#
#
# Elastic Compliance Matrix: (Units=1/GPa)
#
#
# Indices 1 2 3 4 5 6 
#
# 1 0.023010 -0.004009 -0.003432 0.000000 0.000000 0.000000
# 2 -0.004009 0.010086 0.000522 0.000000 0.000000 0.000000
# 3 -0.003432 0.000522 0.012132 0.000000 0.000000 0.000000
# 4 0.000000 0.000000 0.000000 0.011993 0.000000 0.000000
# 5 0.000000 0.000000 0.000000 0.000000 0.020940 0.000000
# 6 0.000000 0.000000 0.000000 0.000000 0.000000 0.104394
#
#
# Mechanical properties :
#
#
# Convention : Reuss Voigt Hill
#
# Bulk Modulus (GPa) = 31.85823 33.98659 32.92241
# Shear Modulus (GPa) = 24.17125 42.07043 33.12084
#
# Velocity S-wave (km/s) = 3.43676 4.53406 4.02300
# Velocity P-wave (km/s) = 5.59606 6.63460 6.13734
#
# Compressibility (1/GPa) = 0.03138906
#
# Stress axis : x y z
#
# Youngs Moduli (GPa) = 43.46017 99.14299 82.42704
#
# Poissons Ratio (x) = 0.39745 0.28291
# Poissons Ratio (y) = 0.17422 -0.04300
# Poissons Ratio (z) = 0.14917 -0.05172
#
# Static dielectric constant tensor:
#      x y z
#    x 3.500540 0.000000 0.000000 
#    y 0.000000 4.121280 0.000000 
#    z 0.000000 0.000000 3.742340 
# 
# 
# High freq. dielectric constant tensor:
#      x y z
#    x 1.794430 0.000000 0.000000 
#    y 0.000000 1.821550 0.000000 
#    z 0.000000 0.000000 1.814840 
# 
# From -- ./inp_files/16884.got.cif
#   From: 2010.03.12/outbox.cif.g09.slc.cpg/sg54_9_cif.got.tgz:16884.got - 2010.04.16 15:00:50.
