data_PCOD8223706
_publ_section_title
;
Structure prediction by ZEFSAII (Michael W. Deem and Ramdas Pophale) SiO2 
 PCOD8223706
Probable space group: P C C A
;
_chemical_formula_sum "Si O2"
_cell_formula_units_Z 24
_cell_length_a 5.289491
_cell_length_b 12.637233
_cell_length_c 13.635312
_cell_angle_alpha 90.000000
_cell_angle_beta 90.000000
_cell_angle_gamma 90.000000
_cell_volume 911.446025
_symmetry_space_group_name_H-M "P C C A"
_symmetry_group_IT_number 54
_symmetry_cell_setting 'orthorhombic'
loop_
_space_group_symop_operation_xyz
x,y,z
1/2-x,-y,z
1/2+x,-y,1/2-z
-x,y,1/2-z
-x,-y,-z
1/2+x,y,-z
1/2-x,y,1/2+z
x,-y,1/2+z
loop_
_atom_site_type_symbol
_atom_site_label
_atom_site_fract_x
_atom_site_fract_y
_atom_site_fract_z
Si Si1 0.824916 0.882098 0.542126
Si Si2 0.500000 0.684791 0.750000
Si Si3 0.500000 0.182749 0.750000
Si Si4 0.524995 0.381998 0.040688
O O1 0.544418 0.827676 0.527972
O O2 0.924343 0.885935 0.654335
O O3 0.750000 0.000000 0.504948
O O4 0.751269 0.750491 0.774820
O O5 0.452653 0.610031 0.842661
O O6 0.500000 0.500000 0.000000
O O7 0.274771 0.321792 0.000619
#
# Coordination Sequence:
#
# PCOD8223706 Si02
#       4
#     8   4   4   8
#     4  10  23  43  67  95 130 175 221 262 317 395
#     4  12  26  41  63 100 132 170 222 278 342 393
#     4  12  26  41  67 100 138 172 214 282 340 391
#     4  10  23  42  66  91 124 170 219 274 330 400
#
# _framework density 26.331785
#
# number of rings (size 3 to 8) (size 9 to 14) (size 15 to 20)
#    0.000    1.333    0.000    4.000    0.000   18.667 
#    0.000    0.000    0.000    0.000    0.000    0.000 
#    0.000    0.000    0.000    0.000    0.000    0.000 
#
# Total GULP energy -297455.801152 kJ/mol
# GULP energy per Si atom -12393.991715 kJ/mol
# Density = 2.627185 g / cm^3
# Si number density = 26.331785 Si / 1000 Ang^3
#
#
#
# Elastic Constant Matrix: (Units=GPa)
#
#
# Indices 1 2 3 4 5 6 
#
# 1 303.0355 60.4338 95.0098 0.0000 0.0000 0.0000
# 2 60.4338 41.9170 21.8933 0.0000 0.0000 0.0000
# 3 95.0098 21.8933 233.0719 0.0000 0.0000 0.0000
# 4 0.0000 0.0000 0.0000 161.5308 0.0000 0.0000
# 5 0.0000 0.0000 0.0000 0.0000 56.1946 0.0000
# 6 0.0000 0.0000 0.0000 0.0000 0.0000 -15.0745
#
#
#
# Elastic Compliance Matrix: (Units=1/GPa)
#
#
# Indices 1 2 3 4 5 6 
#
# 1 0.005057 -0.006535 -0.001448 0.000000 0.000000 0.000000
# 2 -0.006535 0.033532 -0.000486 0.000000 0.000000 0.000000
# 3 -0.001448 -0.000486 0.004926 0.000000 0.000000 0.000000
# 4 0.000000 0.000000 0.000000 0.006191 0.000000 0.000000
# 5 0.000000 0.000000 0.000000 0.000000 0.017795 0.000000
# 6 0.000000 0.000000 0.000000 0.000000 0.000000 -0.066337
#
#
# Mechanical properties :
#
#
# Convention : Reuss Voigt Hill
#
# Bulk Modulus (GPa) = 37.62422 103.63315 70.62869
# Shear Modulus (GPa) = 185.45544 67.24270 126.34907
#
# Velocity S-wave (km/s) = 8.40138 5.05887 6.93453
# Velocity P-wave (km/s) = 10.41299 8.57700 9.53927
#
# Compressibility (1/GPa) = 0.02657862
#
# Stress axis : x y z
#
# Youngs Moduli (GPa) = 197.74351 29.82213 202.99323
#
# Poissons Ratio (x) = 0.19489 0.29386
# Poissons Ratio (y) = 1.29224 0.09863
# Poissons Ratio (z) = 0.28626 0.01449
#
# Static dielectric constant tensor:
#      x y z
#    x 20.441940 0.000000 0.000000 
#    y 0.000000 4.350540 0.000000 
#    z 0.000000 0.000000 4.605710 
# 
# 
# High freq. dielectric constant tensor:
#      x y z
#    x 2.115710 0.000000 0.000000 
#    y 0.000000 2.066770 0.000000 
#    z 0.000000 0.000000 2.046890 
# 
# From -- ./inp_files/6199.got.cif
#   From: 2010.03.12/outbox.cif.g09.slc.cpg/sg54_4_cif.got.tgz:6199.got - 2010.04.16 15:00:50.
