data_PCOD8223539
_publ_section_title
;
Structure prediction by ZEFSAII (Michael W. Deem and Ramdas Pophale) SiO2 
 PCOD8223539
Probable space group: P C C A
;
_chemical_formula_sum "Si O2"
_cell_formula_units_Z 36
_cell_length_a 4.956781
_cell_length_b 25.220204
_cell_length_c 13.278885
_cell_angle_alpha 90.000000
_cell_angle_beta 90.000000
_cell_angle_gamma 90.000000
_cell_volume 1660.007065
_symmetry_space_group_name_H-M "P C C A"
_symmetry_group_IT_number 54
_symmetry_cell_setting 'orthorhombic'
loop_
_space_group_symop_operation_xyz
x,y,z
1/2-x,-y,z
1/2+x,-y,1/2-z
-x,y,1/2-z
-x,-y,-z
1/2+x,y,-z
1/2-x,y,1/2+z
x,-y,1/2+z
loop_
_atom_site_type_symbol
_atom_site_label
_atom_site_fract_x
_atom_site_fract_y
_atom_site_fract_z
Si Si1 0.000000 0.304392 0.250000
Si Si2 0.770413 0.437887 0.936749
Si Si3 0.033084 0.109809 0.066200
Si Si4 0.037226 0.769295 0.566258
Si Si5 0.500000 0.035471 0.750000
Si Si6 0.500000 0.373911 0.250000
O O1 0.892987 0.268557 0.341152
O O2 0.747434 0.338574 0.209420
O O3 0.750000 0.500000 0.914214
O O4 0.867024 0.409764 0.836033
O O5 0.472326 0.421223 0.972600
O O6 0.067360 0.170214 0.103972
O O7 0.100079 0.071643 0.158322
O O8 0.234230 0.098380 0.973987
O O9 0.239129 0.757688 0.474422
O O10 0.750000 0.000000 0.714459
#
# Coordination Sequence:
#
# PCOD8223539 Si02
#       6
#     4   8   8   8   4   4
#     4  12  25  39  60  94 128 159 195 246 310 364
#     4  10  23  43  65  88 118 160 205 246 290 348
#     4  10  22  41  63  86 116 159 207 250 295 357
#     4  10  22  41  64  87 118 162 206 248 295 357
#     4  12  25  38  59  90 123 158 195 250 314 364
#     4  12  26  39  63  96 127 161 196 250 310 360
#
# _framework density 21.686654999999998
#
# number of rings (size 3 to 8) (size 9 to 14) (size 15 to 20)
#    0.000    1.333    0.000    4.667    0.000   11.556 
#    0.000    8.889    0.000    0.000    0.000    0.000 
#    0.000    0.000    0.000    0.000    0.000    0.000 
#
# Total GULP energy -446522.656941 kJ/mol
# GULP energy per Si atom -12403.407137 kJ/mol
# Density = 2.163730 g / cm^3
# Si number density = 21.686655 Si / 1000 Ang^3
#
#
#
# Elastic Constant Matrix: (Units=GPa)
#
#
# Indices 1 2 3 4 5 6 
#
# 1 106.3046 43.1906 10.3574 0.0000 0.0000 0.0000
# 2 43.1906 100.2652 65.9706 0.0000 0.0000 0.0000
# 3 10.3574 65.9706 94.8537 0.0000 0.0000 0.0000
# 4 0.0000 0.0000 0.0000 64.1048 0.0000 0.0000
# 5 0.0000 0.0000 0.0000 0.0000 28.7841 0.0000
# 6 0.0000 0.0000 0.0000 0.0000 0.0000 33.4486
#
#
#
# Elastic Compliance Matrix: (Units=1/GPa)
#
#
# Indices 1 2 3 4 5 6 
#
# 1 0.012291 -0.008133 0.004315 0.000000 0.000000 0.000000
# 2 -0.008133 0.023770 -0.015644 0.000000 0.000000 0.000000
# 3 0.004315 -0.015644 0.020952 0.000000 0.000000 0.000000
# 4 0.000000 0.000000 0.000000 0.015599 0.000000 0.000000
# 5 0.000000 0.000000 0.000000 0.000000 0.034741 0.000000
# 6 0.000000 0.000000 0.000000 0.000000 0.000000 0.029897
#
#
# Mechanical properties :
#
#
# Convention : Reuss Voigt Hill
#
# Bulk Modulus (GPa) = 55.28660 60.05118 57.66889
# Shear Modulus (GPa) = 27.44150 37.39450 32.41800
#
# Velocity S-wave (km/s) = 3.56105 4.15698 3.87051
# Velocity P-wave (km/s) = 6.51589 7.12679 6.82818
#
# Compressibility (1/GPa) = 0.01808757
#
# Stress axis : x y z
#
# Youngs Moduli (GPa) = 81.35974 42.06919 47.72842
#
# Poissons Ratio (x) = 0.34217 -0.20593
# Poissons Ratio (y) = 0.66174 0.74667
# Poissons Ratio (z) = -0.35104 0.65814
#
# Static dielectric constant tensor:
#      x y z
#    x 4.140600 0.000000 0.000000 
#    y 0.000000 4.035420 0.000000 
#    z 0.000000 0.000000 3.532480 
# 
# 
# High freq. dielectric constant tensor:
#      x y z
#    x 1.869400 0.000000 0.000000 
#    y 0.000000 1.859850 0.000000 
#    z 0.000000 0.000000 1.841430 
# 
# From -- ./inp_files/6400.got.cif
#   From: 2010.03.12/outbox.cif.g09.slc.cpg/sg54_4_cif.got.tgz:6400.got - 2010.04.16 15:00:50.
