data_PCOD8223568
_publ_section_title
;
Structure prediction by ZEFSAII (Michael W. Deem and Ramdas Pophale) SiO2 
 PCOD8223568
Probable space group: P C C A
;
_chemical_formula_sum "Si O2"
_cell_formula_units_Z 40
_cell_length_a 9.457551
_cell_length_b 13.052693
_cell_length_c 14.942192
_cell_angle_alpha 90.000000
_cell_angle_beta 90.000000
_cell_angle_gamma 90.000000
_cell_volume 1844.561450
_symmetry_space_group_name_H-M "P C C A"
_symmetry_group_IT_number 54
_symmetry_cell_setting 'orthorhombic'
loop_
_space_group_symop_operation_xyz
x,y,z
1/2-x,-y,z
1/2+x,-y,1/2-z
-x,y,1/2-z
-x,-y,-z
1/2+x,y,-z
1/2-x,y,1/2+z
x,-y,1/2+z
loop_
_atom_site_type_symbol
_atom_site_label
_atom_site_fract_x
_atom_site_fract_y
_atom_site_fract_z
Si Si1 0.577609 0.900686 0.539193
Si Si2 0.808072 0.386753 0.324315
Si Si3 0.250000 0.000000 0.306132
Si Si4 0.500000 0.872479 0.250000
Si Si5 0.689082 0.767420 0.960781
Si Si6 0.903985 0.308893 0.142271
O O1 0.461823 0.815837 0.560640
O O2 0.690821 0.854886 0.468755
O O3 0.500000 0.000000 0.500000
O O4 0.659364 0.924503 0.631125
O O5 0.750000 0.500000 0.328508
O O6 0.712518 0.310539 0.380916
O O7 0.802538 0.343922 0.222841
O O8 0.967250 0.389809 0.364638
O O9 0.357955 0.940393 0.240623
O O10 0.520508 0.801454 0.162376
O O11 0.685292 0.700450 0.052236
#
# Coordination Sequence:
#
# PCOD8223568 Si02
#       6
#     8   8   4   4   8   8
#     4  12  23  42  67 104 140 185 237 281 344 415
#     4  10  24  45  71 101 134 182 230 293 361 419
#     4  12  24  40  64 100 142 186 242 280 350 406
#     4  10  22  42  62  96 138 184 228 288 336 410
#     4  12  23  46  73 103 141 190 228 293 351 418
#     4  10  23  47  67  94 146 174 234 297 352 413
#
# _framework density 21.685371
#
# number of rings (size 3 to 8) (size 9 to 14) (size 15 to 20)
#    0.000    1.200    6.000    0.000    2.800    4.800 
#    7.200    0.000    0.000    0.000    0.000    0.000 
#    0.000    0.000    0.000    0.000    0.000    0.000 
#
# Total GULP energy -496009.463947 kJ/mol
# GULP energy per Si atom -12400.236599 kJ/mol
# Density = 2.163601 g / cm^3
# Si number density = 21.685371 Si / 1000 Ang^3
#
#
#
# Elastic Constant Matrix: (Units=GPa)
#
#
# Indices 1 2 3 4 5 6 
#
# 1 132.7229 61.6920 45.9880 0.0000 0.0000 0.0000
# 2 61.6920 122.3511 43.5126 0.0000 0.0000 0.0000
# 3 45.9880 43.5126 84.7297 0.0000 0.0000 0.0000
# 4 0.0000 0.0000 0.0000 14.4231 0.0000 0.0000
# 5 0.0000 0.0000 0.0000 0.0000 40.5701 0.0000
# 6 0.0000 0.0000 0.0000 0.0000 0.0000 46.2597
#
#
#
# Elastic Compliance Matrix: (Units=1/GPa)
#
#
# Indices 1 2 3 4 5 6 
#
# 1 0.010722 -0.004082 -0.003723 0.000000 0.000000 0.000000
# 2 -0.004082 0.011554 -0.003718 0.000000 0.000000 0.000000
# 3 -0.003723 -0.003718 0.015732 0.000000 0.000000 0.000000
# 4 0.000000 0.000000 0.000000 0.069333 0.000000 0.000000
# 5 0.000000 0.000000 0.000000 0.000000 0.024649 0.000000
# 6 0.000000 0.000000 0.000000 0.000000 0.000000 0.021617
#
#
# Mechanical properties :
#
#
# Convention : Reuss Voigt Hill
#
# Bulk Modulus (GPa) = 66.83631 71.35431 69.09531
# Shear Modulus (GPa) = 27.52694 32.82464 30.17579
#
# Velocity S-wave (km/s) = 3.56670 3.89482 3.73437
# Velocity P-wave (km/s) = 6.91734 7.29397 7.10815
#
# Compressibility (1/GPa) = 0.01496193
#
# Stress axis : x y z
#
# Youngs Moduli (GPa) = 93.26603 86.55259 63.56391
#
# Poissons Ratio (x) = 0.35332 0.23665
# Poissons Ratio (y) = 0.38073 0.23631
# Poissons Ratio (z) = 0.34724 0.32177
#
# Static dielectric constant tensor:
#      x y z
#    x 4.175380 0.000000 0.000000 
#    y 0.000000 3.885840 0.000000 
#    z 0.000000 0.000000 3.776380 
# 
# 
# High freq. dielectric constant tensor:
#      x y z
#    x 1.861850 0.000000 0.000000 
#    y 0.000000 1.841780 0.000000 
#    z 0.000000 0.000000 1.844880 
# 
# From -- ./inp_files/16370.got.cif
#   From: 2010.03.12/outbox.cif.g09.slc.cpg/sg54_9_cif.got.tgz:16370.got - 2010.04.16 15:00:50.
