data_PCOD8223600
_publ_section_title
;
Structure prediction by ZEFSAII (Michael W. Deem and Ramdas Pophale) SiO2 
 PCOD8223600
Probable space group: P C C A
;
_chemical_formula_sum "Si O2"
_cell_formula_units_Z 32
_cell_length_a 14.178437
_cell_length_b 18.490443
_cell_length_c 5.150732
_cell_angle_alpha 90.000000
_cell_angle_beta 90.000000
_cell_angle_gamma 90.000000
_cell_volume 1350.344648
_symmetry_space_group_name_H-M "P C C A"
_symmetry_group_IT_number 54
_symmetry_cell_setting 'orthorhombic'
loop_
_space_group_symop_operation_xyz
x,y,z
1/2-x,-y,z
1/2+x,-y,1/2-z
-x,y,1/2-z
-x,-y,-z
1/2+x,y,-z
1/2-x,y,1/2+z
x,-y,1/2+z
loop_
_atom_site_type_symbol
_atom_site_label
_atom_site_fract_x
_atom_site_fract_y
_atom_site_fract_z
Si Si1 0.191976 0.800963 0.173924
Si Si2 0.060106 0.323518 0.508795
Si Si3 0.389234 0.956514 0.741354
Si Si4 0.644979 0.531229 0.100066
O O1 0.226443 0.783670 0.464755
O O2 0.103257 0.751791 0.103824
O O3 0.162714 0.883986 0.158525
O O4 0.141827 0.382710 0.449760
O O5 0.000000 0.354019 0.750000
O O6 0.000000 0.309339 0.250000
O O7 0.500000 0.941518 0.750000
O O8 0.359030 0.015891 0.526153
O O9 0.750000 0.500000 0.151703
O O10 0.592374 0.486884 0.870759
#
# Coordination Sequence:
#
# PCOD8223600 Si02
#       4
#     8   8   8   8
#     4  12  27  43  70 101 140 188 228 284 344 410
#     4  12  27  46  71 101 138 179 231 284 337 412
#     4  10  22  42  69  99 137 181 227 283 341 398
#     4  10  23  41  70  98 132 176 213 285 337 415
#
# _framework density 23.697652000000001
#
# number of rings (size 3 to 8) (size 9 to 14) (size 15 to 20)
#    0.000    1.000    0.000    5.250    7.000    9.000 
#    0.000    0.000    0.000    0.000    0.000    0.000 
#    0.000    0.000    0.000    0.000    0.000    0.000 
#
# Total GULP energy -396786.076553 kJ/mol
# GULP energy per Si atom -12399.564892 kJ/mol
# Density = 2.364372 g / cm^3
# Si number density = 23.697652 Si / 1000 Ang^3
#
#
#
# Elastic Constant Matrix: (Units=GPa)
#
#
# Indices 1 2 3 4 5 6 
#
# 1 64.3056 38.6322 25.3751 0.0000 0.0000 0.0000
# 2 38.6322 105.9904 25.8030 0.0000 0.0000 0.0000
# 3 25.3751 25.8030 178.1910 0.0000 0.0000 0.0000
# 4 0.0000 0.0000 0.0000 36.1574 0.0000 0.0000
# 5 0.0000 0.0000 0.0000 0.0000 -381.6706 0.0000
# 6 0.0000 0.0000 0.0000 0.0000 0.0000 29.7952
#
#
#
# Elastic Compliance Matrix: (Units=1/GPa)
#
#
# Indices 1 2 3 4 5 6 
#
# 1 0.020517 -0.007014 -0.001906 0.000000 0.000000 0.000000
# 2 -0.007014 0.012177 -0.000765 0.000000 0.000000 0.000000
# 3 -0.001906 -0.000765 0.005994 0.000000 0.000000 0.000000
# 4 0.000000 0.000000 0.000000 0.027657 0.000000 0.000000
# 5 0.000000 0.000000 0.000000 0.000000 -0.002620 0.000000
# 6 0.000000 0.000000 0.000000 0.000000 0.000000 0.033562
#
#
# Mechanical properties :
#
#
# Convention : Reuss Voigt Hill
#
# Bulk Modulus (GPa) = 51.76239 58.67862 55.22051
# Shear Modulus (GPa) = 40.61862 -45.89849 -2.63994
#
# Velocity S-wave (km/s) = 4.14458 -4.40573 -1.05661
# Velocity P-wave (km/s) = 6.69281 1.03220 4.67591
#
# Compressibility (1/GPa) = 0.01931904
#
# Stress axis : x y z
#
# Youngs Moduli (GPa) = 48.74102 82.11881 166.83118
#
# Poissons Ratio (x) = 0.57599 0.31798
# Poissons Ratio (y) = 0.34187 0.12755
# Poissons Ratio (z) = 0.09290 0.06278
#
# Static dielectric constant tensor:
#      x y z
#    x 4.420600 0.000000 0.000000 
#    y 0.000000 4.102890 0.000000 
#    z 0.000000 0.000000 5.148090 
# 
# 
# High freq. dielectric constant tensor:
#      x y z
#    x 1.929570 0.000000 0.000000 
#    y 0.000000 1.939630 0.000000 
#    z 0.000000 0.000000 1.973550 
# 
# From -- ./inp_files/418.got.cif
#   From: 2010.03.12/outbox.cif.g09.slc.cpg/sg54_1_cif.got.tgz:418.got - 2010.04.16 15:00:50.
