data_PCOD8223235
_publ_section_title
;
Structure prediction by ZEFSAII (Michael W. Deem and Ramdas Pophale) SiO2 
 PCOD8223235
Probable space group: P C C A
;
_chemical_formula_sum "Si O2"
_cell_formula_units_Z 52
_cell_length_a 5.045033
_cell_length_b 21.769208
_cell_length_c 24.349026
_cell_angle_alpha 90.000000
_cell_angle_beta 90.000000
_cell_angle_gamma 90.000000
_cell_volume 2674.165205
_symmetry_space_group_name_H-M "P C C A"
_symmetry_group_IT_number 54
_symmetry_cell_setting 'orthorhombic'
loop_
_space_group_symop_operation_xyz
x,y,z
1/2-x,-y,z
1/2+x,-y,1/2-z
-x,y,1/2-z
-x,-y,-z
1/2+x,y,-z
1/2-x,y,1/2+z
x,-y,1/2+z
loop_
_atom_site_type_symbol
_atom_site_label
_atom_site_fract_x
_atom_site_fract_y
_atom_site_fract_z
Si Si1 0.750000 0.500000 0.363218
Si Si2 0.252447 0.386923 0.212718
Si Si3 0.878303 0.738193 0.846679
Si Si4 0.247982 0.934289 0.288436
Si Si5 0.053330 0.295890 0.034549
Si Si6 0.936142 0.438897 0.463845
Si Si7 0.118992 0.805553 0.310446
O O1 0.847307 0.555577 0.324541
O O2 0.976451 0.473133 0.404814
O O3 0.500000 0.367531 0.250000
O O4 0.187005 0.329865 0.173912
O O5 0.000000 0.405498 0.250000
O O6 0.986834 0.739057 0.908508
O O7 0.611683 0.779058 0.848930
O O8 0.115027 0.764848 0.809653
O O9 0.500000 0.920980 0.250000
O O10 0.201198 0.875336 0.328096
O O11 0.000000 0.942648 0.250000
O O12 0.250000 0.000000 0.321417
O O13 0.040320 0.367510 0.048509
O O14 0.328926 0.276165 0.007868
O O15 0.643807 0.456066 0.488316
O O16 0.000000 0.805143 0.250000
#
# Coordination Sequence:
#
# PCOD8223235 Si02
#       7
#     4   8   8   8   8   8   8
#     4  12  24  44  58  82 104 142 180 226 282 336
#     4  12  27  42  56  77 108 147 186 225 265 326
#     4  12  22  39  58  82 110 149 186 232 276 325
#     4   9  17  30  49  77 115 155 189 225 264 303
#     4  10  21  39  59  83 107 134 175 231 294 343
#     4  10  22  39  62  85 103 126 171 229 290 346
#     4  11  21  34  57  84 118 154 192 218 260 323
#
# _framework density 19.445319999999999
#
# number of rings (size 3 to 8) (size 9 to 14) (size 15 to 20)
#    0.000    1.231    1.538    6.462    0.000    2.462 
#    0.000    0.000    0.000    0.000    0.000    0.000 
#    0.000   12.308    0.000    0.000    0.000    0.000 
#
# Total GULP energy -644551.740343 kJ/mol
# GULP energy per Si atom -12395.225776 kJ/mol
# Density = 1.940106 g / cm^3
# Si number density = 19.445320 Si / 1000 Ang^3
#
#
#
# Elastic Constant Matrix: (Units=GPa)
#
#
# Indices 1 2 3 4 5 6 
#
# 1 110.8455 33.6798 19.3563 0.0000 0.0000 0.0000
# 2 33.6798 124.0141 36.0373 0.0000 0.0000 0.0000
# 3 19.3563 36.0373 82.9022 0.0000 0.0000 0.0000
# 4 0.0000 0.0000 0.0000 10.5781 0.0000 0.0000
# 5 0.0000 0.0000 0.0000 0.0000 456.0740 0.0000
# 6 0.0000 0.0000 0.0000 0.0000 0.0000 25.4229
#
#
#
# Elastic Compliance Matrix: (Units=1/GPa)
#
#
# Indices 1 2 3 4 5 6 
#
# 1 0.009957 -0.002322 -0.001315 0.000000 0.000000 0.000000
# 2 -0.002322 0.009771 -0.003705 0.000000 0.000000 0.000000
# 3 -0.001315 -0.003705 0.013980 0.000000 0.000000 0.000000
# 4 0.000000 0.000000 0.000000 0.094535 0.000000 0.000000
# 5 0.000000 0.000000 0.000000 0.000000 0.002193 0.000000
# 6 0.000000 0.000000 0.000000 0.000000 0.000000 0.039335
#
#
# Mechanical properties :
#
#
# Convention : Reuss Voigt Hill
#
# Bulk Modulus (GPa) = 52.56852 55.10095 53.83473
# Shear Modulus (GPa) = 26.20605 113.66089 69.93347
#
# Velocity S-wave (km/s) = 3.67506 7.65365 6.00352
# Velocity P-wave (km/s) = 6.71571 10.32000 8.70641
#
# Compressibility (1/GPa) = 0.01902279
#
# Stress axis : x y z
#
# Youngs Moduli (GPa) = 100.43442 102.34507 71.52967
#
# Poissons Ratio (x) = 0.23762 0.09409
# Poissons Ratio (y) = 0.23319 0.26504
# Poissons Ratio (z) = 0.13212 0.37922
#
# Static dielectric constant tensor:
#      x y z
#    x 3.722610 0.000000 0.000000 
#    y 0.000000 4.169480 0.000000 
#    z 0.000000 0.000000 3.349690 
# 
# 
# High freq. dielectric constant tensor:
#      x y z
#    x 1.772260 0.000000 0.000000 
#    y 0.000000 1.758250 0.000000 
#    z 0.000000 0.000000 1.726490 
# 
# From -- ./inp_files/19821.got.cif
#   From: 2010.03.12/outbox.cif.g09.slc.cpg/sg54_10_cif.got.tgz:19821.got - 2010.04.16 15:00:50.
