data_PCOD8223654
_publ_section_title
;
Structure prediction by ZEFSAII (Michael W. Deem and Ramdas Pophale) SiO2 
 PCOD8223654
Probable space group: P C C A
;
_chemical_formula_sum "Si O2"
_cell_formula_units_Z 28
_cell_length_a 10.235485
_cell_length_b 8.649202
_cell_length_c 13.661462
_cell_angle_alpha 90.000000
_cell_angle_beta 90.000000
_cell_angle_gamma 90.000000
_cell_volume 1209.432527
_symmetry_space_group_name_H-M "P C C A"
_symmetry_group_IT_number 54
_symmetry_cell_setting 'orthorhombic'
loop_
_space_group_symop_operation_xyz
x,y,z
1/2-x,-y,z
1/2+x,-y,1/2-z
-x,y,1/2-z
-x,-y,-z
1/2+x,y,-z
1/2-x,y,1/2+z
x,-y,1/2+z
loop_
_atom_site_type_symbol
_atom_site_label
_atom_site_fract_x
_atom_site_fract_y
_atom_site_fract_z
Si Si1 0.109781 0.457914 0.919559
Si Si2 0.626979 0.896318 0.596573
Si Si3 0.000000 0.342357 0.250000
Si Si4 0.117600 0.077364 0.134604
O O1 0.250000 0.500000 0.967017
O O2 0.122129 0.284138 0.878863
O O3 0.086537 0.557342 0.822821
O O4 0.000000 0.500000 0.000000
O O5 0.619593 0.898926 0.480472
O O6 0.750000 0.000000 0.631829
O O7 0.506370 0.968875 0.655846
O O8 0.897585 0.240430 0.311757
O O9 0.250000 0.000000 0.173731
#
# Coordination Sequence:
#
# PCOD8223654 Si02
#       4
#     8   8   4   8
#     4  12  28  47  74 108 152 195 247 310 375 438
#     4  10  22  45  73 102 138 194 242 293 366 437
#     4  12  26  46  70 118 148 188 246 312 374 440
#     4  10  23  42  74 101 141 186 242 297 358 442
#
# _framework density 23.151353
#
# number of rings (size 3 to 8) (size 9 to 14) (size 15 to 20)
#    0.000    1.143    2.857    1.714    8.000    8.000 
#    0.000    0.000    0.000    0.000    0.000    0.000 
#    0.000    0.000    0.000    0.000    0.000    0.000 
#
# Total GULP energy -347115.462537 kJ/mol
# GULP energy per Si atom -12396.980805 kJ/mol
# Density = 2.309866 g / cm^3
# Si number density = 23.151353 Si / 1000 Ang^3
#
#
#
# Elastic Constant Matrix: (Units=GPa)
#
#
# Indices 1 2 3 4 5 6 
#
# 1 225.2192 95.8461 47.3140 0.0000 0.0000 0.0000
# 2 95.8461 212.3187 46.8086 0.0000 0.0000 0.0000
# 3 47.3140 46.8086 82.3837 0.0000 0.0000 0.0000
# 4 0.0000 0.0000 0.0000 50.1922 0.0000 0.0000
# 5 0.0000 0.0000 0.0000 0.0000 -45.7487 0.0000
# 6 0.0000 0.0000 0.0000 0.0000 0.0000 38.0730
#
#
#
# Elastic Compliance Matrix: (Units=1/GPa)
#
#
# Indices 1 2 3 4 5 6 
#
# 1 0.005799 -0.002153 -0.002107 0.000000 0.000000 0.000000
# 2 -0.002153 0.006184 -0.002277 0.000000 0.000000 0.000000
# 3 -0.002107 -0.002277 0.014642 0.000000 0.000000 0.000000
# 4 0.000000 0.000000 0.000000 0.019923 0.000000 0.000000
# 5 0.000000 0.000000 0.000000 0.000000 -0.021859 0.000000
# 6 0.000000 0.000000 0.000000 0.000000 0.000000 0.026265
#
#
# Mechanical properties :
#
#
# Convention : Reuss Voigt Hill
#
# Bulk Modulus (GPa) = 73.79725 99.98435 86.89080
# Shear Modulus (GPa) = 72.94280 30.50016 51.72148
#
# Velocity S-wave (km/s) = 5.61919 3.63357 4.73171
# Velocity P-wave (km/s) = 8.60498 7.80287 8.21372
#
# Compressibility (1/GPa) = 0.01355064
#
# Stress axis : x y z
#
# Youngs Moduli (GPa) = 172.43840 161.70878 68.29626
#
# Poissons Ratio (x) = 0.34822 0.14390
# Poissons Ratio (y) = 0.37132 0.15550
# Poissons Ratio (z) = 0.36333 0.36819
#
# Static dielectric constant tensor:
#      x y z
#    x 4.416610 0.000000 0.000000 
#    y 0.000000 4.408100 0.000000 
#    z 0.000000 0.000000 4.109610 
# 
# 
# High freq. dielectric constant tensor:
#      x y z
#    x 1.921850 0.000000 0.000000 
#    y 0.000000 1.926680 0.000000 
#    z 0.000000 0.000000 1.928750 
# 
# From -- ./inp_files/16179.got.cif
#   From: 2010.03.12/outbox.cif.g09.slc.cpg/sg54_9_cif.got.tgz:16179.got - 2010.04.16 15:00:50.
