data_PCOD8223297
_publ_section_title
;
Structure prediction by ZEFSAII (Michael W. Deem and Ramdas Pophale) SiO2 
 PCOD8223297
Probable space group: P C C A
;
_chemical_formula_sum "Si O2"
_cell_formula_units_Z 40
_cell_length_a 23.647381
_cell_length_b 5.731068
_cell_length_c 13.204916
_cell_angle_alpha 90.000000
_cell_angle_beta 90.000000
_cell_angle_gamma 90.000000
_cell_volume 1789.592920
_symmetry_space_group_name_H-M "P C C A"
_symmetry_group_IT_number 54
_symmetry_cell_setting 'orthorhombic'
loop_
_space_group_symop_operation_xyz
x,y,z
1/2-x,-y,z
1/2+x,-y,1/2-z
-x,y,1/2-z
-x,-y,-z
1/2+x,y,-z
1/2-x,y,1/2+z
x,-y,1/2+z
loop_
_atom_site_type_symbol
_atom_site_label
_atom_site_fract_x
_atom_site_fract_y
_atom_site_fract_z
Si Si1 0.390755 0.278937 0.197456
Si Si2 0.968151 0.247597 0.985792
Si Si3 0.190309 0.891826 0.743275
Si Si4 0.375733 0.427175 0.878610
Si Si5 0.811678 0.423628 0.438954
O O1 0.410624 0.442714 0.290335
O O2 0.339040 0.381000 0.132596
O O3 0.364975 0.052296 0.250447
O O4 0.445446 0.234382 0.128951
O O5 0.917303 0.244321 0.066702
O O6 0.000000 0.500000 0.000000
O O7 0.000000 0.000000 0.000000
O O8 0.178617 0.693946 0.826824
O O9 0.192885 0.810724 0.626335
O O10 0.250000 0.000000 0.775427
O O11 0.350967 0.609870 0.961887
O O12 0.750000 0.500000 0.474409
#
# Coordination Sequence:
#
# PCOD8223297 Si02
#       5
#     8   8   8   8   8
#     4  10  24  45  69 102 142 177 240 299 343 439
#     4  11  28  52  76 104 143 192 245 311 372 416
#     4  11  23  42  70 103 144 186 229 291 362 436
#     4  10  26  43  70 105 138 185 244 292 356 444
#     4  10  21  40  63  98 146 183 222 282 356 425
#
# _framework density 22.351451999999998
#
# number of rings (size 3 to 8) (size 9 to 14) (size 15 to 20)
#    0.000    1.600    2.000    0.000   14.000    2.400 
#    0.000    0.000    0.000    0.000    0.000    0.000 
#    0.000    0.000    0.000    0.000    0.000    0.000 
#
# Total GULP energy -495693.181967 kJ/mol
# GULP energy per Si atom -12392.329549 kJ/mol
# Density = 2.230058 g / cm^3
# Si number density = 22.351452 Si / 1000 Ang^3
#
#
#
# Elastic Constant Matrix: (Units=GPa)
#
#
# Indices 1 2 3 4 5 6 
#
# 1 91.1464 36.3738 49.4765 0.0000 0.0000 0.0000
# 2 36.3738 100.3544 38.3814 0.0000 0.0000 0.0000
# 3 49.4765 38.3814 150.1939 0.0000 0.0000 0.0000
# 4 0.0000 0.0000 0.0000 26.1772 0.0000 0.0000
# 5 0.0000 0.0000 0.0000 0.0000 14.4670 0.0000
# 6 0.0000 0.0000 0.0000 0.0000 0.0000 40.5121
#
#
#
# Elastic Compliance Matrix: (Units=1/GPa)
#
#
# Indices 1 2 3 4 5 6 
#
# 1 0.014571 -0.003819 -0.003824 0.000000 0.000000 0.000000
# 2 -0.003819 0.012045 -0.001820 0.000000 0.000000 0.000000
# 3 -0.003824 -0.001820 0.008383 0.000000 0.000000 0.000000
# 4 0.000000 0.000000 0.000000 0.038201 0.000000 0.000000
# 5 0.000000 0.000000 0.000000 0.000000 0.069123 0.000000
# 6 0.000000 0.000000 0.000000 0.000000 0.000000 0.024684
#
#
# Mechanical properties :
#
#
# Convention : Reuss Voigt Hill
#
# Bulk Modulus (GPa) = 62.21598 65.57312 63.89455
# Shear Modulus (GPa) = 26.13826 30.72881 28.43353
#
# Velocity S-wave (km/s) = 3.42339 3.71185 3.57054
# Velocity P-wave (km/s) = 6.59711 6.91169 6.75623
#
# Compressibility (1/GPa) = 0.01607304
#
# Stress axis : x y z
#
# Youngs Moduli (GPa) = 68.62870 83.02262 119.29053
#
# Poissons Ratio (x) = 0.31705 0.45618
# Poissons Ratio (y) = 0.26208 0.21711
# Poissons Ratio (z) = 0.26244 0.15110
#
# Static dielectric constant tensor:
#      x y z
#    x 3.940520 0.000000 0.000000 
#    y 0.000000 4.007210 0.000000 
#    z 0.000000 0.000000 4.232130 
# 
# 
# High freq. dielectric constant tensor:
#      x y z
#    x 1.874210 0.000000 0.000000 
#    y 0.000000 1.869460 0.000000 
#    z 0.000000 0.000000 1.897040 
# 
# From -- ./inp_files/10141.got.cif
#   From: 2010.03.12/outbox.cif.g09.slc.cpg/sg54_6_cif.got.tgz:10141.got - 2010.04.16 15:00:50.
