data_PCOD8223356
_publ_section_title
;
Structure prediction by ZEFSAII (Michael W. Deem and Ramdas Pophale) SiO2 
 PCOD8223356
Probable space group: P C C A
;
_chemical_formula_sum "Si O2"
_cell_formula_units_Z 40
_cell_length_a 28.000540
_cell_length_b 6.349059
_cell_length_c 10.023064
_cell_angle_alpha 90.000000
_cell_angle_beta 90.000000
_cell_angle_gamma 90.000000
_cell_volume 1781.871056
_symmetry_space_group_name_H-M "P C C A"
_symmetry_group_IT_number 54
_symmetry_cell_setting 'orthorhombic'
loop_
_space_group_symop_operation_xyz
x,y,z
1/2-x,-y,z
1/2+x,-y,1/2-z
-x,y,1/2-z
-x,-y,-z
1/2+x,y,-z
1/2-x,y,1/2+z
x,-y,1/2+z
loop_
_atom_site_type_symbol
_atom_site_label
_atom_site_fract_x
_atom_site_fract_y
_atom_site_fract_z
Si Si1 0.046920 0.617830 0.179844
Si Si2 0.703132 0.619206 0.754276
Si Si3 0.070387 0.328491 0.392221
Si Si4 0.500000 0.023376 0.750000
Si Si5 0.250000 0.000000 0.373199
Si Si6 0.171630 0.694341 0.968049
O O1 0.084759 0.503797 0.278855
O O2 0.000000 0.512371 0.250000
O O3 0.040834 0.872743 0.182655
O O4 0.053973 0.547255 0.027073
O O5 0.750000 0.500000 0.807258
O O6 0.716279 0.858036 0.718631
O O7 0.682349 0.506070 0.624198
O O8 0.666140 0.620546 0.878043
O O9 0.120297 0.208629 0.425445
O O10 0.029313 0.160728 0.355998
O O11 0.214538 0.138256 0.463793
#
# Coordination Sequence:
#
# PCOD8223356 Si02
#       6
#     8   8   8   4   4   8
#     4  10  24  41  67  87 127 166 207 262 315 369
#     4  10  21  42  64  91 124 166 205 258 318 371
#     4  12  23  42  63  96 124 166 211 259 317 375
#     4  10  24  40  66  88 126 166 210 260 310 372
#     4  10  22  42  66  92 126 168 204 262 314 372
#     4  11  24  39  66  93 128 161 212 258 312 381
#
# _framework density 22.448312999999999
#
# number of rings (size 3 to 8) (size 9 to 14) (size 15 to 20)
#    0.600    0.800    1.000    4.800    0.000    4.800 
#    0.000    0.000    0.000    0.000    0.000    0.000 
#    0.000    0.000    0.000    0.000    0.000    0.000 
#
# Total GULP energy -495543.900476 kJ/mol
# GULP energy per Si atom -12388.597512 kJ/mol
# Density = 2.239722 g / cm^3
# Si number density = 22.448313 Si / 1000 Ang^3
#
#
#
# Elastic Constant Matrix: (Units=GPa)
#
#
# Indices 1 2 3 4 5 6 
#
# 1 68.5166 18.8416 21.9053 0.0000 0.0000 0.0000
# 2 18.8416 107.1291 53.1068 0.0000 0.0000 0.0000
# 3 21.9053 53.1068 167.9254 0.0000 0.0000 0.0000
# 4 0.0000 0.0000 0.0000 17.8475 0.0000 0.0000
# 5 0.0000 0.0000 0.0000 0.0000 22.7600 0.0000
# 6 0.0000 0.0000 0.0000 0.0000 0.0000 24.8991
#
#
#
# Elastic Compliance Matrix: (Units=1/GPa)
#
#
# Indices 1 2 3 4 5 6 
#
# 1 0.015604 -0.002058 -0.001385 0.000000 0.000000 0.000000
# 2 -0.002058 0.011341 -0.003318 0.000000 0.000000 0.000000
# 3 -0.001385 -0.003318 0.007185 0.000000 0.000000 0.000000
# 4 0.000000 0.000000 0.000000 0.056030 0.000000 0.000000
# 5 0.000000 0.000000 0.000000 0.000000 0.043937 0.000000
# 6 0.000000 0.000000 0.000000 0.000000 0.000000 0.040162
#
#
# Mechanical properties :
#
#
# Convention : Reuss Voigt Hill
#
# Bulk Modulus (GPa) = 48.52387 59.03093 53.77740
# Shear Modulus (GPa) = 25.68707 29.74914 27.71811
#
# Velocity S-wave (km/s) = 3.38639 3.64432 3.51772
# Velocity P-wave (km/s) = 6.07889 6.63789 6.36453
#
# Compressibility (1/GPa) = 0.02060842
#
# Stress axis : x y z
#
# Youngs Moduli (GPa) = 64.08778 88.17208 139.17750
#
# Poissons Ratio (x) = 0.18145 0.19271
# Poissons Ratio (y) = 0.13189 0.46183
# Poissons Ratio (z) = 0.08874 0.29258
#
# Static dielectric constant tensor:
#      x y z
#    x 4.148710 0.000000 0.000000 
#    y 0.000000 3.849900 0.000000 
#    z 0.000000 0.000000 4.062640 
# 
# 
# High freq. dielectric constant tensor:
#      x y z
#    x 1.885550 0.000000 0.000000 
#    y 0.000000 1.866120 0.000000 
#    z 0.000000 0.000000 1.892590 
# 
# From -- ./inp_files/10454.got.cif
#   From: 2010.03.12/outbox.cif.g09.slc.cpg/sg54_6_cif.got.tgz:10454.got - 2010.04.16 15:00:50.
