data_PCOD8223116
_publ_section_title
;
Structure prediction by ZEFSAII (Michael W. Deem and Ramdas Pophale) SiO2 
 PCOD8223116
Probable space group: P C C A
;
_chemical_formula_sum "Si O2"
_cell_formula_units_Z 64
_cell_length_a 9.609885
_cell_length_b 14.267992
_cell_length_c 25.434753
_cell_angle_alpha 90.000000
_cell_angle_beta 90.000000
_cell_angle_gamma 90.000000
_cell_volume 3487.454677
_symmetry_space_group_name_H-M "P C C A"
_symmetry_group_IT_number 54
_symmetry_cell_setting 'orthorhombic'
loop_
_space_group_symop_operation_xyz
x,y,z
1/2-x,-y,z
1/2+x,-y,1/2-z
-x,y,1/2-z
-x,-y,-z
1/2+x,y,-z
1/2-x,y,1/2+z
x,-y,1/2+z
loop_
_atom_site_type_symbol
_atom_site_label
_atom_site_fract_x
_atom_site_fract_y
_atom_site_fract_z
Si Si1 0.740803 0.603601 0.945138
Si Si2 0.410488 0.999937 0.947393
Si Si3 0.092707 0.492288 0.201398
Si Si4 0.064297 0.702880 0.192795
Si Si5 0.983702 0.315269 0.503860
Si Si6 0.422174 0.199223 0.903250
Si Si7 0.101779 0.805000 0.398371
Si Si8 0.349534 0.694853 0.151420
O O1 0.750000 0.500000 0.919770
O O2 0.592864 0.613971 0.971650
O O3 0.758456 0.684090 0.901529
O O4 0.858065 0.617060 0.988857
O O5 0.437032 0.913738 0.907625
O O6 0.250000 0.000000 0.965486
O O7 0.452665 0.091189 0.914585
O O8 0.500000 0.000000 0.000000
O O9 0.250000 0.500000 0.222037
O O10 0.044559 0.592559 0.177193
O O11 0.078239 0.406399 0.160853
O O12 0.000000 0.462841 0.250000
O O13 0.232076 0.725424 0.194349
O O14 0.000000 0.723679 0.250000
O O15 0.987609 0.766187 0.149967
O O16 0.931622 0.241241 0.546135
O O17 0.049951 0.261163 0.454651
O O18 0.263599 0.211763 0.884273
O O19 0.527479 0.229739 0.856173
#
# Coordination Sequence:
#
# PCOD8223116 Si02
#       8
#     8   8   8   8   8   8   8   8
#     4  11  21  34  50  75 116 155 188 220 274 341
#     4  10  21  35  59  84 115 146 184 233 290 342
#     4   9  19  36  57  83 109 145 192 238 281 324
#     4  10  21  38  60  83 109 151 195 235 282 329
#     4  11  20  33  54  77 112 149 186 226 275 336
#     4  10  22  37  53  88 113 147 185 230 290 345
#     4  11  21  37  57  80 115 146 184 241 281 339
#     4  10  21  35  58  79 114 149 189 232 280 335
#
# _framework density 18.351493000000001
#
# number of rings (size 3 to 8) (size 9 to 14) (size 15 to 20)
#    0.000    1.750    3.750    1.500    0.000    4.000 
#    0.000    0.000    0.000    5.250    0.000    0.000 
#    0.000    0.000    0.000    0.000    0.000    0.000 
#
# Total GULP energy -793416.221367 kJ/mol
# GULP energy per Si atom -12397.128459 kJ/mol
# Density = 1.830972 g / cm^3
# Si number density = 18.351493 Si / 1000 Ang^3
#
#
#
# Elastic Constant Matrix: (Units=GPa)
#
#
# Indices 1 2 3 4 5 6 
#
# 1 97.2113 48.0927 32.1533 0.0000 0.0000 0.0000
# 2 48.0927 99.7950 30.6395 0.0000 0.0000 0.0000
# 3 32.1533 30.6395 59.8102 0.0000 0.0000 0.0000
# 4 0.0000 0.0000 0.0000 0.1180 0.0000 0.0000
# 5 0.0000 0.0000 0.0000 0.0000 29.3291 0.0000
# 6 0.0000 0.0000 0.0000 0.0000 0.0000 20.0258
#
#
#
# Elastic Compliance Matrix: (Units=1/GPa)
#
#
# Indices 1 2 3 4 5 6 
#
# 1 0.014698 -0.005526 -0.005070 0.000000 0.000000 0.000000
# 2 -0.005526 0.013969 -0.004185 0.000000 0.000000 0.000000
# 3 -0.005070 -0.004185 0.021589 0.000000 0.000000 0.000000
# 4 0.000000 0.000000 0.000000 8.477565 0.000000 0.000000
# 5 0.000000 0.000000 0.000000 0.000000 0.034096 0.000000
# 6 0.000000 0.000000 0.000000 0.000000 0.000000 0.049936
#
#
# Mechanical properties :
#
#
# Convention : Reuss Voigt Hill
#
# Bulk Modulus (GPa) = 48.32698 53.17639 50.75169
# Shear Modulus (GPa) = 0.57815 19.62331 10.10073
#
# Velocity S-wave (km/s) = 0.56189 3.27357 2.34861
# Velocity P-wave (km/s) = 5.17805 6.58239 5.92200
#
# Compressibility (1/GPa) = 0.02069237
#
# Stress axis : x y z
#
# Youngs Moduli (GPa) = 68.03648 71.58871 46.31945
#
# Poissons Ratio (x) = 0.39563 0.23486
# Poissons Ratio (y) = 0.37600 0.19384
# Poissons Ratio (z) = 0.34497 0.29959
#
# Static dielectric constant tensor:
#      x y z
#    x 3.633330 0.000000 0.000000 
#    y 0.000000 3.416560 0.000000 
#    z 0.000000 0.000000 3.237140 
# 
# 
# High freq. dielectric constant tensor:
#      x y z
#    x 1.724720 0.000000 0.000000 
#    y 0.000000 1.705920 0.000000 
#    z 0.000000 0.000000 1.690990 
# 
# From -- ./inp_files/23655.got.cif
#   From: 2010.03.12/outbox.cif.g09.slc.cpg/sg54_12_cif.got.tgz:23655.got - 2010.04.16 15:00:50.
