data_PCOD8223958
_publ_section_title
;
Structure prediction by ZEFSAII (Michael W. Deem and Ramdas Pophale) SiO2 
 PCOD8223958
Probable space group: P C C A
;
_chemical_formula_sum "Si O2"
_cell_formula_units_Z 64
_cell_length_a 29.457617
_cell_length_b 9.191564
_cell_length_c 10.100638
_cell_angle_alpha 90.000000
_cell_angle_beta 90.000000
_cell_angle_gamma 90.000000
_cell_volume 2734.864623
_symmetry_space_group_name_H-M "P C C A"
_symmetry_group_IT_number 54
_symmetry_cell_setting 'orthorhombic'
loop_
_space_group_symop_operation_xyz
x,y,z
1/2-x,-y,z
1/2+x,-y,1/2-z
-x,y,1/2-z
-x,-y,-z
1/2+x,y,-z
1/2-x,y,1/2+z
x,-y,1/2+z
loop_
_atom_site_type_symbol
_atom_site_label
_atom_site_fract_x
_atom_site_fract_y
_atom_site_fract_z
Si Si1 0.434809 0.392572 0.978957
Si Si2 0.787631 0.203256 0.849453
Si Si3 0.602549 0.128729 0.135438
Si Si4 0.022034 0.685711 0.391849
Si Si5 0.757576 0.673814 0.595244
Si Si6 0.632609 0.381882 0.293297
Si Si7 0.646032 0.690774 0.197766
Si Si8 0.144244 0.037809 0.130917
O O1 0.443679 0.551166 0.917663
O O2 0.401085 0.300745 0.884666
O O3 0.482853 0.308810 0.995580
O O4 0.413518 0.408242 0.125203
O O5 0.773769 0.243820 0.700241
O O6 0.831518 0.300707 0.887626
O O7 0.805053 0.035020 0.858489
O O8 0.747419 0.251741 0.951005
O O9 0.549782 0.161739 0.101005
O O10 0.624865 0.287218 0.159921
O O11 0.608083 0.044771 0.274908
O O12 0.626808 0.035337 0.020586
O O13 0.000000 0.662715 0.250000
O O14 0.750000 0.500000 0.594781
O O15 0.809400 0.725366 0.613876
O O16 0.655009 0.531583 0.252771
O O17 0.644827 0.796524 0.323247
#
# Coordination Sequence:
#
# PCOD8223958 Si02
#       8
#     8   8   8   8   8   8   8   8
#     4  11  22  40  73 109 149 192 244 316 373 442
#     4  11  26  48  73 106 152 186 246 313 375 458
#     4  11  24  47  72 104 145 203 244 306 365 442
#     4  11  22  40  71 114 154 188 254 314 371 437
#     4  12  25  43  77 112 142 187 251 321 374 437
#     4  11  22  43  76 103 144 193 245 305 372 441
#     4  12  24  43  75 107 146 196 245 298 378 451
#     4  11  28  48  75 104 151 204 250 293 383 465
#
# _framework density 23.401524999999999
#
# number of rings (size 3 to 8) (size 9 to 14) (size 15 to 20)
#    0.000    0.750    5.000    1.875    1.750    3.500 
#    0.000    3.750    0.000    0.000    0.000    0.000 
#    0.000    0.000    0.000    0.000    0.000    0.000 
#
# Total GULP energy -793350.135248 kJ/mol
# GULP energy per Si atom -12396.095863 kJ/mol
# Density = 2.334826 g / cm^3
# Si number density = 23.401525 Si / 1000 Ang^3
#
#
#
# Elastic Constant Matrix: (Units=GPa)
#
#
# Indices 1 2 3 4 5 6 
#
# 1 93.4584 23.9875 38.8632 0.0000 0.0000 0.0000
# 2 23.9875 103.6640 46.6086 0.0000 0.0000 0.0000
# 3 38.8632 46.6086 127.6343 0.0000 0.0000 0.0000
# 4 0.0000 0.0000 0.0000 36.8555 0.0000 0.0000
# 5 0.0000 0.0000 0.0000 0.0000 40.5218 0.0000
# 6 0.0000 0.0000 0.0000 0.0000 0.0000 30.6029
#
#
#
# Elastic Compliance Matrix: (Units=1/GPa)
#
#
# Indices 1 2 3 4 5 6 
#
# 1 0.012420 -0.001404 -0.003269 0.000000 0.000000 0.000000
# 2 -0.001404 0.011700 -0.003845 0.000000 0.000000 0.000000
# 3 -0.003269 -0.003845 0.010234 0.000000 0.000000 0.000000
# 4 0.000000 0.000000 0.000000 0.027133 0.000000 0.000000
# 5 0.000000 0.000000 0.000000 0.000000 0.024678 0.000000
# 6 0.000000 0.000000 0.000000 0.000000 0.000000 0.032677
#
#
# Mechanical properties :
#
#
# Convention : Reuss Voigt Hill
#
# Bulk Modulus (GPa) = 57.74320 60.40836 59.07578
# Shear Modulus (GPa) = 35.29808 35.94922 35.62365
#
# Velocity S-wave (km/s) = 3.88798 3.92368 3.90587
# Velocity P-wave (km/s) = 6.69953 6.81153 6.75576
#
# Compressibility (1/GPa) = 0.01731806
#
# Stress axis : x y z
#
# Youngs Moduli (GPa) = 80.51758 85.46824 97.71028
#
# Poissons Ratio (x) = 0.12001 0.31940
# Poissons Ratio (y) = 0.11306 0.37570
# Poissons Ratio (z) = 0.26320 0.32863
#
# Static dielectric constant tensor:
#      x y z
#    x 4.437040 0.000000 0.000000 
#    y 0.000000 4.108170 0.000000 
#    z 0.000000 0.000000 4.176870 
# 
# 
# High freq. dielectric constant tensor:
#      x y z
#    x 1.928590 0.000000 0.000000 
#    y 0.000000 1.914950 0.000000 
#    z 0.000000 0.000000 1.932850 
# 
# From -- ./inp_files/10543.got.cif
#   From: 2010.03.12/outbox.cif.g09.slc.cpg/sg54_6_cif.got.tgz:10543.got - 2010.04.16 15:00:50.
