data_PCOD8223020
_publ_section_title
;
Structure prediction by ZEFSAII (Michael W. Deem and Ramdas Pophale) SiO2 
 PCOD8223020
Probable space group: P C C A
;
_chemical_formula_sum "Si O2"
_cell_formula_units_Z 64
_cell_length_a 24.343757
_cell_length_b 8.360523
_cell_length_c 14.986604
_cell_angle_alpha 90.000000
_cell_angle_beta 90.000000
_cell_angle_gamma 90.000000
_cell_volume 3050.171663
_symmetry_space_group_name_H-M "P C C A"
_symmetry_group_IT_number 54
_symmetry_cell_setting 'orthorhombic'
loop_
_space_group_symop_operation_xyz
x,y,z
1/2-x,-y,z
1/2+x,-y,1/2-z
-x,y,1/2-z
-x,-y,-z
1/2+x,y,-z
1/2-x,y,1/2+z
x,-y,1/2+z
loop_
_atom_site_type_symbol
_atom_site_label
_atom_site_fract_x
_atom_site_fract_y
_atom_site_fract_z
Si Si1 0.379806 0.973156 0.395356
Si Si2 0.310935 0.042291 0.723887
Si Si3 0.780863 0.344563 0.368849
Si Si4 0.448520 0.747564 0.982167
Si Si5 0.485754 0.417741 0.157171
Si Si6 0.820297 0.831505 0.447375
Si Si7 0.116681 0.483465 0.564382
Si Si8 0.516487 0.231173 0.650733
O O1 0.353443 0.008000 0.299551
O O2 0.328896 0.926454 0.460428
O O3 0.425676 0.838028 0.381902
O O4 0.407726 0.130807 0.434752
O O5 0.307949 0.233701 0.707134
O O6 0.250000 0.000000 0.754820
O O7 0.331073 0.949267 0.635540
O O8 0.750000 0.500000 0.326126
O O9 0.740580 0.242663 0.433964
O O10 0.830480 0.406080 0.427384
O O11 0.501146 0.710491 0.920203
O O12 0.419523 0.573687 0.990228
O O13 0.469400 0.816886 0.077613
O O14 0.500000 0.330643 0.250000
O O15 0.421548 0.468406 0.152754
O O16 0.523014 0.577492 0.151856
O O17 0.866048 0.695444 0.458012
O O18 0.500000 0.167100 0.750000
#
# Coordination Sequence:
#
# PCOD8223020 Si02
#       8
#     8   8   8   8   8   8   8   8
#     4  12  25  38  67  92 130 175 212 262 337 397
#     4  10  24  42  62  94 130 164 212 267 328 397
#     4   9  20  41  67  93 121 169 215 271 325 384
#     4  11  23  40  59  97 128 170 216 267 318 400
#     4  10  22  37  61  91 131 172 213 265 316 391
#     4  10  22  42  64  92 126 166 212 272 324 389
#     4  10  20  39  68  85 123 164 218 264 331 379
#     4  10  23  41  61  92 127 169 219 272 325 393
#
# _framework density 20.982426
#
# number of rings (size 3 to 8) (size 9 to 14) (size 15 to 20)
#    0.000    1.750    0.000    4.125    8.750    3.000 
#    0.000    1.875    0.000    0.000    0.000    0.000 
#    0.000    0.000    0.000    0.000    0.000    0.000 
#
# Total GULP energy -793098.070875 kJ/mol
# GULP energy per Si atom -12392.157357 kJ/mol
# Density = 2.093467 g / cm^3
# Si number density = 20.982426 Si / 1000 Ang^3
#
#
#
# Elastic Constant Matrix: (Units=GPa)
#
#
# Indices 1 2 3 4 5 6 
#
# 1 88.8992 32.5020 54.5472 0.0000 0.0000 0.0000
# 2 32.5020 81.0296 43.0381 0.0000 0.0000 0.0000
# 3 54.5472 43.0381 132.2262 0.0000 0.0000 0.0000
# 4 0.0000 0.0000 0.0000 20.8094 0.0000 0.0000
# 5 0.0000 0.0000 0.0000 0.0000 34.3163 0.0000
# 6 0.0000 0.0000 0.0000 0.0000 0.0000 22.4387
#
#
#
# Elastic Compliance Matrix: (Units=1/GPa)
#
#
# Indices 1 2 3 4 5 6 
#
# 1 0.015835 -0.003484 -0.005398 0.000000 0.000000 0.000000
# 2 -0.003484 0.015687 -0.003669 0.000000 0.000000 0.000000
# 3 -0.005398 -0.003669 0.010984 0.000000 0.000000 0.000000
# 4 0.000000 0.000000 0.000000 0.048055 0.000000 0.000000
# 5 0.000000 0.000000 0.000000 0.000000 0.029141 0.000000
# 6 0.000000 0.000000 0.000000 0.000000 0.000000 0.044566
#
#
# Mechanical properties :
#
#
# Convention : Reuss Voigt Hill
#
# Bulk Modulus (GPa) = 57.45943 62.48105 59.97024
# Shear Modulus (GPa) = 25.61849 26.98405 26.30127
#
# Velocity S-wave (km/s) = 3.49800 3.59002 3.54431
# Velocity P-wave (km/s) = 6.61503 6.85761 6.73741
#
# Compressibility (1/GPa) = 0.01740358
#
# Stress axis : x y z
#
# Youngs Moduli (GPa) = 63.15182 63.74564 91.04286
#
# Poissons Ratio (x) = 0.22211 0.49147
# Poissons Ratio (y) = 0.22004 0.33401
# Poissons Ratio (z) = 0.34091 0.23386
#
# Static dielectric constant tensor:
#      x y z
#    x 3.861090 0.000000 0.000000 
#    y 0.000000 4.027410 0.000000 
#    z 0.000000 0.000000 3.749670 
# 
# 
# High freq. dielectric constant tensor:
#      x y z
#    x 1.828280 0.000000 0.000000 
#    y 0.000000 1.826180 0.000000 
#    z 0.000000 0.000000 1.806020 
# 
# From -- ./inp_files/15013.got.cif
#   From: 2010.03.12/outbox.cif.g09.slc.cpg/sg54_8_cif.got.tgz:15013.got - 2010.04.16 15:00:50.
