data_PCOD8223328
_publ_section_title
;
Structure prediction by ZEFSAII (Michael W. Deem and Ramdas Pophale) SiO2 
 PCOD8223328
Probable space group: P C C A
;
_chemical_formula_sum "Si O2"
_cell_formula_units_Z 48
_cell_length_a 16.690952
_cell_length_b 11.932814
_cell_length_c 11.580012
_cell_angle_alpha 90.000000
_cell_angle_beta 90.000000
_cell_angle_gamma 90.000000
_cell_volume 2306.391288
_symmetry_space_group_name_H-M "P C C A"
_symmetry_group_IT_number 54
_symmetry_cell_setting 'orthorhombic'
loop_
_space_group_symop_operation_xyz
x,y,z
1/2-x,-y,z
1/2+x,-y,1/2-z
-x,y,1/2-z
-x,-y,-z
1/2+x,y,-z
1/2-x,y,1/2+z
x,-y,1/2+z
loop_
_atom_site_type_symbol
_atom_site_label
_atom_site_fract_x
_atom_site_fract_y
_atom_site_fract_z
Si Si1 0.639598 0.409828 0.682879
Si Si2 0.094885 0.913710 0.759516
Si Si3 0.931636 0.232053 0.033640
Si Si4 0.320490 0.651964 0.865535
Si Si5 0.389931 0.275405 0.596795
Si Si6 0.407561 0.834397 0.720505
O O1 0.594825 0.354616 0.574833
O O2 0.731270 0.371509 0.675410
O O3 0.627458 0.542576 0.667283
O O4 0.600216 0.371644 0.804835
O O5 0.110264 0.863120 0.886448
O O6 0.139656 0.837049 0.663296
O O7 0.000000 0.903395 0.750000
O O8 0.124622 0.040063 0.743602
O O9 0.028043 0.238864 0.033183
O O10 0.895789 0.203301 0.910149
O O11 0.353149 0.758078 0.799111
O O12 0.326490 0.679795 0.002463
O O13 0.500000 0.823843 0.750000
#
# Coordination Sequence:
#
# PCOD8223328 Si02
#       6
#     8   8   8   8   8   8
#     4  10  25  42  61  84 121 172 197 248 308 360
#     4   8  19  36  63  88 121 160 190 243 308 358
#     4  10  21  41  63  89 122 158 202 253 304 353
#     4  11  25  39  62  88 121 163 206 244 303 365
#     4  10  21  42  63  88 121 155 204 250 302 359
#     4  11  22  36  63  97 121 153 207 250 296 361
#
# _framework density 20.811734999999999
#
# number of rings (size 3 to 8) (size 9 to 14) (size 15 to 20)
#    0.000    2.000    1.667    1.500    7.000    5.333 
#    0.000    3.333    0.000    0.000    0.000    0.000 
#    0.000    0.000    0.000    0.000    0.000    0.000 
#
# Total GULP energy -595013.173806 kJ/mol
# GULP energy per Si atom -12396.107788 kJ/mol
# Density = 2.076437 g / cm^3
# Si number density = 20.811735 Si / 1000 Ang^3
#
#
#
# Elastic Constant Matrix: (Units=GPa)
#
#
# Indices 1 2 3 4 5 6 
#
# 1 19.3716 8.3107 1.8576 0.0000 0.0000 0.0000
# 2 8.3107 128.9125 50.2373 0.0000 0.0000 0.0000
# 3 1.8576 50.2373 124.0378 0.0000 0.0000 0.0000
# 4 0.0000 0.0000 0.0000 16.6291 0.0000 0.0000
# 5 0.0000 0.0000 0.0000 0.0000 19.0873 0.0000
# 6 0.0000 0.0000 0.0000 0.0000 0.0000 74.9232
#
#
#
# Elastic Compliance Matrix: (Units=1/GPa)
#
#
# Indices 1 2 3 4 5 6 
#
# 1 0.053142 -0.003700 0.000703 0.000000 0.000000 0.000000
# 2 -0.003700 0.009469 -0.003780 0.000000 0.000000 0.000000
# 3 0.000703 -0.003780 0.009582 0.000000 0.000000 0.000000
# 4 0.000000 0.000000 0.000000 0.060135 0.000000 0.000000
# 5 0.000000 0.000000 0.000000 0.000000 0.052391 0.000000
# 6 0.000000 0.000000 0.000000 0.000000 0.000000 0.013347
#
#
# Mechanical properties :
#
#
# Convention : Reuss Voigt Hill
#
# Bulk Modulus (GPa) = 17.05336 43.68145 30.36741
# Shear Modulus (GPa) = 21.62949 36.25568 28.94259
#
# Velocity S-wave (km/s) = 3.22730 4.17835 3.73324
# Velocity P-wave (km/s) = 4.70098 6.65677 5.76246
#
# Compressibility (1/GPa) = 0.05863946
#
# Stress axis : x y z
#
# Youngs Moduli (GPa) = 18.81754 105.61232 104.35907
#
# Poissons Ratio (x) = 0.39074 -0.07332
# Poissons Ratio (y) = 0.06962 0.39443
# Poissons Ratio (z) = -0.01322 0.39916
#
# Static dielectric constant tensor:
#      x y z
#    x 3.533280 0.000000 0.000000 
#    y 0.000000 4.057700 0.000000 
#    z 0.000000 0.000000 3.844780 
# 
# 
# High freq. dielectric constant tensor:
#      x y z
#    x 1.786120 0.000000 0.000000 
#    y 0.000000 1.824000 0.000000 
#    z 0.000000 0.000000 1.823490 
# 
# From -- ./inp_files/8963.got.cif
#   From: 2010.03.12/outbox.cif.g09.slc.cpg/sg54_5_cif.got.tgz:8963.got - 2010.04.16 15:00:50.
