data_PCOD8223195
_publ_section_title
;
Structure prediction by ZEFSAII (Michael W. Deem and Ramdas Pophale) SiO2 
 PCOD8223195
Probable space group: P C C A
;
_chemical_formula_sum "Si O2"
_cell_formula_units_Z 48
_cell_length_a 17.429128
_cell_length_b 11.442075
_cell_length_c 11.792094
_cell_angle_alpha 90.000000
_cell_angle_beta 90.000000
_cell_angle_gamma 90.000000
_cell_volume 2351.642942
_symmetry_space_group_name_H-M "P C C A"
_symmetry_group_IT_number 54
_symmetry_cell_setting 'orthorhombic'
loop_
_space_group_symop_operation_xyz
x,y,z
1/2-x,-y,z
1/2+x,-y,1/2-z
-x,y,1/2-z
-x,-y,-z
1/2+x,y,-z
1/2-x,y,1/2+z
x,-y,1/2+z
loop_
_atom_site_type_symbol
_atom_site_label
_atom_site_fract_x
_atom_site_fract_y
_atom_site_fract_z
Si Si1 0.178403 0.830674 0.428597
Si Si2 0.083881 0.201413 0.708353
Si Si3 0.155373 0.751547 0.874901
Si Si4 0.348492 0.399841 0.082806
Si Si5 0.585314 0.948843 0.002144
Si Si6 0.822991 0.341962 0.371415
O O1 0.140694 0.790840 0.312451
O O2 0.268954 0.826008 0.406973
O O3 0.153090 0.743611 0.528062
O O4 0.149654 0.958309 0.463053
O O5 0.085145 0.326513 0.645215
O O6 0.109408 0.099505 0.621601
O O7 0.000000 0.170920 0.750000
O O8 0.086695 0.840672 0.908078
O O9 0.147434 0.714491 0.745071
O O10 0.152756 0.632081 0.949028
O O11 0.365488 0.535908 0.101618
O O12 0.267673 0.362303 0.138234
O O13 0.500000 0.000000 0.000000
#
# Coordination Sequence:
#
# PCOD8223195 Si02
#       6
#     8   8   8   8   8   8
#     4  11  23  40  63  94 122 165 216 255 315 378
#     4  11  22  41  64  87 128 168 204 260 319 377
#     4  10  22  41  62  96 127 160 213 263 310 377
#     4   9  21  38  62  94 122 162 204 258 322 368
#     4  11  24  42  62  90 126 170 209 258 321 378
#     4  10  21  37  67  93 123 160 209 263 310 374
#
# _framework density 20.411262000000001
#
# number of rings (size 3 to 8) (size 9 to 14) (size 15 to 20)
#    0.000    1.667    3.333    0.500    4.667    1.333 
#    0.000    2.500    0.000    0.000    0.000    0.000 
#    0.000    0.000    0.000    0.000    0.000    0.000 
#
# Total GULP energy -595206.613815 kJ/mol
# GULP energy per Si atom -12400.137788 kJ/mol
# Density = 2.036481 g / cm^3
# Si number density = 20.411262 Si / 1000 Ang^3
#
#
#
# Elastic Constant Matrix: (Units=GPa)
#
#
# Indices 1 2 3 4 5 6 
#
# 1 39.4833 23.7671 23.3573 0.0000 0.0000 0.0000
# 2 23.7671 136.1796 67.6692 0.0000 0.0000 0.0000
# 3 23.3573 67.6692 163.9712 0.0000 0.0000 0.0000
# 4 0.0000 0.0000 0.0000 259.6058 0.0000 0.0000
# 5 0.0000 0.0000 0.0000 0.0000 25.4820 0.0000
# 6 0.0000 0.0000 0.0000 0.0000 0.0000 22.3230
#
#
#
# Elastic Compliance Matrix: (Units=1/GPa)
#
#
# Indices 1 2 3 4 5 6 
#
# 1 0.029144 -0.003804 -0.002582 0.000000 0.000000 0.000000
# 2 -0.003804 0.009734 -0.003475 0.000000 0.000000 0.000000
# 3 -0.002582 -0.003475 0.007901 0.000000 0.000000 0.000000
# 4 0.000000 0.000000 0.000000 0.003852 0.000000 0.000000
# 5 0.000000 0.000000 0.000000 0.000000 0.039243 0.000000
# 6 0.000000 0.000000 0.000000 0.000000 0.000000 0.044797
#
#
# Mechanical properties :
#
#
# Convention : Reuss Voigt Hill
#
# Bulk Modulus (GPa) = 36.95854 63.24682 50.10268
# Shear Modulus (GPa) = 30.59765 76.47154 53.53459
#
# Velocity S-wave (km/s) = 3.87597 6.12754 5.12688
# Velocity P-wave (km/s) = 6.17876 9.00643 7.72311
#
# Compressibility (1/GPa) = 0.02705735
#
# Stress axis : x y z
#
# Youngs Moduli (GPa) = 34.31233 102.73282 126.57210
#
# Poissons Ratio (x) = 0.39074 0.32679
# Poissons Ratio (y) = 0.13051 0.43988
# Poissons Ratio (z) = 0.08859 0.35703
#
# Static dielectric constant tensor:
#      x y z
#    x -0.388200 0.000000 0.000000 
#    y 0.000000 3.782350 0.000000 
#    z 0.000000 0.000000 3.431870 
# 
# 
# High freq. dielectric constant tensor:
#      x y z
#    x 1.773430 0.000000 0.000000 
#    y 0.000000 1.804950 0.000000 
#    z 0.000000 0.000000 1.810560 
# 
# From -- ./inp_files/8916.got.cif
#   From: 2010.03.12/outbox.cif.g09.slc.cpg/sg54_5_cif.got.tgz:8916.got - 2010.04.16 15:00:50.
