data_PCOD8223358
_publ_section_title
;
Structure prediction by ZEFSAII (Michael W. Deem and Ramdas Pophale) SiO2 
 PCOD8223358
Probable space group: P C C A
;
_chemical_formula_sum "Si O2"
_cell_formula_units_Z 32
_cell_length_a 10.122125
_cell_length_b 8.160220
_cell_length_c 14.306680
_cell_angle_alpha 90.000000
_cell_angle_beta 90.000000
_cell_angle_gamma 90.000000
_cell_volume 1181.714126
_symmetry_space_group_name_H-M "P C C A"
_symmetry_group_IT_number 54
_symmetry_cell_setting 'orthorhombic'
loop_
_space_group_symop_operation_xyz
x,y,z
1/2-x,-y,z
1/2+x,-y,1/2-z
-x,y,1/2-z
-x,-y,-z
1/2+x,y,-z
1/2-x,y,1/2+z
x,-y,1/2+z
loop_
_atom_site_type_symbol
_atom_site_label
_atom_site_fract_x
_atom_site_fract_y
_atom_site_fract_z
Si Si1 0.141419 0.875571 0.355445
Si Si2 0.298472 0.320942 0.180535
Si Si3 0.681737 0.328928 0.521327
Si Si4 0.530689 0.170686 0.854832
O O1 0.121726 0.748301 0.269497
O O2 0.201328 0.801313 0.451220
O O3 0.250000 0.000000 0.313299
O O4 0.006564 0.978494 0.376287
O O5 0.250000 0.500000 0.211548
O O6 0.184605 0.205141 0.135555
O O7 0.382197 0.329174 0.084026
O O8 0.750000 0.500000 0.543765
O O9 0.554329 0.297262 0.584330
O O10 0.500000 0.219264 0.750000
#
# Coordination Sequence:
#
# PCOD8223358 Si02
#       4
#     8   8   8   8
#     4  10  21  42  64  99 138 182 230 293 342 421
#     4  11  24  45  71 101 145 185 237 303 354 429
#     4  10  23  43  69 104 143 179 242 291 351 433
#     4  11  23  45  66  99 140 186 236 286 365 417
#
# _framework density 27.079305999999999
#
# number of rings (size 3 to 8) (size 9 to 14) (size 15 to 20)
#    0.000    1.500    5.000    0.750    0.000    8.000 
#    9.000    0.000    0.000    0.000    0.000    0.000 
#    0.000    0.000    0.000    0.000    0.000    0.000 
#
# Total GULP energy -396443.061685 kJ/mol
# GULP energy per Si atom -12388.845678 kJ/mol
# Density = 2.701767 g / cm^3
# Si number density = 27.079306 Si / 1000 Ang^3
#
#
#
# Elastic Constant Matrix: (Units=GPa)
#
#
# Indices 1 2 3 4 5 6 
#
# 1 31.6358 0.5884 -50.8434 0.0000 0.0000 0.0000
# 2 0.5884 123.0743 25.6885 0.0000 0.0000 0.0000
# 3 -50.8434 25.6885 124.9611 0.0000 0.0000 0.0000
# 4 0.0000 0.0000 0.0000 35.2481 0.0000 0.0000
# 5 0.0000 0.0000 0.0000 0.0000 24.3247 0.0000
# 6 0.0000 0.0000 0.0000 0.0000 0.0000 34.0662
#
#
#
# Elastic Compliance Matrix: (Units=1/GPa)
#
#
# Indices 1 2 3 4 5 6 
#
# 1 0.100865 -0.009454 0.042983 0.000000 0.000000 0.000000
# 2 -0.009454 0.009376 -0.005774 0.000000 0.000000 0.000000
# 3 0.042983 -0.005774 0.026678 0.000000 0.000000 0.000000
# 4 0.000000 0.000000 0.000000 0.028370 0.000000 0.000000
# 5 0.000000 0.000000 0.000000 0.000000 0.041110 0.000000
# 6 0.000000 0.000000 0.000000 0.000000 0.000000 0.029355
#
#
# Mechanical properties :
#
#
# Convention : Reuss Voigt Hill
#
# Bulk Modulus (GPa) = 5.19671 25.61536 15.40603
# Shear Modulus (GPa) = 20.45937 39.01031 29.73484
#
# Velocity S-wave (km/s) = 2.75168 3.79963 3.31730
# Velocity P-wave (km/s) = 3.46683 5.36000 4.51378
#
# Compressibility (1/GPa) = 0.19242940
#
# Stress axis : x y z
#
# Youngs Moduli (GPa) = 9.91421 106.66096 37.48405
#
# Poissons Ratio (x) = 1.00834 -1.61117
# Poissons Ratio (y) = 0.09373 0.21643
# Poissons Ratio (z) = -0.42614 0.61584
#
# Static dielectric constant tensor:
#      x y z
#    x 13.211490 0.000000 0.000000 
#    y 0.000000 5.091700 0.000000 
#    z 0.000000 0.000000 5.064100 
# 
# 
# High freq. dielectric constant tensor:
#      x y z
#    x 2.073040 0.000000 0.000000 
#    y 0.000000 2.090900 0.000000 
#    z 0.000000 0.000000 2.106550 
# 
# From -- ./inp_files/12164.got.cif
#   From: 2010.03.12/outbox.cif.g09.slc.cpg/sg54_7_cif.got.tgz:12164.got - 2010.04.16 15:00:50.
