data_PCOD8223976
_publ_section_title
;
Structure prediction by ZEFSAII (Michael W. Deem and Ramdas Pophale) SiO2 
 PCOD8223976
Probable space group: P C C A
;
_chemical_formula_sum "Si O2"
_cell_formula_units_Z 36
_cell_length_a 15.049895
_cell_length_b 8.684889
_cell_length_c 13.416662
_cell_angle_alpha 90.000000
_cell_angle_beta 90.000000
_cell_angle_gamma 90.000000
_cell_volume 1753.647179
_symmetry_space_group_name_H-M "P C C A"
_symmetry_group_IT_number 54
_symmetry_cell_setting 'orthorhombic'
loop_
_space_group_symop_operation_xyz
x,y,z
1/2-x,-y,z
1/2+x,-y,1/2-z
-x,y,1/2-z
-x,-y,-z
1/2+x,y,-z
1/2-x,y,1/2+z
x,-y,1/2+z
loop_
_atom_site_type_symbol
_atom_site_label
_atom_site_fract_x
_atom_site_fract_y
_atom_site_fract_z
Si Si1 0.120615 0.274003 0.613456
Si Si2 0.000000 0.517371 0.250000
Si Si3 0.960015 0.043593 0.352834
Si Si4 0.399384 0.287213 0.893620
Si Si5 0.787295 0.167297 0.272083
O O1 0.067245 0.377828 0.689397
O O2 0.127160 0.349731 0.503266
O O3 0.218178 0.261911 0.661394
O O4 0.074852 0.108464 0.592244
O O5 0.949220 0.416924 0.168769
O O6 0.878579 0.161032 0.334517
O O7 0.000000 0.981648 0.250000
O O8 0.036955 0.137504 0.409338
O O9 0.308523 0.245619 0.834605
O O10 0.750000 0.000000 0.246999
#
# Coordination Sequence:
#
# PCOD8223976 Si02
#       5
#     8   4   8   8   8
#     4  11  23  39  65  95 120 165 212 248 311 365
#     4  12  24  42  60  90 136 160 206 250 302 384
#     4   9  17  40  67  91 123 158 204 264 299 355
#     4  11  22  43  65  88 125 170 201 253 314 364
#     4   9  20  39  64  94 126 149 207 268 299 352
#
# _framework density 20.528645000000001
#
# number of rings (size 3 to 8) (size 9 to 14) (size 15 to 20)
#    0.000    1.778    4.444    1.333    0.000    3.556 
#    4.000    2.222    0.000    0.000    0.000    0.000 
#    0.000    0.000    0.000    0.000    0.000    0.000 
#
# Total GULP energy -446242.153738 kJ/mol
# GULP energy per Si atom -12395.615382 kJ/mol
# Density = 2.048192 g / cm^3
# Si number density = 20.528645 Si / 1000 Ang^3
#
#
#
# Elastic Constant Matrix: (Units=GPa)
#
#
# Indices 1 2 3 4 5 6 
#
# 1 120.7127 34.8170 76.8431 0.0000 0.0000 0.0000
# 2 34.8170 56.9601 37.2890 0.0000 0.0000 0.0000
# 3 76.8431 37.2890 158.0379 0.0000 0.0000 0.0000
# 4 0.0000 0.0000 0.0000 10.1338 0.0000 0.0000
# 5 0.0000 0.0000 0.0000 0.0000 19.7865 0.0000
# 6 0.0000 0.0000 0.0000 0.0000 0.0000 21.4343
#
#
#
# Elastic Compliance Matrix: (Units=1/GPa)
#
#
# Indices 1 2 3 4 5 6 
#
# 1 0.012892 -0.004466 -0.005215 0.000000 0.000000 0.000000
# 2 -0.004466 0.022311 -0.003092 0.000000 0.000000 0.000000
# 3 -0.005215 -0.003092 0.009593 0.000000 0.000000 0.000000
# 4 0.000000 0.000000 0.000000 0.098680 0.000000 0.000000
# 5 0.000000 0.000000 0.000000 0.000000 0.050540 0.000000
# 6 0.000000 0.000000 0.000000 0.000000 0.000000 0.046654
#
#
# Mechanical properties :
#
#
# Convention : Reuss Voigt Hill
#
# Bulk Modulus (GPa) = 51.95249 70.40098 61.17674
# Shear Modulus (GPa) = 18.33974 22.72168 20.53071
#
# Velocity S-wave (km/s) = 2.99218 3.33051 3.16587
# Velocity P-wave (km/s) = 6.10735 7.01129 6.57488
#
# Compressibility (1/GPa) = 0.01924836
#
# Stress axis : x y z
#
# Youngs Moduli (GPa) = 77.56819 44.82140 104.24519
#
# Poissons Ratio (x) = 0.20019 0.54360
# Poissons Ratio (y) = 0.34645 0.32238
# Poissons Ratio (z) = 0.40449 0.13861
#
# Static dielectric constant tensor:
#      x y z
#    x 4.133890 0.000000 0.000000 
#    y 0.000000 3.600650 0.000000 
#    z 0.000000 0.000000 3.655070 
# 
# 
# High freq. dielectric constant tensor:
#      x y z
#    x 1.806200 0.000000 0.000000 
#    y 0.000000 1.790540 0.000000 
#    z 0.000000 0.000000 1.803140 
# 
# From -- ./inp_files/13122.got.cif
#   From: 2010.03.12/outbox.cif.g09.slc.cpg/sg54_7_cif.got.tgz:13122.got - 2010.04.16 15:00:50.
