data_PCOD8223919
_publ_section_title
;
Structure prediction by ZEFSAII (Michael W. Deem and Ramdas Pophale) SiO2 
 PCOD8223919
Probable space group: P C C A
;
_chemical_formula_sum "Si O2"
_cell_formula_units_Z 40
_cell_length_a 25.048588
_cell_length_b 4.938495
_cell_length_c 13.713771
_cell_angle_alpha 90.000000
_cell_angle_beta 90.000000
_cell_angle_gamma 90.000000
_cell_volume 1696.425379
_symmetry_space_group_name_H-M "P C C A"
_symmetry_group_IT_number 54
_symmetry_cell_setting 'orthorhombic'
loop_
_space_group_symop_operation_xyz
x,y,z
1/2-x,-y,z
1/2+x,-y,1/2-z
-x,y,1/2-z
-x,-y,-z
1/2+x,y,-z
1/2-x,y,1/2+z
x,-y,1/2+z
loop_
_atom_site_type_symbol
_atom_site_label
_atom_site_fract_x
_atom_site_fract_y
_atom_site_fract_z
Si Si1 0.597740 0.816919 0.386467
Si Si2 0.718420 0.251868 0.829523
Si Si3 0.799541 0.844538 0.612495
Si Si4 0.441267 0.662759 0.722467
Si Si5 0.870658 0.338926 0.592308
O O1 0.657718 0.736621 0.360783
O O2 0.555303 0.615672 0.337529
O O3 0.593677 0.772789 0.502598
O O4 0.586431 0.119189 0.349006
O O5 0.750000 0.500000 0.876748
O O6 0.723632 0.268444 0.713053
O O7 0.750000 0.000000 0.873573
O O8 0.830289 0.588041 0.561570
O O9 0.750000 0.000000 0.555042
O O10 0.840969 0.079875 0.635445
O O11 0.500000 0.765437 0.750000
O O12 0.409252 0.578905 0.819671
#
# Coordination Sequence:
#
# PCOD8223919 Si02
#       5
#     8   8   8   8   8
#     4  12  26  44  70 102 135 179 232 281 348 415
#     4  11  21  38  64  95 132 174 216 263 326 407
#     4  11  22  40  68  99 138 185 218 269 338 412
#     4  12  26  48  71  97 136 180 233 299 355 399
#     4  12  24  44  69 101 139 178 229 284 340 415
#
# _framework density 23.578993000000001
#
# number of rings (size 3 to 8) (size 9 to 14) (size 15 to 20)
#    0.000    0.400    4.000    6.000    0.000    4.000 
#    0.000    0.000    0.000    0.000    0.000    0.000 
#    0.000    0.000    0.000    0.000    0.000    0.000 
#
# Total GULP energy -495743.125665 kJ/mol
# GULP energy per Si atom -12393.578142 kJ/mol
# Density = 2.352533 g / cm^3
# Si number density = 23.578993 Si / 1000 Ang^3
#
#
#
# Elastic Constant Matrix: (Units=GPa)
#
#
# Indices 1 2 3 4 5 6 
#
# 1 76.1427 34.4874 11.3662 0.0000 0.0000 0.0000
# 2 34.4874 136.6333 19.7340 0.0000 0.0000 0.0000
# 3 11.3662 19.7340 101.6710 0.0000 0.0000 0.0000
# 4 0.0000 0.0000 0.0000 5.3252 0.0000 0.0000
# 5 0.0000 0.0000 0.0000 0.0000 7.3338 0.0000
# 6 0.0000 0.0000 0.0000 0.0000 0.0000 40.3961
#
#
#
# Elastic Compliance Matrix: (Units=1/GPa)
#
#
# Indices 1 2 3 4 5 6 
#
# 1 0.014920 -0.003627 -0.000964 0.000000 0.000000 0.000000
# 2 -0.003627 0.008411 -0.001227 0.000000 0.000000 0.000000
# 3 -0.000964 -0.001227 0.010182 0.000000 0.000000 0.000000
# 4 0.000000 0.000000 0.000000 0.187787 0.000000 0.000000
# 5 0.000000 0.000000 0.000000 0.000000 0.136354 0.000000
# 6 0.000000 0.000000 0.000000 0.000000 0.000000 0.024755
#
#
# Mechanical properties :
#
#
# Convention : Reuss Voigt Hill
#
# Bulk Modulus (GPa) = 45.70982 49.51357 47.61170
# Shear Modulus (GPa) = 12.45834 27.20166 19.83000
#
# Velocity S-wave (km/s) = 2.30112 3.40021 2.90315
# Velocity P-wave (km/s) = 5.14666 6.03820 5.61017
#
# Compressibility (1/GPa) = 0.02187714
#
# Stress axis : x y z
#
# Youngs Moduli (GPa) = 67.02522 118.88488 98.21630
#
# Poissons Ratio (x) = 0.43115 0.09468
# Poissons Ratio (y) = 0.24308 0.12053
# Poissons Ratio (z) = 0.06461 0.14590
#
# Static dielectric constant tensor:
#      x y z
#    x 4.071270 0.000000 0.000000 
#    y 0.000000 4.398220 0.000000 
#    z 0.000000 0.000000 4.296800 
# 
# 
# High freq. dielectric constant tensor:
#      x y z
#    x 1.919380 0.000000 0.000000 
#    y 0.000000 1.952970 0.000000 
#    z 0.000000 0.000000 1.927550 
# 
# From -- ./inp_files/14824.got.cif
#   From: 2010.03.12/outbox.cif.g09.slc.cpg/sg54_8_cif.got.tgz:14824.got - 2010.04.16 15:00:50.
