data_PCOD8223955
_publ_section_title
;
Structure prediction by ZEFSAII (Michael W. Deem and Ramdas Pophale) SiO2 
 PCOD8223955
Probable space group: P C C A
;
_chemical_formula_sum "Si O2"
_cell_formula_units_Z 60
_cell_length_a 12.836726
_cell_length_b 10.349412
_cell_length_c 22.736752
_cell_angle_alpha 90.000000
_cell_angle_beta 90.000000
_cell_angle_gamma 90.000000
_cell_volume 3020.635848
_symmetry_space_group_name_H-M "P C C A"
_symmetry_group_IT_number 54
_symmetry_cell_setting 'orthorhombic'
loop_
_space_group_symop_operation_xyz
x,y,z
1/2-x,-y,z
1/2+x,-y,1/2-z
-x,y,1/2-z
-x,-y,-z
1/2+x,y,-z
1/2-x,y,1/2+z
x,-y,1/2+z
loop_
_atom_site_type_symbol
_atom_site_label
_atom_site_fract_x
_atom_site_fract_y
_atom_site_fract_z
Si Si1 0.689358 0.614913 0.155043
Si Si2 0.170108 0.336466 0.736128
Si Si3 0.807787 0.235686 0.363659
Si Si4 0.035832 0.422935 0.189766
Si Si5 0.454002 0.999424 0.133028
Si Si6 0.317917 0.873309 0.541672
Si Si7 0.500000 0.150336 0.250000
Si Si8 0.831897 0.118162 0.090638
O O1 0.750000 0.500000 0.120244
O O2 0.736760 0.618035 0.221532
O O3 0.572599 0.556788 0.155741
O O4 0.704417 0.755383 0.126470
O O5 0.217609 0.253638 0.683510
O O6 0.099326 0.450046 0.708362
O O7 0.095206 0.240174 0.771373
O O8 0.894211 0.345030 0.356197
O O9 0.858807 0.096473 0.354866
O O10 0.752404 0.238956 0.427868
O O11 0.000000 0.347725 0.250000
O O12 0.557022 0.924463 0.114451
O O13 0.420692 0.099217 0.081412
O O14 0.472139 0.065939 0.194539
O O15 0.349190 0.832377 0.476036
O O16 0.250000 0.000000 0.534690
O O17 0.750000 0.000000 0.097830
#
# Coordination Sequence:
#
# PCOD8223955 Si02
#       8
#     8   8   8   8   8   8   4   8
#     4  12  23  41  65  93 136 171 217 270 327 388
#     4  12  23  39  62  92 135 175 206 262 331 399
#     4  11  22  40  63  93 123 168 219 260 314 389
#     4  12  22  38  63  93 121 176 214 251 324 401
#     4  11  23  39  64  98 129 167 209 271 323 394
#     4   9  21  43  66  91 126 175 217 260 320 389
#     4  12  24  36  58 104 138 158 212 270 336 384
#     4  11  24  43  68  96 130 173 217 270 325 382
#
# _framework density 19.863367
#
# number of rings (size 3 to 8) (size 9 to 14) (size 15 to 20)
#    0.000    0.800    6.000    1.600    2.800    0.000 
#    0.000    1.333    0.000    1.600    0.000    0.000 
#    0.000    0.000    0.000    0.000    0.000    0.000 
#
# Total GULP energy -743495.948783 kJ/mol
# GULP energy per Si atom -12391.599146 kJ/mol
# Density = 1.981816 g / cm^3
# Si number density = 19.863367 Si / 1000 Ang^3
#
#
#
# Elastic Constant Matrix: (Units=GPa)
#
#
# Indices 1 2 3 4 5 6 
#
# 1 110.6237 61.2602 39.7833 0.0000 0.0000 0.0000
# 2 61.2602 110.3016 59.6956 0.0000 0.0000 0.0000
# 3 39.7833 59.6956 100.9597 0.0000 0.0000 0.0000
# 4 0.0000 0.0000 0.0000 14.6125 0.0000 0.0000
# 5 0.0000 0.0000 0.0000 0.0000 19.5327 0.0000
# 6 0.0000 0.0000 0.0000 0.0000 0.0000 43.7010
#
#
#
# Elastic Compliance Matrix: (Units=1/GPa)
#
#
# Indices 1 2 3 4 5 6 
#
# 1 0.013165 -0.006624 -0.001271 0.000000 0.000000 0.000000
# 2 -0.006624 0.016665 -0.007244 0.000000 0.000000 0.000000
# 3 -0.001271 -0.007244 0.014689 0.000000 0.000000 0.000000
# 4 0.000000 0.000000 0.000000 0.068434 0.000000 0.000000
# 5 0.000000 0.000000 0.000000 0.000000 0.051196 0.000000
# 6 0.000000 0.000000 0.000000 0.000000 0.000000 0.022883
#
#
# Mechanical properties :
#
#
# Convention : Reuss Voigt Hill
#
# Bulk Modulus (GPa) = 70.21595 71.48479 70.85037
# Shear Modulus (GPa) = 22.51684 26.31232 24.41458
#
# Velocity S-wave (km/s) = 3.37053 3.64354 3.50969
# Velocity P-wave (km/s) = 7.11151 7.33259 7.22290
#
# Compressibility (1/GPa) = 0.01424178
#
# Stress axis : x y z
#
# Youngs Moduli (GPa) = 75.96046 60.00599 68.07857
#
# Poissons Ratio (x) = 0.39745 0.08654
# Poissons Ratio (y) = 0.50313 0.49314
# Poissons Ratio (z) = 0.09656 0.43466
#
# Static dielectric constant tensor:
#      x y z
#    x 4.007860 0.000000 0.000000 
#    y 0.000000 3.688350 0.000000 
#    z 0.000000 0.000000 3.720330 
# 
# 
# High freq. dielectric constant tensor:
#      x y z
#    x 1.801570 0.000000 0.000000 
#    y 0.000000 1.767220 0.000000 
#    z 0.000000 0.000000 1.754940 
# 
# From -- ./inp_files/21228.got.cif
#   From: 2010.03.12/outbox.cif.g09.slc.cpg/sg54_11_cif.got.tgz:21228.got - 2010.04.16 15:00:50.
