data_PCOD8223387
_publ_section_title
;
Structure prediction by ZEFSAII (Michael W. Deem and Ramdas Pophale) SiO2 
 PCOD8223387
Probable space group: P C C A
;
_chemical_formula_sum "Si O2"
_cell_formula_units_Z 48
_cell_length_a 27.133731
_cell_length_b 8.573909
_cell_length_c 9.605046
_cell_angle_alpha 90.000000
_cell_angle_beta 90.000000
_cell_angle_gamma 90.000000
_cell_volume 2234.538460
_symmetry_space_group_name_H-M "P C C A"
_symmetry_group_IT_number 54
_symmetry_cell_setting 'orthorhombic'
loop_
_space_group_symop_operation_xyz
x,y,z
1/2-x,-y,z
1/2+x,-y,1/2-z
-x,y,1/2-z
-x,-y,-z
1/2+x,y,-z
1/2-x,y,1/2+z
x,-y,1/2+z
loop_
_atom_site_type_symbol
_atom_site_label
_atom_site_fract_x
_atom_site_fract_y
_atom_site_fract_z
Si Si1 0.886343 0.436089 0.005169
Si Si2 0.280025 0.342838 0.933195
Si Si3 0.627842 0.696583 0.713114
Si Si4 0.232921 0.825576 0.202272
Si Si5 0.459723 0.888964 0.866893
Si Si6 0.477396 0.232848 0.901716
O O1 0.838752 0.345878 0.060145
O O2 0.878107 0.610465 0.064192
O O3 0.937514 0.365095 0.062119
O O4 0.884855 0.427171 0.836565
O O5 0.250000 0.500000 0.969503
O O6 0.270317 0.292024 0.776297
O O7 0.262616 0.208009 0.039023
O O8 0.679867 0.781252 0.733230
O O9 0.589358 0.836357 0.710460
O O10 0.250000 0.000000 0.233793
O O11 0.500000 0.897477 0.750000
O O12 0.450902 0.064992 0.920989
O O13 0.476796 0.769417 0.989170
O O14 0.500000 0.267498 0.750000
#
# Coordination Sequence:
#
# PCOD8223387 Si02
#       6
#     8   8   8   8   8   8
#     4  11  25  42  65  99 128 177 219 272 340 398
#     4  11  23  45  68  94 138 173 220 279 339 407
#     4  11  25  43  66  97 133 173 224 278 332 404
#     4  11  25  44  66 100 132 176 223 275 336 404
#     4  10  21  44  64  90 133 174 220 280 331 391
#     4  10  23  42  66  95 132 177 223 276 340 401
#
# _framework density 21.480944999999998
#
# number of rings (size 3 to 8) (size 9 to 14) (size 15 to 20)
#    0.000    1.333    3.333    1.000    7.000    1.333 
#    0.000    0.000    0.000    0.000    0.000    0.000 
#    0.000    0.000    0.000    0.000    0.000    0.000 
#
# Total GULP energy -594979.484240 kJ/mol
# GULP energy per Si atom -12395.405922 kJ/mol
# Density = 2.143205 g / cm^3
# Si number density = 21.480945 Si / 1000 Ang^3
#
#
#
# Elastic Constant Matrix: (Units=GPa)
#
#
# Indices 1 2 3 4 5 6 
#
# 1 65.1369 25.3067 15.4171 0.0000 0.0000 0.0000
# 2 25.3067 85.4114 15.5388 0.0000 0.0000 0.0000
# 3 15.4171 15.5388 48.2918 0.0000 0.0000 0.0000
# 4 0.0000 0.0000 0.0000 208.6106 0.0000 0.0000
# 5 0.0000 0.0000 0.0000 0.0000 29.2982 0.0000
# 6 0.0000 0.0000 0.0000 0.0000 0.0000 30.9529
#
#
#
# Elastic Compliance Matrix: (Units=1/GPa)
#
#
# Indices 1 2 3 4 5 6 
#
# 1 0.018160 -0.004595 -0.004319 0.000000 0.000000 0.000000
# 2 -0.004595 0.013599 -0.002909 0.000000 0.000000 0.000000
# 3 -0.004319 -0.002909 0.023022 0.000000 0.000000 0.000000
# 4 0.000000 0.000000 0.000000 0.004794 0.000000 0.000000
# 5 0.000000 0.000000 0.000000 0.000000 0.034132 0.000000
# 6 0.000000 0.000000 0.000000 0.000000 0.000000 0.032307
#
#
# Mechanical properties :
#
#
# Convention : Reuss Voigt Hill
#
# Bulk Modulus (GPa) = 32.11770 34.59613 33.35691
# Shear Modulus (GPa) = 31.24285 63.27750 47.26018
#
# Velocity S-wave (km/s) = 3.81786 5.43336 4.69561
# Velocity P-wave (km/s) = 5.86676 7.44999 6.70527
#
# Compressibility (1/GPa) = 0.03113548
#
# Stress axis : x y z
#
# Youngs Moduli (GPa) = 55.06701 73.53684 43.43629
#
# Poissons Ratio (x) = 0.33789 0.18760
# Poissons Ratio (y) = 0.25302 0.12634
# Poissons Ratio (z) = 0.23783 0.21390
#
# Static dielectric constant tensor:
#      x y z
#    x 3.339940 0.000000 0.000000 
#    y 0.000000 3.958820 0.000000 
#    z 0.000000 0.000000 4.126960 
# 
# 
# High freq. dielectric constant tensor:
#      x y z
#    x 1.850310 0.000000 0.000000 
#    y 0.000000 1.829610 0.000000 
#    z 0.000000 0.000000 1.855560 
# 
# From -- ./inp_files/5854.got.cif
#   From: 2010.03.12/outbox.cif.g09.slc.cpg/sg54_3_cif.got.tgz:5854.got - 2010.04.16 15:00:50.
