data_PCOD8223579
_publ_section_title
;
Structure prediction by ZEFSAII (Michael W. Deem and Ramdas Pophale) SiO2 
 PCOD8223579
Probable space group: P C C A
;
_chemical_formula_sum "Si O2"
_cell_formula_units_Z 52
_cell_length_a 9.419207
_cell_length_b 14.401406
_cell_length_c 18.720046
_cell_angle_alpha 90.000000
_cell_angle_beta 90.000000
_cell_angle_gamma 90.000000
_cell_volume 2539.370949
_symmetry_space_group_name_H-M "P C C A"
_symmetry_group_IT_number 54
_symmetry_cell_setting 'orthorhombic'
loop_
_space_group_symop_operation_xyz
x,y,z
1/2-x,-y,z
1/2+x,-y,1/2-z
-x,y,1/2-z
-x,-y,-z
1/2+x,y,-z
1/2-x,y,1/2+z
x,-y,1/2+z
loop_
_atom_site_type_symbol
_atom_site_label
_atom_site_fract_x
_atom_site_fract_y
_atom_site_fract_z
Si Si1 0.373754 0.433623 0.986966
Si Si2 0.500000 0.494920 0.750000
Si Si3 0.995680 0.346172 0.146799
Si Si4 0.598845 0.167707 0.318207
Si Si5 0.829746 0.369471 0.854215
Si Si6 0.429595 0.855127 0.182535
Si Si7 0.086385 0.007669 0.571580
O O1 0.250000 0.500000 0.956622
O O2 0.340727 0.387945 0.062102
O O3 0.500000 0.500000 0.000000
O O4 0.422833 0.354627 0.930842
O O5 0.415875 0.422522 0.802862
O O6 0.604152 0.555484 0.799845
O O7 0.161987 0.368584 0.155452
O O8 0.981684 0.240326 0.171856
O O9 0.500000 0.146999 0.250000
O O10 0.584440 0.274523 0.341256
O O11 0.763333 0.151917 0.299877
O O12 0.552131 0.100987 0.383518
O O13 0.500000 0.906031 0.250000
O O14 0.459839 0.917181 0.114613
O O15 0.250000 0.000000 0.551209
O O16 0.000000 0.000000 0.500000
#
# Coordination Sequence:
#
# PCOD8223579 Si02
#       7
#     8   4   8   8   8   8   8
#     4  12  23  42  60  84 121 169 209 254 315 365
#     4  12  20  38  62  84 126 162 208 250 310 354
#     4  11  24  41  61  90 126 163 212 259 313 374
#     4  10  22  42  65  94 123 164 211 257 316 376
#     4  11  23  41  61  89 128 163 208 265 307 376
#     4  10  22  43  64  92 128 163 204 262 317 373
#     4  10  23  42  67  95 129 164 204 261 316 380
#
# _framework density 20.477512999999998
#
# number of rings (size 3 to 8) (size 9 to 14) (size 15 to 20)
#    0.000    1.231    4.615    0.923    2.154    2.462 
#    2.769    0.000    0.000    0.000    0.000    0.000 
#    0.000    0.000    0.000    0.000    0.000    0.000 
#
# Total GULP energy -644298.833641 kJ/mol
# GULP energy per Si atom -12390.362185 kJ/mol
# Density = 2.043091 g / cm^3
# Si number density = 20.477513 Si / 1000 Ang^3
#
#
#
# Elastic Constant Matrix: (Units=GPa)
#
#
# Indices 1 2 3 4 5 6 
#
# 1 59.8639 41.8947 52.4694 0.0000 0.0000 0.0000
# 2 41.8947 138.7409 67.6392 0.0000 0.0000 0.0000
# 3 52.4694 67.6392 163.9431 0.0000 0.0000 0.0000
# 4 0.0000 0.0000 0.0000 7.4624 0.0000 0.0000
# 5 0.0000 0.0000 0.0000 0.0000 37.4313 0.0000
# 6 0.0000 0.0000 0.0000 0.0000 0.0000 19.2795
#
#
#
# Elastic Compliance Matrix: (Units=1/GPa)
#
#
# Indices 1 2 3 4 5 6 
#
# 1 0.025398 -0.004640 -0.006214 0.000000 0.000000 0.000000
# 2 -0.004640 0.009870 -0.002587 0.000000 0.000000 0.000000
# 3 -0.006214 -0.002587 0.009156 0.000000 0.000000 0.000000
# 4 0.000000 0.000000 0.000000 0.134006 0.000000 0.000000
# 5 0.000000 0.000000 0.000000 0.000000 0.026716 0.000000
# 6 0.000000 0.000000 0.000000 0.000000 0.000000 0.051868
#
#
# Mechanical properties :
#
#
# Convention : Reuss Voigt Hill
#
# Bulk Modulus (GPa) = 57.00702 76.28383 66.64543
# Shear Modulus (GPa) = 17.25659 26.20427 21.73043
#
# Velocity S-wave (km/s) = 2.90609 3.58112 3.26112
# Velocity P-wave (km/s) = 6.25778 7.37784 6.84077
#
# Compressibility (1/GPa) = 0.01754170
#
# Stress axis : x y z
#
# Youngs Moduli (GPa) = 39.37255 101.31671 109.21790
#
# Poissons Ratio (x) = 0.47008 0.67873
# Poissons Ratio (y) = 0.18268 0.28257
# Poissons Ratio (z) = 0.24468 0.26213
#
# Static dielectric constant tensor:
#      x y z
#    x 3.594300 0.000000 0.000000 
#    y 0.000000 4.102430 0.000000 
#    z 0.000000 0.000000 3.623610 
# 
# 
# High freq. dielectric constant tensor:
#      x y z
#    x 1.789730 0.000000 0.000000 
#    y 0.000000 1.812660 0.000000 
#    z 0.000000 0.000000 1.814760 
# 
# From -- ./inp_files/20481.got.cif
#   From: 2010.03.12/outbox.cif.g09.slc.cpg/sg54_11_cif.got.tgz:20481.got - 2010.04.16 15:00:50.
