data_PCOD8223496
_publ_section_title
;
Structure prediction by ZEFSAII (Michael W. Deem and Ramdas Pophale) SiO2 
 PCOD8223496
Probable space group: P C C A
;
_chemical_formula_sum "Si O2"
_cell_formula_units_Z 48
_cell_length_a 8.114464
_cell_length_b 17.294751
_cell_length_c 15.327579
_cell_angle_alpha 90.000000
_cell_angle_beta 90.000000
_cell_angle_gamma 90.000000
_cell_volume 2151.036178
_symmetry_space_group_name_H-M "P C C A"
_symmetry_group_IT_number 54
_symmetry_cell_setting 'orthorhombic'
loop_
_space_group_symop_operation_xyz
x,y,z
1/2-x,-y,z
1/2+x,-y,1/2-z
-x,y,1/2-z
-x,-y,-z
1/2+x,y,-z
1/2-x,y,1/2+z
x,-y,1/2+z
loop_
_atom_site_type_symbol
_atom_site_label
_atom_site_fract_x
_atom_site_fract_y
_atom_site_fract_z
Si Si1 0.750000 0.000000 0.838612
Si Si2 0.000000 0.779898 0.750000
Si Si3 0.564208 0.526586 0.093775
Si Si4 0.016489 0.121279 0.089833
Si Si5 0.773609 0.330044 0.155505
Si Si6 0.500000 0.109950 0.250000
Si Si7 0.500000 0.568943 0.750000
Si Si8 0.660108 0.820456 0.586121
O O1 0.608294 0.038393 0.900932
O O2 0.841769 0.059032 0.775173
O O3 0.077392 0.830469 0.672837
O O4 0.152750 0.728277 0.775417
O O5 0.750000 0.500000 0.105088
O O6 0.581281 0.619113 0.108604
O O7 0.449328 0.487294 0.168608
O O8 0.500000 0.500000 0.000000
O O9 0.817616 0.121792 0.091923
O O10 0.062529 0.162912 0.001104
O O11 0.647919 0.379721 0.213440
O O12 0.695152 0.272562 0.083107
O O13 0.456332 0.163573 0.331731
#
# Coordination Sequence:
#
# PCOD8223496 Si02
#       8
#     4   4   8   8   8   4   4   8
#     4  12  24  42  68  94 132 176 216 278 338 380
#     4  10  22  42  64  92 126 164 212 262 318 386
#     4  10  23  39  60  92 124 160 208 254 307 378
#     4  11  25  42  64  96 129 168 222 271 324 397
#     4  10  22  40  64  91 128 172 207 262 325 374
#     4  12  24  42  68  96 130 174 222 276 334 400
#     4  10  22  40  62  92 124 162 212 254 314 386
#     4  11  25  43  65  96 131 171 221 270 327 398
#
# _framework density 22.314826
#
# number of rings (size 3 to 8) (size 9 to 14) (size 15 to 20)
#    0.000    1.333    0.000    5.500    0.000   14.667 
#    0.000    0.000    0.000    0.000    0.000    0.000 
#    0.000    0.000    0.000    0.000    0.000    0.000 
#
# Total GULP energy -594812.219962 kJ/mol
# GULP energy per Si atom -12391.921249 kJ/mol
# Density = 2.226404 g / cm^3
# Si number density = 22.314826 Si / 1000 Ang^3
#
#
#
# Elastic Constant Matrix: (Units=GPa)
#
#
# Indices 1 2 3 4 5 6 
#
# 1 77.6130 31.9254 35.3661 0.0000 0.0000 0.0000
# 2 31.9254 111.4862 56.8639 0.0000 0.0000 0.0000
# 3 35.3661 56.8639 183.1273 0.0000 0.0000 0.0000
# 4 0.0000 0.0000 0.0000 -64.1917 0.0000 0.0000
# 5 0.0000 0.0000 0.0000 0.0000 36.5064 0.0000
# 6 0.0000 0.0000 0.0000 0.0000 0.0000 40.0625
#
#
#
# Elastic Compliance Matrix: (Units=1/GPa)
#
#
# Indices 1 2 3 4 5 6 
#
# 1 0.015127 -0.003376 -0.001873 0.000000 0.000000 0.000000
# 2 -0.003376 0.011411 -0.002891 0.000000 0.000000 0.000000
# 3 -0.001873 -0.002891 0.006720 0.000000 0.000000 0.000000
# 4 0.000000 0.000000 0.000000 -0.015578 0.000000 0.000000
# 5 0.000000 0.000000 0.000000 0.000000 0.027392 0.000000
# 6 0.000000 0.000000 0.000000 0.000000 0.000000 0.024961
#
#
# Mechanical properties :
#
#
# Convention : Reuss Voigt Hill
#
# Bulk Modulus (GPa) = 58.90344 68.94858 63.92601
# Shear Modulus (GPa) = 54.36339 19.01352 36.68845
#
# Velocity S-wave (km/s) = 4.94114 2.92217 4.05918
# Velocity P-wave (km/s) = 7.68160 6.50773 7.11891
#
# Compressibility (1/GPa) = 0.01697694
#
# Stress axis : x y z
#
# Youngs Moduli (GPa) = 66.10810 87.63212 148.80551
#
# Poissons Ratio (x) = 0.29589 0.27869
# Poissons Ratio (y) = 0.22321 0.43025
# Poissons Ratio (z) = 0.12381 0.25337
#
# Static dielectric constant tensor:
#      x y z
#    x 5.001240 0.000000 0.000000 
#    y 0.000000 4.921320 0.000000 
#    z 0.000000 0.000000 6.946810 
# 
# 
# High freq. dielectric constant tensor:
#      x y z
#    x 1.875920 0.000000 0.000000 
#    y 0.000000 1.887690 0.000000 
#    z 0.000000 0.000000 1.886370 
# 
# From -- ./inp_files/11796.got.cif
#   From: 2010.03.12/outbox.cif.g09.slc.cpg/sg54_6_cif.got.tgz:11796.got - 2010.04.16 15:00:50.
