data_PCOD8223994
_publ_section_title
;
Structure prediction by ZEFSAII (Michael W. Deem and Ramdas Pophale) SiO2 
 PCOD8223994
Probable space group: P C C A
;
_chemical_formula_sum "Si O2"
_cell_formula_units_Z 40
_cell_length_a 18.307437
_cell_length_b 10.930863
_cell_length_c 8.522501
_cell_angle_alpha 90.000000
_cell_angle_beta 90.000000
_cell_angle_gamma 90.000000
_cell_volume 1705.489541
_symmetry_space_group_name_H-M "P C C A"
_symmetry_group_IT_number 54
_symmetry_cell_setting 'orthorhombic'
loop_
_space_group_symop_operation_xyz
x,y,z
1/2-x,-y,z
1/2+x,-y,1/2-z
-x,y,1/2-z
-x,-y,-z
1/2+x,y,-z
1/2-x,y,1/2+z
x,-y,1/2+z
loop_
_atom_site_type_symbol
_atom_site_label
_atom_site_fract_x
_atom_site_fract_y
_atom_site_fract_z
Si Si1 0.923067 0.753984 0.336646
Si Si2 0.075084 0.327883 0.323711
Si Si3 0.188077 0.749146 0.592563
Si Si4 0.825531 0.555387 0.166929
Si Si5 0.297564 0.881046 0.786662
O O1 0.938218 0.753049 0.521619
O O2 0.872053 0.641562 0.282287
O O3 0.877774 0.879007 0.294471
O O4 0.000000 0.752683 0.250000
O O5 0.113805 0.243677 0.192459
O O6 0.123223 0.442033 0.375203
O O7 0.000000 0.375866 0.250000
O O8 0.191993 0.622086 0.498265
O O9 0.254559 0.761965 0.716501
O O10 0.192765 0.863616 0.472892
O O11 0.750000 0.500000 0.239631
O O12 0.250000 0.000000 0.749039
#
# Coordination Sequence:
#
# PCOD8223994 Si02
#       5
#     8   8   8   8   8
#     4  11  24  43  67  99 140 182 230 285 340 404
#     4  12  24  40  63  98 144 186 221 267 334 410
#     4  11  24  40  64  98 133 172 226 283 332 404
#     4  11  23  40  64  98 139 186 232 273 329 404
#     4  11  23  44  71  96 126 170 225 286 348 400
#
# _framework density 23.453678
#
# number of rings (size 3 to 8) (size 9 to 14) (size 15 to 20)
#    0.000    0.800    0.000    9.600    0.000    5.600 
#    0.000    2.000    0.000    9.600    0.000    1.400 
#    0.000    0.000    0.000    0.000    0.000    0.000 
#
# Total GULP energy -495892.812945 kJ/mol
# GULP energy per Si atom -12397.320324 kJ/mol
# Density = 2.340030 g / cm^3
# Si number density = 23.453678 Si / 1000 Ang^3
#
#
#
# Elastic Constant Matrix: (Units=GPa)
#
#
# Indices 1 2 3 4 5 6 
#
# 1 198.0392 62.2176 65.1262 0.0000 0.0000 0.0000
# 2 62.2176 91.6145 42.7637 0.0000 0.0000 0.0000
# 3 65.1262 42.7637 155.9486 0.0000 0.0000 0.0000
# 4 0.0000 0.0000 0.0000 1.3899 0.0000 0.0000
# 5 0.0000 0.0000 0.0000 0.0000 46.3561 0.0000
# 6 0.0000 0.0000 0.0000 0.0000 0.0000 36.6207
#
#
#
# Elastic Compliance Matrix: (Units=1/GPa)
#
#
# Indices 1 2 3 4 5 6 
#
# 1 0.006839 -0.003798 -0.001815 0.000000 0.000000 0.000000
# 2 -0.003798 0.014626 -0.002425 0.000000 0.000000 0.000000
# 3 -0.001815 -0.002425 0.007835 0.000000 0.000000 0.000000
# 4 0.000000 0.000000 0.000000 0.719466 0.000000 0.000000
# 5 0.000000 0.000000 0.000000 0.000000 0.021572 0.000000
# 6 0.000000 0.000000 0.000000 0.000000 0.000000 0.027307
#
#
# Mechanical properties :
#
#
# Convention : Reuss Voigt Hill
#
# Bulk Modulus (GPa) = 75.60746 87.31304 81.46025
# Shear Modulus (GPa) = 6.11151 35.23966 20.67558
#
# Velocity S-wave (km/s) = 1.61599 3.88044 2.97231
# Velocity P-wave (km/s) = 5.98238 7.57534 6.82549
#
# Compressibility (1/GPa) = 0.01322621
#
# Stress axis : x y z
#
# Youngs Moduli (GPa) = 146.21076 68.37015 127.62932
#
# Poissons Ratio (x) = 0.25965 0.23163
# Poissons Ratio (y) = 0.55526 0.30948
# Poissons Ratio (z) = 0.26535 0.16578
#
# Static dielectric constant tensor:
#      x y z
#    x 4.460220 0.000000 0.000000 
#    y 0.000000 3.926780 0.000000 
#    z 0.000000 0.000000 4.326800 
# 
# 
# High freq. dielectric constant tensor:
#      x y z
#    x 1.939920 0.000000 0.000000 
#    y 0.000000 1.898770 0.000000 
#    z 0.000000 0.000000 1.947190 
# 
# From -- ./inp_files/3959.got.cif
#   From: 2010.03.12/outbox.cif.g09.slc.cpg/sg54_2_cif.got.tgz:3959.got - 2010.04.16 15:00:50.
