data_PCOD8223180
_publ_section_title
;
Structure prediction by ZEFSAII (Michael W. Deem and Ramdas Pophale) SiO2 
 PCOD8223180
Probable space group: P C C A
;
_chemical_formula_sum "Si O2"
_cell_formula_units_Z 36
_cell_length_a 20.093316
_cell_length_b 9.795721
_cell_length_c 8.819497
_cell_angle_alpha 90.000000
_cell_angle_beta 90.000000
_cell_angle_gamma 90.000000
_cell_volume 1735.928520
_symmetry_space_group_name_H-M "P C C A"
_symmetry_group_IT_number 54
_symmetry_cell_setting 'orthorhombic'
loop_
_space_group_symop_operation_xyz
x,y,z
1/2-x,-y,z
1/2+x,-y,1/2-z
-x,y,1/2-z
-x,-y,-z
1/2+x,y,-z
1/2-x,y,1/2+z
x,-y,1/2+z
loop_
_atom_site_type_symbol
_atom_site_label
_atom_site_fract_x
_atom_site_fract_y
_atom_site_fract_z
Si Si1 0.585299 0.617975 0.612799
Si Si2 0.547411 0.075101 0.613674
Si Si3 0.562991 0.652581 0.965411
Si Si4 0.750000 0.000000 0.340709
Si Si5 0.664736 0.123008 0.099089
O O1 0.582892 0.633001 0.792557
O O2 0.517098 0.651533 0.524263
O O3 0.600677 0.462013 0.566172
O O4 0.642253 0.722779 0.560073
O O5 0.500000 0.124712 0.750000
O O6 0.585102 0.202833 0.535251
O O7 0.500000 0.000000 0.500000
O O8 0.603554 0.967378 0.663495
O O9 0.779910 0.881331 0.231735
O O10 0.692156 0.934597 0.441389
#
# Coordination Sequence:
#
# PCOD8223180 Si02
#       5
#     8   8   8   4   8
#     4  10  21  37  59  85 130 163 198 250 315 387
#     4  12  23  36  62  97 129 160 202 263 337 386
#     4  10  22  35  57  95 127 162 192 244 336 394
#     4  10  24  40  64  88 118 176 226 258 304 350
#     4  11  22  41  63  89 124 163 216 267 302 381
#
# _framework density 20.738181000000001
#
# number of rings (size 3 to 8) (size 9 to 14) (size 15 to 20)
#    0.000    1.333    2.222    4.000    6.222    0.000 
#    0.000    0.000    0.000   22.667    0.000    0.000 
#    0.000    0.000    0.000    0.000    0.000    0.000 
#
# Total GULP energy -446368.576736 kJ/mol
# GULP energy per Si atom -12399.127132 kJ/mol
# Density = 2.069098 g / cm^3
# Si number density = 20.738181 Si / 1000 Ang^3
#
#
#
# Elastic Constant Matrix: (Units=GPa)
#
#
# Indices 1 2 3 4 5 6 
#
# 1 67.8339 35.1948 24.6196 0.0000 0.0000 0.0000
# 2 35.1948 158.3782 47.2462 0.0000 0.0000 0.0000
# 3 24.6196 47.2462 109.0656 0.0000 0.0000 0.0000
# 4 0.0000 0.0000 0.0000 31.4899 0.0000 0.0000
# 5 0.0000 0.0000 0.0000 0.0000 29.3420 0.0000
# 6 0.0000 0.0000 0.0000 0.0000 0.0000 34.6911
#
#
#
# Elastic Compliance Matrix: (Units=1/GPa)
#
#
# Indices 1 2 3 4 5 6 
#
# 1 0.017267 -0.003071 -0.002567 0.000000 0.000000 0.000000
# 2 -0.003071 0.007797 -0.002684 0.000000 0.000000 0.000000
# 3 -0.002567 -0.002684 0.010911 0.000000 0.000000 0.000000
# 4 0.000000 0.000000 0.000000 0.031756 0.000000 0.000000
# 5 0.000000 0.000000 0.000000 0.000000 0.034081 0.000000
# 6 0.000000 0.000000 0.000000 0.000000 0.000000 0.028826
#
#
# Mechanical properties :
#
#
# Convention : Reuss Voigt Hill
#
# Bulk Modulus (GPa) = 51.73402 61.04431 56.38916
# Shear Modulus (GPa) = 32.52505 34.31909 33.42207
#
# Velocity S-wave (km/s) = 3.96456 4.07243 4.01885
# Velocity P-wave (km/s) = 6.77919 7.18418 6.98462
#
# Compressibility (1/GPa) = 0.01932964
#
# Stress axis : x y z
#
# Youngs Moduli (GPa) = 57.91347 128.24966 91.64903
#
# Poissons Ratio (x) = 0.39389 0.23529
# Poissons Ratio (y) = 0.17787 0.24603
# Poissons Ratio (z) = 0.14868 0.34428
#
# Static dielectric constant tensor:
#      x y z
#    x 3.586990 0.000000 0.000000 
#    y 0.000000 4.071940 0.000000 
#    z 0.000000 0.000000 3.633670 
# 
# 
# High freq. dielectric constant tensor:
#      x y z
#    x 1.781270 0.000000 0.000000 
#    y 0.000000 1.809170 0.000000 
#    z 0.000000 0.000000 1.825650 
# 
# From -- ./inp_files/4557.got.cif
#   From: 2010.03.12/outbox.cif.g09.slc.cpg/sg54_3_cif.got.tgz:4557.got - 2010.04.16 15:00:50.
