data_PCOD8223753
_publ_section_title
;
Structure prediction by ZEFSAII (Michael W. Deem and Ramdas Pophale) SiO2 
 PCOD8223753
Probable space group: P C C A
;
_chemical_formula_sum "Si O2"
_cell_formula_units_Z 20
_cell_length_a 12.067931
_cell_length_b 5.152554
_cell_length_c 12.930554
_cell_angle_alpha 90.000000
_cell_angle_beta 90.000000
_cell_angle_gamma 90.000000
_cell_volume 804.030461
_symmetry_space_group_name_H-M "P C C A"
_symmetry_group_IT_number 54
_symmetry_cell_setting 'orthorhombic'
loop_
_space_group_symop_operation_xyz
x,y,z
1/2-x,-y,z
1/2+x,-y,1/2-z
-x,y,1/2-z
-x,-y,-z
1/2+x,y,-z
1/2-x,y,1/2+z
x,-y,1/2+z
loop_
_atom_site_type_symbol
_atom_site_label
_atom_site_fract_x
_atom_site_fract_y
_atom_site_fract_z
Si Si1 0.060569 0.248887 0.541547
Si Si2 0.318715 0.762683 0.735827
Si Si3 0.750000 0.000000 0.068293
O O1 0.069336 0.266919 0.667106
O O2 0.186369 0.219579 0.497623
O O3 0.000000 0.500000 0.500000
O O4 0.000000 0.000000 0.500000
O O5 0.250000 0.500000 0.730218
O O6 0.250000 0.000000 0.683635
O O7 0.338964 0.844187 0.856665
#
# Coordination Sequence:
#
# PCOD8223753 Si02
#       3
#     8   8   4
#     4  12  27  45  75 108 144 190 249 302 369 448
#     4  10  23  45  72  98 142 194 236 289 380 430
#     4  10  26  48  74  98 156 192 230 320 366 428
#
# _framework density 24.874680000000001
#
# number of rings (size 3 to 8) (size 9 to 14) (size 15 to 20)
#    1.200    0.000    2.000    2.400    5.600    1.600 
#    0.000    0.000    0.000    0.000    0.000    0.000 
#    0.000    0.000    0.000    0.000    0.000    0.000 
#
# Total GULP energy -247781.379116 kJ/mol
# GULP energy per Si atom -12389.068956 kJ/mol
# Density = 2.481806 g / cm^3
# Si number density = 24.874680 Si / 1000 Ang^3
#
#
#
# Elastic Constant Matrix: (Units=GPa)
#
#
# Indices 1 2 3 4 5 6 
#
# 1 37.2977 24.3315 22.6229 0.0000 0.0000 0.0000
# 2 24.3315 192.6485 29.7542 0.0000 0.0000 0.0000
# 3 22.6229 29.7542 120.0681 0.0000 0.0000 0.0000
# 4 0.0000 0.0000 0.0000 -1.5192 0.0000 0.0000
# 5 0.0000 0.0000 0.0000 0.0000 8.0696 0.0000
# 6 0.0000 0.0000 0.0000 0.0000 0.0000 63.9767
#
#
#
# Elastic Compliance Matrix: (Units=1/GPa)
#
#
# Indices 1 2 3 4 5 6 
#
# 1 0.032110 -0.003245 -0.005246 0.000000 0.000000 0.000000
# 2 -0.003245 0.005725 -0.000807 0.000000 0.000000 0.000000
# 3 -0.005246 -0.000807 0.009517 0.000000 0.000000 0.000000
# 4 0.000000 0.000000 0.000000 -0.658225 0.000000 0.000000
# 5 0.000000 0.000000 0.000000 0.000000 0.123921 0.000000
# 6 0.000000 0.000000 0.000000 0.000000 0.000000 0.015631
#
#
# Mechanical properties :
#
#
# Convention : Reuss Voigt Hill
#
# Bulk Modulus (GPa) = 34.77579 55.93684 45.35631
# Shear Modulus (GPa) = -11.28318 32.32580 10.52131
#
# Velocity S-wave (km/s) = -2.13210 3.60883 2.05886
# Velocity P-wave (km/s) = 2.81950 6.31674 4.89136
#
# Compressibility (1/GPa) = 0.02875564
#
# Stress axis : x y z
#
# Youngs Moduli (GPa) = 31.14266 174.66097 105.07409
#
# Poissons Ratio (x) = 0.56683 0.55121
# Poissons Ratio (y) = 0.10107 0.08483
# Poissons Ratio (z) = 0.16337 0.14101
#
# Static dielectric constant tensor:
#      x y z
#    x -0.154460 0.000000 0.000000 
#    y 0.000000 4.341600 0.000000 
#    z 0.000000 0.000000 4.884710 
# 
# 
# High freq. dielectric constant tensor:
#      x y z
#    x 1.973890 0.000000 0.000000 
#    y 0.000000 1.993130 0.000000 
#    z 0.000000 0.000000 2.012550 
# 
# From -- ./inp_files/7759.got.cif
#   From: 2010.03.12/outbox.cif.g09.slc.cpg/sg54_4_cif.got.tgz:7759.got - 2010.04.16 15:00:50.
