data_PCOD8223099
_publ_section_title
;
Structure prediction by ZEFSAII (Michael W. Deem and Ramdas Pophale) SiO2 
 PCOD8223099
Probable space group: P C C A
;
_chemical_formula_sum "Si O2"
_cell_formula_units_Z 36
_cell_length_a 13.716287
_cell_length_b 11.994831
_cell_length_c 10.795862
_cell_angle_alpha 90.000000
_cell_angle_beta 90.000000
_cell_angle_gamma 90.000000
_cell_volume 1776.184278
_symmetry_space_group_name_H-M "P C C A"
_symmetry_group_IT_number 54
_symmetry_cell_setting 'orthorhombic'
loop_
_space_group_symop_operation_xyz
x,y,z
1/2-x,-y,z
1/2+x,-y,1/2-z
-x,y,1/2-z
-x,-y,-z
1/2+x,y,-z
1/2-x,y,1/2+z
x,-y,1/2+z
loop_
_atom_site_type_symbol
_atom_site_label
_atom_site_fract_x
_atom_site_fract_y
_atom_site_fract_z
Si Si1 0.500000 0.702664 0.250000
Si Si2 0.221759 0.253358 0.562041
Si Si3 0.541367 0.119656 0.372727
Si Si4 0.401980 0.885959 0.086762
Si Si5 0.791447 0.622441 0.693746
O O1 0.460905 0.782590 0.143055
O O2 0.409869 0.625043 0.295479
O O3 0.112081 0.207714 0.561450
O O4 0.289719 0.145179 0.570374
O O5 0.241414 0.329301 0.682477
O O6 0.241008 0.314262 0.431536
O O7 0.500000 0.177690 0.250000
O O8 0.447575 0.090453 0.453727
O O9 0.593046 0.001508 0.336218
O O10 0.750000 0.500000 0.677202
#
# Coordination Sequence:
#
# PCOD8223099 Si02
#       5
#     4   8   8   8   8
#     4  10  20  44  64  86 132 170 200 272 324 380
#     4  11  23  41  66  94 131 166 218 268 323 384
#     4  11  21  37  62  97 132 165 209 252 319 398
#     4  10  21  37  61  93 129 169 199 256 321 390
#     4  11  24  45  65  94 124 173 224 274 325 375
#
# _framework density 20.268166999999998
#
# number of rings (size 3 to 8) (size 9 to 14) (size 15 to 20)
#    0.000    1.333    3.333    2.667    0.000    0.000 
#    6.000    7.778    0.000    0.000    0.000    0.000 
#    0.000    0.000    0.000    0.000    0.000    0.000 
#
# Total GULP energy -446258.714866 kJ/mol
# GULP energy per Si atom -12396.075413 kJ/mol
# Density = 2.022204 g / cm^3
# Si number density = 20.268167 Si / 1000 Ang^3
#
#
#
# Elastic Constant Matrix: (Units=GPa)
#
#
# Indices 1 2 3 4 5 6 
#
# 1 69.4709 20.5770 15.6690 0.0000 0.0000 0.0000
# 2 20.5770 83.6047 16.1215 0.0000 0.0000 0.0000
# 3 15.6690 16.1215 111.2961 0.0000 0.0000 0.0000
# 4 0.0000 0.0000 0.0000 22.0247 0.0000 0.0000
# 5 0.0000 0.0000 0.0000 0.0000 31.7718 0.0000
# 6 0.0000 0.0000 0.0000 0.0000 0.0000 22.8414
#
#
#
# Elastic Compliance Matrix: (Units=1/GPa)
#
#
# Indices 1 2 3 4 5 6 
#
# 1 0.015838 -0.003568 -0.001713 0.000000 0.000000 0.000000
# 2 -0.003568 0.013108 -0.001397 0.000000 0.000000 0.000000
# 3 -0.001713 -0.001397 0.009428 0.000000 0.000000 0.000000
# 4 0.000000 0.000000 0.000000 0.045403 0.000000 0.000000
# 5 0.000000 0.000000 0.000000 0.000000 0.031474 0.000000
# 6 0.000000 0.000000 0.000000 0.000000 0.000000 0.043780
#
#
# Mechanical properties :
#
#
# Convention : Reuss Voigt Hill
#
# Bulk Modulus (GPa) = 39.96760 41.01185 40.48972
# Shear Modulus (GPa) = 27.66606 29.46121 28.56364
#
# Velocity S-wave (km/s) = 3.69860 3.81671 3.75812
# Velocity P-wave (km/s) = 6.16455 6.30092 6.23311
#
# Compressibility (1/GPa) = 0.02502027
#
# Stress axis : x y z
#
# Youngs Moduli (GPa) = 63.14091 76.28685 106.06159
#
# Poissons Ratio (x) = 0.27217 0.18168
# Poissons Ratio (y) = 0.22527 0.14812
# Poissons Ratio (z) = 0.10816 0.10653
#
# Static dielectric constant tensor:
#      x y z
#    x 3.800880 0.000000 0.000000 
#    y 0.000000 3.517710 0.000000 
#    z 0.000000 0.000000 3.717610 
# 
# 
# High freq. dielectric constant tensor:
#      x y z
#    x 1.797660 0.000000 0.000000 
#    y 0.000000 1.779040 0.000000 
#    z 0.000000 0.000000 1.799850 
# 
# From -- ./inp_files/7391.got.cif
#   From: 2010.03.12/outbox.cif.g09.slc.cpg/sg54_4_cif.got.tgz:7391.got - 2010.04.16 15:00:50.
