data_PCOD8223073
_publ_section_title
;
Structure prediction by ZEFSAII (Michael W. Deem and Ramdas Pophale) SiO2 
 PCOD8223073
Probable space group: P C C A
;
_chemical_formula_sum "Si O2"
_cell_formula_units_Z 44
_cell_length_a 8.125692
_cell_length_b 9.645323
_cell_length_c 25.336939
_cell_angle_alpha 90.000000
_cell_angle_beta 90.000000
_cell_angle_gamma 90.000000
_cell_volume 1985.780667
_symmetry_space_group_name_H-M "P C C A"
_symmetry_group_IT_number 54
_symmetry_cell_setting 'orthorhombic'
loop_
_space_group_symop_operation_xyz
x,y,z
1/2-x,-y,z
1/2+x,-y,1/2-z
-x,y,1/2-z
-x,-y,-z
1/2+x,y,-z
1/2-x,y,1/2+z
x,-y,1/2+z
loop_
_atom_site_type_symbol
_atom_site_label
_atom_site_fract_x
_atom_site_fract_y
_atom_site_fract_z
Si Si1 0.250000 0.000000 0.365882
Si Si2 0.596930 0.093239 0.342829
Si Si3 0.750000 0.500000 0.386679
Si Si4 0.890303 0.247759 0.944929
Si Si5 0.011432 0.391102 0.689894
Si Si6 0.768051 0.255100 0.059322
Si Si7 0.250000 0.500000 0.378705
O O1 0.296969 0.871430 0.402083
O O2 0.084207 0.973060 0.330991
O O3 0.619988 0.115039 0.405969
O O4 0.602312 0.242241 0.313476
O O5 0.750000 0.000000 0.321806
O O6 0.733056 0.365998 0.423755
O O7 0.599108 0.509712 0.345312
O O8 0.077137 0.301270 0.945325
O O9 0.839048 0.205727 0.003491
O O10 0.836712 0.388268 0.660434
O O11 0.000000 0.440644 0.750000
O O12 0.854481 0.395049 0.082853
#
# Coordination Sequence:
#
# PCOD8223073 Si02
#       7
#     4   8   4   8   8   8   4
#     4  10  22  44  62 100 136 186 224 272 346 406
#     4  10  23  45  66  95 138 176 228 285 337 417
#     4  10  20  42  62  90 134 170 212 288 342 400
#     4  10  23  38  59  99 131 178 226 265 333 420
#     4  11  24  45  68  99 129 171 238 290 351 414
#     4  11  24  37  64  95 140 178 226 274 332 418
#     4  12  22  44  64  94 138 170 212 298 326 406
#
# _framework density 22.157533000000001
#
# number of rings (size 3 to 8) (size 9 to 14) (size 15 to 20)
#    0.000    1.455    5.455    1.091    6.364    4.364 
#    1.636    0.000    0.000    0.000    0.000    0.000 
#    0.000    0.000    0.000    0.000    0.000    0.000 
#
# Total GULP energy -545116.383150 kJ/mol
# GULP energy per Si atom -12389.008708 kJ/mol
# Density = 2.210710 g / cm^3
# Si number density = 22.157533 Si / 1000 Ang^3
#
#
#
# Elastic Constant Matrix: (Units=GPa)
#
#
# Indices 1 2 3 4 5 6 
#
# 1 90.8808 23.4827 9.8175 0.0000 0.0000 0.0000
# 2 23.4827 75.6897 -11.1471 0.0000 0.0000 0.0000
# 3 9.8175 -11.1471 55.1417 0.0000 0.0000 0.0000
# 4 0.0000 0.0000 0.0000 17.2204 0.0000 0.0000
# 5 0.0000 0.0000 0.0000 0.0000 12.9944 0.0000
# 6 0.0000 0.0000 0.0000 0.0000 0.0000 29.3734
#
#
#
# Elastic Compliance Matrix: (Units=1/GPa)
#
#
# Indices 1 2 3 4 5 6 
#
# 1 0.012453 -0.004319 -0.003090 0.000000 0.000000 0.000000
# 2 -0.004319 0.015115 0.003824 0.000000 0.000000 0.000000
# 3 -0.003090 0.003824 0.019458 0.000000 0.000000 0.000000
# 4 0.000000 0.000000 0.000000 0.058071 0.000000 0.000000
# 5 0.000000 0.000000 0.000000 0.000000 0.076956 0.000000
# 6 0.000000 0.000000 0.000000 0.000000 0.000000 0.034044
#
#
# Mechanical properties :
#
#
# Convention : Reuss Voigt Hill
#
# Bulk Modulus (GPa) = 25.08932 29.55761 27.32346
# Shear Modulus (GPa) = 21.13695 25.22158 23.17926
#
# Velocity S-wave (km/s) = 3.09194 3.37751 3.23787
# Velocity P-wave (km/s) = 4.90862 5.34591 5.13193
#
# Compressibility (1/GPa) = 0.03985759
#
# Stress axis : x y z
#
# Youngs Moduli (GPa) = 80.30091 66.15959 51.39167
#
# Poissons Ratio (x) = 0.28572 0.15881
# Poissons Ratio (y) = 0.34680 -0.19655
# Poissons Ratio (z) = 0.24815 -0.25302
#
# Static dielectric constant tensor:
#      x y z
#    x 4.226560 0.000000 0.000000 
#    y 0.000000 3.918430 0.000000 
#    z 0.000000 0.000000 3.872530 
# 
# 
# High freq. dielectric constant tensor:
#      x y z
#    x 1.864580 0.000000 0.000000 
#    y 0.000000 1.866360 0.000000 
#    z 0.000000 0.000000 1.860610 
# 
# From -- ./inp_files/27659.got.cif
#   From: 2010.03.12/outbox.cif.g09.slc.cpg/sg54_14_cif.got.tgz:27659.got - 2010.04.16 15:00:50.
