data_PCOD8223561
_publ_section_title
;
Structure prediction by ZEFSAII (Michael W. Deem and Ramdas Pophale) SiO2 
 PCOD8223561
Probable space group: P C C A
;
_chemical_formula_sum "Si O2"
_cell_formula_units_Z 52
_cell_length_a 20.499940
_cell_length_b 7.990007
_cell_length_c 15.159553
_cell_angle_alpha 90.000000
_cell_angle_beta 90.000000
_cell_angle_gamma 90.000000
_cell_volume 2483.053892
_symmetry_space_group_name_H-M "P C C A"
_symmetry_group_IT_number 54
_symmetry_cell_setting 'orthorhombic'
loop_
_space_group_symop_operation_xyz
x,y,z
1/2-x,-y,z
1/2+x,-y,1/2-z
-x,y,1/2-z
-x,-y,-z
1/2+x,y,-z
1/2-x,y,1/2+z
x,-y,1/2+z
loop_
_atom_site_type_symbol
_atom_site_label
_atom_site_fract_x
_atom_site_fract_y
_atom_site_fract_z
Si Si1 0.571861 0.446574 0.263447
Si Si2 0.750000 0.500000 0.993559
Si Si3 0.930865 0.164146 0.280504
Si Si4 0.074125 0.037282 0.023989
Si Si5 0.317621 0.057610 0.256482
Si Si6 0.355735 0.726000 0.595030
Si Si7 0.349624 0.717620 0.896657
O O1 0.500000 0.370616 0.250000
O O2 0.571278 0.644314 0.254623
O O3 0.594023 0.411737 0.365774
O O4 0.613268 0.379278 0.180952
O O5 0.788341 0.359572 0.936995
O O6 0.693925 0.412411 0.049927
O O7 0.000000 0.085126 0.250000
O O8 0.920178 0.128348 0.382815
O O9 0.871303 0.084925 0.225255
O O10 0.113908 0.858663 0.024589
O O11 0.101966 0.174242 0.956834
O O12 0.000000 0.000000 0.000000
O O13 0.346252 0.181390 0.186105
O O14 0.302004 0.149908 0.348769
O O15 0.250000 0.000000 0.215180
#
# Coordination Sequence:
#
# PCOD8223561 Si02
#       7
#     8   4   8   8   8   8   8
#     4  10  22  44  68  95 129 170 224 271 332 395
#     4  12  28  42  62  98 144 172 218 264 338 400
#     4  10  22  41  68  95 128 173 219 267 328 405
#     4  11  23  42  69 100 131 167 221 281 336 382
#     4  10  24  40  65  89 122 173 219 262 313 397
#     4  10  25  41  65  90 130 179 209 264 325 403
#     4  11  26  40  63  97 130 172 213 279 324 386
#
# _framework density 20.941956000000001
#
# number of rings (size 3 to 8) (size 9 to 14) (size 15 to 20)
#    0.000    1.538    0.000    2.769   10.769    8.000 
#    0.000    5.385    0.000    0.000    0.000    0.000 
#    0.000    0.000    0.000    0.000    0.000    0.000 
#
# Total GULP energy -644302.530928 kJ/mol
# GULP energy per Si atom -12390.433287 kJ/mol
# Density = 2.089429 g / cm^3
# Si number density = 20.941956 Si / 1000 Ang^3
#
#
#
# Elastic Constant Matrix: (Units=GPa)
#
#
# Indices 1 2 3 4 5 6 
#
# 1 133.2828 48.2931 23.8182 0.0000 0.0000 0.0000
# 2 48.2931 92.8633 29.5505 0.0000 0.0000 0.0000
# 3 23.8182 29.5505 67.9663 0.0000 0.0000 0.0000
# 4 0.0000 0.0000 0.0000 15.4591 0.0000 0.0000
# 5 0.0000 0.0000 0.0000 0.0000 35.9799 0.0000
# 6 0.0000 0.0000 0.0000 0.0000 0.0000 39.6840
#
#
#
# Elastic Compliance Matrix: (Units=1/GPa)
#
#
# Indices 1 2 3 4 5 6 
#
# 1 0.009350 -0.004433 -0.001349 0.000000 0.000000 0.000000
# 2 -0.004433 0.014600 -0.004794 0.000000 0.000000 0.000000
# 3 -0.001349 -0.004794 0.017270 0.000000 0.000000 0.000000
# 4 0.000000 0.000000 0.000000 0.064687 0.000000 0.000000
# 5 0.000000 0.000000 0.000000 0.000000 0.027793 0.000000
# 6 0.000000 0.000000 0.000000 0.000000 0.000000 0.025199
#
#
# Mechanical properties :
#
#
# Convention : Reuss Voigt Hill
#
# Bulk Modulus (GPa) = 49.83258 55.27066 52.55162
# Shear Modulus (GPa) = 26.77500 31.05464 28.91482
#
# Velocity S-wave (km/s) = 3.57954 3.85501 3.71983
# Velocity P-wave (km/s) = 6.39776 6.80179 6.60287
#
# Compressibility (1/GPa) = 0.02006719
#
# Stress axis : x y z
#
# Youngs Moduli (GPa) = 106.94875 68.49535 57.90269
#
# Poissons Ratio (x) = 0.30365 0.07812
# Poissons Ratio (y) = 0.47413 0.27759
# Poissons Ratio (z) = 0.14430 0.32837
#
# Static dielectric constant tensor:
#      x y z
#    x 3.518410 0.000000 0.000000 
#    y 0.000000 4.144650 0.000000 
#    z 0.000000 0.000000 3.851860 
# 
# 
# High freq. dielectric constant tensor:
#      x y z
#    x 1.826790 0.000000 0.000000 
#    y 0.000000 1.834940 0.000000 
#    z 0.000000 0.000000 1.823760 
# 
# From -- ./inp_files/14627.got.cif
#   From: 2010.03.12/outbox.cif.g09.slc.cpg/sg54_8_cif.got.tgz:14627.got - 2010.04.16 15:00:50.
