data_PCOD8223650
_publ_section_title
;
Structure prediction by ZEFSAII (Michael W. Deem and Ramdas Pophale) SiO2 
 PCOD8223650
Probable space group: P C C A
;
_chemical_formula_sum "Si O2"
_cell_formula_units_Z 32
_cell_length_a 14.499948
_cell_length_b 7.315124
_cell_length_c 14.203542
_cell_angle_alpha 90.000000
_cell_angle_beta 90.000000
_cell_angle_gamma 90.000000
_cell_volume 1506.554326
_symmetry_space_group_name_H-M "P C C A"
_symmetry_group_IT_number 54
_symmetry_cell_setting 'orthorhombic'
loop_
_space_group_symop_operation_xyz
x,y,z
1/2-x,-y,z
1/2+x,-y,1/2-z
-x,y,1/2-z
-x,-y,-z
1/2+x,y,-z
1/2-x,y,1/2+z
x,-y,1/2+z
loop_
_atom_site_type_symbol
_atom_site_label
_atom_site_fract_x
_atom_site_fract_y
_atom_site_fract_z
Si Si1 0.850605 0.963981 0.738998
Si Si2 0.830389 0.749559 0.405026
Si Si3 0.456613 0.856252 0.433674
Si Si4 0.131757 0.343227 0.131097
O O1 0.925968 0.978279 0.656742
O O2 0.861446 0.750547 0.766664
O O3 0.750000 0.000000 0.695400
O O4 0.864671 0.092545 0.831805
O O5 0.871986 0.765525 0.509684
O O6 0.719994 0.746042 0.423852
O O7 0.861205 0.559799 0.357293
O O8 0.532918 0.701986 0.413922
O O9 0.500000 0.000000 0.500000
#
# Coordination Sequence:
#
# PCOD8223650 Si02
#       4
#     8   8   8   8
#     4  10  23  43  65  93 128 169 215 264 320 385
#     4  10  23  45  67  92 135 173 211 269 320 378
#     4  12  24  39  68  97 129 168 215 265 323 382
#     4  10  22  45  65  95 131 171 216 265 319 383
#
# _framework density 21.240521999999999
#
# number of rings (size 3 to 8) (size 9 to 14) (size 15 to 20)
#    0.000    1.500    2.500    1.500    3.500    0.000 
#   13.500    2.500    0.000    0.000    0.000    0.000 
#    0.000    0.000    0.000    0.000    0.000    0.000 
#
# Total GULP energy -396462.770456 kJ/mol
# GULP energy per Si atom -12389.461577 kJ/mol
# Density = 2.119218 g / cm^3
# Si number density = 21.240522 Si / 1000 Ang^3
#
#
#
# Elastic Constant Matrix: (Units=GPa)
#
#
# Indices 1 2 3 4 5 6 
#
# 1 136.6926 28.1956 64.1676 0.0000 0.0000 0.0000
# 2 28.1956 97.3017 39.2642 0.0000 0.0000 0.0000
# 3 64.1676 39.2642 103.1469 0.0000 0.0000 0.0000
# 4 0.0000 0.0000 0.0000 22.3437 0.0000 0.0000
# 5 0.0000 0.0000 0.0000 0.0000 44.7547 0.0000
# 6 0.0000 0.0000 0.0000 0.0000 0.0000 30.8234
#
#
#
# Elastic Compliance Matrix: (Units=1/GPa)
#
#
# Indices 1 2 3 4 5 6 
#
# 1 0.010352 -0.000474 -0.006260 0.000000 0.000000 0.000000
# 2 -0.000474 0.012164 -0.004336 0.000000 0.000000 0.000000
# 3 -0.006260 -0.004336 0.015239 0.000000 0.000000 0.000000
# 4 0.000000 0.000000 0.000000 0.044755 0.000000 0.000000
# 5 0.000000 0.000000 0.000000 0.000000 0.022344 0.000000
# 6 0.000000 0.000000 0.000000 0.000000 0.000000 0.032443
#
#
# Mechanical properties :
#
#
# Convention : Reuss Voigt Hill
#
# Bulk Modulus (GPa) = 64.03121 66.71067 65.37094
# Shear Modulus (GPa) = 30.36901 33.28527 31.82714
#
# Velocity S-wave (km/s) = 3.78533 3.96291 3.87514
# Velocity P-wave (km/s) = 7.02255 7.23982 7.13201
#
# Compressibility (1/GPa) = 0.01561738
#
# Stress axis : x y z
#
# Youngs Moduli (GPa) = 96.60140 82.20845 65.61943
#
# Poissons Ratio (x) = 0.03895 0.41074
# Poissons Ratio (y) = 0.04577 0.28451
# Poissons Ratio (z) = 0.60468 0.35643
#
# Static dielectric constant tensor:
#      x y z
#    x 4.240270 0.000000 0.000000 
#    y 0.000000 4.084260 0.000000 
#    z 0.000000 0.000000 4.734170 
# 
# 
# High freq. dielectric constant tensor:
#      x y z
#    x 1.856680 0.000000 0.000000 
#    y 0.000000 1.829890 0.000000 
#    z 0.000000 0.000000 1.812790 
# 
# From -- ./inp_files/7936.got.cif
#   From: 2010.03.12/outbox.cif.g09.slc.cpg/sg54_4_cif.got.tgz:7936.got - 2010.04.16 15:00:50.
