data_PCOD8223247
_publ_section_title
;
Structure prediction by ZEFSAII (Michael W. Deem and Ramdas Pophale) SiO2 
 PCOD8223247
Probable space group: P C C A
;
_chemical_formula_sum "Si O2"
_cell_formula_units_Z 64
_cell_length_a 11.541639
_cell_length_b 15.175829
_cell_length_c 17.680057
_cell_angle_alpha 90.000000
_cell_angle_beta 90.000000
_cell_angle_gamma 90.000000
_cell_volume 3096.731640
_symmetry_space_group_name_H-M "P C C A"
_symmetry_group_IT_number 54
_symmetry_cell_setting 'orthorhombic'
loop_
_space_group_symop_operation_xyz
x,y,z
1/2-x,-y,z
1/2+x,-y,1/2-z
-x,y,1/2-z
-x,-y,-z
1/2+x,y,-z
1/2-x,y,1/2+z
x,-y,1/2+z
loop_
_atom_site_type_symbol
_atom_site_label
_atom_site_fract_x
_atom_site_fract_y
_atom_site_fract_z
Si Si1 0.249655 0.603742 0.801134
Si Si2 0.756773 0.903141 0.133829
Si Si3 0.703464 0.093203 0.959055
Si Si4 0.276422 0.599531 0.123788
Si Si5 0.425545 0.751138 0.824570
Si Si6 0.975251 0.177105 0.095303
Si Si7 0.874477 0.751973 0.444334
Si Si8 0.990939 0.653206 0.664860
O O1 0.250000 0.500000 0.815128
O O2 0.244239 0.625189 0.711551
O O3 0.361729 0.656226 0.831369
O O4 0.143941 0.637820 0.853917
O O5 0.834369 0.832255 0.178884
O O6 0.623258 0.878109 0.135029
O O7 0.750000 0.000000 0.172203
O O8 0.805555 0.907983 0.049150
O O9 0.573261 0.109537 0.931069
O O10 0.789005 0.167137 0.926500
O O11 0.750000 0.000000 0.928063
O O12 0.250000 0.500000 0.102729
O O13 0.198857 0.662521 0.070370
O O14 0.415680 0.605676 0.110139
O O15 0.500000 0.755577 0.750000
O O16 0.510731 0.758338 0.894781
O O17 0.024186 0.243673 0.158423
O O18 0.920694 0.239802 0.029734
O O19 0.000000 0.616816 0.750000
#
# Coordination Sequence:
#
# PCOD8223247 Si02
#       8
#     8   8   8   8   8   8   8   8
#     4  10  22  38  63  92 117 163 211 251 304 372
#     4  10  23  40  63  90 124 164 208 253 313 373
#     4  10  22  39  65  93 119 162 210 256 304 370
#     4  10  21  39  62  89 121 160 206 256 310 365
#     4  12  23  39  63  91 129 164 204 261 317 365
#     4  11  21  40  65  87 125 161 209 256 307 369
#     4  11  23  37  62  91 123 160 205 258 313 367
#     4  10  21  39  63  86 122 160 205 250 304 369
#
# _framework density 20.666951000000001
#
# number of rings (size 3 to 8) (size 9 to 14) (size 15 to 20)
#    0.000    1.500    5.000    0.000    3.500    2.000 
#    0.000    2.500    0.000    0.000    0.000    0.000 
#    0.000    0.000    0.000    0.000    0.000    0.000 
#
# Total GULP energy -793171.876094 kJ/mol
# GULP energy per Si atom -12393.310564 kJ/mol
# Density = 2.061991 g / cm^3
# Si number density = 20.666951 Si / 1000 Ang^3
#
#
#
# Elastic Constant Matrix: (Units=GPa)
#
#
# Indices 1 2 3 4 5 6 
#
# 1 146.6334 70.7294 23.5541 0.0000 0.0000 0.0000
# 2 70.7294 168.2359 25.1561 0.0000 0.0000 0.0000
# 3 23.5541 25.1561 22.0174 0.0000 0.0000 0.0000
# 4 0.0000 0.0000 0.0000 33.2080 0.0000 0.0000
# 5 0.0000 0.0000 0.0000 0.0000 70.9860 0.0000
# 6 0.0000 0.0000 0.0000 0.0000 0.0000 28.9123
#
#
#
# Elastic Compliance Matrix: (Units=1/GPa)
#
#
# Indices 1 2 3 4 5 6 
#
# 1 0.009288 -0.002917 -0.006602 0.000000 0.000000 0.000000
# 2 -0.002917 0.008085 -0.006117 0.000000 0.000000 0.000000
# 3 -0.006602 -0.006117 0.059471 0.000000 0.000000 0.000000
# 4 0.000000 0.000000 0.000000 0.030113 0.000000 0.000000
# 5 0.000000 0.000000 0.000000 0.000000 0.014087 0.000000
# 6 0.000000 0.000000 0.000000 0.000000 0.000000 0.034587
#
#
# Mechanical properties :
#
#
# Convention : Reuss Voigt Hill
#
# Bulk Modulus (GPa) = 21.94418 63.97400 42.95909
# Shear Modulus (GPa) = 24.74086 41.11772 32.92929
#
# Velocity S-wave (km/s) = 3.46370 4.46526 3.99599
# Velocity P-wave (km/s) = 5.16114 7.58991 6.49015
#
# Compressibility (1/GPa) = 0.04557017
#
# Stress axis : x y z
#
# Youngs Moduli (GPa) = 107.67137 123.68291 16.81498
#
# Poissons Ratio (x) = 0.36083 0.11102
# Poissons Ratio (y) = 0.31412 0.10285
# Poissons Ratio (z) = 0.71090 0.75654
#
# Static dielectric constant tensor:
#      x y z
#    x 4.223100 0.000000 0.000000 
#    y 0.000000 3.828230 0.000000 
#    z 0.000000 0.000000 3.715090 
# 
# 
# High freq. dielectric constant tensor:
#      x y z
#    x 1.831360 0.000000 0.000000 
#    y 0.000000 1.813860 0.000000 
#    z 0.000000 0.000000 1.774480 
# 
# From -- ./inp_files/17459.got.cif
#   From: 2010.03.12/outbox.cif.g09.slc.cpg/sg54_9_cif.got.tgz:17459.got - 2010.04.16 15:00:50.
