data_PCOD8223603
_publ_section_title
;
Structure prediction by ZEFSAII (Michael W. Deem and Ramdas Pophale) SiO2 
 PCOD8223603
Probable space group: P C C A
;
_chemical_formula_sum "Si O2"
_cell_formula_units_Z 60
_cell_length_a 26.292504
_cell_length_b 5.528749
_cell_length_c 17.870262
_cell_angle_alpha 90.000000
_cell_angle_beta 90.000000
_cell_angle_gamma 90.000000
_cell_volume 2597.704474
_symmetry_space_group_name_H-M "P C C A"
_symmetry_group_IT_number 54
_symmetry_cell_setting 'orthorhombic'
loop_
_space_group_symop_operation_xyz
x,y,z
1/2-x,-y,z
1/2+x,-y,1/2-z
-x,y,1/2-z
-x,-y,-z
1/2+x,y,-z
1/2-x,y,1/2+z
x,-y,1/2+z
loop_
_atom_site_type_symbol
_atom_site_label
_atom_site_fract_x
_atom_site_fract_y
_atom_site_fract_z
Si Si1 0.019129 0.615120 0.173304
Si Si2 0.339436 0.334560 0.044379
Si Si3 0.134278 0.693493 0.883001
Si Si4 0.750000 0.500000 0.862751
Si Si5 0.389042 0.067567 0.168387
Si Si6 0.200614 0.851517 0.753332
Si Si7 0.426490 0.697862 0.067765
Si Si8 0.926764 0.186169 0.598504
O O1 0.073463 0.726718 0.199000
O O2 0.026568 0.469733 0.095063
O O3 0.000000 0.481409 0.250000
O O4 0.977958 0.816077 0.147973
O O5 0.284939 0.344260 0.083098
O O6 0.369132 0.119819 0.084500
O O7 0.372075 0.576556 0.053448
O O8 0.332503 0.275455 0.957685
O O9 0.176471 0.686030 0.817946
O O10 0.102707 0.441428 0.883796
O O11 0.100745 0.938698 0.875310
O O12 0.715348 0.324735 0.813691
O O13 0.342745 0.038636 0.226129
O O14 0.421785 0.833975 0.148034
O O15 0.250000 0.000000 0.781699
O O16 0.440705 0.833461 0.990341
#
# Coordination Sequence:
#
# PCOD8223603 Si02
#       8
#     8   8   8   4   8   8   8   8
#     4  11  26  40  68 105 141 189 242 293 366 431
#     4  10  22  45  67 103 131 190 237 301 346 439
#     4  11  27  47  74 104 151 181 245 303 368 421
#     4  12  24  42  74  98 140 186 250 288 372 434
#     4  11  22  43  69  97 140 186 239 293 355 437
#     4  12  27  45  73 105 145 193 237 306 375 433
#     4  10  22  42  70  95 141 183 240 292 358 421
#     4  11  25  48  72 106 142 193 237 303 358 434
#
# _framework density 23.097315999999999
#
# number of rings (size 3 to 8) (size 9 to 14) (size 15 to 20)
#    0.000    1.067    4.000    1.200    5.600    1.600 
#    4.800    0.000    0.000    0.000    0.000    0.000 
#    0.000    0.000    0.000    0.000    0.000    0.000 
#
# Total GULP energy -743371.098976 kJ/mol
# GULP energy per Si atom -12389.518316 kJ/mol
# Density = 2.304475 g / cm^3
# Si number density = 23.097316 Si / 1000 Ang^3
#
#
#
# Elastic Constant Matrix: (Units=GPa)
#
#
# Indices 1 2 3 4 5 6 
#
# 1 113.7654 22.5455 53.5474 0.0000 0.0000 0.0000
# 2 22.5455 75.0400 -5.1077 0.0000 0.0000 0.0000
# 3 53.5474 -5.1077 86.8382 0.0000 0.0000 0.0000
# 4 0.0000 0.0000 0.0000 26.6030 0.0000 0.0000
# 5 0.0000 0.0000 0.0000 0.0000 45.0518 0.0000
# 6 0.0000 0.0000 0.0000 0.0000 0.0000 14.7367
#
#
#
# Elastic Compliance Matrix: (Units=1/GPa)
#
#
# Indices 1 2 3 4 5 6 
#
# 1 0.013906 -0.004781 -0.008856 0.000000 0.000000 0.000000
# 2 -0.004781 0.015023 0.003832 0.000000 0.000000 0.000000
# 3 -0.008856 0.003832 0.017202 0.000000 0.000000 0.000000
# 4 0.000000 0.000000 0.000000 0.037590 0.000000 0.000000
# 5 0.000000 0.000000 0.000000 0.000000 0.022197 0.000000
# 6 0.000000 0.000000 0.000000 0.000000 0.000000 0.067858
#
#
# Mechanical properties :
#
#
# Convention : Reuss Voigt Hill
#
# Bulk Modulus (GPa) = 37.70609 46.40155 42.05382
# Shear Modulus (GPa) = 24.72482 30.92219 27.82351
#
# Velocity S-wave (km/s) = 3.27534 3.66290 3.47453
# Velocity P-wave (km/s) = 5.53752 6.16622 5.86031
#
# Compressibility (1/GPa) = 0.02652092
#
# Stress axis : x y z
#
# Youngs Moduli (GPa) = 71.91245 66.56291 58.13301
#
# Poissons Ratio (x) = 0.31822 0.51482
# Poissons Ratio (y) = 0.34379 -0.22274
# Poissons Ratio (z) = 0.63686 -0.25504
#
# Static dielectric constant tensor:
#      x y z
#    x 4.184100 0.000000 0.000000 
#    y 0.000000 4.058880 0.000000 
#    z 0.000000 0.000000 4.291210 
# 
# 
# High freq. dielectric constant tensor:
#      x y z
#    x 1.913090 0.000000 0.000000 
#    y 0.000000 1.901080 0.000000 
#    z 0.000000 0.000000 1.924810 
# 
# From -- ./inp_files/19241.got.cif
#   From: 2010.03.12/outbox.cif.g09.slc.cpg/sg54_10_cif.got.tgz:19241.got - 2010.04.16 15:00:50.
