data_PCOD8223791
_publ_section_title
;
Structure prediction by ZEFSAII (Michael W. Deem and Ramdas Pophale) SiO2 
 PCOD8223791
Probable space group: P C C A
;
_chemical_formula_sum "Si O2"
_cell_formula_units_Z 48
_cell_length_a 18.952273
_cell_length_b 12.371092
_cell_length_c 9.037566
_cell_angle_alpha 90.000000
_cell_angle_beta 90.000000
_cell_angle_gamma 90.000000
_cell_volume 2118.950552
_symmetry_space_group_name_H-M "P C C A"
_symmetry_group_IT_number 54
_symmetry_cell_setting 'orthorhombic'
loop_
_space_group_symop_operation_xyz
x,y,z
1/2-x,-y,z
1/2+x,-y,1/2-z
-x,y,1/2-z
-x,-y,-z
1/2+x,y,-z
1/2-x,y,1/2+z
x,-y,1/2+z
loop_
_atom_site_type_symbol
_atom_site_label
_atom_site_fract_x
_atom_site_fract_y
_atom_site_fract_z
Si Si1 0.277339 0.119233 0.046925
Si Si2 0.679729 0.774696 0.663139
Si Si3 0.185389 0.424206 0.646009
Si Si4 0.607782 0.258063 0.564153
Si Si5 0.531447 0.297334 0.099597
Si Si6 0.573013 0.595554 0.315979
O O1 0.294433 0.134929 0.219528
O O2 0.250000 0.000000 0.014876
O O3 0.216252 0.202703 0.994403
O O4 0.347517 0.147055 0.949250
O O5 0.705845 0.657379 0.720910
O O6 0.594868 0.783584 0.645883
O O7 0.250000 0.500000 0.592230
O O8 0.151983 0.354063 0.514214
O O9 0.126935 0.500922 0.716192
O O10 0.531641 0.237572 0.488256
O O11 0.597048 0.292908 0.734585
O O12 0.500000 0.349453 0.250000
O O13 0.565610 0.387441 0.992536
O O14 0.500000 0.554486 0.250000
#
# Coordination Sequence:
#
# PCOD8223791 Si02
#       6
#     8   8   8   8   8   8
#     4  11  24  46  72  99 130 177 228 288 351 409
#     4  11  26  43  71  98 139 178 226 287 341 407
#     4  11  24  38  63  99 143 180 228 270 339 406
#     4  10  24  42  67 100 139 174 232 282 340 405
#     4  11  22  46  67  95 137 189 219 279 337 391
#     4  10  25  39  67 100 139 186 229 269 328 412
#
# _framework density 22.652723999999999
#
# number of rings (size 3 to 8) (size 9 to 14) (size 15 to 20)
#    0.000    1.333    3.333    1.500   11.667    2.000 
#    0.000    0.833    0.000    0.000    0.000    0.000 
#    0.000    0.000    0.000    0.000    0.000    0.000 
#
# Total GULP energy -594996.646310 kJ/mol
# GULP energy per Si atom -12395.763465 kJ/mol
# Density = 2.260117 g / cm^3
# Si number density = 22.652724 Si / 1000 Ang^3
#
#
#
# Elastic Constant Matrix: (Units=GPa)
#
#
# Indices 1 2 3 4 5 6 
#
# 1 147.1932 54.8970 39.8750 0.0000 0.0000 0.0000
# 2 54.8970 99.4115 35.4767 0.0000 0.0000 0.0000
# 3 39.8750 35.4767 119.3973 0.0000 0.0000 0.0000
# 4 0.0000 0.0000 0.0000 18.6953 0.0000 0.0000
# 5 0.0000 0.0000 0.0000 0.0000 36.4167 0.0000
# 6 0.0000 0.0000 0.0000 0.0000 0.0000 28.0192
#
#
#
# Elastic Compliance Matrix: (Units=1/GPa)
#
#
# Indices 1 2 3 4 5 6 
#
# 1 0.008848 -0.004286 -0.001681 0.000000 0.000000 0.000000
# 2 -0.004286 0.013328 -0.002529 0.000000 0.000000 0.000000
# 3 -0.001681 -0.002529 0.009688 0.000000 0.000000 0.000000
# 4 0.000000 0.000000 0.000000 0.053489 0.000000 0.000000
# 5 0.000000 0.000000 0.000000 0.000000 0.027460 0.000000
# 6 0.000000 0.000000 0.000000 0.000000 0.000000 0.035690
#
#
# Mechanical properties :
#
#
# Convention : Reuss Voigt Hill
#
# Bulk Modulus (GPa) = 67.23997 69.61103 68.42550
# Shear Modulus (GPa) = 29.33354 32.34313 30.83834
#
# Velocity S-wave (km/s) = 3.60241 3.78270 3.69365
# Velocity P-wave (km/s) = 6.85934 7.06221 6.96151
#
# Compressibility (1/GPa) = 0.01487211
#
# Stress axis : x y z
#
# Youngs Moduli (GPa) = 113.02323 75.02760 103.21658
#
# Poissons Ratio (x) = 0.32156 0.17355
# Poissons Ratio (y) = 0.48440 0.26103
# Poissons Ratio (z) = 0.19004 0.18974
#
# Static dielectric constant tensor:
#      x y z
#    x 4.593600 0.000000 0.000000 
#    y 0.000000 3.644380 0.000000 
#    z 0.000000 0.000000 4.235640 
# 
# 
# High freq. dielectric constant tensor:
#      x y z
#    x 1.915290 0.000000 0.000000 
#    y 0.000000 1.841620 0.000000 
#    z 0.000000 0.000000 1.903800 
# 
# From -- ./inp_files/4193.got.cif
#   From: 2010.03.12/outbox.cif.g09.slc.cpg/sg54_3_cif.got.tgz:4193.got - 2010.04.16 15:00:50.
