data_PCOD8223165
_publ_section_title
;
Structure prediction by ZEFSAII (Michael W. Deem and Ramdas Pophale) SiO2 
 PCOD8223165
Probable space group: P C C A
;
_chemical_formula_sum "Si O2"
_cell_formula_units_Z 64
_cell_length_a 15.059955
_cell_length_b 11.470883
_cell_length_c 17.640480
_cell_angle_alpha 90.000000
_cell_angle_beta 90.000000
_cell_angle_gamma 90.000000
_cell_volume 3047.410239
_symmetry_space_group_name_H-M "P C C A"
_symmetry_group_IT_number 54
_symmetry_cell_setting 'orthorhombic'
loop_
_space_group_symop_operation_xyz
x,y,z
1/2-x,-y,z
1/2+x,-y,1/2-z
-x,y,1/2-z
-x,-y,-z
1/2+x,y,-z
1/2-x,y,1/2+z
x,-y,1/2+z
loop_
_atom_site_type_symbol
_atom_site_label
_atom_site_fract_x
_atom_site_fract_y
_atom_site_fract_z
Si Si1 0.650734 0.003770 0.944962
Si Si2 0.570305 0.749520 0.461229
Si Si3 0.498825 0.842499 0.613130
Si Si4 0.441040 0.250572 0.825049
Si Si5 0.848391 0.461989 0.112335
Si Si6 0.848942 0.494484 0.445640
Si Si7 0.006969 0.400510 0.665345
Si Si8 0.648792 0.977971 0.119816
O O1 0.583269 0.932641 0.891552
O O2 0.750000 0.000000 0.912139
O O3 0.629159 0.139138 0.942241
O O4 0.643976 0.951523 0.029908
O O5 0.511246 0.775314 0.534326
O O6 0.505603 0.721966 0.393339
O O7 0.632823 0.638168 0.471441
O O8 0.477679 0.739168 0.671844
O O9 0.587979 0.910014 0.638324
O O10 0.500000 0.251657 0.750000
O O11 0.370215 0.355310 0.830775
O O12 0.389062 0.129238 0.832264
O O13 0.750000 0.500000 0.134075
O O14 0.914412 0.570669 0.124630
O O15 0.855313 0.427596 0.022691
O O16 0.750000 0.500000 0.411753
O O17 0.913519 0.539098 0.380315
O O18 0.000000 0.452256 0.750000
O O19 0.750000 0.000000 0.145389
#
# Coordination Sequence:
#
# PCOD8223165 Si02
#       8
#     8   8   8   8   8   8   8   8
#     4  10  21  36  66 100 127 167 215 276 333 385
#     4  11  20  42  63  91 127 167 225 276 328 392
#     4  11  21  41  65  93 130 172 217 277 329 392
#     4  12  24  42  65  93 130 180 225 273 339 404
#     4  11  25  43  69  97 127 170 228 280 330 399
#     4  11  25  42  70 100 129 176 229 281 333 406
#     4  12  26  43  63  96 138 176 211 270 343 402
#     4  10  22  39  67  95 124 166 221 274 329 397
#
# _framework density 21.001439999999999
#
# number of rings (size 3 to 8) (size 9 to 14) (size 15 to 20)
#    0.000    1.000    5.000    2.250    3.500    3.000 
#    0.000    0.625    0.000    0.000    0.000    0.000 
#    0.000    0.000    0.000    0.000    0.000    0.000 
#
# Total GULP energy -793627.152231 kJ/mol
# GULP energy per Si atom -12400.424254 kJ/mol
# Density = 2.095364 g / cm^3
# Si number density = 21.001440 Si / 1000 Ang^3
#
#
#
# Elastic Constant Matrix: (Units=GPa)
#
#
# Indices 1 2 3 4 5 6 
#
# 1 170.6909 58.7838 54.8815 0.0000 0.0000 0.0000
# 2 58.7838 127.9450 38.8715 0.0000 0.0000 0.0000
# 3 54.8815 38.8715 78.3171 0.0000 0.0000 0.0000
# 4 0.0000 0.0000 0.0000 23.9694 0.0000 0.0000
# 5 0.0000 0.0000 0.0000 0.0000 3.2637 0.0000
# 6 0.0000 0.0000 0.0000 0.0000 0.0000 27.9683
#
#
#
# Elastic Compliance Matrix: (Units=1/GPa)
#
#
# Indices 1 2 3 4 5 6 
#
# 1 0.008125 -0.002359 -0.004523 0.000000 0.000000 0.000000
# 2 -0.002359 0.009889 -0.003255 0.000000 0.000000 0.000000
# 3 -0.004523 -0.003255 0.017554 0.000000 0.000000 0.000000
# 4 0.000000 0.000000 0.000000 0.041720 0.000000 0.000000
# 5 0.000000 0.000000 0.000000 0.000000 0.306396 0.000000
# 6 0.000000 0.000000 0.000000 0.000000 0.000000 0.035755
#
#
# Mechanical properties :
#
#
# Convention : Reuss Voigt Hill
#
# Bulk Modulus (GPa) = 65.38671 75.78072 70.58372
# Shear Modulus (GPa) = 11.24076 26.00139 18.62108
#
# Velocity S-wave (km/s) = 2.31603 3.52245 2.98091
# Velocity P-wave (km/s) = 6.19306 7.25985 6.74757
#
# Compressibility (1/GPa) = 0.01529363
#
# Stress axis : x y z
#
# Youngs Moduli (GPa) = 123.07409 101.12688 56.96809
#
# Poissons Ratio (x) = 0.23855 0.25767
# Poissons Ratio (y) = 0.29032 0.18543
# Poissons Ratio (z) = 0.55666 0.32917
#
# Static dielectric constant tensor:
#      x y z
#    x 3.693660 0.000000 0.000000 
#    y 0.000000 4.143340 0.000000 
#    z 0.000000 0.000000 3.773430 
# 
# 
# High freq. dielectric constant tensor:
#      x y z
#    x 1.829300 0.000000 0.000000 
#    y 0.000000 1.834210 0.000000 
#    z 0.000000 0.000000 1.798650 
# 
# From -- ./inp_files/18230.got.cif
#   From: 2010.03.12/outbox.cif.g09.slc.cpg/sg54_10_cif.got.tgz:18230.got - 2010.04.16 15:00:50.
