data_PCOD8223009
_publ_section_title
;
Structure prediction by ZEFSAII (Michael W. Deem and Ramdas Pophale) SiO2 
 PCOD8223009
Probable space group: P C C A
;
_chemical_formula_sum "Si O2"
_cell_formula_units_Z 28
_cell_length_a 17.799339
_cell_length_b 5.108077
_cell_length_c 16.160578
_cell_angle_alpha 90.000000
_cell_angle_beta 90.000000
_cell_angle_gamma 90.000000
_cell_volume 1469.326122
_symmetry_space_group_name_H-M "P C C A"
_symmetry_group_IT_number 54
_symmetry_cell_setting 'orthorhombic'
loop_
_space_group_symop_operation_xyz
x,y,z
1/2-x,-y,z
1/2+x,-y,1/2-z
-x,y,1/2-z
-x,-y,-z
1/2+x,y,-z
1/2-x,y,1/2+z
x,-y,1/2+z
loop_
_atom_site_type_symbol
_atom_site_label
_atom_site_fract_x
_atom_site_fract_y
_atom_site_fract_z
Si Si1 0.250000 0.500000 0.055635
Si Si2 0.000000 0.850678 0.750000
Si Si3 0.356748 0.611071 0.200715
Si Si4 0.750000 0.000000 0.552888
Si Si5 0.144175 0.090809 0.801136
O O1 0.322701 0.567631 0.110606
O O2 0.227520 0.750727 0.001787
O O3 0.053423 0.666914 0.692349
O O4 0.054098 0.032949 0.806833
O O5 0.339705 0.367216 0.259487
O O6 0.317484 0.861738 0.245099
O O7 0.821793 0.082158 0.607426
#
# Coordination Sequence:
#
# PCOD8223009 Si02
#       5
#     4   4   8   4   8
#     4  12  24  38  58  94 128 154 188 248 310 352
#     4   8  22  36  70  84 110 154 220 240 278 340
#     4  10  20  39  64  88 112 158 208 241 284 349
#     4  12  24  38  58  94 128 154 188 248 310 352
#     4  10  20  39  64  88 112 158 208 241 284 349
#
# _framework density 19.056356000000001
#
# number of rings (size 3 to 8) (size 9 to 14) (size 15 to 20)
#    1.714    0.000    0.000    6.000    0.000    0.000 
#    0.000    2.857    0.000    0.000    0.000    0.000 
#    0.000    0.000    0.000    0.000    0.000    0.000 
#
# Total GULP energy -346984.670595 kJ/mol
# GULP energy per Si atom -12392.309664 kJ/mol
# Density = 1.901298 g / cm^3
# Si number density = 19.056356 Si / 1000 Ang^3
#
#
#
# Elastic Constant Matrix: (Units=GPa)
#
#
# Indices 1 2 3 4 5 6 
#
# 1 82.4410 6.5597 31.6423 0.0000 0.0000 0.0000
# 2 6.5597 131.4516 39.1422 0.0000 0.0000 0.0000
# 3 31.6423 39.1422 101.0800 0.0000 0.0000 0.0000
# 4 0.0000 0.0000 0.0000 27.7945 0.0000 0.0000
# 5 0.0000 0.0000 0.0000 0.0000 10.1095 0.0000
# 6 0.0000 0.0000 0.0000 0.0000 0.0000 24.5279
#
#
#
# Elastic Compliance Matrix: (Units=1/GPa)
#
#
# Indices 1 2 3 4 5 6 
#
# 1 0.013839 0.000678 -0.004595 0.000000 0.000000 0.000000
# 2 0.000678 0.008632 -0.003555 0.000000 0.000000 0.000000
# 3 -0.004595 -0.003555 0.012708 0.000000 0.000000 0.000000
# 4 0.000000 0.000000 0.000000 0.035978 0.000000 0.000000
# 5 0.000000 0.000000 0.000000 0.000000 0.098917 0.000000
# 6 0.000000 0.000000 0.000000 0.000000 0.000000 0.040770
#
#
# Mechanical properties :
#
#
# Convention : Reuss Voigt Hill
#
# Bulk Modulus (GPa) = 49.41761 52.18456 50.80108
# Shear Modulus (GPa) = 21.50227 28.32828 24.91528
#
# Velocity S-wave (km/s) = 3.36274 3.85977 3.61979
# Velocity P-wave (km/s) = 6.40828 6.87805 6.64731
#
# Compressibility (1/GPa) = 0.02023570
#
# Stress axis : x y z
#
# Youngs Moduli (GPa) = 72.25696 115.84735 78.69039
#
# Poissons Ratio (x) = -0.07849 0.36156
# Poissons Ratio (y) = -0.04896 0.27973
# Poissons Ratio (z) = 0.33200 0.41181
#
# Static dielectric constant tensor:
#      x y z
#    x 3.513600 0.000000 0.000000 
#    y 0.000000 3.626580 0.000000 
#    z 0.000000 0.000000 3.202320 
# 
# 
# High freq. dielectric constant tensor:
#      x y z
#    x 1.742730 0.000000 0.000000 
#    y 0.000000 1.764260 0.000000 
#    z 0.000000 0.000000 1.708940 
# 
# From -- ./inp_files/9187.got.cif
#   From: 2010.03.12/outbox.cif.g09.slc.cpg/sg54_5_cif.got.tgz:9187.got - 2010.04.16 15:00:50.
