data_PCOD8223608
_publ_section_title
;
Structure prediction by ZEFSAII (Michael W. Deem and Ramdas Pophale) SiO2 
 PCOD8223608
Probable space group: P C C A
;
_chemical_formula_sum "Si O2"
_cell_formula_units_Z 52
_cell_length_a 8.793909
_cell_length_b 14.360083
_cell_length_c 18.874273
_cell_angle_alpha 90.000000
_cell_angle_beta 90.000000
_cell_angle_gamma 90.000000
_cell_volume 2383.467035
_symmetry_space_group_name_H-M "P C C A"
_symmetry_group_IT_number 54
_symmetry_cell_setting 'orthorhombic'
loop_
_space_group_symop_operation_xyz
x,y,z
1/2-x,-y,z
1/2+x,-y,1/2-z
-x,y,1/2-z
-x,-y,-z
1/2+x,y,-z
1/2-x,y,1/2+z
x,-y,1/2+z
loop_
_atom_site_type_symbol
_atom_site_label
_atom_site_fract_x
_atom_site_fract_y
_atom_site_fract_z
Si Si1 0.771582 0.213609 0.966596
Si Si2 0.810489 0.703283 0.611949
Si Si3 0.039442 0.915286 0.451325
Si Si4 0.750000 0.500000 0.652395
Si Si5 0.632890 0.298939 0.833922
Si Si6 0.500000 0.459121 0.750000
Si Si7 0.750000 0.000000 0.165423
Si Si8 0.173645 0.182263 0.773963
O O1 0.705878 0.291265 0.912464
O O2 0.893662 0.146188 0.928419
O O3 0.846306 0.268970 0.031765
O O4 0.645514 0.149303 0.001586
O O5 0.779578 0.592635 0.607216
O O6 0.673351 0.759842 0.650722
O O7 0.955832 0.730569 0.660295
O O8 0.109455 0.963854 0.381979
O O9 0.000000 0.000000 0.500000
O O10 0.600888 0.523382 0.699269
O O11 0.622999 0.400295 0.797201
O O12 0.735891 0.234808 0.786166
O O13 0.774397 0.088375 0.216269
O O14 0.000000 0.164121 0.750000
#
# Coordination Sequence:
#
# PCOD8223608 Si02
#       8
#     8   8   8   4   8   4   4   8
#     4  12  24  43  70  97 131 183 227 281 348 409
#     4  11  23  46  70  99 141 178 230 285 351 419
#     4  12  22  42  66  93 132 175 226 278 338 407
#     4  10  22  42  72  98 136 184 224 288 344 420
#     4  11  23  44  69  96 138 182 223 282 357 407
#     4  10  22  44  66 104 132 182 230 272 354 420
#     4  12  26  44  62 100 136 174 234 284 338 408
#     4  12  25  44  68  99 136 180 235 285 344 416
#
# _framework density 21.816958
#
# number of rings (size 3 to 8) (size 9 to 14) (size 15 to 20)
#    0.000    0.615    7.692    0.923    1.077    1.231 
#    2.769    3.846    0.000    0.000    0.000    0.000 
#    0.000    0.000    0.000    0.000    0.000    0.000 
#
# Total GULP energy -644258.925483 kJ/mol
# GULP energy per Si atom -12389.594721 kJ/mol
# Density = 2.176730 g / cm^3
# Si number density = 21.816958 Si / 1000 Ang^3
#
#
#
# Elastic Constant Matrix: (Units=GPa)
#
#
# Indices 1 2 3 4 5 6 
#
# 1 82.0106 32.7466 22.5909 0.0000 0.0000 0.0000
# 2 32.7466 94.2792 24.1028 0.0000 0.0000 0.0000
# 3 22.5909 24.1028 88.5184 0.0000 0.0000 0.0000
# 4 0.0000 0.0000 0.0000 25.1539 0.0000 0.0000
# 5 0.0000 0.0000 0.0000 0.0000 18.9595 0.0000
# 6 0.0000 0.0000 0.0000 0.0000 0.0000 34.1025
#
#
#
# Elastic Compliance Matrix: (Units=1/GPa)
#
#
# Indices 1 2 3 4 5 6 
#
# 1 0.014667 -0.004447 -0.002532 0.000000 0.000000 0.000000
# 2 -0.004447 0.012749 -0.002336 0.000000 0.000000 0.000000
# 3 -0.002532 -0.002336 0.012580 0.000000 0.000000 0.000000
# 4 0.000000 0.000000 0.000000 0.039755 0.000000 0.000000
# 5 0.000000 0.000000 0.000000 0.000000 0.052744 0.000000
# 6 0.000000 0.000000 0.000000 0.000000 0.000000 0.029323
#
#
# Mechanical properties :
#
#
# Convention : Reuss Voigt Hill
#
# Bulk Modulus (GPa) = 46.80833 47.07651 46.94242
# Shear Modulus (GPa) = 26.65671 28.00104 27.32888
#
# Velocity S-wave (km/s) = 3.49927 3.58642 3.54311
# Velocity P-wave (km/s) = 6.15045 6.22693 6.18881
#
# Compressibility (1/GPa) = 0.02136372
#
# Stress axis : x y z
#
# Youngs Moduli (GPa) = 68.18158 78.43941 79.49409
#
# Poissons Ratio (x) = 0.34881 0.20130
# Poissons Ratio (y) = 0.30320 0.18574
# Poissons Ratio (z) = 0.17265 0.18327
#
# Static dielectric constant tensor:
#      x y z
#    x 4.091780 0.000000 0.000000 
#    y 0.000000 3.832710 0.000000 
#    z 0.000000 0.000000 3.717890 
# 
# 
# High freq. dielectric constant tensor:
#      x y z
#    x 1.859830 0.000000 0.000000 
#    y 0.000000 1.850160 0.000000 
#    z 0.000000 0.000000 1.864140 
# 
# From -- ./inp_files/20502.got.cif
#   From: 2010.03.12/outbox.cif.g09.slc.cpg/sg54_11_cif.got.tgz:20502.got - 2010.04.16 15:00:50.
