data_PCOD8223043
_publ_section_title
;
Structure prediction by ZEFSAII (Michael W. Deem and Ramdas Pophale) SiO2 
 PCOD8223043
Probable space group: P C C A
;
_chemical_formula_sum "Si O2"
_cell_formula_units_Z 56
_cell_length_a 20.493497
_cell_length_b 14.561972
_cell_length_c 9.477950
_cell_angle_alpha 90.000000
_cell_angle_beta 90.000000
_cell_angle_gamma 90.000000
_cell_volume 2828.464143
_symmetry_space_group_name_H-M "P C C A"
_symmetry_group_IT_number 54
_symmetry_cell_setting 'orthorhombic'
loop_
_space_group_symop_operation_xyz
x,y,z
1/2-x,-y,z
1/2+x,-y,1/2-z
-x,y,1/2-z
-x,-y,-z
1/2+x,y,-z
1/2-x,y,1/2+z
x,-y,1/2+z
loop_
_atom_site_type_symbol
_atom_site_label
_atom_site_fract_x
_atom_site_fract_y
_atom_site_fract_z
Si Si1 0.500000 0.023927 0.750000
Si Si2 0.500000 0.669668 0.250000
Si Si3 0.313040 0.224394 0.726289
Si Si4 0.130211 0.581204 0.711631
Si Si5 0.814110 0.233713 0.605946
Si Si6 0.929004 0.848084 0.283528
Si Si7 0.069194 0.825044 0.902025
Si Si8 0.682802 0.551015 0.583564
O O1 0.480582 0.089343 0.882037
O O2 0.437311 0.959310 0.716435
O O3 0.555809 0.608416 0.323017
O O4 0.530050 0.731275 0.125664
O O5 0.328656 0.330254 0.761877
O O6 0.246717 0.195282 0.804750
O O7 0.307191 0.207371 0.558635
O O8 0.371262 0.163055 0.791537
O O9 0.127647 0.502633 0.829390
O O10 0.165592 0.537114 0.578334
O O11 0.878774 0.185664 0.665545
O O12 0.817627 0.342835 0.627275
O O13 0.904299 0.819180 0.438674
O O14 0.000000 0.802984 0.250000
O O15 0.750000 0.500000 0.619476
#
# Coordination Sequence:
#
# PCOD8223043 Si02
#       8
#     4   4   8   8   8   8   8   8
#     4   9  22  38  69  92 128 160 209 238 308 373
#     4   9  22  38  59  84 120 158 209 244 324 359
#     4  10  22  38  65  85 123 160 209 254 317 361
#     4  10  22  37  56  84 115 159 203 261 299 374
#     4  11  23  40  60  91 122 161 208 261 306 372
#     4  10  24  37  63  95 129 155 206 247 308 369
#     4  10  20  40  66  89 123 166 199 253 308 374
#     4  11  22  36  59  82 118 159 213 251 311 355
#
# _framework density 19.798729999999999
#
# number of rings (size 3 to 8) (size 9 to 14) (size 15 to 20)
#    0.429    1.429    1.429    1.714   10.000    2.857 
#    1.286    0.714    0.000    3.429    0.000    0.000 
#    0.000    0.000    0.000    0.000    0.000    0.000 
#
# Total GULP energy -694296.892303 kJ/mol
# GULP energy per Si atom -12398.158791 kJ/mol
# Density = 1.975367 g / cm^3
# Si number density = 19.798730 Si / 1000 Ang^3
#
#
#
# Elastic Constant Matrix: (Units=GPa)
#
#
# Indices 1 2 3 4 5 6 
#
# 1 126.7943 39.2875 45.0597 0.0000 0.0000 0.0000
# 2 39.2875 75.1552 39.0632 0.0000 0.0000 0.0000
# 3 45.0597 39.0632 117.7732 0.0000 0.0000 0.0000
# 4 0.0000 0.0000 0.0000 21.2846 0.0000 0.0000
# 5 0.0000 0.0000 0.0000 0.0000 34.0736 0.0000
# 6 0.0000 0.0000 0.0000 0.0000 0.0000 17.7352
#
#
#
# Elastic Compliance Matrix: (Units=1/GPa)
#
#
# Indices 1 2 3 4 5 6 
#
# 1 0.009997 -0.003913 -0.002527 0.000000 0.000000 0.000000
# 2 -0.003913 0.017609 -0.004344 0.000000 0.000000 0.000000
# 3 -0.002527 -0.004344 0.010898 0.000000 0.000000 0.000000
# 4 0.000000 0.000000 0.000000 0.046982 0.000000 0.000000
# 5 0.000000 0.000000 0.000000 0.000000 0.029348 0.000000
# 6 0.000000 0.000000 0.000000 0.000000 0.000000 0.056385
#
#
# Mechanical properties :
#
#
# Convention : Reuss Voigt Hill
#
# Bulk Modulus (GPa) = 59.03936 62.94927 60.99432
# Shear Modulus (GPa) = 25.19747 27.70614 26.45180
#
# Velocity S-wave (km/s) = 3.57134 3.74490 3.65915
# Velocity P-wave (km/s) = 6.84766 7.11074 6.98044
#
# Compressibility (1/GPa) = 0.01693785
#
# Stress axis : x y z
#
# Youngs Moduli (GPa) = 100.02800 56.79003 91.75590
#
# Poissons Ratio (x) = 0.22219 0.23189
# Poissons Ratio (y) = 0.39136 0.39855
# Poissons Ratio (z) = 0.25279 0.24667
#
# Static dielectric constant tensor:
#      x y z
#    x 3.584150 0.000000 0.000000 
#    y 0.000000 3.455570 0.000000 
#    z 0.000000 0.000000 3.476370 
# 
# 
# High freq. dielectric constant tensor:
#      x y z
#    x 1.769930 0.000000 0.000000 
#    y 0.000000 1.755620 0.000000 
#    z 0.000000 0.000000 1.773470 
# 
# From -- ./inp_files/4852.got.cif
#   From: 2010.03.12/outbox.cif.g09.slc.cpg/sg54_3_cif.got.tgz:4852.got - 2010.04.16 15:00:50.
