data_PCOD8223575
_publ_section_title
;
Structure prediction by ZEFSAII (Michael W. Deem and Ramdas Pophale) SiO2 
 PCOD8223575
Probable space group: P C C A
;
_chemical_formula_sum "Si O2"
_cell_formula_units_Z 28
_cell_length_a 4.866410
_cell_length_b 19.889446
_cell_length_c 11.840147
_cell_angle_alpha 90.000000
_cell_angle_beta 90.000000
_cell_angle_gamma 90.000000
_cell_volume 1146.010183
_symmetry_space_group_name_H-M "P C C A"
_symmetry_group_IT_number 54
_symmetry_cell_setting 'orthorhombic'
loop_
_space_group_symop_operation_xyz
x,y,z
1/2-x,-y,z
1/2+x,-y,1/2-z
-x,y,1/2-z
-x,-y,-z
1/2+x,y,-z
1/2-x,y,1/2+z
x,-y,1/2+z
loop_
_atom_site_type_symbol
_atom_site_label
_atom_site_fract_x
_atom_site_fract_y
_atom_site_fract_z
Si Si1 0.755601 0.703587 0.076580
Si Si2 0.000000 0.605342 0.250000
Si Si3 0.250000 0.500000 0.086117
Si Si4 0.500000 0.956243 0.750000
Si Si5 0.233893 0.146007 0.927053
O O1 0.799805 0.651155 0.175929
O O2 0.805414 0.779151 0.124320
O O3 0.448585 0.691517 0.032186
O O4 0.795469 0.562605 0.329779
O O5 0.500000 0.500000 0.000000
O O6 0.351149 0.911064 0.841756
O O7 0.250000 0.000000 0.696773
O O8 0.552582 0.137292 0.959447
#
# Coordination Sequence:
#
# PCOD8223575 Si02
#       5
#     8   4   4   4   8
#     4  10  23  42  68  98 125 163 220 272 327 395
#     4  12  25  46  72  95 134 180 214 276 338 383
#     4  12  28  46  66 100 138 176 224 266 326 410
#     4  12  25  38  60  93 126 170 220 258 312 393
#     4  10  22  42  64  91 128 166 210 271 327 379
#
# _framework density 24.432594999999999
#
# number of rings (size 3 to 8) (size 9 to 14) (size 15 to 20)
#    0.000    1.143    0.000    5.143    0.000    9.143 
#    0.000    8.571    0.000    0.000    0.000    0.000 
#    0.000    0.000    0.000    0.000    0.000    0.000 
#
# Total GULP energy -347167.790432 kJ/mol
# GULP energy per Si atom -12398.849658 kJ/mol
# Density = 2.437699 g / cm^3
# Si number density = 24.432595 Si / 1000 Ang^3
#
#
#
# Elastic Constant Matrix: (Units=GPa)
#
#
# Indices 1 2 3 4 5 6 
#
# 1 89.3626 18.4658 11.0982 0.0000 0.0000 0.0000
# 2 18.4658 135.0633 60.7075 0.0000 0.0000 0.0000
# 3 11.0982 60.7075 96.5551 0.0000 0.0000 0.0000
# 4 0.0000 0.0000 0.0000 42.4376 0.0000 0.0000
# 5 0.0000 0.0000 0.0000 0.0000 28.7288 0.0000
# 6 0.0000 0.0000 0.0000 0.0000 0.0000 17.0908
#
#
#
# Elastic Compliance Matrix: (Units=1/GPa)
#
#
# Indices 1 2 3 4 5 6 
#
# 1 0.011531 -0.001367 -0.000466 0.000000 0.000000 0.000000
# 2 -0.001367 0.010483 -0.006434 0.000000 0.000000 0.000000
# 3 -0.000466 -0.006434 0.014455 0.000000 0.000000 0.000000
# 4 0.000000 0.000000 0.000000 0.023564 0.000000 0.000000
# 5 0.000000 0.000000 0.000000 0.000000 0.034808 0.000000
# 6 0.000000 0.000000 0.000000 0.000000 0.000000 0.058511
#
#
# Mechanical properties :
#
#
# Convention : Reuss Voigt Hill
#
# Bulk Modulus (GPa) = 50.16159 55.72490 52.94324
# Shear Modulus (GPa) = 28.32373 33.03206 30.67789
#
# Velocity S-wave (km/s) = 3.40848 3.68090 3.54731
# Velocity P-wave (km/s) = 6.00546 6.39707 6.20435
#
# Compressibility (1/GPa) = 0.01993557
#
# Stress axis : x y z
#
# Youngs Moduli (GPa) = 86.72496 95.39623 69.17848
#
# Poissons Ratio (x) = 0.13042 0.03222
# Poissons Ratio (y) = 0.11856 0.44507
# Poissons Ratio (z) = 0.04040 0.61374
#
# Static dielectric constant tensor:
#      x y z
#    x 4.590620 0.000000 0.000000 
#    y 0.000000 4.795040 0.000000 
#    z 0.000000 0.000000 4.089620 
# 
# 
# High freq. dielectric constant tensor:
#      x y z
#    x 1.987530 0.000000 0.000000 
#    y 0.000000 1.991030 0.000000 
#    z 0.000000 0.000000 1.956140 
# 
# From -- ./inp_files/6249.got.cif
#   From: 2010.03.12/outbox.cif.g09.slc.cpg/sg54_4_cif.got.tgz:6249.got - 2010.04.16 15:00:50.
