data_PCOD8223738
_publ_section_title
;
Structure prediction by ZEFSAII (Michael W. Deem and Ramdas Pophale) SiO2 
 PCOD8223738
Probable space group: P C C A
;
_chemical_formula_sum "Si O2"
_cell_formula_units_Z 40
_cell_length_a 9.075135
_cell_length_b 10.067839
_cell_length_c 20.665350
_cell_angle_alpha 90.000000
_cell_angle_beta 90.000000
_cell_angle_gamma 90.000000
_cell_volume 1888.130994
_symmetry_space_group_name_H-M "P C C A"
_symmetry_group_IT_number 54
_symmetry_cell_setting 'orthorhombic'
loop_
_space_group_symop_operation_xyz
x,y,z
1/2-x,-y,z
1/2+x,-y,1/2-z
-x,y,1/2-z
-x,-y,-z
1/2+x,y,-z
1/2-x,y,1/2+z
x,-y,1/2+z
loop_
_atom_site_type_symbol
_atom_site_label
_atom_site_fract_x
_atom_site_fract_y
_atom_site_fract_z
Si Si1 0.908969 0.483170 0.908963
Si Si2 0.872282 0.895191 0.200869
Si Si3 0.884417 0.402439 0.697991
Si Si4 0.935088 0.708168 0.525191
Si Si5 0.162021 0.127003 0.946001
O O1 0.750000 0.500000 0.873624
O O2 0.025439 0.396262 0.868951
O O3 0.969524 0.631683 0.920971
O O4 0.880433 0.400549 0.973914
O O5 0.824795 0.743609 0.215953
O O6 0.909297 0.907197 0.124159
O O7 0.000000 0.935348 0.250000
O O8 0.750000 0.000000 0.220080
O O9 0.750000 0.500000 0.691938
O O10 0.000000 0.458396 0.750000
O O11 0.787617 0.759767 0.560437
O O12 0.031989 0.827956 0.494475
O O13 0.250000 0.000000 0.974676
#
# Coordination Sequence:
#
# PCOD8223738 Si02
#       5
#     8   8   8   8   8
#     4  11  22  37  62  92 130 171 215 263 325 394
#     4  10  23  44  67  93 126 170 220 267 327 387
#     4  11  23  41  66  94 130 167 222 281 325 385
#     4  11  22  38  62  95 129 170 214 259 329 389
#     4  11  22  41  63  93 131 170 218 272 321 389
#
# _framework density 21.184971000000001
#
# number of rings (size 3 to 8) (size 9 to 14) (size 15 to 20)
#    0.000    1.200    4.000    2.400    0.000    0.800 
#    0.000   13.000    0.000    0.000    0.000    0.000 
#    0.000    0.000    0.000    0.000    0.000    0.000 
#
# Total GULP energy -495960.994558 kJ/mol
# GULP energy per Si atom -12399.024864 kJ/mol
# Density = 2.113675 g / cm^3
# Si number density = 21.184971 Si / 1000 Ang^3
#
#
#
# Elastic Constant Matrix: (Units=GPa)
#
#
# Indices 1 2 3 4 5 6 
#
# 1 129.1231 51.2206 44.7553 0.0000 0.0000 0.0000
# 2 51.2206 93.4121 20.9440 0.0000 0.0000 0.0000
# 3 44.7553 20.9440 80.1907 0.0000 0.0000 0.0000
# 4 0.0000 0.0000 0.0000 27.9840 0.0000 0.0000
# 5 0.0000 0.0000 0.0000 0.0000 34.7902 0.0000
# 6 0.0000 0.0000 0.0000 0.0000 0.0000 39.9959
#
#
#
# Elastic Compliance Matrix: (Units=1/GPa)
#
#
# Indices 1 2 3 4 5 6 
#
# 1 0.011577 -0.005204 -0.005102 0.000000 0.000000 0.000000
# 2 -0.005204 0.013711 -0.000676 0.000000 0.000000 0.000000
# 3 -0.005102 -0.000676 0.015495 0.000000 0.000000 0.000000
# 4 0.000000 0.000000 0.000000 0.035735 0.000000 0.000000
# 5 0.000000 0.000000 0.000000 0.000000 0.028744 0.000000
# 6 0.000000 0.000000 0.000000 0.000000 0.000000 0.025003
#
#
# Mechanical properties :
#
#
# Convention : Reuss Voigt Hill
#
# Bulk Modulus (GPa) = 53.14393 59.61841 56.38117
# Shear Modulus (GPa) = 31.54542 32.94109 32.24325
#
# Velocity S-wave (km/s) = 3.86300 3.94753 3.90550
# Velocity P-wave (km/s) = 6.71098 6.99859 6.85629
#
# Compressibility (1/GPa) = 0.01881682
#
# Stress axis : x y z
#
# Youngs Moduli (GPa) = 86.37448 72.93646 64.53884
#
# Poissons Ratio (x) = 0.37958 0.32930
# Poissons Ratio (y) = 0.44952 0.04365
# Poissons Ratio (z) = 0.44071 0.04933
#
# Static dielectric constant tensor:
#      x y z
#    x 3.801580 0.000000 0.000000 
#    y 0.000000 3.935200 0.000000 
#    z 0.000000 0.000000 3.724820 
# 
# 
# High freq. dielectric constant tensor:
#      x y z
#    x 1.832430 0.000000 0.000000 
#    y 0.000000 1.839740 0.000000 
#    z 0.000000 0.000000 1.815070 
# 
# From -- ./inp_files/23211.got.cif
#   From: 2010.03.12/outbox.cif.g09.slc.cpg/sg54_12_cif.got.tgz:23211.got - 2010.04.16 15:00:50.
