data_PCOD8223395
_publ_section_title
;
Structure prediction by ZEFSAII (Michael W. Deem and Ramdas Pophale) SiO2 
 PCOD8223395
Probable space group: P C C A
;
_chemical_formula_sum "Si O2"
_cell_formula_units_Z 40
_cell_length_a 22.240026
_cell_length_b 5.724861
_cell_length_c 13.635995
_cell_angle_alpha 90.000000
_cell_angle_beta 90.000000
_cell_angle_gamma 90.000000
_cell_volume 1736.149303
_symmetry_space_group_name_H-M "P C C A"
_symmetry_group_IT_number 54
_symmetry_cell_setting 'orthorhombic'
loop_
_space_group_symop_operation_xyz
x,y,z
1/2-x,-y,z
1/2+x,-y,1/2-z
-x,y,1/2-z
-x,-y,-z
1/2+x,y,-z
1/2-x,y,1/2+z
x,-y,1/2+z
loop_
_atom_site_type_symbol
_atom_site_label
_atom_site_fract_x
_atom_site_fract_y
_atom_site_fract_z
Si Si1 0.750000 0.000000 0.070222
Si Si2 0.632889 0.515999 0.800509
Si Si3 0.750000 0.500000 0.683071
Si Si4 0.934749 0.453382 0.111093
Si Si5 0.134223 0.156858 0.528917
Si Si6 0.549815 0.770439 0.435909
O O1 0.758589 0.748432 0.125369
O O2 0.690637 0.999172 0.002612
O O3 0.694269 0.434945 0.751852
O O4 0.583768 0.562396 0.715283
O O5 0.647483 0.745290 0.863212
O O6 0.606932 0.325333 0.875231
O O7 0.988349 0.262137 0.125928
O O8 0.875680 0.345160 0.058052
O O9 0.960306 0.656186 0.042511
O O10 0.068775 0.033640 0.539450
#
# Coordination Sequence:
#
# PCOD8223395 Si02
#       6
#     4   8   4   8   8   8
#     4  12  28  48  78 106 152 200 250 306 376 450
#     4  11  25  42  69 106 145 186 246 305 373 442
#     4  12  28  48  74 106 150 198 242 310 378 450
#     4  10  21  47  66 101 145 188 241 301 380 437
#     4  11  25  42  72 106 140 196 248 308 371 451
#     4  10  23  41  72 101 142 190 241 308 363 449
#
# _framework density 23.039493
#
# number of rings (size 3 to 8) (size 9 to 14) (size 15 to 20)
#    0.000    1.200    2.000    2.400    8.400    1.600 
#    0.000    8.000    0.000    0.000    0.000    0.000 
#    0.000    0.000    0.000    0.000    0.000    0.000 
#
# Total GULP energy -495583.113942 kJ/mol
# GULP energy per Si atom -12389.577849 kJ/mol
# Density = 2.298705 g / cm^3
# Si number density = 23.039493 Si / 1000 Ang^3
#
#
#
# Elastic Constant Matrix: (Units=GPa)
#
#
# Indices 1 2 3 4 5 6 
#
# 1 106.2151 23.1866 37.5614 0.0000 0.0000 0.0000
# 2 23.1866 98.6342 49.7942 0.0000 0.0000 0.0000
# 3 37.5614 49.7942 126.9568 0.0000 0.0000 0.0000
# 4 0.0000 0.0000 0.0000 37.1810 0.0000 0.0000
# 5 0.0000 0.0000 0.0000 0.0000 34.3763 0.0000
# 6 0.0000 0.0000 0.0000 0.0000 0.0000 39.5135
#
#
#
# Elastic Compliance Matrix: (Units=1/GPa)
#
#
# Indices 1 2 3 4 5 6 
#
# 1 0.010616 -0.001135 -0.002696 0.000000 0.000000 0.000000
# 2 -0.001135 0.012763 -0.004670 0.000000 0.000000 0.000000
# 3 -0.002696 -0.004670 0.010506 0.000000 0.000000 0.000000
# 4 0.000000 0.000000 0.000000 0.026895 0.000000 0.000000
# 5 0.000000 0.000000 0.000000 0.000000 0.029090 0.000000
# 6 0.000000 0.000000 0.000000 0.000000 0.000000 0.025308
#
#
# Mechanical properties :
#
#
# Convention : Reuss Voigt Hill
#
# Bulk Modulus (GPa) = 59.22880 61.43227 60.33053
# Shear Modulus (GPa) = 36.28276 36.96510 36.62393
#
# Velocity S-wave (km/s) = 3.97269 4.00987 3.99132
# Velocity P-wave (km/s) = 6.84152 6.93978 6.89082
#
# Compressibility (1/GPa) = 0.01688368
#
# Stress axis : x y z
#
# Youngs Moduli (GPa) = 94.19864 78.35265 95.18426
#
# Poissons Ratio (x) = 0.08890 0.25660
# Poissons Ratio (y) = 0.10688 0.44452
# Poissons Ratio (z) = 0.25394 0.36591
#
# Static dielectric constant tensor:
#      x y z
#    x 4.259950 0.000000 0.000000 
#    y 0.000000 4.036650 0.000000 
#    z 0.000000 0.000000 4.139790 
# 
# 
# High freq. dielectric constant tensor:
#      x y z
#    x 1.928510 0.000000 0.000000 
#    y 0.000000 1.893890 0.000000 
#    z 0.000000 0.000000 1.914060 
# 
# From -- ./inp_files/10173.got.cif
#   From: 2010.03.12/outbox.cif.g09.slc.cpg/sg54_6_cif.got.tgz:10173.got - 2010.04.16 15:00:50.
