data_PCOD8223410
_publ_section_title
;
Structure prediction by ZEFSAII (Michael W. Deem and Ramdas Pophale) SiO2 
 PCOD8223410
Probable space group: P C C A
;
_chemical_formula_sum "Si O2"
_cell_formula_units_Z 64
_cell_length_a 24.599076
_cell_length_b 8.656883
_cell_length_c 14.063800
_cell_angle_alpha 90.000000
_cell_angle_beta 90.000000
_cell_angle_gamma 90.000000
_cell_volume 2994.904814
_symmetry_space_group_name_H-M "P C C A"
_symmetry_group_IT_number 54
_symmetry_cell_setting 'orthorhombic'
loop_
_space_group_symop_operation_xyz
x,y,z
1/2-x,-y,z
1/2+x,-y,1/2-z
-x,y,1/2-z
-x,-y,-z
1/2+x,y,-z
1/2-x,y,1/2+z
x,-y,1/2+z
loop_
_atom_site_type_symbol
_atom_site_label
_atom_site_fract_x
_atom_site_fract_y
_atom_site_fract_z
Si Si1 0.438585 0.545615 0.508660
Si Si2 0.135346 0.630307 0.378691
Si Si3 0.291696 0.616287 0.280249
Si Si4 0.213872 0.124067 0.857316
Si Si5 0.555352 0.673068 0.793983
Si Si6 0.445898 0.999490 0.611125
Si Si7 0.442352 0.135010 0.910058
Si Si8 0.643435 0.897962 0.256221
O O1 0.500000 0.500000 0.500000
O O2 0.402339 0.407712 0.467774
O O3 0.422998 0.569003 0.618827
O O4 0.428837 0.693441 0.443246
O O5 0.175357 0.487595 0.356137
O O6 0.165540 0.788233 0.411919
O O7 0.102221 0.675245 0.283964
O O8 0.250000 0.500000 0.222300
O O9 0.254009 0.738640 0.332056
O O10 0.333423 0.724446 0.221885
O O11 0.250000 0.000000 0.918827
O O12 0.190495 0.024608 0.766703
O O13 0.500000 0.601796 0.750000
O O14 0.540170 0.840049 0.835709
O O15 0.437318 0.981663 0.498491
O O16 0.496271 0.116261 0.631329
O O17 0.388816 0.063384 0.648532
O O18 0.398115 0.094060 0.831746
#
# Coordination Sequence:
#
# PCOD8223410 Si02
#       8
#     8   8   8   8   8   8   8   8
#     4  11  23  38  57  91 133 168 208 251 305 395
#     4  11  20  39  64  88 131 171 200 263 325 373
#     4   9  20  37  60  92 121 159 214 264 320 375
#     4   9  20  36  65  94 116 163 221 264 318 384
#     4  11  21  36  60  90 128 168 211 246 311 381
#     4  10  22  36  59  92 129 167 206 256 306 378
#     4  10  22  37  57  91 132 165 211 250 303 387
#     4  11  18  37  65  88 121 165 210 256 321 371
#
# _framework density 21.369627000000001
#
# number of rings (size 3 to 8) (size 9 to 14) (size 15 to 20)
#    0.000    1.750    3.750    1.125    0.000    2.000 
#    2.250    0.000    0.000   22.500    0.000    0.000 
#    0.000    0.000    0.000    0.000    0.000    0.000 
#
# Total GULP energy -792933.858102 kJ/mol
# GULP energy per Si atom -12389.591533 kJ/mol
# Density = 2.132099 g / cm^3
# Si number density = 21.369627 Si / 1000 Ang^3
#
#
#
# Elastic Constant Matrix: (Units=GPa)
#
#
# Indices 1 2 3 4 5 6 
#
# 1 123.5294 49.9938 31.0808 0.0000 0.0000 0.0000
# 2 49.9938 96.1355 19.7018 0.0000 0.0000 0.0000
# 3 31.0808 19.7018 70.4031 0.0000 0.0000 0.0000
# 4 0.0000 0.0000 0.0000 18.3261 0.0000 0.0000
# 5 0.0000 0.0000 0.0000 0.0000 20.1734 0.0000
# 6 0.0000 0.0000 0.0000 0.0000 0.0000 58.5173
#
#
#
# Elastic Compliance Matrix: (Units=1/GPa)
#
#
# Indices 1 2 3 4 5 6 
#
# 1 0.010990 -0.005008 -0.003450 0.000000 0.000000 0.000000
# 2 -0.005008 0.013317 -0.001516 0.000000 0.000000 0.000000
# 3 -0.003450 -0.001516 0.016151 0.000000 0.000000 0.000000
# 4 0.000000 0.000000 0.000000 0.054567 0.000000 0.000000
# 5 0.000000 0.000000 0.000000 0.000000 0.049570 0.000000
# 6 0.000000 0.000000 0.000000 0.000000 0.000000 0.017089
#
#
# Mechanical properties :
#
#
# Convention : Reuss Voigt Hill
#
# Bulk Modulus (GPa) = 48.75652 54.62452 51.69052
# Shear Modulus (GPa) = 26.52943 32.02280 29.27611
#
# Velocity S-wave (km/s) = 3.52725 3.87527 3.70535
# Velocity P-wave (km/s) = 6.28124 6.75580 6.52284
#
# Compressibility (1/GPa) = 0.02051008
#
# Stress axis : x y z
#
# Youngs Moduli (GPa) = 90.98982 75.09173 61.91447
#
# Poissons Ratio (x) = 0.37607 0.21363
# Poissons Ratio (y) = 0.45569 0.09385
# Poissons Ratio (z) = 0.31395 0.11382
#
# Static dielectric constant tensor:
#      x y z
#    x 4.363640 0.000000 0.000000 
#    y 0.000000 4.260010 0.000000 
#    z 0.000000 0.000000 1.148350 
# 
# 
# High freq. dielectric constant tensor:
#      x y z
#    x 1.858630 0.000000 0.000000 
#    y 0.000000 1.856150 0.000000 
#    z 0.000000 0.000000 1.790140 
# 
# From -- ./inp_files/15016.got.cif
#   From: 2010.03.12/outbox.cif.g09.slc.cpg/sg54_8_cif.got.tgz:15016.got - 2010.04.16 15:00:50.
