data_PCOD8223992
_publ_section_title
;
Structure prediction by ZEFSAII (Michael W. Deem and Ramdas Pophale) SiO2 
 PCOD8223992
Probable space group: P C C A
;
_chemical_formula_sum "Si O2"
_cell_formula_units_Z 52
_cell_length_a 9.414636
_cell_length_b 13.358835
_cell_length_c 19.805925
_cell_angle_alpha 90.000000
_cell_angle_beta 90.000000
_cell_angle_gamma 90.000000
_cell_volume 2490.962843
_symmetry_space_group_name_H-M "P C C A"
_symmetry_group_IT_number 54
_symmetry_cell_setting 'orthorhombic'
loop_
_space_group_symop_operation_xyz
x,y,z
1/2-x,-y,z
1/2+x,-y,1/2-z
-x,y,1/2-z
-x,-y,-z
1/2+x,y,-z
1/2-x,y,1/2+z
x,-y,1/2+z
loop_
_atom_site_type_symbol
_atom_site_label
_atom_site_fract_x
_atom_site_fract_y
_atom_site_fract_z
Si Si1 0.661478 0.092741 0.687781
Si Si2 0.162409 0.290450 0.090734
Si Si3 0.882229 0.564589 0.377510
Si Si4 0.838246 0.594053 0.043330
Si Si5 0.862419 0.318260 0.151483
Si Si6 0.500000 0.548431 0.250000
Si Si7 0.654477 0.912747 0.339287
O O1 0.675153 0.200876 0.652786
O O2 0.504116 0.051554 0.676049
O O3 0.711648 0.116004 0.764639
O O4 0.750000 0.000000 0.656442
O O5 0.307683 0.326311 0.128219
O O6 0.157882 0.172781 0.104271
O O7 0.019061 0.340768 0.120323
O O8 0.164199 0.316272 0.011191
O O9 0.750000 0.500000 0.405733
O O10 0.938778 0.525971 0.306287
O O11 0.002193 0.563223 0.435691
O O12 0.750000 0.500000 0.015151
O O13 0.763470 0.631747 0.111033
O O14 0.874191 0.377026 0.223115
O O15 0.750000 0.000000 0.370978
#
# Coordination Sequence:
#
# PCOD8223992 Si02
#       7
#     8   8   8   8   8   4   8
#     4   9  19  37  64  92 124 161 205 264 327 384
#     4  11  23  42  63  91 125 174 216 262 314 378
#     4  12  26  40  63  91 127 168 212 264 315 386
#     4  12  25  42  63  92 128 175 222 258 310 380
#     4  11  23  40  64  90 129 167 210 264 322 378
#     4  12  24  40  62  92 134 170 210 262 332 386
#     4   9  19  38  65  94 124 162 207 265 327 378
#
# _framework density 20.875463
#
# number of rings (size 3 to 8) (size 9 to 14) (size 15 to 20)
#    0.000    1.231    3.077    3.231    2.154    3.077 
#    0.000    2.308    0.000    4.615    0.000    0.000 
#    0.000    0.000    0.000    0.000    0.000    0.000 
#
# Total GULP energy -644379.566182 kJ/mol
# GULP energy per Si atom -12391.914734 kJ/mol
# Density = 2.082795 g / cm^3
# Si number density = 20.875463 Si / 1000 Ang^3
#
#
#
# Elastic Constant Matrix: (Units=GPa)
#
#
# Indices 1 2 3 4 5 6 
#
# 1 115.0213 62.2216 42.8252 0.0000 0.0000 0.0000
# 2 62.2216 104.5288 61.8969 0.0000 0.0000 0.0000
# 3 42.8252 61.8969 105.4452 0.0000 0.0000 0.0000
# 4 0.0000 0.0000 0.0000 31.2489 0.0000 0.0000
# 5 0.0000 0.0000 0.0000 0.0000 24.1507 0.0000
# 6 0.0000 0.0000 0.0000 0.0000 0.0000 41.0671
#
#
#
# Elastic Compliance Matrix: (Units=1/GPa)
#
#
# Indices 1 2 3 4 5 6 
#
# 1 0.012909 -0.007020 -0.001122 0.000000 0.000000 0.000000
# 2 -0.007020 0.018481 -0.007997 0.000000 0.000000 0.000000
# 3 -0.001122 -0.007997 0.014634 0.000000 0.000000 0.000000
# 4 0.000000 0.000000 0.000000 0.032001 0.000000 0.000000
# 5 0.000000 0.000000 0.000000 0.000000 0.041407 0.000000
# 6 0.000000 0.000000 0.000000 0.000000 0.000000 0.024350
#
#
# Mechanical properties :
#
#
# Convention : Reuss Voigt Hill
#
# Bulk Modulus (GPa) = 72.75272 73.20920 72.98096
# Shear Modulus (GPa) = 27.67886 29.83014 28.75450
#
# Velocity S-wave (km/s) = 3.64525 3.78426 3.71540
# Velocity P-wave (km/s) = 7.25559 7.36476 7.31038
#
# Compressibility (1/GPa) = 0.01374519
#
# Stress axis : x y z
#
# Youngs Moduli (GPa) = 77.46347 54.10942 68.33425
#
# Poissons Ratio (x) = 0.37984 0.07669
# Poissons Ratio (y) = 0.54378 0.54650
# Poissons Ratio (z) = 0.08694 0.43274
#
# Static dielectric constant tensor:
#      x y z
#    x 4.209040 0.000000 0.000000 
#    y 0.000000 3.814810 0.000000 
#    z 0.000000 0.000000 3.599390 
# 
# 
# High freq. dielectric constant tensor:
#      x y z
#    x 1.823270 0.000000 0.000000 
#    y 0.000000 1.809550 0.000000 
#    z 0.000000 0.000000 1.808840 
# 
# From -- ./inp_files/20459.got.cif
#   From: 2010.03.12/outbox.cif.g09.slc.cpg/sg54_11_cif.got.tgz:20459.got - 2010.04.16 15:00:50.
