data_PCOD8223334
_publ_section_title
;
Structure prediction by ZEFSAII (Michael W. Deem and Ramdas Pophale) SiO2 
 PCOD8223334
Probable space group: P C C A
;
_chemical_formula_sum "Si O2"
_cell_formula_units_Z 48
_cell_length_a 17.219825
_cell_length_b 9.066238
_cell_length_c 14.415628
_cell_angle_alpha 90.000000
_cell_angle_beta 90.000000
_cell_angle_gamma 90.000000
_cell_volume 2250.553886
_symmetry_space_group_name_H-M "P C C A"
_symmetry_group_IT_number 54
_symmetry_cell_setting 'orthorhombic'
loop_
_space_group_symop_operation_xyz
x,y,z
1/2-x,-y,z
1/2+x,-y,1/2-z
-x,y,1/2-z
-x,-y,-z
1/2+x,y,-z
1/2-x,y,1/2+z
x,-y,1/2+z
loop_
_atom_site_type_symbol
_atom_site_label
_atom_site_fract_x
_atom_site_fract_y
_atom_site_fract_z
Si Si1 0.542998 0.349716 0.021740
Si Si2 0.212189 0.656834 0.394817
Si Si3 0.657633 0.864814 0.060288
Si Si4 0.491283 0.805406 0.355929
Si Si5 0.180511 0.089466 0.774174
Si Si6 0.059700 0.891398 0.115507
O O1 0.628528 0.371565 0.060727
O O2 0.489340 0.256286 0.093895
O O3 0.500000 0.500000 0.000000
O O4 0.554334 0.273168 0.921198
O O5 0.250000 0.500000 0.375167
O O6 0.266923 0.762608 0.458509
O O7 0.204947 0.742474 0.296615
O O8 0.594584 0.758375 0.110695
O O9 0.669791 0.005503 0.127122
O O10 0.625498 0.920686 0.961734
O O11 0.500000 0.758586 0.250000
O O12 0.497037 0.978979 0.378221
O O13 0.102327 0.102670 0.714927
O O14 0.250000 0.000000 0.721074
#
# Coordination Sequence:
#
# PCOD8223334 Si02
#       6
#     8   8   8   8   8   8
#     4  11  25  45  67  98 130 185 227 269 343 405
#     4  11  23  43  65  87 139 178 219 279 334 401
#     4  10  21  41  64  96 129 169 212 282 339 391
#     4  11  21  40  71  99 132 167 227 282 333 401
#     4  10  22  39  64 102 130 170 219 274 346 399
#     4  11  22  41  70  97 131 170 226 279 333 399
#
# _framework density 21.328084
#
# number of rings (size 3 to 8) (size 9 to 14) (size 15 to 20)
#    0.000    1.333    1.667    6.000    0.000    3.333 
#    6.000    0.833    0.000    0.000    0.000    0.000 
#    0.000    0.000    0.000    0.000    0.000    0.000 
#
# Total GULP energy -594785.619604 kJ/mol
# GULP energy per Si atom -12391.367075 kJ/mol
# Density = 2.127954 g / cm^3
# Si number density = 21.328084 Si / 1000 Ang^3
#
#
#
# Elastic Constant Matrix: (Units=GPa)
#
#
# Indices 1 2 3 4 5 6 
#
# 1 147.7523 65.4343 42.1469 0.0000 0.0000 0.0000
# 2 65.4343 133.4202 54.2442 0.0000 0.0000 0.0000
# 3 42.1469 54.2442 84.4818 0.0000 0.0000 0.0000
# 4 0.0000 0.0000 0.0000 20.4373 0.0000 0.0000
# 5 0.0000 0.0000 0.0000 0.0000 24.6243 0.0000
# 6 0.0000 0.0000 0.0000 0.0000 0.0000 39.9089
#
#
#
# Elastic Compliance Matrix: (Units=1/GPa)
#
#
# Indices 1 2 3 4 5 6 
#
# 1 0.008945 -0.003482 -0.002227 0.000000 0.000000 0.000000
# 2 -0.003482 0.011498 -0.005646 0.000000 0.000000 0.000000
# 3 -0.002227 -0.005646 0.016573 0.000000 0.000000 0.000000
# 4 0.000000 0.000000 0.000000 0.048930 0.000000 0.000000
# 5 0.000000 0.000000 0.000000 0.000000 0.040610 0.000000
# 6 0.000000 0.000000 0.000000 0.000000 0.000000 0.025057
#
#
# Mechanical properties :
#
#
# Convention : Reuss Voigt Hill
#
# Bulk Modulus (GPa) = 69.89481 76.58945 73.24213
# Shear Modulus (GPa) = 27.91863 30.58270 29.25066
#
# Velocity S-wave (km/s) = 3.62195 3.79082 3.70734
# Velocity P-wave (km/s) = 7.09463 7.42620 7.26231
#
# Compressibility (1/GPa) = 0.01430721
#
# Stress axis : x y z
#
# Youngs Moduli (GPa) = 111.79084 86.97189 60.33903
#
# Poissons Ratio (x) = 0.30280 0.13439
# Poissons Ratio (y) = 0.38921 0.34066
# Poissons Ratio (z) = 0.24898 0.49102
#
# Static dielectric constant tensor:
#      x y z
#    x 4.233600 0.000000 0.000000 
#    y 0.000000 3.891190 0.000000 
#    z 0.000000 0.000000 3.872270 
# 
# 
# High freq. dielectric constant tensor:
#      x y z
#    x 1.860370 0.000000 0.000000 
#    y 0.000000 1.828660 0.000000 
#    z 0.000000 0.000000 1.819800 
# 
# From -- ./inp_files/14103.got.cif
#   From: 2010.03.12/outbox.cif.g09.slc.cpg/sg54_8_cif.got.tgz:14103.got - 2010.04.16 15:00:50.
