data_PCOD8223686
_publ_section_title
;
Structure prediction by ZEFSAII (Michael W. Deem and Ramdas Pophale) SiO2 
 PCOD8223686
Probable space group: P C C A
;
_chemical_formula_sum "Si O2"
_cell_formula_units_Z 40
_cell_length_a 15.326362
_cell_length_b 10.150822
_cell_length_c 13.866734
_cell_angle_alpha 90.000000
_cell_angle_beta 90.000000
_cell_angle_gamma 90.000000
_cell_volume 2157.319535
_symmetry_space_group_name_H-M "P C C A"
_symmetry_group_IT_number 54
_symmetry_cell_setting 'orthorhombic'
loop_
_space_group_symop_operation_xyz
x,y,z
1/2-x,-y,z
1/2+x,-y,1/2-z
-x,y,1/2-z
-x,-y,-z
1/2+x,y,-z
1/2-x,y,1/2+z
x,-y,1/2+z
loop_
_atom_site_type_symbol
_atom_site_label
_atom_site_fract_x
_atom_site_fract_y
_atom_site_fract_z
Si Si1 0.999080 0.851052 0.537914
Si Si2 0.327641 0.752211 0.558206
Si Si3 0.750000 0.500000 0.002983
Si Si4 0.831645 0.752221 0.057897
Si Si5 0.668652 0.906444 0.749815
Si Si6 0.500000 0.075475 0.750000
O O1 0.923396 0.774659 0.482513
O O2 0.981818 0.839977 0.653268
O O3 0.089151 0.778083 0.515220
O O4 0.000000 0.000000 0.500000
O O5 0.310120 0.594502 0.563874
O O6 0.255809 0.819027 0.486969
O O7 0.310544 0.811064 0.662538
O O8 0.813275 0.594182 0.067909
O O9 0.853926 0.815215 0.159556
O O10 0.750000 0.000000 0.727271
O O11 0.583678 0.989008 0.775978
#
# Coordination Sequence:
#
# PCOD8223686 Si02
#       6
#     8   8   4   8   8   4
#     4  12  22  39  64  89 133 152 204 268 318 364
#     4  10  23  41  59  91 125 167 206 256 297 378
#     4   8  24  44  58  88 124 176 216 234 308 356
#     4  10  23  41  59  91 125 167 206 256 297 378
#     4  12  22  35  66  91 126 160 203 260 328 358
#     4  12  24  36  56 106 114 162 198 240 342 376
#
# _framework density 18.541528
#
# number of rings (size 3 to 8) (size 9 to 14) (size 15 to 20)
#    1.200    0.000    4.000    2.400    0.000    1.600 
#    0.000    0.000    0.000    0.000    0.000    0.000 
#    0.000    0.000    0.000    0.000    0.000    0.000 
#
# Total GULP energy -495802.371652 kJ/mol
# GULP energy per Si atom -12395.059291 kJ/mol
# Density = 1.849933 g / cm^3
# Si number density = 18.541528 Si / 1000 Ang^3
#
#
#
# Elastic Constant Matrix: (Units=GPa)
#
#
# Indices 1 2 3 4 5 6 
#
# 1 99.1636 31.1105 -1.0324 0.0000 0.0000 0.0000
# 2 31.1105 100.7703 27.8374 0.0000 0.0000 0.0000
# 3 -1.0324 27.8374 105.6086 0.0000 0.0000 0.0000
# 4 0.0000 0.0000 0.0000 37.6523 0.0000 0.0000
# 5 0.0000 0.0000 0.0000 0.0000 30.1205 0.0000
# 6 0.0000 0.0000 0.0000 0.0000 0.0000 36.0511
#
#
#
# Elastic Compliance Matrix: (Units=1/GPa)
#
#
# Indices 1 2 3 4 5 6 
#
# 1 0.011285 -0.003790 0.001109 0.000000 0.000000 0.000000
# 2 -0.003790 0.011976 -0.003194 0.000000 0.000000 0.000000
# 3 0.001109 -0.003194 0.010322 0.000000 0.000000 0.000000
# 4 0.000000 0.000000 0.000000 0.026559 0.000000 0.000000
# 5 0.000000 0.000000 0.000000 0.000000 0.033200 0.000000
# 6 0.000000 0.000000 0.000000 0.000000 0.000000 0.027738
#
#
# Mechanical properties :
#
#
# Convention : Reuss Voigt Hill
#
# Bulk Modulus (GPa) = 45.80210 46.81927 46.31068
# Shear Modulus (GPa) = 35.68691 37.27325 36.48008
#
# Velocity S-wave (km/s) = 4.39190 4.48845 4.44044
# Velocity P-wave (km/s) = 7.10454 7.22271 7.16387
#
# Compressibility (1/GPa) = 0.02183306
#
# Stress axis : x y z
#
# Youngs Moduli (GPa) = 88.61249 83.49987 96.88392
#
# Poissons Ratio (x) = 0.31651 -0.10749
# Poissons Ratio (y) = 0.33589 0.30943
# Poissons Ratio (z) = -0.09831 0.26668
#
# Static dielectric constant tensor:
#      x y z
#    x 3.517060 0.000000 0.000000 
#    y 0.000000 3.242180 0.000000 
#    z 0.000000 0.000000 3.348650 
# 
# 
# High freq. dielectric constant tensor:
#      x y z
#    x 1.734840 0.000000 0.000000 
#    y 0.000000 1.699610 0.000000 
#    z 0.000000 0.000000 1.720140 
# 
# From -- ./inp_files/13317.got.cif
#   From: 2010.03.12/outbox.cif.g09.slc.cpg/sg54_7_cif.got.tgz:13317.got - 2010.04.16 15:00:50.
