data_PCOD8223010
_publ_section_title
;
Structure prediction by ZEFSAII (Michael W. Deem and Ramdas Pophale) SiO2 
 PCOD8223010
Probable space group: P C C A
;
_chemical_formula_sum "Si O2"
_cell_formula_units_Z 40
_cell_length_a 14.874313
_cell_length_b 9.159234
_cell_length_c 12.996167
_cell_angle_alpha 90.000000
_cell_angle_beta 90.000000
_cell_angle_gamma 90.000000
_cell_volume 1770.562876
_symmetry_space_group_name_H-M "P C C A"
_symmetry_group_IT_number 54
_symmetry_cell_setting 'orthorhombic'
loop_
_space_group_symop_operation_xyz
x,y,z
1/2-x,-y,z
1/2+x,-y,1/2-z
-x,y,1/2-z
-x,-y,-z
1/2+x,y,-z
1/2-x,y,1/2+z
x,-y,1/2+z
loop_
_atom_site_type_symbol
_atom_site_label
_atom_site_fract_x
_atom_site_fract_y
_atom_site_fract_z
Si Si1 0.984086 0.403610 0.400654
Si Si2 0.318130 0.371518 0.911702
Si Si3 0.538240 0.850501 0.541361
Si Si4 0.796009 0.146212 0.689892
Si Si5 0.117164 0.335030 0.635553
O O1 0.084272 0.381733 0.354706
O O2 0.000000 0.500000 0.500000
O O3 0.938687 0.252222 0.441261
O O4 0.920550 0.503930 0.327025
O O5 0.250000 0.500000 0.877866
O O6 0.281353 0.216841 0.877779
O O7 0.323783 0.365510 0.034845
O O8 0.622594 0.886647 0.612676
O O9 0.465080 0.773333 0.613217
O O10 0.500000 0.000000 0.500000
O O11 0.822091 0.259869 0.778743
O O12 0.750000 0.000000 0.736310
#
# Coordination Sequence:
#
# PCOD8223010 Si02
#       5
#     8   8   8   8   8
#     4   8  17  38  64  86 113 162 207 248 314 383
#     4  10  20  39  64  91 122 159 210 269 321 373
#     4  10  20  39  66  89 124 173 212 259 325 395
#     4  12  24  38  61  96 129 166 213 269 327 384
#     4  10  22  40  61  88 124 166 208 253 316 395
#
# _framework density 22.591683
#
# number of rings (size 3 to 8) (size 9 to 14) (size 15 to 20)
#    0.000    2.400    0.000    6.600    0.000    3.200 
#    0.000    4.000    0.000    9.600    0.000    0.000 
#    0.000    0.000    0.000    0.000    0.000    0.000 
#
# Total GULP energy -495572.024121 kJ/mol
# GULP energy per Si atom -12389.300603 kJ/mol
# Density = 2.254026 g / cm^3
# Si number density = 22.591683 Si / 1000 Ang^3
#
#
#
# Elastic Constant Matrix: (Units=GPa)
#
#
# Indices 1 2 3 4 5 6 
#
# 1 81.7358 44.4310 29.5514 0.0000 0.0000 0.0000
# 2 44.4310 159.4843 47.0304 0.0000 0.0000 0.0000
# 3 29.5514 47.0304 62.6027 0.0000 0.0000 0.0000
# 4 0.0000 0.0000 0.0000 -3.5261 0.0000 0.0000
# 5 0.0000 0.0000 0.0000 0.0000 -27.9613 0.0000
# 6 0.0000 0.0000 0.0000 0.0000 0.0000 45.6452
#
#
#
# Elastic Compliance Matrix: (Units=1/GPa)
#
#
# Indices 1 2 3 4 5 6 
#
# 1 0.015673 -0.002806 -0.005290 0.000000 0.000000 0.000000
# 2 -0.002806 0.008557 -0.005104 0.000000 0.000000 0.000000
# 3 -0.005290 -0.005104 0.022305 0.000000 0.000000 0.000000
# 4 0.000000 0.000000 0.000000 -0.283596 0.000000 0.000000
# 5 0.000000 0.000000 0.000000 0.000000 -0.035764 0.000000
# 6 0.000000 0.000000 0.000000 0.000000 0.000000 0.021908
#
#
# Mechanical properties :
#
#
# Convention : Reuss Voigt Hill
#
# Bulk Modulus (GPa) = 49.66565 60.64981 55.15773
# Shear Modulus (GPa) = -22.95628 15.01887 -3.96870
#
# Velocity S-wave (km/s) = -3.19115 2.58116 -1.32685
# Velocity P-wave (km/s) = 2.90755 5.98227 4.70326
#
# Compressibility (1/GPa) = 0.02013464
#
# Stress axis : x y z
#
# Youngs Moduli (GPa) = 63.80559 116.86220 44.83273
#
# Poissons Ratio (x) = 0.32795 0.23716
# Poissons Ratio (y) = 0.17906 0.22882
# Poissons Ratio (z) = 0.33753 0.59644
#
# Static dielectric constant tensor:
#      x y z
#    x 4.411840 0.000000 0.000000 
#    y 0.000000 4.817540 0.000000 
#    z 0.000000 0.000000 3.922030 
# 
# 
# High freq. dielectric constant tensor:
#      x y z
#    x 1.895540 0.000000 0.000000 
#    y 0.000000 1.901870 0.000000 
#    z 0.000000 0.000000 1.869710 
# 
# From -- ./inp_files/13220.got.cif
#   From: 2010.03.12/outbox.cif.g09.slc.cpg/sg54_7_cif.got.tgz:13220.got - 2010.04.16 15:00:50.
