data_PCOD8223674
_publ_section_title
;
Structure prediction by ZEFSAII (Michael W. Deem and Ramdas Pophale) SiO2 
 PCOD8223674
Probable space group: P C C A
;
_chemical_formula_sum "Si O2"
_cell_formula_units_Z 48
_cell_length_a 14.322609
_cell_length_b 17.986584
_cell_length_c 8.922952
_cell_angle_alpha 90.000000
_cell_angle_beta 90.000000
_cell_angle_gamma 90.000000
_cell_volume 2298.684583
_symmetry_space_group_name_H-M "P C C A"
_symmetry_group_IT_number 54
_symmetry_cell_setting 'orthorhombic'
loop_
_space_group_symop_operation_xyz
x,y,z
1/2-x,-y,z
1/2+x,-y,1/2-z
-x,y,1/2-z
-x,-y,-z
1/2+x,y,-z
1/2-x,y,1/2+z
x,-y,1/2+z
loop_
_atom_site_type_symbol
_atom_site_label
_atom_site_fract_x
_atom_site_fract_y
_atom_site_fract_z
Si Si1 0.276401 0.584967 0.739959
Si Si2 0.485540 0.078026 0.577045
Si Si3 0.363259 0.803630 0.461840
Si Si4 0.552453 0.343538 0.402089
Si Si5 0.863715 0.347543 0.471954
Si Si6 0.827389 0.185903 0.389101
O O1 0.250000 0.500000 0.762210
O O2 0.367623 0.594945 0.632709
O O3 0.182863 0.625020 0.681197
O O4 0.296754 0.622637 0.897834
O O5 0.500000 0.064282 0.750000
O O6 0.558035 0.135929 0.508101
O O7 0.383182 0.113400 0.554094
O O8 0.500000 0.000000 0.500000
O O9 0.397765 0.723644 0.514464
O O10 0.335406 0.800875 0.288109
O O11 0.278715 0.828418 0.567148
O O12 0.500000 0.317004 0.250000
O O13 0.470587 0.377023 0.509487
O O14 0.867210 0.258098 0.475223
#
# Coordination Sequence:
#
# PCOD8223674 Si02
#       6
#     8   8   8   8   8   8
#     4  11  24  42  63  93 135 172 218 282 337 400
#     4  10  24  44  64  98 137 176 221 276 342 399
#     4  11  23  41  67 100 134 168 233 277 333 404
#     4  10  23  39  66  97 129 173 227 272 338 405
#     4  11  22  42  66  93 130 172 226 270 339 400
#     4  11  23  40  69  98 130 178 227 284 331 404
#
# _framework density 20.881506999999999
#
# number of rings (size 3 to 8) (size 9 to 14) (size 15 to 20)
#    0.000    1.333    3.333    1.500    2.333    3.333 
#    0.000    5.000    0.000    0.000    0.000    0.000 
#    0.000    0.000    0.000    0.000    0.000    0.000 
#
# Total GULP energy -595166.317522 kJ/mol
# GULP energy per Si atom -12399.298282 kJ/mol
# Density = 2.083398 g / cm^3
# Si number density = 20.881507 Si / 1000 Ang^3
#
#
#
# Elastic Constant Matrix: (Units=GPa)
#
#
# Indices 1 2 3 4 5 6 
#
# 1 131.0997 35.3867 57.9987 0.0000 0.0000 0.0000
# 2 35.3867 111.8760 56.2597 0.0000 0.0000 0.0000
# 3 57.9987 56.2597 66.0703 0.0000 0.0000 0.0000
# 4 0.0000 0.0000 0.0000 24.5504 0.0000 0.0000
# 5 0.0000 0.0000 0.0000 0.0000 35.9410 0.0000
# 6 0.0000 0.0000 0.0000 0.0000 0.0000 -69.1454
#
#
#
# Elastic Compliance Matrix: (Units=1/GPa)
#
#
# Indices 1 2 3 4 5 6 
#
# 1 0.012966 0.002838 -0.013799 0.000000 0.000000 0.000000
# 2 0.002838 0.016253 -0.016331 0.000000 0.000000 0.000000
# 3 -0.013799 -0.016331 0.041154 0.000000 0.000000 0.000000
# 4 0.000000 0.000000 0.000000 0.040732 0.000000 0.000000
# 5 0.000000 0.000000 0.000000 0.000000 0.027823 0.000000
# 6 0.000000 0.000000 0.000000 0.000000 0.000000 -0.014462
#
#
# Mechanical properties :
#
#
# Convention : Reuss Voigt Hill
#
# Bulk Modulus (GPa) = 63.33032 67.59290 65.46161
# Shear Modulus (GPa) = 27.12754 8.89594 18.01174
#
# Velocity S-wave (km/s) = 3.60824 2.06626 2.94014
# Velocity P-wave (km/s) = 6.91039 6.17516 6.55309
#
# Compressibility (1/GPa) = 0.01579023
#
# Stress axis : x y z
#
# Youngs Moduli (GPa) = 77.12267 61.52594 24.29884
#
# Poissons Ratio (x) = -0.17459 0.33529
# Poissons Ratio (y) = -0.21885 0.39682
# Poissons Ratio (z) = 1.06419 1.00477
#
# Static dielectric constant tensor:
#      x y z
#    x 1.212930 0.000000 0.000000 
#    y 0.000000 3.644530 0.000000 
#    z 0.000000 0.000000 3.831280 
# 
# 
# High freq. dielectric constant tensor:
#      x y z
#    x 1.838430 0.000000 0.000000 
#    y 0.000000 1.802340 0.000000 
#    z 0.000000 0.000000 1.822270 
# 
# From -- ./inp_files/3590.got.cif
#   From: 2010.03.12/outbox.cif.g09.slc.cpg/sg54_2_cif.got.tgz:3590.got - 2010.04.16 15:00:50.
