data_PCOD8223454
_publ_section_title
;
Structure prediction by ZEFSAII (Michael W. Deem and Ramdas Pophale) SiO2 
 PCOD8223454
Probable space group: P C C A
;
_chemical_formula_sum "Si O2"
_cell_formula_units_Z 36
_cell_length_a 5.052842
_cell_length_b 25.193225
_cell_length_c 12.346234
_cell_angle_alpha 90.000000
_cell_angle_beta 90.000000
_cell_angle_gamma 90.000000
_cell_volume 1571.643308
_symmetry_space_group_name_H-M "P C C A"
_symmetry_group_IT_number 54
_symmetry_cell_setting 'orthorhombic'
loop_
_space_group_symop_operation_xyz
x,y,z
1/2-x,-y,z
1/2+x,-y,1/2-z
-x,y,1/2-z
-x,-y,-z
1/2+x,y,-z
1/2-x,y,1/2+z
x,-y,1/2+z
loop_
_atom_site_type_symbol
_atom_site_label
_atom_site_fract_x
_atom_site_fract_y
_atom_site_fract_z
Si Si1 0.581594 0.885791 0.430927
Si Si2 0.767383 0.384715 0.077518
Si Si3 0.500000 0.033599 0.750000
Si Si4 0.500000 0.689776 0.250000
Si Si5 0.629153 0.233595 0.927730
Si Si6 0.250000 0.500000 0.926047
O O1 0.281736 0.893964 0.469910
O O2 0.633523 0.929810 0.341102
O O3 0.634737 0.826869 0.383626
O O4 0.762095 0.443465 0.136327
O O5 0.798149 0.345165 0.178397
O O6 0.499038 0.375611 0.010623
O O7 0.750000 0.000000 0.705202
O O8 0.323499 0.727313 0.172886
O O9 0.348020 0.245390 0.982398
O O10 0.500000 0.500000 0.000000
#
# Coordination Sequence:
#
# PCOD8223454 Si02
#       6
#     8   8   4   4   8   4
#     4  10  22  42  63  85 120 164 203 244 298 361
#     4  10  22  39  59  86 118 155 197 240 293 353
#     4  12  25  38  60  94 124 155 202 254 302 354
#     4  12  23  38  64  92 124 155 194 256 308 354
#     4  10  23  41  62  89 121 159 203 246 298 362
#     4   8  16  36  58  76 110 150 186 234 280 336
#
# _framework density 22.905957999999998
#
# number of rings (size 3 to 8) (size 9 to 14) (size 15 to 20)
#    0.000    1.778    0.000    3.333    0.000    6.222 
#    0.000   13.333    0.000    0.000    0.000    0.000 
#    0.000    0.000    0.000    0.000    0.000    0.000 
#
# Total GULP energy -446216.412287 kJ/mol
# GULP energy per Si atom -12394.900341 kJ/mol
# Density = 2.285382 g / cm^3
# Si number density = 22.905958 Si / 1000 Ang^3
#
#
#
# Elastic Constant Matrix: (Units=GPa)
#
#
# Indices 1 2 3 4 5 6 
#
# 1 99.5587 29.5660 9.8548 0.0000 0.0000 0.0000
# 2 29.5660 160.2698 78.0243 0.0000 0.0000 0.0000
# 3 9.8548 78.0243 84.6926 0.0000 0.0000 0.0000
# 4 0.0000 0.0000 0.0000 35.8624 0.0000 0.0000
# 5 0.0000 0.0000 0.0000 0.0000 14.4774 0.0000
# 6 0.0000 0.0000 0.0000 0.0000 0.0000 31.1842
#
#
#
# Elastic Compliance Matrix: (Units=1/GPa)
#
#
# Indices 1 2 3 4 5 6 
#
# 1 0.010677 -0.002475 0.001037 0.000000 0.000000 0.000000
# 2 -0.002475 0.011887 -0.010663 0.000000 0.000000 0.000000
# 3 0.001037 -0.010663 0.021510 0.000000 0.000000 0.000000
# 4 0.000000 0.000000 0.000000 0.027884 0.000000 0.000000
# 5 0.000000 0.000000 0.000000 0.000000 0.069073 0.000000
# 6 0.000000 0.000000 0.000000 0.000000 0.000000 0.032067
#
#
# Mechanical properties :
#
#
# Convention : Reuss Voigt Hill
#
# Bulk Modulus (GPa) = 50.31902 64.37906 57.34904
# Shear Modulus (GPa) = 24.51884 31.44320 27.98102
#
# Velocity S-wave (km/s) = 3.27527 3.70903 3.49887
# Velocity P-wave (km/s) = 6.02648 6.81978 6.43536
#
# Compressibility (1/GPa) = 0.01987320
#
# Stress axis : x y z
#
# Youngs Moduli (GPa) = 93.66339 84.12377 46.48901
#
# Poissons Ratio (x) = 0.20818 -0.04823
# Poissons Ratio (y) = 0.23178 0.49573
# Poissons Ratio (z) = -0.09717 0.89704
#
# Static dielectric constant tensor:
#      x y z
#    x 4.069180 0.000000 0.000000 
#    y 0.000000 4.952430 0.000000 
#    z 0.000000 0.000000 3.685370 
# 
# 
# High freq. dielectric constant tensor:
#      x y z
#    x 1.911570 0.000000 0.000000 
#    y 0.000000 1.936410 0.000000 
#    z 0.000000 0.000000 1.870480 
# 
# From -- ./inp_files/6388.got.cif
#   From: 2010.03.12/outbox.cif.g09.slc.cpg/sg54_4_cif.got.tgz:6388.got - 2010.04.16 15:00:50.
