data_PCOD8223355
_publ_section_title
;
Structure prediction by ZEFSAII (Michael W. Deem and Ramdas Pophale) SiO2 
 PCOD8223355
Probable space group: P C C A
;
_chemical_formula_sum "Si O2"
_cell_formula_units_Z 28
_cell_length_a 10.225708
_cell_length_b 6.356605
_cell_length_c 19.209310
_cell_angle_alpha 90.000000
_cell_angle_beta 90.000000
_cell_angle_gamma 90.000000
_cell_volume 1248.620260
_symmetry_space_group_name_H-M "P C C A"
_symmetry_group_IT_number 54
_symmetry_cell_setting 'orthorhombic'
loop_
_space_group_symop_operation_xyz
x,y,z
1/2-x,-y,z
1/2+x,-y,1/2-z
-x,y,1/2-z
-x,-y,-z
1/2+x,y,-z
1/2-x,y,1/2+z
x,-y,1/2+z
loop_
_atom_site_type_symbol
_atom_site_label
_atom_site_fract_x
_atom_site_fract_y
_atom_site_fract_z
Si Si1 0.861109 0.173342 0.267841
Si Si2 0.628931 0.160081 0.069773
Si Si3 0.382570 0.119411 0.582117
Si Si4 0.250000 0.500000 0.834373
O O1 0.864500 0.259117 0.348003
O O2 0.842957 0.364761 0.215147
O O3 0.000000 0.066341 0.250000
O O4 0.750000 0.000000 0.256574
O O5 0.655227 0.362235 0.117181
O O6 0.750000 0.000000 0.074372
O O7 0.501114 0.040883 0.097383
O O8 0.597085 0.243920 0.990750
O O9 0.250000 0.000000 0.568670
#
# Coordination Sequence:
#
# PCOD8223355 Si02
#       4
#     8   8   8   4
#     4  11  24  42  63  91 126 163 203 254 312 371
#     4  10  21  42  64  87 121 165 209 254 305 364
#     4   9  20  40  64  86 120 164 207 253 303 363
#     4  12  24  36  64  96 126 162 204 256 316 370
#
# _framework density 22.42475
#
# number of rings (size 3 to 8) (size 9 to 14) (size 15 to 20)
#    0.000    1.714    0.000    4.286    0.000    6.857 
#    0.000   20.000    0.000    0.000    0.000    0.000 
#    0.000    0.000    0.000    0.000    0.000    0.000 
#
# Total GULP energy -346954.846566 kJ/mol
# GULP energy per Si atom -12391.244520 kJ/mol
# Density = 2.237371 g / cm^3
# Si number density = 22.424750 Si / 1000 Ang^3
#
#
#
# Elastic Constant Matrix: (Units=GPa)
#
#
# Indices 1 2 3 4 5 6 
#
# 1 168.7347 48.7012 39.8077 0.0000 0.0000 0.0000
# 2 48.7012 94.3988 85.5226 0.0000 0.0000 0.0000
# 3 39.8077 85.5226 217.0577 0.0000 0.0000 0.0000
# 4 0.0000 0.0000 0.0000 -20.9827 0.0000 0.0000
# 5 0.0000 0.0000 0.0000 0.0000 31.0687 0.0000
# 6 0.0000 0.0000 0.0000 0.0000 0.0000 16.6603
#
#
#
# Elastic Compliance Matrix: (Units=1/GPa)
#
#
# Indices 1 2 3 4 5 6 
#
# 1 0.006970 -0.003791 0.000215 0.000000 0.000000 0.000000
# 2 -0.003791 0.018536 -0.006608 0.000000 0.000000 0.000000
# 3 0.000215 -0.006608 0.007171 0.000000 0.000000 0.000000
# 4 0.000000 0.000000 0.000000 -0.047658 0.000000 0.000000
# 5 0.000000 0.000000 0.000000 0.000000 0.032187 0.000000
# 6 0.000000 0.000000 0.000000 0.000000 0.000000 0.060023
#
#
# Mechanical properties :
#
#
# Convention : Reuss Voigt Hill
#
# Bulk Modulus (GPa) = 81.23671 92.02824 86.63248
# Shear Modulus (GPa) = 49.16482 25.75990 37.46236
#
# Velocity S-wave (km/s) = 4.68742 3.39296 4.09171
# Velocity P-wave (km/s) = 8.09944 7.51514 7.81276
#
# Compressibility (1/GPa) = 0.01230971
#
# Stress axis : x y z
#
# Youngs Moduli (GPa) = 143.47597 53.94952 139.44703
#
# Poissons Ratio (x) = 0.20452 -0.03004
# Poissons Ratio (y) = 0.54391 0.92147
# Poissons Ratio (z) = -0.03091 0.35650
#
# Static dielectric constant tensor:
#      x y z
#    x 4.274120 0.000000 0.000000 
#    y 0.000000 3.429270 0.000000 
#    z 0.000000 0.000000 5.001900 
# 
# 
# High freq. dielectric constant tensor:
#      x y z
#    x 1.906350 0.000000 0.000000 
#    y 0.000000 1.820500 0.000000 
#    z 0.000000 0.000000 1.929060 
# 
# From -- ./inp_files/20779.got.cif
#   From: 2010.03.12/outbox.cif.g09.slc.cpg/sg54_11_cif.got.tgz:20779.got - 2010.04.16 15:00:50.
