data_PCOD8223915
_publ_section_title
;
Structure prediction by ZEFSAII (Michael W. Deem and Ramdas Pophale) SiO2 
 PCOD8223915
Probable space group: P C C A
;
_chemical_formula_sum "Si O2"
_cell_formula_units_Z 48
_cell_length_a 14.735637
_cell_length_b 10.259871
_cell_length_c 16.523172
_cell_angle_alpha 90.000000
_cell_angle_beta 90.000000
_cell_angle_gamma 90.000000
_cell_volume 2498.067899
_symmetry_space_group_name_H-M "P C C A"
_symmetry_group_IT_number 54
_symmetry_cell_setting 'orthorhombic'
loop_
_space_group_symop_operation_xyz
x,y,z
1/2-x,-y,z
1/2+x,-y,1/2-z
-x,y,1/2-z
-x,-y,-z
1/2+x,y,-z
1/2-x,y,1/2+z
x,-y,1/2+z
loop_
_atom_site_type_symbol
_atom_site_label
_atom_site_fract_x
_atom_site_fract_y
_atom_site_fract_z
Si Si1 0.906171 0.519510 0.295819
Si Si2 0.017256 0.871179 0.948947
Si Si3 0.690310 0.619581 0.644904
Si Si4 0.192316 0.871566 0.838244
Si Si5 0.911362 0.771590 0.804420
Si Si6 0.500252 0.624000 0.556752
O O1 0.833284 0.590922 0.238878
O O2 0.872404 0.374167 0.320254
O O3 0.000000 0.502141 0.250000
O O4 0.922970 0.606375 0.375088
O O5 0.932495 0.843415 0.889023
O O6 0.107981 0.886337 0.897749
O O7 0.029153 0.751489 0.009248
O O8 0.000000 0.000000 0.000000
O O9 0.750000 0.500000 0.610109
O O10 0.748669 0.748763 0.635101
O O11 0.599964 0.639351 0.593494
O O12 0.161877 0.855867 0.744956
O O13 0.250000 0.000000 0.846073
O O14 0.000000 0.759349 0.750000
O O15 0.500000 0.500000 0.500000
#
# Coordination Sequence:
#
# PCOD8223915 Si02
#       6
#     8   8   8   8   8   8
#     4   9  18  35  60  87 115 152 202 243 289 363
#     4  11  23  41  63  88 126 168 199 240 305 378
#     4  11  21  37  61  90 119 154 206 263 299 344
#     4  11  23  41  62  88 120 159 207 257 303 350
#     4   9  18  37  62  83 111 158 201 239 295 363
#     4  11  21  37  62  89 121 165 202 241 306 374
#
# _framework density 19.214849000000001
#
# number of rings (size 3 to 8) (size 9 to 14) (size 15 to 20)
#    0.000    1.667    3.333    2.000    0.000    1.333 
#    0.000   15.000    0.000    0.000    0.000    0.000 
#    0.000    0.000    0.000    0.000    0.000    0.000 
#
# Total GULP energy -595195.931640 kJ/mol
# GULP energy per Si atom -12399.915242 kJ/mol
# Density = 1.917112 g / cm^3
# Si number density = 19.214849 Si / 1000 Ang^3
#
#
#
# Elastic Constant Matrix: (Units=GPa)
#
#
# Indices 1 2 3 4 5 6 
#
# 1 76.6661 42.9391 34.0384 0.0000 0.0000 0.0000
# 2 42.9391 166.3977 62.5023 0.0000 0.0000 0.0000
# 3 34.0384 62.5023 116.8828 0.0000 0.0000 0.0000
# 4 0.0000 0.0000 0.0000 43.6511 0.0000 0.0000
# 5 0.0000 0.0000 0.0000 0.0000 31.6976 0.0000
# 6 0.0000 0.0000 0.0000 0.0000 0.0000 34.6930
#
#
#
# Elastic Compliance Matrix: (Units=1/GPa)
#
#
# Indices 1 2 3 4 5 6 
#
# 1 0.016090 -0.002993 -0.003085 0.000000 0.000000 0.000000
# 2 -0.002993 0.008077 -0.003447 0.000000 0.000000 0.000000
# 3 -0.003085 -0.003447 0.011298 0.000000 0.000000 0.000000
# 4 0.000000 0.000000 0.000000 0.022909 0.000000 0.000000
# 5 0.000000 0.000000 0.000000 0.000000 0.031548 0.000000
# 6 0.000000 0.000000 0.000000 0.000000 0.000000 0.028824
#
#
# Mechanical properties :
#
#
# Convention : Reuss Voigt Hill
#
# Bulk Modulus (GPa) = 60.92776 70.98958 65.95867
# Shear Modulus (GPa) = 34.89968 36.70614 35.80291
#
# Velocity S-wave (km/s) = 4.26642 4.37544 4.32127
# Velocity P-wave (km/s) = 7.48647 7.90894 7.70060
#
# Compressibility (1/GPa) = 0.01641288
#
# Stress axis : x y z
#
# Youngs Moduli (GPa) = 62.15162 123.80795 88.51504
#
# Poissons Ratio (x) = 0.37058 0.27307
# Poissons Ratio (y) = 0.18603 0.30515
# Poissons Ratio (z) = 0.19174 0.42682
#
# Static dielectric constant tensor:
#      x y z
#    x 4.831340 0.000000 0.000000 
#    y 0.000000 3.478760 0.000000 
#    z 0.000000 0.000000 3.715700 
# 
# 
# High freq. dielectric constant tensor:
#      x y z
#    x 1.742590 0.000000 0.000000 
#    y 0.000000 1.751830 0.000000 
#    z 0.000000 0.000000 1.749020 
# 
# From -- ./inp_files/18020.got.cif
#   From: 2010.03.12/outbox.cif.g09.slc.cpg/sg54_10_cif.got.tgz:18020.got - 2010.04.16 15:00:50.
