data_PCOD8223870
_publ_section_title
;
Structure prediction by ZEFSAII (Michael W. Deem and Ramdas Pophale) SiO2 
 PCOD8223870
Probable space group: P C C A
;
_chemical_formula_sum "Si O2"
_cell_formula_units_Z 40
_cell_length_a 16.696012
_cell_length_b 11.968721
_cell_length_c 8.659329
_cell_angle_alpha 90.000000
_cell_angle_beta 90.000000
_cell_angle_gamma 90.000000
_cell_volume 1730.392930
_symmetry_space_group_name_H-M "P C C A"
_symmetry_group_IT_number 54
_symmetry_cell_setting 'orthorhombic'
loop_
_space_group_symop_operation_xyz
x,y,z
1/2-x,-y,z
1/2+x,-y,1/2-z
-x,y,1/2-z
-x,-y,-z
1/2+x,y,-z
1/2-x,y,1/2+z
x,-y,1/2+z
loop_
_atom_site_type_symbol
_atom_site_label
_atom_site_fract_x
_atom_site_fract_y
_atom_site_fract_z
Si Si1 0.657443 0.396356 0.476087
Si Si2 0.341197 0.967623 0.233809
Si Si3 0.326758 0.371068 0.385912
Si Si4 0.945150 0.792647 0.604679
Si Si5 0.907377 0.861895 0.062070
O O1 0.672395 0.393313 0.295051
O O2 0.636843 0.522740 0.524548
O O3 0.735437 0.351104 0.564510
O O4 0.582905 0.319556 0.521310
O O5 0.368726 0.865800 0.344433
O O6 0.250000 0.000000 0.265687
O O7 0.395311 0.077112 0.273215
O O8 0.353202 0.932889 0.057268
O O9 0.379612 0.265728 0.432300
O O10 0.000000 0.759525 0.750000
O O11 0.999518 0.864324 0.486087
#
# Coordination Sequence:
#
# PCOD8223870 Si02
#       5
#     8   8   8   8   8
#     4  11  25  47  74 107 142 186 239 304 349 430
#     4  11  24  44  71 100 139 190 241 290 348 419
#     4  11  26  44  78 103 142 183 248 291 362 417
#     4  10  25  45  72 101 153 186 236 292 363 419
#     4  11  26  44  69 106 143 189 233 295 355 430
#
# _framework density 23.116135
#
# number of rings (size 3 to 8) (size 9 to 14) (size 15 to 20)
#    0.000    1.200    0.000    4.800   16.800    1.600 
#    0.000    0.000    0.000    0.000    0.000    0.000 
#    0.000    0.000    0.000    0.000    0.000    0.000 
#
# Total GULP energy -496184.928511 kJ/mol
# GULP energy per Si atom -12404.623213 kJ/mol
# Density = 2.306352 g / cm^3
# Si number density = 23.116135 Si / 1000 Ang^3
#
#
#
# Elastic Constant Matrix: (Units=GPa)
#
#
# Indices 1 2 3 4 5 6 
#
# 1 100.4413 41.8085 65.8197 0.0000 0.0000 0.0000
# 2 41.8085 117.1209 64.1741 0.0000 0.0000 0.0000
# 3 65.8197 64.1741 143.3156 0.0000 0.0000 0.0000
# 4 0.0000 0.0000 0.0000 42.7108 0.0000 0.0000
# 5 0.0000 0.0000 0.0000 0.0000 20.8668 0.0000
# 6 0.0000 0.0000 0.0000 0.0000 0.0000 38.6441
#
#
#
# Elastic Compliance Matrix: (Units=1/GPa)
#
#
# Indices 1 2 3 4 5 6 
#
# 1 0.014600 -0.002038 -0.005793 0.000000 0.000000 0.000000
# 2 -0.002038 0.011599 -0.004258 0.000000 0.000000 0.000000
# 3 -0.005793 -0.004258 0.011545 0.000000 0.000000 0.000000
# 4 0.000000 0.000000 0.000000 0.023413 0.000000 0.000000
# 5 0.000000 0.000000 0.000000 0.000000 0.047923 0.000000
# 6 0.000000 0.000000 0.000000 0.000000 0.000000 0.025877
#
#
# Mechanical properties :
#
#
# Convention : Reuss Voigt Hill
#
# Bulk Modulus (GPa) = 73.71003 78.27582 75.99292
# Shear Modulus (GPa) = 30.55184 33.04938 31.80061
#
# Velocity S-wave (km/s) = 3.63942 3.78525 3.71305
# Velocity P-wave (km/s) = 7.04390 7.28283 7.16436
#
# Compressibility (1/GPa) = 0.01356668
#
# Stress axis : x y z
#
# Youngs Moduli (GPa) = 68.49099 86.21766 86.62014
#
# Poissons Ratio (x) = 0.17569 0.50179
# Poissons Ratio (y) = 0.13957 0.36881
# Poissons Ratio (z) = 0.39677 0.36709
#
# Static dielectric constant tensor:
#      x y z
#    x 4.079860 0.000000 0.000000 
#    y 0.000000 4.260610 0.000000 
#    z 0.000000 0.000000 4.293570 
# 
# 
# High freq. dielectric constant tensor:
#      x y z
#    x 1.909760 0.000000 0.000000 
#    y 0.000000 1.924140 0.000000 
#    z 0.000000 0.000000 1.926720 
# 
# From -- ./inp_files/3976.got.cif
#   From: 2010.03.12/outbox.cif.g09.slc.cpg/sg54_2_cif.got.tgz:3976.got - 2010.04.16 15:00:50.
