data_PCOD8223898
_publ_section_title
;
Structure prediction by ZEFSAII (Michael W. Deem and Ramdas Pophale) SiO2 
 PCOD8223898
Probable space group: P C C A
;
_chemical_formula_sum "Si O2"
_cell_formula_units_Z 40
_cell_length_a 11.381873
_cell_length_b 9.460345
_cell_length_c 15.445634
_cell_angle_alpha 90.000000
_cell_angle_beta 90.000000
_cell_angle_gamma 90.000000
_cell_volume 1663.130965
_symmetry_space_group_name_H-M "P C C A"
_symmetry_group_IT_number 54
_symmetry_cell_setting 'orthorhombic'
loop_
_space_group_symop_operation_xyz
x,y,z
1/2-x,-y,z
1/2+x,-y,1/2-z
-x,y,1/2-z
-x,-y,-z
1/2+x,y,-z
1/2-x,y,1/2+z
x,-y,1/2+z
loop_
_atom_site_type_symbol
_atom_site_label
_atom_site_fract_x
_atom_site_fract_y
_atom_site_fract_z
Si Si1 0.624850 0.280822 0.947336
Si Si2 0.585923 0.048049 0.075623
Si Si3 0.500000 0.184490 0.250000
Si Si4 0.250000 0.500000 0.967649
Si Si5 0.631909 0.754773 0.127112
Si Si6 0.759134 0.330866 0.787986
O O1 0.504105 0.261502 0.896795
O O2 0.733919 0.259982 0.881344
O O3 0.649170 0.182881 0.031829
O O4 0.637972 0.445004 0.976959
O O5 0.516701 0.089159 0.163980
O O6 0.670915 0.914107 0.098097
O O7 0.500000 0.000000 0.000000
O O8 0.388376 0.286422 0.241547
O O9 0.290666 0.367082 0.913699
O O10 0.657491 0.738479 0.228472
O O11 0.750000 0.500000 0.788505
#
# Coordination Sequence:
#
# PCOD8223898 Si02
#       6
#     8   8   4   4   8   8
#     4  11  26  46  78 113 154 202 264 324 394 472
#     4  10  27  52  80 109 156 209 263 333 385 479
#     4  12  30  54  74 120 162 206 268 326 406 476
#     4  12  24  42  76 114 154 206 248 334 382 474
#     4  11  26  50  74 113 152 206 263 318 402 463
#     4  12  28  47  80 115 157 207 256 333 393 479
#
# _framework density 24.051020000000001
#
# number of rings (size 3 to 8) (size 9 to 14) (size 15 to 20)
#    0.000    0.800    2.000    2.400   14.000    3.200 
#    3.600    0.000    0.000    0.000    0.000    0.000 
#    0.000    0.000    0.000    0.000    0.000    0.000 
#
# Total GULP energy -495608.738929 kJ/mol
# GULP energy per Si atom -12390.218473 kJ/mol
# Density = 2.399628 g / cm^3
# Si number density = 24.051020 Si / 1000 Ang^3
#
#
#
# Elastic Constant Matrix: (Units=GPa)
#
#
# Indices 1 2 3 4 5 6 
#
# 1 94.1022 61.9912 40.7965 0.0000 0.0000 0.0000
# 2 61.9912 177.5001 82.3231 0.0000 0.0000 0.0000
# 3 40.7965 82.3231 177.7422 0.0000 0.0000 0.0000
# 4 0.0000 0.0000 0.0000 35.4622 0.0000 0.0000
# 5 0.0000 0.0000 0.0000 0.0000 33.9280 0.0000
# 6 0.0000 0.0000 0.0000 0.0000 0.0000 49.4664
#
#
#
# Elastic Compliance Matrix: (Units=1/GPa)
#
#
# Indices 1 2 3 4 5 6 
#
# 1 0.014003 -0.004330 -0.001209 0.000000 0.000000 0.000000
# 2 -0.004330 0.008514 -0.002949 0.000000 0.000000 0.000000
# 3 -0.001209 -0.002949 0.007270 0.000000 0.000000 0.000000
# 4 0.000000 0.000000 0.000000 0.028199 0.000000 0.000000
# 5 0.000000 0.000000 0.000000 0.000000 0.029474 0.000000
# 6 0.000000 0.000000 0.000000 0.000000 0.000000 0.020216
#
#
# Mechanical properties :
#
#
# Convention : Reuss Voigt Hill
#
# Bulk Modulus (GPa) = 78.06056 91.06290 84.56173
# Shear Modulus (GPa) = 38.78309 41.38689 40.08499
#
# Velocity S-wave (km/s) = 4.01999 4.15275 4.08691
# Velocity P-wave (km/s) = 7.35349 7.80630 7.58328
#
# Compressibility (1/GPa) = 0.01281057
#
# Stress axis : x y z
#
# Youngs Moduli (GPa) = 71.41237 117.45382 137.55885
#
# Poissons Ratio (x) = 0.50858 0.16625
# Poissons Ratio (y) = 0.30922 0.40573
# Poissons Ratio (z) = 0.08631 0.34643
#
# Static dielectric constant tensor:
#      x y z
#    x 4.674910 0.000000 0.000000 
#    y 0.000000 5.238220 0.000000 
#    z 0.000000 0.000000 4.845920 
# 
# 
# High freq. dielectric constant tensor:
#      x y z
#    x 1.952140 0.000000 0.000000 
#    y 0.000000 1.973020 0.000000 
#    z 0.000000 0.000000 1.973540 
# 
# From -- ./inp_files/17155.got.cif
#   From: 2010.03.12/outbox.cif.g09.slc.cpg/sg54_9_cif.got.tgz:17155.got - 2010.04.16 15:00:50.
