data_PCOD8223426
_publ_section_title
;
Structure prediction by ZEFSAII (Michael W. Deem and Ramdas Pophale) SiO2 
 PCOD8223426
Probable space group: P C C A
;
_chemical_formula_sum "Si O2"
_cell_formula_units_Z 48
_cell_length_a 18.158058
_cell_length_b 14.746752
_cell_length_c 8.842385
_cell_angle_alpha 90.000000
_cell_angle_beta 90.000000
_cell_angle_gamma 90.000000
_cell_volume 2367.746460
_symmetry_space_group_name_H-M "P C C A"
_symmetry_group_IT_number 54
_symmetry_cell_setting 'orthorhombic'
loop_
_space_group_symop_operation_xyz
x,y,z
1/2-x,-y,z
1/2+x,-y,1/2-z
-x,y,1/2-z
-x,-y,-z
1/2+x,y,-z
1/2-x,y,1/2+z
x,-y,1/2+z
loop_
_atom_site_type_symbol
_atom_site_label
_atom_site_fract_x
_atom_site_fract_y
_atom_site_fract_z
Si Si1 0.750000 0.000000 0.268554
Si Si2 0.309067 0.879792 0.491003
Si Si3 0.295268 0.723411 0.118917
Si Si4 0.000000 0.466908 0.750000
Si Si5 0.927267 0.214310 0.183202
Si Si6 0.922599 0.604543 0.533180
Si Si7 0.242827 0.603856 0.887020
O O1 0.812660 0.957089 0.379521
O O2 0.718214 0.919351 0.168971
O O3 0.254001 0.800544 0.540810
O O4 0.390364 0.844074 0.451715
O O5 0.371707 0.764707 0.177771
O O6 0.251392 0.675954 0.253599
O O7 0.307178 0.639523 0.000562
O O8 0.944674 0.523330 0.644823
O O9 0.049524 0.406204 0.638447
O O10 0.957373 0.305369 0.105056
O O11 0.000000 0.164320 0.250000
O O12 0.834786 0.613991 0.526605
O O13 0.250000 0.500000 0.833009
#
# Coordination Sequence:
#
# PCOD8223426 Si02
#       7
#     4   8   8   4   8   8   8
#     4  10  22  38  74 102 122 156 212 256 322 398
#     4  11  20  42  69  96 124 165 207 257 318 402
#     4  11  21  40  61  89 125 169 214 259 314 383
#     4  10  22  38  58  82 124 176 218 266 328 378
#     4  11  23  41  62  93 131 169 206 267 330 378
#     4  10  22  38  56  82 122 168 218 263 318 380
#     4  11  24  34  58  89 123 164 221 271 309 356
#
# _framework density 20.272441000000001
#
# number of rings (size 3 to 8) (size 9 to 14) (size 15 to 20)
#    0.000    1.333    5.833    0.500    7.000    0.000 
#    0.000    0.833    0.000    0.000    0.000    0.000 
#    0.000    0.000    0.000    0.000    0.000    0.000 
#
# Total GULP energy -594869.901721 kJ/mol
# GULP energy per Si atom -12393.122953 kJ/mol
# Density = 2.022630 g / cm^3
# Si number density = 20.272441 Si / 1000 Ang^3
#
#
#
# Elastic Constant Matrix: (Units=GPa)
#
#
# Indices 1 2 3 4 5 6 
#
# 1 69.9231 44.9935 61.0053 0.0000 0.0000 0.0000
# 2 44.9935 100.1944 59.3161 0.0000 0.0000 0.0000
# 3 61.0053 59.3161 136.9784 0.0000 0.0000 0.0000
# 4 0.0000 0.0000 0.0000 39.3168 0.0000 0.0000
# 5 0.0000 0.0000 0.0000 0.0000 30.0368 0.0000
# 6 0.0000 0.0000 0.0000 0.0000 0.0000 17.3768
#
#
#
# Elastic Compliance Matrix: (Units=1/GPa)
#
#
# Indices 1 2 3 4 5 6 
#
# 1 0.026231 -0.006540 -0.008851 0.000000 0.000000 0.000000
# 2 -0.006540 0.015052 -0.003605 0.000000 0.000000 0.000000
# 3 -0.008851 -0.003605 0.012803 0.000000 0.000000 0.000000
# 4 0.000000 0.000000 0.000000 0.025434 0.000000 0.000000
# 5 0.000000 0.000000 0.000000 0.000000 0.033293 0.000000
# 6 0.000000 0.000000 0.000000 0.000000 0.000000 0.057548
#
#
# Mechanical properties :
#
#
# Convention : Reuss Voigt Hill
#
# Bulk Modulus (GPa) = 62.13073 70.85840 66.49457
# Shear Modulus (GPa) = 23.39530 26.79813 25.09672
#
# Velocity S-wave (km/s) = 3.40081 3.63974 3.52230
# Velocity P-wave (km/s) = 6.79228 7.25896 7.02950
#
# Compressibility (1/GPa) = 0.01609509
#
# Stress axis : x y z
#
# Youngs Moduli (GPa) = 38.12214 66.43723 78.10463
#
# Poissons Ratio (x) = 0.43450 0.69127
# Poissons Ratio (y) = 0.24932 0.28159
# Poissons Ratio (z) = 0.33740 0.23952
#
# Static dielectric constant tensor:
#      x y z
#    x 3.452310 0.000000 0.000000 
#    y 0.000000 3.845870 0.000000 
#    z 0.000000 0.000000 4.035040 
# 
# 
# High freq. dielectric constant tensor:
#      x y z
#    x 1.760960 0.000000 0.000000 
#    y 0.000000 1.792570 0.000000 
#    z 0.000000 0.000000 1.809230 
# 
# From -- ./inp_files/4736.got.cif
#   From: 2010.03.12/outbox.cif.g09.slc.cpg/sg54_3_cif.got.tgz:4736.got - 2010.04.16 15:00:50.
