data_PCOD8223324
_publ_section_title
;
Structure prediction by ZEFSAII (Michael W. Deem and Ramdas Pophale) SiO2 
 PCOD8223324
Probable space group: P C C A
;
_chemical_formula_sum "Si O2"
_cell_formula_units_Z 48
_cell_length_a 13.262154
_cell_length_b 31.256848
_cell_length_c 5.243591
_cell_angle_alpha 90.000000
_cell_angle_beta 90.000000
_cell_angle_gamma 90.000000
_cell_volume 2173.642199
_symmetry_space_group_name_H-M "P C C A"
_symmetry_group_IT_number 54
_symmetry_cell_setting 'orthorhombic'
loop_
_space_group_symop_operation_xyz
x,y,z
1/2-x,-y,z
1/2+x,-y,1/2-z
-x,y,1/2-z
-x,-y,-z
1/2+x,y,-z
1/2-x,y,1/2+z
x,-y,1/2+z
loop_
_atom_site_type_symbol
_atom_site_label
_atom_site_fract_x
_atom_site_fract_y
_atom_site_fract_z
Si Si1 0.134070 0.517897 0.849291
Si Si2 0.811529 0.807357 0.254928
Si Si3 0.500000 0.649861 0.750000
Si Si4 0.000000 0.866026 0.250000
Si Si5 0.000000 0.405752 0.250000
Si Si6 0.188526 0.290959 0.766545
Si Si7 0.709353 0.952614 0.366781
Si Si8 0.500000 0.921465 0.250000
O O1 0.250000 0.500000 0.869639
O O2 0.081430 0.492277 0.618376
O O3 0.105182 0.567284 0.791113
O O4 0.770890 0.817506 0.537500
O O5 0.905562 0.836576 0.189117
O O6 0.846563 0.758187 0.244685
O O7 0.519514 0.621855 0.500079
O O8 0.404666 0.679403 0.700281
O O9 0.977406 0.893684 0.500859
O O10 0.271482 0.300940 0.550009
O O11 0.729991 0.928666 0.637218
O O12 0.592185 0.953325 0.302838
O O13 0.750000 0.000000 0.427339
#
# Coordination Sequence:
#
# PCOD8223324 Si02
#       8
#     8   8   4   4   4   8   8   4
#     4  10  21  41  63  86 117 161 209 259 314 382
#     4  10  22  41  68  94 129 176 218 250 303 397
#     4  12  25  43  64 100 136 163 207 268 322 372
#     4  12  25  40  63 100 133 168 208 269 338 367
#     4  12  24  41  63  96 125 162 210 267 323 372
#     4  10  22  44  67  95 132 176 214 253 307 376
#     4  10  23  42  65  88 118 167 217 264 326 389
#     4  12  26  40  62  96 132 161 213 282 327 379
#
# _framework density 22.082753
#
# number of rings (size 3 to 8) (size 9 to 14) (size 15 to 20)
#    0.000    1.333    0.000    5.000    0.000    6.667 
#   18.000    6.667    0.000    0.000    0.000    0.000 
#    0.000    0.000    0.000    0.000    0.000    0.000 
#
# Total GULP energy -594864.941980 kJ/mol
# GULP energy per Si atom -12393.019625 kJ/mol
# Density = 2.203249 g / cm^3
# Si number density = 22.082753 Si / 1000 Ang^3
#
#
#
# Elastic Constant Matrix: (Units=GPa)
#
#
# Indices 1 2 3 4 5 6 
#
# 1 81.7126 37.4194 1.1755 0.0000 0.0000 0.0000
# 2 37.4194 74.5254 18.2133 0.0000 0.0000 0.0000
# 3 1.1755 18.2133 168.3255 0.0000 0.0000 0.0000
# 4 0.0000 0.0000 0.0000 47.8077 0.0000 0.0000
# 5 0.0000 0.0000 0.0000 0.0000 26.7075 0.0000
# 6 0.0000 0.0000 0.0000 0.0000 0.0000 16.5059
#
#
#
# Elastic Compliance Matrix: (Units=1/GPa)
#
#
# Indices 1 2 3 4 5 6 
#
# 1 0.015991 -0.008219 0.000778 0.000000 0.000000 0.000000
# 2 -0.008219 0.018007 -0.001891 0.000000 0.000000 0.000000
# 3 0.000778 -0.001891 0.006140 0.000000 0.000000 0.000000
# 4 0.000000 0.000000 0.000000 0.020917 0.000000 0.000000
# 5 0.000000 0.000000 0.000000 0.000000 0.037443 0.000000
# 6 0.000000 0.000000 0.000000 0.000000 0.000000 0.060584
#
#
# Mechanical properties :
#
#
# Convention : Reuss Voigt Hill
#
# Bulk Modulus (GPa) = 46.56986 48.68664 47.62825
# Shear Modulus (GPa) = 27.04100 36.05458 31.54779
#
# Velocity S-wave (km/s) = 3.50313 4.04506 3.78381
# Velocity P-wave (km/s) = 6.12349 6.62660 6.38001
#
# Compressibility (1/GPa) = 0.02147312
#
# Stress axis : x y z
#
# Youngs Moduli (GPa) = 62.53673 55.53349 162.86504
#
# Poissons Ratio (x) = 0.45643 -0.12665
# Poissons Ratio (y) = 0.51399 0.30798
# Poissons Ratio (z) = -0.04863 0.10502
#
# Static dielectric constant tensor:
#      x y z
#    x 3.956700 0.000000 0.000000 
#    y 0.000000 4.007690 0.000000 
#    z 0.000000 0.000000 5.198760 
# 
# 
# High freq. dielectric constant tensor:
#      x y z
#    x 1.868220 0.000000 0.000000 
#    y 0.000000 1.857740 0.000000 
#    z 0.000000 0.000000 1.909830 
# 
# From -- ./inp_files/662.got.cif
#   From: 2010.03.12/outbox.cif.g09.slc.cpg/sg54_1_cif.got.tgz:662.got - 2010.04.16 15:00:50.
