data_PCOD8223892
_publ_section_title
;
Structure prediction by ZEFSAII (Michael W. Deem and Ramdas Pophale) SiO2 
 PCOD8223892
Probable space group: P C C A
;
_chemical_formula_sum "Si O2"
_cell_formula_units_Z 28
_cell_length_a 8.980393
_cell_length_b 12.709305
_cell_length_c 9.002442
_cell_angle_alpha 90.000000
_cell_angle_beta 90.000000
_cell_angle_gamma 90.000000
_cell_volume 1027.489699
_symmetry_space_group_name_H-M "P C C A"
_symmetry_group_IT_number 54
_symmetry_cell_setting 'orthorhombic'
loop_
_space_group_symop_operation_xyz
x,y,z
1/2-x,-y,z
1/2+x,-y,1/2-z
-x,y,1/2-z
-x,-y,-z
1/2+x,y,-z
1/2-x,y,1/2+z
x,-y,1/2+z
loop_
_atom_site_type_symbol
_atom_site_label
_atom_site_fract_x
_atom_site_fract_y
_atom_site_fract_z
Si Si1 0.332349 0.392097 0.696372
Si Si2 0.145334 0.269484 0.921544
Si Si3 0.637053 0.133773 0.411493
Si Si4 0.750000 0.000000 0.144783
O O1 0.250000 0.500000 0.731073
O O2 0.500000 0.396062 0.750000
O O3 0.653789 0.375696 0.980556
O O4 0.239311 0.295318 0.772050
O O5 0.976798 0.230768 0.893897
O O6 0.208592 0.177037 0.023211
O O7 0.386048 0.044137 0.959844
O O8 0.664473 0.087398 0.245470
#
# Coordination Sequence:
#
# PCOD8223892 Si02
#       4
#     8   8   8   4
#     4  12  29  52  81 119 157 202 261 324 396 474
#     4  12  27  50  80 115 160 209 261 319 397 466
#     4  11  26  47  78 116 159 212 261 328 384 465
#     4  10  26  48  78 120 164 206 274 320 392 452
#
# _framework density 27.250879999999999
#
# number of rings (size 3 to 8) (size 9 to 14) (size 15 to 20)
#    0.000    0.571    2.857    2.571    4.000   12.571 
#    0.000    0.000    0.000    0.000    0.000    0.000 
#    0.000    0.000    0.000    0.000    0.000    0.000 
#
# Total GULP energy -347037.381339 kJ/mol
# GULP energy per Si atom -12394.192191 kJ/mol
# Density = 2.718886 g / cm^3
# Si number density = 27.250880 Si / 1000 Ang^3
#
#
#
# Elastic Constant Matrix: (Units=GPa)
#
#
# Indices 1 2 3 4 5 6 
#
# 1 164.4402 48.2990 46.4621 0.0000 0.0000 0.0000
# 2 48.2990 108.6455 40.9646 0.0000 0.0000 0.0000
# 3 46.4621 40.9646 207.1919 0.0000 0.0000 0.0000
# 4 0.0000 0.0000 0.0000 25.1252 0.0000 0.0000
# 5 0.0000 0.0000 0.0000 0.0000 26.9993 0.0000
# 6 0.0000 0.0000 0.0000 0.0000 0.0000 40.3843
#
#
#
# Elastic Compliance Matrix: (Units=1/GPa)
#
#
# Indices 1 2 3 4 5 6 
#
# 1 0.007204 -0.002802 -0.001061 0.000000 0.000000 0.000000
# 2 -0.002802 0.011036 -0.001553 0.000000 0.000000 0.000000
# 3 -0.001061 -0.001553 0.005372 0.000000 0.000000 0.000000
# 4 0.000000 0.000000 0.000000 0.039801 0.000000 0.000000
# 5 0.000000 0.000000 0.000000 0.000000 0.037038 0.000000
# 6 0.000000 0.000000 0.000000 0.000000 0.000000 0.024762
#
#
# Mechanical properties :
#
#
# Convention : Reuss Voigt Hill
#
# Bulk Modulus (GPa) = 78.26623 83.52545 80.89584
# Shear Modulus (GPa) = 35.63632 41.47190 38.55411
#
# Velocity S-wave (km/s) = 3.62015 3.90533 3.76544
# Velocity P-wave (km/s) = 6.80125 7.14511 6.97530
#
# Compressibility (1/GPa) = 0.01277690
#
# Stress axis : x y z
#
# Youngs Moduli (GPa) = 138.80623 90.61374 186.16374
#
# Poissons Ratio (x) = 0.25394 0.19760
# Poissons Ratio (y) = 0.38900 0.28920
# Poissons Ratio (z) = 0.14734 0.14077
#
# Static dielectric constant tensor:
#      x y z
#    x 4.743530 0.000000 0.000000 
#    y 0.000000 5.444700 0.000000 
#    z 0.000000 0.000000 5.911120 
# 
# 
# High freq. dielectric constant tensor:
#      x y z
#    x 2.096430 0.000000 0.000000 
#    y 0.000000 2.112580 0.000000 
#    z 0.000000 0.000000 2.134160 
# 
# From -- ./inp_files/6682.got.cif
#   From: 2010.03.12/outbox.cif.g09.slc.cpg/sg54_4_cif.got.tgz:6682.got - 2010.04.16 15:00:50.
