data_PCOD8223133
_publ_section_title
;
Structure prediction by ZEFSAII (Michael W. Deem and Ramdas Pophale) SiO2 
 PCOD8223133
Probable space group: P C C A
;
_chemical_formula_sum "Si O2"
_cell_formula_units_Z 48
_cell_length_a 15.880946
_cell_length_b 28.873442
_cell_length_c 5.180413
_cell_angle_alpha 90.000000
_cell_angle_beta 90.000000
_cell_angle_gamma 90.000000
_cell_volume 2375.414005
_symmetry_space_group_name_H-M "P C C A"
_symmetry_group_IT_number 54
_symmetry_cell_setting 'orthorhombic'
loop_
_space_group_symop_operation_xyz
x,y,z
1/2-x,-y,z
1/2+x,-y,1/2-z
-x,y,1/2-z
-x,-y,-z
1/2+x,y,-z
1/2-x,y,1/2+z
x,-y,1/2+z
loop_
_atom_site_type_symbol
_atom_site_label
_atom_site_fract_x
_atom_site_fract_y
_atom_site_fract_z
Si Si1 0.198433 0.283564 0.388925
Si Si2 0.345404 0.020202 0.957990
Si Si3 0.056003 0.107655 0.504646
Si Si4 0.302843 0.388055 0.915159
Si Si5 0.945620 0.787758 0.496248
Si Si6 0.599176 0.474958 0.725222
O O1 0.274052 0.275849 0.593040
O O2 0.162028 0.335678 0.405337
O O3 0.129942 0.247166 0.474601
O O4 0.359575 0.075518 0.988106
O O5 0.250000 0.000000 0.937070
O O6 0.391806 0.995246 0.196226
O O7 0.089436 0.160039 0.538981
O O8 0.000000 0.093131 0.750000
O O9 0.000000 0.102169 0.250000
O O10 0.229567 0.396890 0.705117
O O11 0.378850 0.422252 0.845502
O O12 0.000000 0.772652 0.250000
O O13 0.000000 0.784583 0.750000
O O14 0.500000 0.479213 0.750000
O O15 0.636945 0.508211 0.499405
#
# Coordination Sequence:
#
# PCOD8223133 Si02
#       6
#     8   8   8   8   8   8
#     4  10  21  39  58  87 118 150 190 238 295 343
#     4  10  21  37  53  79 114 143 182 229 267 324
#     4  10  21  37  58  83 111 146 185 228 277 328
#     4  10  21  36  56  80 112 146 187 234 275 337
#     4  10  21  39  61  87 117 148 191 238 285 347
#     4  10  21  36  53  78 112 146 187 234 280 332
#
# _framework density 20.207004000000001
#
# number of rings (size 3 to 8) (size 9 to 14) (size 15 to 20)
#    0.000    2.000    0.000    3.000    0.000    4.667 
#    6.000    2.500    0.000    0.000    0.000    0.000 
#    0.000    0.000    0.000    0.000    0.000    0.000 
#
# Total GULP energy -594860.245285 kJ/mol
# GULP energy per Si atom -12392.921777 kJ/mol
# Density = 2.016101 g / cm^3
# Si number density = 20.207004 Si / 1000 Ang^3
#
#
#
# Elastic Constant Matrix: (Units=GPa)
#
#
# Indices 1 2 3 4 5 6 
#
# 1 42.2981 52.3071 13.1015 0.0000 0.0000 0.0000
# 2 52.3071 136.2711 28.2017 0.0000 0.0000 0.0000
# 3 13.1015 28.2017 138.8709 0.0000 0.0000 0.0000
# 4 0.0000 0.0000 0.0000 28.7575 0.0000 0.0000
# 5 0.0000 0.0000 0.0000 0.0000 17.2357 0.0000
# 6 0.0000 0.0000 0.0000 0.0000 0.0000 41.2246
#
#
#
# Elastic Compliance Matrix: (Units=1/GPa)
#
#
# Indices 1 2 3 4 5 6 
#
# 1 0.045083 -0.017145 -0.000771 0.000000 0.000000 0.000000
# 2 -0.017145 0.014181 -0.001262 0.000000 0.000000 0.000000
# 3 -0.000771 -0.001262 0.007530 0.000000 0.000000 0.000000
# 4 0.000000 0.000000 0.000000 0.034774 0.000000 0.000000
# 5 0.000000 0.000000 0.000000 0.000000 0.058019 0.000000
# 6 0.000000 0.000000 0.000000 0.000000 0.000000 0.024257
#
#
# Mechanical properties :
#
#
# Convention : Reuss Voigt Hill
#
# Bulk Modulus (GPa) = 35.16693 56.07342 45.62017
# Shear Modulus (GPa) = 21.58147 32.36554 26.97351
#
# Velocity S-wave (km/s) = 3.27160 4.00647 3.65754
# Velocity P-wave (km/s) = 5.63137 7.01513 6.36099
#
# Compressibility (1/GPa) = 0.02843581
#
# Stress axis : x y z
#
# Youngs Moduli (GPa) = 22.18132 70.51847 132.80125
#
# Poissons Ratio (x) = 1.20906 0.10245
# Poissons Ratio (y) = 0.38030 0.16763
# Poissons Ratio (z) = 0.01711 0.08901
#
# Static dielectric constant tensor:
#      x y z
#    x 3.159310 0.000000 0.000000 
#    y 0.000000 3.891530 0.000000 
#    z 0.000000 0.000000 4.688070 
# 
# 
# High freq. dielectric constant tensor:
#      x y z
#    x 1.747210 0.000000 0.000000 
#    y 0.000000 1.797850 0.000000 
#    z 0.000000 0.000000 1.826590 
# 
# From -- ./inp_files/633.got.cif
#   From: 2010.03.12/outbox.cif.g09.slc.cpg/sg54_1_cif.got.tgz:633.got - 2010.04.16 15:00:50.
