data_PCOD8223012
_publ_section_title
;
Structure prediction by ZEFSAII (Michael W. Deem and Ramdas Pophale) SiO2 
 PCOD8223012
Probable space group: P C C A
;
_chemical_formula_sum "Si O2"
_cell_formula_units_Z 56
_cell_length_a 20.590920
_cell_length_b 10.300447
_cell_length_c 12.843583
_cell_angle_alpha 90.000000
_cell_angle_beta 90.000000
_cell_angle_gamma 90.000000
_cell_volume 2724.068472
_symmetry_space_group_name_H-M "P C C A"
_symmetry_group_IT_number 54
_symmetry_cell_setting 'orthorhombic'
loop_
_space_group_symop_operation_xyz
x,y,z
1/2-x,-y,z
1/2+x,-y,1/2-z
-x,y,1/2-z
-x,-y,-z
1/2+x,y,-z
1/2-x,y,1/2+z
x,-y,1/2+z
loop_
_atom_site_type_symbol
_atom_site_label
_atom_site_fract_x
_atom_site_fract_y
_atom_site_fract_z
Si Si1 0.724019 0.638474 0.798056
Si Si2 0.878979 0.495967 0.172670
Si Si3 0.995780 0.607845 0.086339
Si Si4 0.076691 0.095612 0.405045
Si Si5 0.357218 0.234327 0.722721
Si Si6 0.936858 0.846240 0.967637
Si Si7 0.627745 0.333591 0.468562
O O1 0.750000 0.500000 0.835624
O O2 0.674935 0.604161 0.703024
O O3 0.778976 0.743714 0.764659
O O4 0.690815 0.695870 0.900884
O O5 0.950528 0.559582 0.180137
O O6 0.886805 0.374667 0.250141
O O7 0.861334 0.444759 0.056146
O O8 0.071066 0.631433 0.116117
O O9 0.960457 0.733497 0.041826
O O10 0.000000 0.500000 0.000000
O O11 0.113896 0.118413 0.295130
O O12 0.106396 0.201125 0.480575
O O13 0.998110 0.108333 0.395839
O O14 0.091698 0.956549 0.455821
O O15 0.377575 0.200119 0.605344
#
# Coordination Sequence:
#
# PCOD8223012 Si02
#       7
#     8   8   8   8   8   8   8
#     4  10  22  36  56  88 122 165 200 240 312 380
#     4   9  20  36  57  91 123 154 199 259 309 369
#     4   9  19  34  59  94 117 148 197 253 316 361
#     4   9  20  40  64  86 118 157 207 258 302 355
#     4  10  21  39  61  91 117 163 207 242 306 380
#     4  10  20  39  65  90 118 158 201 253 315 362
#     4   9  19  38  58  85 123 156 203 254 305 362
#
# _framework density 20.557486000000001
#
# number of rings (size 3 to 8) (size 9 to 14) (size 15 to 20)
#    0.000    2.571    0.000    1.286    8.000    3.429 
#    7.714    0.714    0.000    0.000    0.000    0.000 
#    0.000    0.000    0.000    0.000    0.000    0.000 
#
# Total GULP energy -693738.016971 kJ/mol
# GULP energy per Si atom -12388.178874 kJ/mol
# Density = 2.051070 g / cm^3
# Si number density = 20.557486 Si / 1000 Ang^3
#
#
#
# Elastic Constant Matrix: (Units=GPa)
#
#
# Indices 1 2 3 4 5 6 
#
# 1 99.5271 24.9649 29.8988 0.0000 0.0000 0.0000
# 2 24.9649 39.3616 12.2809 0.0000 0.0000 0.0000
# 3 29.8988 12.2809 45.4860 0.0000 0.0000 0.0000
# 4 0.0000 0.0000 0.0000 18.3574 0.0000 0.0000
# 5 0.0000 0.0000 0.0000 0.0000 41.5035 0.0000
# 6 0.0000 0.0000 0.0000 0.0000 0.0000 27.4802
#
#
#
# Elastic Compliance Matrix: (Units=1/GPa)
#
#
# Indices 1 2 3 4 5 6 
#
# 1 0.013897 -0.006513 -0.007376 0.000000 0.000000 0.000000
# 2 -0.006513 0.030795 -0.004033 0.000000 0.000000 0.000000
# 3 -0.007376 -0.004033 0.027922 0.000000 0.000000 0.000000
# 4 0.000000 0.000000 0.000000 0.054474 0.000000 0.000000
# 5 0.000000 0.000000 0.000000 0.000000 0.024094 0.000000
# 6 0.000000 0.000000 0.000000 0.000000 0.000000 0.036390
#
#
# Mechanical properties :
#
#
# Convention : Reuss Voigt Hill
#
# Bulk Modulus (GPa) = 27.19683 35.40712 31.30197
# Shear Modulus (GPa) = 21.21580 25.28357 23.24968
#
# Velocity S-wave (km/s) = 3.21600 3.51079 3.36662
# Velocity P-wave (km/s) = 5.20082 5.80475 5.51106
#
# Compressibility (1/GPa) = 0.03676899
#
# Stress axis : x y z
#
# Youngs Moduli (GPa) = 71.95757 32.47329 35.81352
#
# Poissons Ratio (x) = 0.21149 0.26418
# Poissons Ratio (y) = 0.46864 0.14445
# Poissons Ratio (z) = 0.53079 0.13098
#
# Static dielectric constant tensor:
#      x y z
#    x 4.270150 0.000000 0.000000 
#    y 0.000000 3.594580 0.000000 
#    z 0.000000 0.000000 3.562920 
# 
# 
# High freq. dielectric constant tensor:
#      x y z
#    x 1.806170 0.000000 0.000000 
#    y 0.000000 1.786510 0.000000 
#    z 0.000000 0.000000 1.793000 
# 
# From -- ./inp_files/14667.got.cif
#   From: 2010.03.12/outbox.cif.g09.slc.cpg/sg54_8_cif.got.tgz:14667.got - 2010.04.16 15:00:50.
