data_PCOD8223848
_publ_section_title
;
Structure prediction by ZEFSAII (Michael W. Deem and Ramdas Pophale) SiO2 
 PCOD8223848
Probable space group: P C C A
;
_chemical_formula_sum "Si O2"
_cell_formula_units_Z 48
_cell_length_a 14.341712
_cell_length_b 16.799639
_cell_length_c 9.135117
_cell_angle_alpha 90.000000
_cell_angle_beta 90.000000
_cell_angle_gamma 90.000000
_cell_volume 2200.974752
_symmetry_space_group_name_H-M "P C C A"
_symmetry_group_IT_number 54
_symmetry_cell_setting 'orthorhombic'
loop_
_space_group_symop_operation_xyz
x,y,z
1/2-x,-y,z
1/2+x,-y,1/2-z
-x,y,1/2-z
-x,-y,-z
1/2+x,y,-z
1/2-x,y,1/2+z
x,-y,1/2+z
loop_
_atom_site_type_symbol
_atom_site_label
_atom_site_fract_x
_atom_site_fract_y
_atom_site_fract_z
Si Si1 0.531758 0.110212 0.987240
Si Si2 0.107517 0.379162 0.910409
Si Si3 0.601039 0.625895 0.910642
Si Si4 0.250000 0.500000 0.991517
Si Si5 0.500000 0.993765 0.750000
Si Si6 0.828848 0.764057 0.907623
Si Si7 0.357227 0.784168 0.434942
O O1 0.591265 0.188712 0.990355
O O2 0.425197 0.141000 0.967236
O O3 0.562066 0.051764 0.853329
O O4 0.554360 0.063595 0.137710
O O5 0.109283 0.335533 0.752421
O O6 0.175760 0.454157 0.891820
O O7 0.002135 0.411025 0.939238
O O8 0.150867 0.326430 0.042297
O O9 0.684762 0.561940 0.918970
O O10 0.603137 0.697770 0.025265
O O11 0.832655 0.777024 0.735268
O O12 0.732482 0.799197 0.965713
#
# Coordination Sequence:
#
# PCOD8223848 Si02
#       7
#     8   8   8   4   4   8   8
#     4  11  24  48  74 103 146 182 230 278 348 413
#     4  11  25  43  68 100 138 186 233 286 350 404
#     4  11  25  43  68 100 138 186 233 286 350 404
#     4  12  24  44  68 100 150 178 236 296 338 410
#     4  10  24  46  78 106 140 186 220 286 352 406
#     4  12  25  43  70 104 138 183 234 284 340 416
#     4  12  25  43  70 104 138 183 234 284 340 416
#
# _framework density 21.808517999999999
#
# number of rings (size 3 to 8) (size 9 to 14) (size 15 to 20)
#    0.000    0.667    5.000    2.000    4.667    1.333 
#    0.000    5.000    0.000    0.000    0.000    0.000 
#    0.000    0.000    0.000    0.000    0.000    0.000 
#
# Total GULP energy -594659.329941 kJ/mol
# GULP energy per Si atom -12388.736040 kJ/mol
# Density = 2.175888 g / cm^3
# Si number density = 21.808518 Si / 1000 Ang^3
#
#
#
# Elastic Constant Matrix: (Units=GPa)
#
#
# Indices 1 2 3 4 5 6 
#
# 1 140.7135 34.2695 56.6988 0.0000 0.0000 0.0000
# 2 34.2695 90.2927 57.0436 0.0000 0.0000 0.0000
# 3 56.6988 57.0436 117.7534 0.0000 0.0000 0.0000
# 4 0.0000 0.0000 0.0000 28.6827 0.0000 0.0000
# 5 0.0000 0.0000 0.0000 0.0000 25.0849 0.0000
# 6 0.0000 0.0000 0.0000 0.0000 0.0000 118.0538
#
#
#
# Elastic Compliance Matrix: (Units=1/GPa)
#
#
# Indices 1 2 3 4 5 6 
#
# 1 0.008875 -0.000964 -0.003807 0.000000 0.000000 0.000000
# 2 -0.000964 0.016064 -0.007318 0.000000 0.000000 0.000000
# 3 -0.003807 -0.007318 0.013870 0.000000 0.000000 0.000000
# 4 0.000000 0.000000 0.000000 0.034864 0.000000 0.000000
# 5 0.000000 0.000000 0.000000 0.000000 0.039865 0.000000
# 6 0.000000 0.000000 0.000000 0.000000 0.000000 0.008471
#
#
# Mechanical properties :
#
#
# Convention : Reuss Voigt Hill
#
# Bulk Modulus (GPa) = 68.33814 71.64259 69.99036
# Shear Modulus (GPa) = 33.09876 47.74747 40.42311
#
# Velocity S-wave (km/s) = 3.89999 4.68417 4.30995
# Velocity P-wave (km/s) = 7.18912 7.88526 7.54522
#
# Compressibility (1/GPa) = 0.01463312
#
# Stress axis : x y z
#
# Youngs Moduli (GPa) = 112.67419 62.25084 72.09642
#
# Poissons Ratio (x) = 0.05998 0.27445
# Poissons Ratio (y) = 0.10857 0.52760
# Poissons Ratio (z) = 0.42891 0.45555
#
# Static dielectric constant tensor:
#      x y z
#    x 4.177850 0.000000 0.000000 
#    y 0.000000 3.967450 0.000000 
#    z 0.000000 0.000000 3.971360 
# 
# 
# High freq. dielectric constant tensor:
#      x y z
#    x 1.855720 0.000000 0.000000 
#    y 0.000000 1.854270 0.000000 
#    z 0.000000 0.000000 1.867470 
# 
# From -- ./inp_files/3595.got.cif
#   From: 2010.03.12/outbox.cif.g09.slc.cpg/sg54_2_cif.got.tgz:3595.got - 2010.04.16 15:00:50.
