data_PCOD8223803
_publ_section_title
;
Structure prediction by ZEFSAII (Michael W. Deem and Ramdas Pophale) SiO2 
 PCOD8223803
Probable space group: P C C A
;
_chemical_formula_sum "Si O2"
_cell_formula_units_Z 36
_cell_length_a 14.133130
_cell_length_b 11.061015
_cell_length_c 11.167013
_cell_angle_alpha 90.000000
_cell_angle_beta 90.000000
_cell_angle_gamma 90.000000
_cell_volume 1745.702994
_symmetry_space_group_name_H-M "P C C A"
_symmetry_group_IT_number 54
_symmetry_cell_setting 'orthorhombic'
loop_
_space_group_symop_operation_xyz
x,y,z
1/2-x,-y,z
1/2+x,-y,1/2-z
-x,y,1/2-z
-x,-y,-z
1/2+x,y,-z
1/2-x,y,1/2+z
x,-y,1/2+z
loop_
_atom_site_type_symbol
_atom_site_label
_atom_site_fract_x
_atom_site_fract_y
_atom_site_fract_z
Si Si1 0.394049 0.829072 0.240529
Si Si2 0.250000 0.000000 0.359474
Si Si3 0.617992 0.358090 0.549041
Si Si4 0.192429 0.765969 0.490944
Si Si5 0.547999 0.383486 0.123565
O O1 0.500000 0.879893 0.250000
O O2 0.385372 0.717135 0.329714
O O3 0.367981 0.772974 0.112317
O O4 0.329389 0.943686 0.273315
O O5 0.283820 0.100033 0.451897
O O6 0.717340 0.322261 0.485755
O O7 0.532666 0.326908 0.460670
O O8 0.603987 0.499147 0.576543
O O9 0.130424 0.716025 0.379212
O O10 0.500000 0.409308 0.250000
#
# Coordination Sequence:
#
# PCOD8223803 Si02
#       5
#     8   4   8   8   8
#     4  11  22  45  70  93 136 174 223 283 331 395
#     4  10  26  42  64 100 130 174 234 274 334 394
#     4  10  24  43  65  99 133 170 218 269 336 405
#     4  11  24  45  66  97 130 180 220 273 337 393
#     4  11  24  42  68 100 133 171 218 272 333 407
#
# _framework density 20.622064000000002
#
# number of rings (size 3 to 8) (size 9 to 14) (size 15 to 20)
#    0.000    1.333    2.222    2.000    9.333    1.778 
#    0.000    0.000    0.000    0.000    0.000    0.000 
#    0.000    0.000    0.000    0.000    0.000    0.000 
#
# Total GULP energy -446195.384109 kJ/mol
# GULP energy per Si atom -12394.316225 kJ/mol
# Density = 2.057513 g / cm^3
# Si number density = 20.622064 Si / 1000 Ang^3
#
#
#
# Elastic Constant Matrix: (Units=GPa)
#
#
# Indices 1 2 3 4 5 6 
#
# 1 154.9424 74.0646 47.7843 0.0000 0.0000 0.0000
# 2 74.0646 80.3277 21.4470 0.0000 0.0000 0.0000
# 3 47.7843 21.4470 76.5103 0.0000 0.0000 0.0000
# 4 0.0000 0.0000 0.0000 14.0558 0.0000 0.0000
# 5 0.0000 0.0000 0.0000 0.0000 39.6240 0.0000
# 6 0.0000 0.0000 0.0000 0.0000 0.0000 32.2624
#
#
#
# Elastic Compliance Matrix: (Units=1/GPa)
#
#
# Indices 1 2 3 4 5 6 
#
# 1 0.013233 -0.010803 -0.005236 0.000000 0.000000 0.000000
# 2 -0.010803 0.022276 0.000503 0.000000 0.000000 0.000000
# 3 -0.005236 0.000503 0.016199 0.000000 0.000000 0.000000
# 4 0.000000 0.000000 0.000000 0.071145 0.000000 0.000000
# 5 0.000000 0.000000 0.000000 0.000000 0.025237 0.000000
# 6 0.000000 0.000000 0.000000 0.000000 0.000000 0.030996
#
#
# Mechanical properties :
#
#
# Convention : Reuss Voigt Hill
#
# Bulk Modulus (GPa) = 48.46162 66.48581 57.47371
# Shear Modulus (GPa) = 23.03751 28.42075 25.72913
#
# Velocity S-wave (km/s) = 3.34597 3.71640 3.53604
# Velocity P-wave (km/s) = 6.20309 7.12219 6.67847
#
# Compressibility (1/GPa) = 0.02063489
#
# Stress axis : x y z
#
# Youngs Moduli (GPa) = 75.56905 44.89226 61.73032
#
# Poissons Ratio (x) = 0.48498 0.32324
# Poissons Ratio (y) = 0.81638 -0.03104
# Poissons Ratio (z) = 0.39570 -0.02258
#
# Static dielectric constant tensor:
#      x y z
#    x 4.407070 0.000000 0.000000 
#    y 0.000000 3.639450 0.000000 
#    z 0.000000 0.000000 3.666080 
# 
# 
# High freq. dielectric constant tensor:
#      x y z
#    x 1.826600 0.000000 0.000000 
#    y 0.000000 1.810020 0.000000 
#    z 0.000000 0.000000 1.804920 
# 
# From -- ./inp_files/7390.got.cif
#   From: 2010.03.12/outbox.cif.g09.slc.cpg/sg54_4_cif.got.tgz:7390.got - 2010.04.16 15:00:50.
