data_PCOD8223660
_publ_section_title
;
Structure prediction by ZEFSAII (Michael W. Deem and Ramdas Pophale) SiO2 
 PCOD8223660
Probable space group: P C C A
;
_chemical_formula_sum "Si O2"
_cell_formula_units_Z 48
_cell_length_a 10.616959
_cell_length_b 8.578741
_cell_length_c 23.666764
_cell_angle_alpha 90.000000
_cell_angle_beta 90.000000
_cell_angle_gamma 90.000000
_cell_volume 2155.572213
_symmetry_space_group_name_H-M "P C C A"
_symmetry_group_IT_number 54
_symmetry_cell_setting 'orthorhombic'
loop_
_space_group_symop_operation_xyz
x,y,z
1/2-x,-y,z
1/2+x,-y,1/2-z
-x,y,1/2-z
-x,-y,-z
1/2+x,y,-z
1/2-x,y,1/2+z
x,-y,1/2+z
loop_
_atom_site_type_symbol
_atom_site_label
_atom_site_fract_x
_atom_site_fract_y
_atom_site_fract_z
Si Si1 0.313445 0.335121 0.439292
Si Si2 0.788791 0.823179 0.662886
Si Si3 0.215903 0.677452 0.229019
Si Si4 0.714010 0.823533 0.444496
Si Si5 0.564842 0.270107 0.847380
Si Si6 0.075076 0.630783 0.122596
O O1 0.250000 0.500000 0.451454
O O2 0.217787 0.240059 0.400609
O O3 0.338141 0.251787 0.498235
O O4 0.439721 0.336036 0.402623
O O5 0.693202 0.746455 0.708521
O O6 0.931751 0.778329 0.679421
O O7 0.750000 0.000000 0.662361
O O8 0.250000 0.500000 0.238673
O O9 0.335264 0.765587 0.201844
O O10 0.095761 0.697654 0.186723
O O11 0.597495 0.838253 0.401037
O O12 0.823304 0.711830 0.418881
O O13 0.750000 0.000000 0.458426
O O14 0.587437 0.444843 0.871515
#
# Coordination Sequence:
#
# PCOD8223660 Si02
#       6
#     8   8   8   8   8   8
#     4  12  25  43  70  99 132 179 232 276 331 408
#     4  12  26  42  65 104 139 174 222 285 350 401
#     4   9  21  44  70  95 129 176 230 275 337 405
#     4  11  26  43  69 100 139 177 221 285 349 406
#     4  10  22  46  70  97 130 182 231 277 332 419
#     4  10  23  45  72  97 131 180 228 276 335 409
#
# _framework density 22.267868
#
# number of rings (size 3 to 8) (size 9 to 14) (size 15 to 20)
#    0.000    1.333    1.667    4.000    4.667    5.333 
#    3.000    0.000    0.000    0.000    0.000    0.000 
#    0.000    0.000    0.000    0.000    0.000    0.000 
#
# Total GULP energy -594829.216110 kJ/mol
# GULP energy per Si atom -12392.275336 kJ/mol
# Density = 2.221719 g / cm^3
# Si number density = 22.267868 Si / 1000 Ang^3
#
#
#
# Elastic Constant Matrix: (Units=GPa)
#
#
# Indices 1 2 3 4 5 6 
#
# 1 75.0698 24.6464 9.2920 0.0000 0.0000 0.0000
# 2 24.6464 107.3200 39.4071 0.0000 0.0000 0.0000
# 3 9.2920 39.4071 131.8162 0.0000 0.0000 0.0000
# 4 0.0000 0.0000 0.0000 32.5296 0.0000 0.0000
# 5 0.0000 0.0000 0.0000 0.0000 23.6095 0.0000
# 6 0.0000 0.0000 0.0000 0.0000 0.0000 25.3043
#
#
#
# Elastic Compliance Matrix: (Units=1/GPa)
#
#
# Indices 1 2 3 4 5 6 
#
# 1 0.014407 -0.003298 -0.000030 0.000000 0.000000 0.000000
# 2 -0.003298 0.011222 -0.003122 0.000000 0.000000 0.000000
# 3 -0.000030 -0.003122 0.008522 0.000000 0.000000 0.000000
# 4 0.000000 0.000000 0.000000 0.030741 0.000000 0.000000
# 5 0.000000 0.000000 0.000000 0.000000 0.042356 0.000000
# 6 0.000000 0.000000 0.000000 0.000000 0.000000 0.039519
#
#
# Mechanical properties :
#
#
# Convention : Reuss Voigt Hill
#
# Bulk Modulus (GPa) = 47.05598 51.21078 49.13338
# Shear Modulus (GPa) = 29.98494 32.34605 31.16549
#
# Velocity S-wave (km/s) = 3.67353 3.81542 3.74514
# Velocity P-wave (km/s) = 6.25865 6.51594 6.38859
#
# Compressibility (1/GPa) = 0.02125128
#
# Stress axis : x y z
#
# Youngs Moduli (GPa) = 69.40917 89.11249 117.34534
#
# Poissons Ratio (x) = 0.29387 0.00349
# Poissons Ratio (y) = 0.22890 0.36639
# Poissons Ratio (z) = 0.00206 0.27824
#
# Static dielectric constant tensor:
#      x y z
#    x 4.020290 0.000000 0.000000 
#    y 0.000000 3.888220 0.000000 
#    z 0.000000 0.000000 4.458430 
# 
# 
# High freq. dielectric constant tensor:
#      x y z
#    x 1.871780 0.000000 0.000000 
#    y 0.000000 1.867330 0.000000 
#    z 0.000000 0.000000 1.896580 
# 
# From -- ./inp_files/24056.got.cif
#   From: 2010.03.12/outbox.cif.g09.slc.cpg/sg54_13_cif.got.tgz:24056.got - 2010.04.16 15:00:50.
