data_PCOD8223734
_publ_section_title
;
Structure prediction by ZEFSAII (Michael W. Deem and Ramdas Pophale) SiO2 
 PCOD8223734
Probable space group: P C C A
;
_chemical_formula_sum "Si O2"
_cell_formula_units_Z 24
_cell_length_a 13.158104
_cell_length_b 7.439008
_cell_length_c 11.672167
_cell_angle_alpha 90.000000
_cell_angle_beta 90.000000
_cell_angle_gamma 90.000000
_cell_volume 1142.509535
_symmetry_space_group_name_H-M "P C C A"
_symmetry_group_IT_number 54
_symmetry_cell_setting 'orthorhombic'
loop_
_space_group_symop_operation_xyz
x,y,z
1/2-x,-y,z
1/2+x,-y,1/2-z
-x,y,1/2-z
-x,-y,-z
1/2+x,y,-z
1/2-x,y,1/2+z
x,-y,1/2+z
loop_
_atom_site_type_symbol
_atom_site_label
_atom_site_fract_x
_atom_site_fract_y
_atom_site_fract_z
Si Si1 0.750000 0.000000 0.185143
Si Si2 0.067008 0.160722 0.952856
Si Si3 0.500000 0.603146 0.750000
Si Si4 0.898046 0.264519 0.301480
O O1 0.668218 0.091499 0.105440
O O2 0.798710 0.154956 0.264269
O O3 0.001574 0.276229 0.863397
O O4 0.098480 0.280770 0.061287
O O5 0.000000 0.000000 0.000000
O O6 0.400207 0.471492 0.745228
O O7 0.000000 0.165174 0.250000
#
# Coordination Sequence:
#
# PCOD8223734 Si02
#       4
#     4   8   4   8
#     4  12  24  42  72 106 136 198 248 278 378 440
#     4  12  22  43  71 100 142 184 241 303 359 431
#     4  10  24  44  72 100 146 186 240 306 362 414
#     4  10  23  44  66 105 139 185 238 298 358 420
#
# _framework density 21.006388000000001
#
# number of rings (size 3 to 8) (size 9 to 14) (size 15 to 20)
#    1.000    0.000    3.333    4.000    0.000    1.333 
#    0.000    3.333    0.000    0.000    0.000    0.000 
#    0.000    0.000    0.000    0.000    0.000    0.000 
#
# Total GULP energy -297494.653449 kJ/mol
# GULP energy per Si atom -12395.610560 kJ/mol
# Density = 2.095858 g / cm^3
# Si number density = 21.006388 Si / 1000 Ang^3
#
#
#
# Elastic Constant Matrix: (Units=GPa)
#
#
# Indices 1 2 3 4 5 6 
#
# 1 106.2368 57.1918 48.9221 0.0000 0.0000 0.0000
# 2 57.1918 144.0211 70.2986 0.0000 0.0000 0.0000
# 3 48.9221 70.2986 176.0667 0.0000 0.0000 0.0000
# 4 0.0000 0.0000 0.0000 47.8481 0.0000 0.0000
# 5 0.0000 0.0000 0.0000 0.0000 38.8120 0.0000
# 6 0.0000 0.0000 0.0000 0.0000 0.0000 46.9440
#
#
#
# Elastic Compliance Matrix: (Units=1/GPa)
#
#
# Indices 1 2 3 4 5 6 
#
# 1 0.012436 -0.004039 -0.001843 0.000000 0.000000 0.000000
# 2 -0.004039 0.009936 -0.002845 0.000000 0.000000 0.000000
# 3 -0.001843 -0.002845 0.007328 0.000000 0.000000 0.000000
# 4 0.000000 0.000000 0.000000 0.020899 0.000000 0.000000
# 5 0.000000 0.000000 0.000000 0.000000 0.025765 0.000000
# 6 0.000000 0.000000 0.000000 0.000000 0.000000 0.021302
#
#
# Mechanical properties :
#
#
# Convention : Reuss Voigt Hill
#
# Bulk Modulus (GPa) = 81.65797 86.57217 84.11507
# Shear Modulus (GPa) = 41.94586 43.38163 42.66374
#
# Velocity S-wave (km/s) = 4.47342 4.54934 4.51154
# Velocity P-wave (km/s) = 8.10181 8.30043 8.20172
#
# Compressibility (1/GPa) = 0.01224620
#
# Stress axis : x y z
#
# Youngs Moduli (GPa) = 80.41268 100.64496 136.47008
#
# Poissons Ratio (x) = 0.40649 0.25149
# Poissons Ratio (y) = 0.32477 0.38824
# Poissons Ratio (z) = 0.14819 0.28633
#
# Static dielectric constant tensor:
#      x y z
#    x 3.489570 0.000000 0.000000 
#    y 0.000000 4.470220 0.000000 
#    z 0.000000 0.000000 3.936950 
# 
# 
# High freq. dielectric constant tensor:
#      x y z
#    x 1.803430 0.000000 0.000000 
#    y 0.000000 1.825850 0.000000 
#    z 0.000000 0.000000 1.842500 
# 
# From -- ./inp_files/3176.got.cif
#   From: 2010.03.12/outbox.cif.g09.slc.cpg/sg54_2_cif.got.tgz:3176.got - 2010.04.16 15:00:50.
