data_PCOD8223638
_publ_section_title
;
Structure prediction by ZEFSAII (Michael W. Deem and Ramdas Pophale) SiO2 
 PCOD8223638
Probable space group: P C C A
;
_chemical_formula_sum "Si O2"
_cell_formula_units_Z 60
_cell_length_a 17.514316
_cell_length_b 17.732727
_cell_length_c 9.461040
_cell_angle_alpha 90.000000
_cell_angle_beta 90.000000
_cell_angle_gamma 90.000000
_cell_volume 2938.377486
_symmetry_space_group_name_H-M "P C C A"
_symmetry_group_IT_number 54
_symmetry_cell_setting 'orthorhombic'
loop_
_space_group_symop_operation_xyz
x,y,z
1/2-x,-y,z
1/2+x,-y,1/2-z
-x,y,1/2-z
-x,-y,-z
1/2+x,y,-z
1/2-x,y,1/2+z
x,-y,1/2+z
loop_
_atom_site_type_symbol
_atom_site_label
_atom_site_fract_x
_atom_site_fract_y
_atom_site_fract_z
Si Si1 0.250000 0.000000 0.307236
Si Si2 0.686393 0.303112 0.736810
Si Si3 0.801503 0.237761 0.941928
Si Si4 0.926895 0.453781 0.950518
Si Si5 0.439250 0.197871 0.636635
Si Si6 0.335096 0.528678 0.282782
Si Si7 0.965013 0.718782 0.404456
Si Si8 0.192661 0.902924 0.553859
O O1 0.306458 0.044949 0.413819
O O2 0.202482 0.054378 0.203566
O O3 0.763791 0.283641 0.816151
O O4 0.708221 0.292682 0.574553
O O5 0.618057 0.247573 0.772268
O O6 0.659589 0.386622 0.775871
O O7 0.890651 0.227085 0.904835
O O8 0.761191 0.157186 0.964842
O O9 0.898511 0.478126 0.795877
O O10 0.944253 0.365249 0.953272
O O11 0.856473 0.472998 0.052945
O O12 0.000000 0.500000 0.000000
O O13 0.500000 0.165041 0.750000
O O14 0.475142 0.248794 0.515320
O O15 0.391866 0.131998 0.559784
O O16 0.250000 0.500000 0.261743
O O17 0.000000 0.718406 0.250000
#
# Coordination Sequence:
#
# PCOD8223638 Si02
#       8
#     4   8   8   8   8   8   8   8
#     4  10  22  44  70 100 134 168 212 244 312 406
#     4  11  24  40  65  93 129 172 223 277 330 387
#     4  11  23  42  68  98 128 168 223 268 323 383
#     4  12  25  44  62  88 130 178 222 271 350 409
#     4  11  22  43  67  97 134 170 213 271 325 378
#     4  12  25  41  63  89 126 173 225 286 334 391
#     4  12  26  41  64  98 130 170 227 283 325 389
#     4  10  23  41  73  97 132 173 209 253 319 387
#
# _framework density 20.419433000000001
#
# number of rings (size 3 to 8) (size 9 to 14) (size 15 to 20)
#    0.000    0.800    2.667    4.800    7.467    0.000 
#    0.000    0.667    0.000    0.000    0.000    0.000 
#    0.000    0.000    0.000    0.000    0.000    0.000 
#
# Total GULP energy -744131.730752 kJ/mol
# GULP energy per Si atom -12402.195513 kJ/mol
# Density = 2.037296 g / cm^3
# Si number density = 20.419433 Si / 1000 Ang^3
#
#
#
# Elastic Constant Matrix: (Units=GPa)
#
#
# Indices 1 2 3 4 5 6 
#
# 1 105.3434 40.9919 46.9964 0.0000 0.0000 0.0000
# 2 40.9919 104.6255 32.9425 0.0000 0.0000 0.0000
# 3 46.9964 32.9425 126.3357 0.0000 0.0000 0.0000
# 4 0.0000 0.0000 0.0000 34.1297 0.0000 0.0000
# 5 0.0000 0.0000 0.0000 0.0000 20.5663 0.0000
# 6 0.0000 0.0000 0.0000 0.0000 0.0000 28.2732
#
#
#
# Elastic Compliance Matrix: (Units=1/GPa)
#
#
# Indices 1 2 3 4 5 6 
#
# 1 0.012616 -0.003775 -0.003709 0.000000 0.000000 0.000000
# 2 -0.003775 0.011543 -0.001605 0.000000 0.000000 0.000000
# 3 -0.003709 -0.001605 0.009714 0.000000 0.000000 0.000000
# 4 0.000000 0.000000 0.000000 0.029300 0.000000 0.000000
# 5 0.000000 0.000000 0.000000 0.000000 0.048623 0.000000
# 6 0.000000 0.000000 0.000000 0.000000 0.000000 0.035369
#
#
# Mechanical properties :
#
#
# Convention : Reuss Voigt Hill
#
# Bulk Modulus (GPa) = 63.72007 64.24070 63.98039
# Shear Modulus (GPa) = 29.31260 30.95211 30.13236
#
# Velocity S-wave (km/s) = 3.79294 3.89757 3.84561
# Velocity P-wave (km/s) = 7.10318 7.19608 7.14979
#
# Compressibility (1/GPa) = 0.01569364
#
# Stress axis : x y z
#
# Youngs Moduli (GPa) = 79.26165 86.63620 102.94742
#
# Poissons Ratio (x) = 0.32708 0.38182
# Poissons Ratio (y) = 0.29924 0.16527
# Poissons Ratio (z) = 0.29397 0.13908
#
# Static dielectric constant tensor:
#      x y z
#    x 3.834630 0.000000 0.000000 
#    y 0.000000 3.806370 0.000000 
#    z 0.000000 0.000000 3.894080 
# 
# 
# High freq. dielectric constant tensor:
#      x y z
#    x 1.802660 0.000000 0.000000 
#    y 0.000000 1.792860 0.000000 
#    z 0.000000 0.000000 1.817980 
# 
# From -- ./inp_files/4351.got.cif
#   From: 2010.03.12/outbox.cif.g09.slc.cpg/sg54_3_cif.got.tgz:4351.got - 2010.04.16 15:00:50.
