data_PCOD8223693
_publ_section_title
;
Structure prediction by ZEFSAII (Michael W. Deem and Ramdas Pophale) SiO2 
 PCOD8223693
Probable space group: P C C A
;
_chemical_formula_sum "Si O2"
_cell_formula_units_Z 32
_cell_length_a 8.457978
_cell_length_b 4.997256
_cell_length_c 30.861037
_cell_angle_alpha 90.000000
_cell_angle_beta 90.000000
_cell_angle_gamma 90.000000
_cell_volume 1304.393616
_symmetry_space_group_name_H-M "P C C A"
_symmetry_group_IT_number 54
_symmetry_cell_setting 'orthorhombic'
loop_
_space_group_symop_operation_xyz
x,y,z
1/2-x,-y,z
1/2+x,-y,1/2-z
-x,y,1/2-z
-x,-y,-z
1/2+x,y,-z
1/2-x,y,1/2+z
x,-y,1/2+z
loop_
_atom_site_type_symbol
_atom_site_label
_atom_site_fract_x
_atom_site_fract_y
_atom_site_fract_z
Si Si1 0.933197 0.930464 0.341069
Si Si2 0.925184 0.924636 0.069645
Si Si3 0.434187 0.430377 0.795947
Si Si4 0.642828 0.740554 0.481975
O O1 0.979614 0.820440 0.388714
O O2 0.966256 0.693642 0.307600
O O3 0.750000 0.000000 0.339211
O O4 0.037312 0.192047 0.330112
O O5 0.750000 0.000000 0.084624
O O6 0.932250 0.698692 0.030650
O O7 0.007142 0.198790 0.052815
O O8 0.250000 0.500000 0.794529
O O9 0.500000 0.327782 0.750000
O O10 0.750000 0.500000 0.465381
O O11 0.750000 0.000000 0.488458
#
# Coordination Sequence:
#
# PCOD8223693 Si02
#       4
#     8   8   8   8
#     4  12  26  45  70 102 139 180 226 279 338 404
#     4  10  23  41  65  96 132 175 228 282 337 397
#     4  12  26  48  74 103 137 176 222 275 340 410
#     4  10  23  42  64  91 130 179 227 278 337 401
#
# _framework density 24.532473
#
# number of rings (size 3 to 8) (size 9 to 14) (size 15 to 20)
#    0.000    1.000    0.000    6.000    0.000   19.000 
#    0.000    0.000    0.000    0.000    0.000    0.000 
#    0.000    0.000    0.000    0.000    0.000    0.000 
#
# Total GULP energy -396927.680904 kJ/mol
# GULP energy per Si atom -12403.990028 kJ/mol
# Density = 2.447664 g / cm^3
# Si number density = 24.532473 Si / 1000 Ang^3
#
#
#
# Elastic Constant Matrix: (Units=GPa)
#
#
# Indices 1 2 3 4 5 6 
#
# 1 129.2914 17.5006 45.3982 0.0000 0.0000 0.0000
# 2 17.5006 85.9907 13.2254 0.0000 0.0000 0.0000
# 3 45.3982 13.2254 118.1784 0.0000 0.0000 0.0000
# 4 0.0000 0.0000 0.0000 -245.7354 0.0000 0.0000
# 5 0.0000 0.0000 0.0000 0.0000 213.9082 0.0000
# 6 0.0000 0.0000 0.0000 0.0000 0.0000 41.0156
#
#
#
# Elastic Compliance Matrix: (Units=1/GPa)
#
#
# Indices 1 2 3 4 5 6 
#
# 1 0.009089 -0.001336 -0.003342 0.000000 0.000000 0.000000
# 2 -0.001336 0.012029 -0.000833 0.000000 0.000000 0.000000
# 3 -0.003342 -0.000833 0.009839 0.000000 0.000000 0.000000
# 4 0.000000 0.000000 0.000000 -0.004069 0.000000 0.000000
# 5 0.000000 0.000000 0.000000 0.000000 0.004675 0.000000
# 6 0.000000 0.000000 0.000000 0.000000 0.000000 0.024381
#
#
# Mechanical properties :
#
#
# Convention : Reuss Voigt Hill
#
# Bulk Modulus (GPa) = 50.16252 53.96765 52.06508
# Shear Modulus (GPa) = 67.92584 18.99343 43.45964
#
# Velocity S-wave (km/s) = 5.26766 2.78549 4.21350
# Velocity P-wave (km/s) = 7.58218 5.69135 6.70377
#
# Compressibility (1/GPa) = 0.01993520
#
# Stress axis : x y z
#
# Youngs Moduli (GPa) = 110.02636 83.13153 101.63814
#
# Poissons Ratio (x) = 0.11104 0.33967
# Poissons Ratio (y) = 0.14696 0.08467
# Poissons Ratio (z) = 0.36770 0.06925
#
# Static dielectric constant tensor:
#      x y z
#    x 4.755650 0.000000 0.000000 
#    y 0.000000 4.446800 0.000000 
#    z 0.000000 0.000000 4.427240 
# 
# 
# High freq. dielectric constant tensor:
#      x y z
#    x 2.004640 0.000000 0.000000 
#    y 0.000000 1.970180 0.000000 
#    z 0.000000 0.000000 1.973310 
# 
# From -- ./inp_files/27383.got.cif
#   From: 2010.03.12/outbox.cif.g09.slc.cpg/sg54_14_cif.got.tgz:27383.got - 2010.04.16 15:00:50.
