data_PCOD8223014
_publ_section_title
;
Structure prediction by ZEFSAII (Michael W. Deem and Ramdas Pophale) SiO2 
 PCOD8223014
Probable space group: P C C A
;
_chemical_formula_sum "Si O2"
_cell_formula_units_Z 40
_cell_length_a 7.956519
_cell_length_b 18.889213
_cell_length_c 12.608954
_cell_angle_alpha 90.000000
_cell_angle_beta 90.000000
_cell_angle_gamma 90.000000
_cell_volume 1895.029733
_symmetry_space_group_name_H-M "P C C A"
_symmetry_group_IT_number 54
_symmetry_cell_setting 'orthorhombic'
loop_
_space_group_symop_operation_xyz
x,y,z
1/2-x,-y,z
1/2+x,-y,1/2-z
-x,y,1/2-z
-x,-y,-z
1/2+x,y,-z
1/2-x,y,1/2+z
x,-y,1/2+z
loop_
_atom_site_type_symbol
_atom_site_label
_atom_site_fract_x
_atom_site_fract_y
_atom_site_fract_z
Si Si1 0.594110 0.243623 0.423012
Si Si2 0.500000 0.647764 0.750000
Si Si3 0.750000 0.000000 0.003433
Si Si4 0.057283 0.287843 0.128430
Si Si5 0.327287 0.570986 0.188437
Si Si6 0.987610 0.088167 0.625297
O O1 0.499921 0.302889 0.353837
O O2 0.787734 0.234688 0.389383
O O3 0.588634 0.267131 0.546799
O O4 0.506612 0.168918 0.408470
O O5 0.672802 0.601936 0.739716
O O6 0.885334 0.033072 0.925766
O O7 0.691852 0.063819 0.080218
O O8 0.122491 0.368225 0.104035
O O9 0.000000 0.282300 0.250000
O O10 0.250000 0.500000 0.134030
O O11 0.500000 0.551584 0.250000
O O12 0.000000 0.080499 0.750000
#
# Coordination Sequence:
#
# PCOD8223014 Si02
#       6
#     8   4   4   8   8   8
#     4  11  23  41  68  93 132 174 223 275 340 388
#     4  10  22  40  64  94 128 174 222 284 326 396
#     4  10  24  40  62  98 130 168 218 268 314 414
#     4  10  25  41  64  97 134 169 226 280 329 405
#     4  10  20  39  65  92 133 177 223 275 336 402
#     4  11  22  42  66  93 130 173 216 266 335 387
#
# _framework density 21.107848000000001
#
# number of rings (size 3 to 8) (size 9 to 14) (size 15 to 20)
#    0.000    1.600    2.000    1.800    8.400    1.600 
#    0.000   10.000    0.000    0.000    0.000    0.000 
#    0.000    0.000    0.000    0.000    0.000    0.000 
#
# Total GULP energy -495688.308344 kJ/mol
# GULP energy per Si atom -12392.207709 kJ/mol
# Density = 2.105981 g / cm^3
# Si number density = 21.107848 Si / 1000 Ang^3
#
#
#
# Elastic Constant Matrix: (Units=GPa)
#
#
# Indices 1 2 3 4 5 6 
#
# 1 102.1582 46.3866 34.8489 0.0000 0.0000 0.0000
# 2 46.3866 128.4581 51.9873 0.0000 0.0000 0.0000
# 3 34.8489 51.9873 150.7454 0.0000 0.0000 0.0000
# 4 0.0000 0.0000 0.0000 23.8649 0.0000 0.0000
# 5 0.0000 0.0000 0.0000 0.0000 27.6339 0.0000
# 6 0.0000 0.0000 0.0000 0.0000 0.0000 38.0390
#
#
#
# Elastic Compliance Matrix: (Units=1/GPa)
#
#
# Indices 1 2 3 4 5 6 
#
# 1 0.011988 -0.003728 -0.001486 0.000000 0.000000 0.000000
# 2 -0.003728 0.010206 -0.002658 0.000000 0.000000 0.000000
# 3 -0.001486 -0.002658 0.007894 0.000000 0.000000 0.000000
# 4 0.000000 0.000000 0.000000 0.041903 0.000000 0.000000
# 5 0.000000 0.000000 0.000000 0.000000 0.036187 0.000000
# 6 0.000000 0.000000 0.000000 0.000000 0.000000 0.026289
#
#
# Mechanical properties :
#
#
# Convention : Reuss Voigt Hill
#
# Bulk Modulus (GPa) = 69.70927 71.97858 70.84392
# Shear Modulus (GPa) = 32.25964 34.45016 33.35490
#
# Velocity S-wave (km/s) = 3.91362 4.04431 3.97950
# Velocity P-wave (km/s) = 7.31566 7.48218 7.39939
#
# Compressibility (1/GPa) = 0.01434530
#
# Stress axis : x y z
#
# Youngs Moduli (GPa) = 83.41533 97.97722 126.68007
#
# Poissons Ratio (x) = 0.36522 0.18823
# Poissons Ratio (y) = 0.31094 0.33673
# Poissons Ratio (z) = 0.12394 0.26044
#
# Static dielectric constant tensor:
#      x y z
#    x 3.520040 0.000000 0.000000 
#    y 0.000000 4.017980 0.000000 
#    z 0.000000 0.000000 3.642440 
# 
# 
# High freq. dielectric constant tensor:
#      x y z
#    x 1.841870 0.000000 0.000000 
#    y 0.000000 1.838540 0.000000 
#    z 0.000000 0.000000 1.804200 
# 
# From -- ./inp_files/6889.got.cif
#   From: 2010.03.12/outbox.cif.g09.slc.cpg/sg54_4_cif.got.tgz:6889.got - 2010.04.16 15:00:50.
