data_PCOD8223834
_publ_section_title
;
Structure prediction by ZEFSAII (Michael W. Deem and Ramdas Pophale) SiO2 
 PCOD8223834
Probable space group: P C C A
;
_chemical_formula_sum "Si O2"
_cell_formula_units_Z 60
_cell_length_a 8.771430
_cell_length_b 17.000831
_cell_length_c 17.900025
_cell_angle_alpha 90.000000
_cell_angle_beta 90.000000
_cell_angle_gamma 90.000000
_cell_volume 2669.280351
_symmetry_space_group_name_H-M "P C C A"
_symmetry_group_IT_number 54
_symmetry_cell_setting 'orthorhombic'
loop_
_space_group_symop_operation_xyz
x,y,z
1/2-x,-y,z
1/2+x,-y,1/2-z
-x,y,1/2-z
-x,-y,-z
1/2+x,y,-z
1/2-x,y,1/2+z
x,-y,1/2+z
loop_
_atom_site_type_symbol
_atom_site_label
_atom_site_fract_x
_atom_site_fract_y
_atom_site_fract_z
Si Si1 0.250000 0.500000 0.166264
Si Si2 0.582909 0.620687 0.923120
Si Si3 0.237195 0.911819 0.895281
Si Si4 0.839652 0.641240 0.727631
Si Si5 0.737967 0.590643 0.071657
Si Si6 0.228358 0.224035 0.599583
Si Si7 0.322027 0.200508 0.259359
Si Si8 0.478710 0.151507 0.506574
O O1 0.382273 0.464601 0.113066
O O2 0.187868 0.429976 0.216140
O O3 0.402095 0.632943 0.921284
O O4 0.679562 0.686895 0.877755
O O5 0.640067 0.631544 0.007513
O O6 0.256149 0.852959 0.825677
O O7 0.072151 0.899262 0.933083
O O8 0.250000 0.000000 0.863607
O O9 0.363575 0.902871 0.960024
O O10 0.855544 0.601538 0.647078
O O11 0.711062 0.708105 0.722872
O O12 0.000000 0.681842 0.750000
O O13 0.750000 0.500000 0.050359
O O14 0.251058 0.178085 0.678433
O O15 0.383085 0.217551 0.552060
O O16 0.086796 0.192987 0.552250
O O17 0.500000 0.187155 0.250000
#
# Coordination Sequence:
#
# PCOD8223834 Si02
#       8
#     4   8   8   8   8   8   8   8
#     4  12  26  44  66  96 140 188 242 290 358 412
#     4  12  26  42  70  97 138 187 236 304 353 416
#     4  11  25  48  76 110 144 183 231 282 354 425
#     4  12  29  45  70  97 142 186 239 292 354 422
#     4  12  26  44  66 100 136 178 243 302 364 418
#     4  11  23  44  68 103 140 182 240 284 352 423
#     4  12  26  47  70 103 143 184 231 292 356 416
#     4  10  24  45  75 104 141 184 230 285 347 428
#
# _framework density 22.477969999999999
#
# number of rings (size 3 to 8) (size 9 to 14) (size 15 to 20)
#    0.000    0.533    4.000    3.200    7.467    0.000 
#    2.400    0.667    0.000    0.000    0.000    0.000 
#    0.000    0.000    0.000    0.000    0.000    0.000 
#
# Total GULP energy -744030.445888 kJ/mol
# GULP energy per Si atom -12400.507431 kJ/mol
# Density = 2.242681 g / cm^3
# Si number density = 22.477970 Si / 1000 Ang^3
#
#
#
# Elastic Constant Matrix: (Units=GPa)
#
#
# Indices 1 2 3 4 5 6 
#
# 1 103.4773 28.7976 49.8460 0.0000 0.0000 0.0000
# 2 28.7976 106.3395 37.0606 0.0000 0.0000 0.0000
# 3 49.8460 37.0606 153.5619 0.0000 0.0000 0.0000
# 4 0.0000 0.0000 0.0000 30.1864 0.0000 0.0000
# 5 0.0000 0.0000 0.0000 0.0000 24.8493 0.0000
# 6 0.0000 0.0000 0.0000 0.0000 0.0000 22.0791
#
#
#
# Elastic Compliance Matrix: (Units=1/GPa)
#
#
# Indices 1 2 3 4 5 6 
#
# 1 0.011847 -0.002040 -0.003353 0.000000 0.000000 0.000000
# 2 -0.002040 0.010619 -0.001901 0.000000 0.000000 0.000000
# 3 -0.003353 -0.001901 0.008059 0.000000 0.000000 0.000000
# 4 0.000000 0.000000 0.000000 0.033127 0.000000 0.000000
# 5 0.000000 0.000000 0.000000 0.000000 0.040243 0.000000
# 6 0.000000 0.000000 0.000000 0.000000 0.000000 0.045292
#
#
# Mechanical properties :
#
#
# Convention : Reuss Voigt Hill
#
# Bulk Modulus (GPa) = 62.74431 66.08745 64.41588
# Shear Modulus (GPa) = 29.57076 31.93459 30.75268
#
# Velocity S-wave (km/s) = 3.63098 3.77331 3.70283
# Velocity P-wave (km/s) = 6.74929 6.96051 6.85571
#
# Compressibility (1/GPa) = 0.01593770
#
# Stress axis : x y z
#
# Youngs Moduli (GPa) = 84.41060 94.17461 124.08198
#
# Poissons Ratio (x) = 0.19208 0.41608
# Poissons Ratio (y) = 0.17216 0.23584
# Poissons Ratio (z) = 0.28305 0.17899
#
# Static dielectric constant tensor:
#      x y z
#    x 4.063130 0.000000 0.000000 
#    y 0.000000 3.788820 0.000000 
#    z 0.000000 0.000000 4.332860 
# 
# 
# High freq. dielectric constant tensor:
#      x y z
#    x 1.890640 0.000000 0.000000 
#    y 0.000000 1.863950 0.000000 
#    z 0.000000 0.000000 1.910090 
# 
# From -- ./inp_files/16810.got.cif
#   From: 2010.03.12/outbox.cif.g09.slc.cpg/sg54_9_cif.got.tgz:16810.got - 2010.04.16 15:00:50.
