data_PCOD8223724
_publ_section_title
;
Structure prediction by ZEFSAII (Michael W. Deem and Ramdas Pophale) SiO2 
 PCOD8223724
Probable space group: P C C A
;
_chemical_formula_sum "Si O2"
_cell_formula_units_Z 40
_cell_length_a 20.839179
_cell_length_b 5.836679
_cell_length_c 14.059669
_cell_angle_alpha 90.000000
_cell_angle_beta 90.000000
_cell_angle_gamma 90.000000
_cell_volume 1710.100014
_symmetry_space_group_name_H-M "P C C A"
_symmetry_group_IT_number 54
_symmetry_cell_setting 'orthorhombic'
loop_
_space_group_symop_operation_xyz
x,y,z
1/2-x,-y,z
1/2+x,-y,1/2-z
-x,y,1/2-z
-x,-y,-z
1/2+x,y,-z
1/2-x,y,1/2+z
x,-y,1/2+z
loop_
_atom_site_type_symbol
_atom_site_label
_atom_site_fract_x
_atom_site_fract_y
_atom_site_fract_z
Si Si1 0.123106 0.076891 0.927987
Si Si2 0.113591 0.065551 0.638737
Si Si3 0.417720 0.711723 0.290925
Si Si4 0.001781 0.614040 0.399912
Si Si5 0.686600 0.650501 0.724616
O O1 0.055991 0.192669 0.899596
O O2 0.180685 0.224901 0.879020
O O3 0.117996 0.824931 0.882357
O O4 0.134707 0.059067 0.040943
O O5 0.178211 0.153883 0.693100
O O6 0.066853 0.277597 0.620135
O O7 0.073127 0.893335 0.705878
O O8 0.484243 0.589363 0.323969
O O9 0.371768 0.515193 0.253783
O O10 0.000000 0.500000 0.500000
O O11 0.750000 0.500000 0.733273
#
# Coordination Sequence:
#
# PCOD8223724 Si02
#       5
#     8   8   8   8   8
#     4  10  23  43  66  99 137 184 224 282 352 415
#     4  11  24  41  70 104 137 183 238 275 356 422
#     4  10  24  43  65  98 139 175 232 281 351 405
#     4  11  23  41  68  98 145 181 218 288 348 426
#     4  10  25  47  70  95 137 181 238 296 338 402
#
# _framework density 23.390443000000001
#
# number of rings (size 3 to 8) (size 9 to 14) (size 15 to 20)
#    0.000    1.600    2.000    0.600    2.800   12.000 
#    0.000    6.000    0.000    0.000    0.000    0.000 
#    0.000    0.000    0.000    0.000    0.000    0.000 
#
# Total GULP energy -495836.908903 kJ/mol
# GULP energy per Si atom -12395.922723 kJ/mol
# Density = 2.333721 g / cm^3
# Si number density = 23.390443 Si / 1000 Ang^3
#
#
#
# Elastic Constant Matrix: (Units=GPa)
#
#
# Indices 1 2 3 4 5 6 
#
# 1 78.1503 31.3010 51.1287 0.0000 0.0000 0.0000
# 2 31.3010 106.9739 70.6167 0.0000 0.0000 0.0000
# 3 51.1287 70.6167 208.1445 0.0000 0.0000 0.0000
# 4 0.0000 0.0000 0.0000 51.5396 0.0000 0.0000
# 5 0.0000 0.0000 0.0000 0.0000 22.1690 0.0000
# 6 0.0000 0.0000 0.0000 0.0000 0.0000 42.3389
#
#
#
# Elastic Compliance Matrix: (Units=1/GPa)
#
#
# Indices 1 2 3 4 5 6 
#
# 1 0.015811 -0.002658 -0.002982 0.000000 0.000000 0.000000
# 2 -0.002658 0.012493 -0.003585 0.000000 0.000000 0.000000
# 3 -0.002982 -0.003585 0.006753 0.000000 0.000000 0.000000
# 4 0.000000 0.000000 0.000000 0.019403 0.000000 0.000000
# 5 0.000000 0.000000 0.000000 0.000000 0.045108 0.000000
# 6 0.000000 0.000000 0.000000 0.000000 0.000000 0.023619
#
#
# Mechanical properties :
#
#
# Convention : Reuss Voigt Hill
#
# Bulk Modulus (GPa) = 60.21782 77.70684 68.96233
# Shear Modulus (GPa) = 33.97350 39.22431 36.59891
#
# Velocity S-wave (km/s) = 3.81524 4.09949 3.95991
# Velocity P-wave (km/s) = 6.72373 7.46334 7.10317
#
# Compressibility (1/GPa) = 0.01660638
#
# Stress axis : x y z
#
# Youngs Moduli (GPa) = 63.24532 80.04700 148.07475
#
# Poissons Ratio (x) = 0.21275 0.44159
# Poissons Ratio (y) = 0.16810 0.53092
# Poissons Ratio (z) = 0.18861 0.28701
#
# Static dielectric constant tensor:
#      x y z
#    x 3.599570 0.000000 0.000000 
#    y 0.000000 4.544380 0.000000 
#    z 0.000000 0.000000 4.395670 
# 
# 
# High freq. dielectric constant tensor:
#      x y z
#    x 1.886240 0.000000 0.000000 
#    y 0.000000 1.949440 0.000000 
#    z 0.000000 0.000000 1.942540 
# 
# From -- ./inp_files/14847.got.cif
#   From: 2010.03.12/outbox.cif.g09.slc.cpg/sg54_8_cif.got.tgz:14847.got - 2010.04.16 15:00:50.
