data_PCOD8223881
_publ_section_title
;
Structure prediction by ZEFSAII (Michael W. Deem and Ramdas Pophale) SiO2 
 PCOD8223881
Probable space group: P C C A
;
_chemical_formula_sum "Si O2"
_cell_formula_units_Z 36
_cell_length_a 18.075908
_cell_length_b 9.906875
_cell_length_c 8.802947
_cell_angle_alpha 90.000000
_cell_angle_beta 90.000000
_cell_angle_gamma 90.000000
_cell_volume 1576.394434
_symmetry_space_group_name_H-M "P C C A"
_symmetry_group_IT_number 54
_symmetry_cell_setting 'orthorhombic'
loop_
_space_group_symop_operation_xyz
x,y,z
1/2-x,-y,z
1/2+x,-y,1/2-z
-x,y,1/2-z
-x,-y,-z
1/2+x,y,-z
1/2-x,y,1/2+z
x,-y,1/2+z
loop_
_atom_site_type_symbol
_atom_site_label
_atom_site_fract_x
_atom_site_fract_y
_atom_site_fract_z
Si Si1 0.673734 0.552584 0.208357
Si Si2 0.071593 0.596456 0.512371
Si Si3 0.490048 0.855553 0.429324
Si Si4 0.676229 0.828592 0.066333
Si Si5 0.750000 0.000000 0.312722
O O1 0.750000 0.500000 0.285317
O O2 0.609333 0.591930 0.323403
O O3 0.702819 0.678994 0.108540
O O4 0.635596 0.437591 0.106320
O O5 0.000000 0.500000 0.500000
O O6 0.046193 0.751152 0.490316
O O7 0.500000 0.858446 0.250000
O O8 0.408780 0.808561 0.472829
O O9 0.500000 0.000000 0.500000
O O10 0.687337 0.933394 0.205990
O O11 0.717197 0.880485 0.915576
#
# Coordination Sequence:
#
# PCOD8223881 Si02
#       5
#     8   8   8   8   4
#     4  12  28  44  76 105 146 192 245 300 370 435
#     4  12  25  50  71 106 146 188 242 307 355 438
#     4  12  25  45  74 103 142 186 243 294 360 430
#     4  11  24  47  69 107 140 193 239 298 361 440
#     4  10  26  44  74 102 154 184 236 310 366 432
#
# _framework density 22.836925000000001
#
# number of rings (size 3 to 8) (size 9 to 14) (size 15 to 20)
#    0.000    0.444    4.444    2.667    6.222    3.556 
#    0.000    0.000    0.000    0.000    0.000    0.000 
#    0.000    0.000    0.000    0.000    0.000    0.000 
#
# Total GULP energy -446398.112152 kJ/mol
# GULP energy per Si atom -12399.947560 kJ/mol
# Density = 2.278495 g / cm^3
# Si number density = 22.836925 Si / 1000 Ang^3
#
#
#
# Elastic Constant Matrix: (Units=GPa)
#
#
# Indices 1 2 3 4 5 6 
#
# 1 124.6751 56.1765 33.3812 0.0000 0.0000 0.0000
# 2 56.1765 162.3015 37.5399 0.0000 0.0000 0.0000
# 3 33.3812 37.5399 75.7747 0.0000 0.0000 0.0000
# 4 0.0000 0.0000 0.0000 22.3883 0.0000 0.0000
# 5 0.0000 0.0000 0.0000 0.0000 30.6434 0.0000
# 6 0.0000 0.0000 0.0000 0.0000 0.0000 48.0269
#
#
#
# Elastic Compliance Matrix: (Units=1/GPa)
#
#
# Indices 1 2 3 4 5 6 
#
# 1 0.010097 -0.002785 -0.003068 0.000000 0.000000 0.000000
# 2 -0.002785 0.007727 -0.002601 0.000000 0.000000 0.000000
# 3 -0.003068 -0.002601 0.015837 0.000000 0.000000 0.000000
# 4 0.000000 0.000000 0.000000 0.044666 0.000000 0.000000
# 5 0.000000 0.000000 0.000000 0.000000 0.032633 0.000000
# 6 0.000000 0.000000 0.000000 0.000000 0.000000 0.020822
#
#
# Mechanical properties :
#
#
# Convention : Reuss Voigt Hill
#
# Bulk Modulus (GPa) = 59.69314 68.54963 64.12138
# Shear Modulus (GPa) = 32.40933 35.92196 34.16565
#
# Velocity S-wave (km/s) = 3.77127 3.97038 3.87210
# Velocity P-wave (km/s) = 6.72004 7.14848 6.93756
#
# Compressibility (1/GPa) = 0.01675234
#
# Stress axis : x y z
#
# Youngs Moduli (GPa) = 99.03566 129.41561 63.14184
#
# Poissons Ratio (x) = 0.36045 0.19374
# Poissons Ratio (y) = 0.27584 0.16424
# Poissons Ratio (z) = 0.30388 0.33662
#
# Static dielectric constant tensor:
#      x y z
#    x 4.374540 0.000000 0.000000 
#    y 0.000000 4.405040 0.000000 
#    z 0.000000 0.000000 4.133100 
# 
# 
# High freq. dielectric constant tensor:
#      x y z
#    x 1.917240 0.000000 0.000000 
#    y 0.000000 1.913770 0.000000 
#    z 0.000000 0.000000 1.897050 
# 
# From -- ./inp_files/4547.got.cif
#   From: 2010.03.12/outbox.cif.g09.slc.cpg/sg54_3_cif.got.tgz:4547.got - 2010.04.16 15:00:50.
