data_PCOD8223522
_publ_section_title
;
Structure prediction by ZEFSAII (Michael W. Deem and Ramdas Pophale) SiO2 
 PCOD8223522
Probable space group: P C C A
;
_chemical_formula_sum "Si O2"
_cell_formula_units_Z 52
_cell_length_a 13.412321
_cell_length_b 8.379672
_cell_length_c 22.010924
_cell_angle_alpha 90.000000
_cell_angle_beta 90.000000
_cell_angle_gamma 90.000000
_cell_volume 2473.826474
_symmetry_space_group_name_H-M "P C C A"
_symmetry_group_IT_number 54
_symmetry_cell_setting 'orthorhombic'
loop_
_space_group_symop_operation_xyz
x,y,z
1/2-x,-y,z
1/2+x,-y,1/2-z
-x,y,1/2-z
-x,-y,-z
1/2+x,y,-z
1/2-x,y,1/2+z
x,-y,1/2+z
loop_
_atom_site_type_symbol
_atom_site_label
_atom_site_fract_x
_atom_site_fract_y
_atom_site_fract_z
Si Si1 0.250000 0.000000 0.173385
Si Si2 0.160606 0.110204 0.382846
Si Si3 0.742315 0.316576 0.015968
Si Si4 0.690354 0.263591 0.738751
Si Si5 0.357197 0.739652 0.602382
Si Si6 0.390847 0.410983 0.227896
Si Si7 0.456262 0.874658 0.953245
O O1 0.183651 0.115862 0.215264
O O2 0.327601 0.090553 0.130476
O O3 0.182187 0.211850 0.443676
O O4 0.140648 0.225547 0.326251
O O5 0.250000 0.000000 0.361109
O O6 0.072740 0.985470 0.396004
O O7 0.750000 0.500000 0.039210
O O8 0.633586 0.234764 0.020926
O O9 0.773124 0.315363 0.945253
O O10 0.620093 0.400863 0.764665
O O11 0.806565 0.318449 0.732625
O O12 0.370899 0.614386 0.656554
O O13 0.461171 0.749379 0.567246
O O14 0.500000 0.352685 0.250000
O O15 0.500000 0.000000 0.000000
#
# Coordination Sequence:
#
# PCOD8223522 Si02
#       7
#     4   8   8   8   8   8   8
#     4  10  22  40  68  94 128 180 216 274 338 394
#     4  10  22  41  68  93 128 173 225 272 335 395
#     4  11  26  42  67  97 135 180 218 276 352 400
#     4  10  22  43  65  94 132 175 220 274 335 398
#     4  11  24  43  67  99 138 170 226 278 332 408
#     4  10  25  41  64  96 136 175 219 272 337 394
#     4  11  23  44  67 101 134 175 226 280 334 407
#
# _framework density 21.020067999999998
#
# number of rings (size 3 to 8) (size 9 to 14) (size 15 to 20)
#    0.000    1.538    2.308    0.923   11.846    1.846 
#    2.769    0.769    0.000    0.000    0.000    0.000 
#    0.000    0.000    0.000    0.000    0.000    0.000 
#
# Total GULP energy -644693.618871 kJ/mol
# GULP energy per Si atom -12397.954209 kJ/mol
# Density = 2.097223 g / cm^3
# Si number density = 21.020068 Si / 1000 Ang^3
#
#
#
# Elastic Constant Matrix: (Units=GPa)
#
#
# Indices 1 2 3 4 5 6 
#
# 1 102.3282 30.1673 39.8800 0.0000 0.0000 0.0000
# 2 30.1673 116.1820 40.3866 0.0000 0.0000 0.0000
# 3 39.8800 40.3866 122.6225 0.0000 0.0000 0.0000
# 4 0.0000 0.0000 0.0000 35.7581 0.0000 0.0000
# 5 0.0000 0.0000 0.0000 0.0000 22.5027 0.0000
# 6 0.0000 0.0000 0.0000 0.0000 0.0000 24.4204
#
#
#
# Elastic Compliance Matrix: (Units=1/GPa)
#
#
# Indices 1 2 3 4 5 6 
#
# 1 0.011556 -0.001913 -0.003128 0.000000 0.000000 0.000000
# 2 -0.001913 0.010037 -0.002683 0.000000 0.000000 0.000000
# 3 -0.003128 -0.002683 0.010056 0.000000 0.000000 0.000000
# 4 0.000000 0.000000 0.000000 0.027966 0.000000 0.000000
# 5 0.000000 0.000000 0.000000 0.000000 0.044439 0.000000
# 6 0.000000 0.000000 0.000000 0.000000 0.000000 0.040949
#
#
# Mechanical properties :
#
#
# Convention : Reuss Voigt Hill
#
# Bulk Modulus (GPa) = 61.73121 62.44451 62.08786
# Shear Modulus (GPa) = 30.14742 31.91618 31.03180
#
# Velocity S-wave (km/s) = 3.79122 3.90085 3.84643
# Velocity P-wave (km/s) = 6.97108 7.07534 7.02340
#
# Compressibility (1/GPa) = 0.01619926
#
# Stress axis : x y z
#
# Youngs Moduli (GPa) = 86.53837 99.63381 99.44042
#
# Poissons Ratio (x) = 0.19061 0.31106
# Poissons Ratio (y) = 0.16556 0.26685
# Poissons Ratio (z) = 0.27070 0.26737
#
# Static dielectric constant tensor:
#      x y z
#    x 3.600560 0.000000 0.000000 
#    y 0.000000 3.778110 0.000000 
#    z 0.000000 0.000000 3.821700 
# 
# 
# High freq. dielectric constant tensor:
#      x y z
#    x 1.813010 0.000000 0.000000 
#    y 0.000000 1.831960 0.000000 
#    z 0.000000 0.000000 1.828140 
# 
# From -- ./inp_files/21528.got.cif
#   From: 2010.03.12/outbox.cif.g09.slc.cpg/sg54_11_cif.got.tgz:21528.got - 2010.04.16 15:00:50.
