data_PCOD8223401
_publ_section_title
;
Structure prediction by ZEFSAII (Michael W. Deem and Ramdas Pophale) SiO2 
 PCOD8223401
Probable space group: P C C A
;
_chemical_formula_sum "Si O2"
_cell_formula_units_Z 28
_cell_length_a 5.202514
_cell_length_b 9.828573
_cell_length_c 25.372361
_cell_angle_alpha 90.000000
_cell_angle_beta 90.000000
_cell_angle_gamma 90.000000
_cell_volume 1297.372258
_symmetry_space_group_name_H-M "P C C A"
_symmetry_group_IT_number 54
_symmetry_cell_setting 'orthorhombic'
loop_
_space_group_symop_operation_xyz
x,y,z
1/2-x,-y,z
1/2+x,-y,1/2-z
-x,y,1/2-z
-x,-y,-z
1/2+x,y,-z
1/2-x,y,1/2+z
x,-y,1/2+z
loop_
_atom_site_type_symbol
_atom_site_label
_atom_site_fract_x
_atom_site_fract_y
_atom_site_fract_z
Si Si1 0.245165 0.208392 0.873560
Si Si2 0.763592 0.849998 0.807836
Si Si3 0.000000 0.637690 0.250000
Si Si4 0.250000 0.500000 0.841997
Si Si5 0.750000 0.000000 0.535455
O O1 0.468048 0.148241 0.837728
O O2 0.306322 0.370676 0.879281
O O3 0.967791 0.181784 0.848250
O O4 0.253005 0.137409 0.930123
O O5 0.744659 0.739306 0.760148
O O6 0.750000 0.000000 0.782556
O O7 0.976562 0.542694 0.198636
O O8 0.500000 0.000000 0.500000
#
# Coordination Sequence:
#
# PCOD8223401 Si02
#       5
#     8   8   4   4   4
#     4  11  23  42  66  91 128 168 203 267 327 373
#     4  11  21  38  61  92 135 170 219 254 302 359
#     4  10  22  34  62  94 130 182 220 248 280 374
#     4  10  22  40  60  92 134 176 210 246 312 372
#     4  12  24  44  72  98 116 154 218 274 336 398
#
# _framework density 21.582086
#
# number of rings (size 3 to 8) (size 9 to 14) (size 15 to 20)
#    0.000    1.143    2.857    3.429    0.000   11.429 
#    0.000    1.429    0.000    0.000    0.000    0.000 
#    0.000    0.000    0.000    0.000    0.000    0.000 
#
# Total GULP energy -346922.231191 kJ/mol
# GULP energy per Si atom -12390.079685 kJ/mol
# Density = 2.153296 g / cm^3
# Si number density = 21.582086 Si / 1000 Ang^3
#
#
#
# Elastic Constant Matrix: (Units=GPa)
#
#
# Indices 1 2 3 4 5 6 
#
# 1 91.6797 13.4765 43.8347 0.0000 0.0000 0.0000
# 2 13.4765 206.1465 61.4677 0.0000 0.0000 0.0000
# 3 43.8347 61.4677 113.7599 0.0000 0.0000 0.0000
# 4 0.0000 0.0000 0.0000 189.2181 0.0000 0.0000
# 5 0.0000 0.0000 0.0000 0.0000 37.4422 0.0000
# 6 0.0000 0.0000 0.0000 0.0000 0.0000 22.2023
#
#
#
# Elastic Compliance Matrix: (Units=1/GPa)
#
#
# Indices 1 2 3 4 5 6 
#
# 1 0.013480 0.000796 -0.005624 0.000000 0.000000 0.000000
# 2 0.000796 0.005830 -0.003456 0.000000 0.000000 0.000000
# 3 -0.005624 -0.003456 0.012825 0.000000 0.000000 0.000000
# 4 0.000000 0.000000 0.000000 0.005285 0.000000 0.000000
# 5 0.000000 0.000000 0.000000 0.000000 0.026708 0.000000
# 6 0.000000 0.000000 0.000000 0.000000 0.000000 0.045040
#
#
# Mechanical properties :
#
#
# Convention : Reuss Voigt Hill
#
# Bulk Modulus (GPa) = 64.24768 72.12711 68.18740
# Shear Modulus (GPa) = 38.18975 69.29298 53.74136
#
# Velocity S-wave (km/s) = 4.21112 5.67243 4.99549
# Velocity P-wave (km/s) = 7.31289 8.74039 8.05831
#
# Compressibility (1/GPa) = 0.01556476
#
# Stress axis : x y z
#
# Youngs Moduli (GPa) = 74.18641 171.54037 77.97182
#
# Poissons Ratio (x) = -0.13650 0.43851
# Poissons Ratio (y) = -0.05903 0.26951
# Poissons Ratio (z) = 0.41722 0.59292
#
# Static dielectric constant tensor:
#      x y z
#    x 4.007010 0.000000 0.000000 
#    y 0.000000 4.595900 0.000000 
#    z 0.000000 0.000000 3.721480 
# 
# 
# High freq. dielectric constant tensor:
#      x y z
#    x 1.862190 0.000000 0.000000 
#    y 0.000000 1.875840 0.000000 
#    z 0.000000 0.000000 1.803660 
# 
# From -- ./inp_files/25073.got.cif
#   From: 2010.03.12/outbox.cif.g09.slc.cpg/sg54_13_cif.got.tgz:25073.got - 2010.04.16 15:00:50.
