data_PCOD8223126
_publ_section_title
;
Structure prediction by ZEFSAII (Michael W. Deem and Ramdas Pophale) SiO2 
 PCOD8223126
Probable space group: P C C A
;
_chemical_formula_sum "Si O2"
_cell_formula_units_Z 48
_cell_length_a 5.119351
_cell_length_b 26.305471
_cell_length_c 17.112801
_cell_angle_alpha 90.000000
_cell_angle_beta 90.000000
_cell_angle_gamma 90.000000
_cell_volume 2304.528533
_symmetry_space_group_name_H-M "P C C A"
_symmetry_group_IT_number 54
_symmetry_cell_setting 'orthorhombic'
loop_
_space_group_symop_operation_xyz
x,y,z
1/2-x,-y,z
1/2+x,-y,1/2-z
-x,y,1/2-z
-x,-y,-z
1/2+x,y,-z
1/2-x,y,1/2+z
x,-y,1/2+z
loop_
_atom_site_type_symbol
_atom_site_label
_atom_site_fract_x
_atom_site_fract_y
_atom_site_fract_z
Si Si1 0.002468 0.968618 0.841971
Si Si2 0.366543 0.236751 0.951951
Si Si3 0.753509 0.298599 0.200612
Si Si4 0.085649 0.555673 0.467729
Si Si5 0.374568 0.880596 0.452123
Si Si6 0.248311 0.417715 0.799681
O O1 0.028713 0.912861 0.878320
O O2 0.000000 0.960499 0.750000
O O3 0.250000 0.000000 0.871046
O O4 0.750000 0.000000 0.870713
O O5 0.266001 0.269713 0.880401
O O6 0.371682 0.178010 0.926633
O O7 0.660228 0.249606 0.979088
O O8 0.500000 0.283040 0.250000
O O9 0.759806 0.358225 0.181916
O O10 0.000000 0.281178 0.250000
O O11 0.303634 0.583782 0.524221
O O12 0.212086 0.553201 0.381770
O O13 0.000000 0.500000 0.500000
O O14 0.580195 0.893332 0.521218
O O15 0.500000 0.436090 0.750000
O O16 0.000000 0.433155 0.750000
#
# Coordination Sequence:
#
# PCOD8223126 Si02
#       6
#     8   8   8   8   8   8
#     4  10  21  36  53  76 105 137 179 228 277 330
#     4  10  21  37  56  82 115 149 187 234 288 343
#     4  10  21  37  58  86 116 150 195 239 285 346
#     4  10  21  38  58  85 117 150 192 238 282 339
#     4  10  21  36  54  78 107 140 181 226 276 337
#     4  10  21  38  60  86 118 155 195 241 290 341
#
# _framework density 20.828552999999999
#
# number of rings (size 3 to 8) (size 9 to 14) (size 15 to 20)
#    0.000    2.000    0.000    3.000    0.000    4.000 
#    0.000    9.167    0.000    0.000    0.000    0.000 
#    0.000    0.000    0.000    0.000    0.000    0.000 
#
# Total GULP energy -594866.497235 kJ/mol
# GULP energy per Si atom -12393.052026 kJ/mol
# Density = 2.078115 g / cm^3
# Si number density = 20.828553 Si / 1000 Ang^3
#
#
#
# Elastic Constant Matrix: (Units=GPa)
#
#
# Indices 1 2 3 4 5 6 
#
# 1 186.7119 32.0884 55.0308 0.0000 0.0000 0.0000
# 2 32.0884 65.0460 49.1527 0.0000 0.0000 0.0000
# 3 55.0308 49.1527 114.6170 0.0000 0.0000 0.0000
# 4 0.0000 0.0000 0.0000 28.3142 0.0000 0.0000
# 5 0.0000 0.0000 0.0000 0.0000 27.5374 0.0000
# 6 0.0000 0.0000 0.0000 0.0000 0.0000 3.4388
#
#
#
# Elastic Compliance Matrix: (Units=1/GPa)
#
#
# Indices 1 2 3 4 5 6 
#
# 1 0.006303 -0.001217 -0.002504 0.000000 0.000000 0.000000
# 2 -0.001217 0.022979 -0.009270 0.000000 0.000000 0.000000
# 3 -0.002504 -0.009270 0.013903 0.000000 0.000000 0.000000
# 4 0.000000 0.000000 0.000000 0.035318 0.000000 0.000000
# 5 0.000000 0.000000 0.000000 0.000000 0.036314 0.000000
# 6 0.000000 0.000000 0.000000 0.000000 0.000000 0.290799
#
#
# Mechanical properties :
#
#
# Convention : Reuss Voigt Hill
#
# Bulk Modulus (GPa) = 58.13341 70.99096 64.56218
# Shear Modulus (GPa) = 11.43294 27.19829 19.31562
#
# Velocity S-wave (km/s) = 2.34542 3.61753 3.04857
# Velocity P-wave (km/s) = 5.94186 7.18374 6.59211
#
# Compressibility (1/GPa) = 0.01720181
#
# Stress axis : x y z
#
# Youngs Moduli (GPa) = 158.65116 43.51771 71.92907
#
# Poissons Ratio (x) = 0.05296 0.18014
# Poissons Ratio (y) = 0.19307 0.66679
# Poissons Ratio (z) = 0.39733 0.40342
#
# Static dielectric constant tensor:
#      x y z
#    x -0.527840 0.000000 0.000000 
#    y 0.000000 3.178330 0.000000 
#    z 0.000000 0.000000 3.710420 
# 
# 
# High freq. dielectric constant tensor:
#      x y z
#    x 1.849740 0.000000 0.000000 
#    y 0.000000 1.798510 0.000000 
#    z 0.000000 0.000000 1.807700 
# 
# From -- ./inp_files/10914.got.cif
#   From: 2010.03.12/outbox.cif.g09.slc.cpg/sg54_6_cif.got.tgz:10914.got - 2010.04.16 15:00:50.
