data_PCOD8223782
_publ_section_title
;
Structure prediction by ZEFSAII (Michael W. Deem and Ramdas Pophale) SiO2 
 PCOD8223782
Probable space group: P C C A
;
_chemical_formula_sum "Si O2"
_cell_formula_units_Z 36
_cell_length_a 18.039148
_cell_length_b 9.498568
_cell_length_c 8.902855
_cell_angle_alpha 90.000000
_cell_angle_beta 90.000000
_cell_angle_gamma 90.000000
_cell_volume 1525.469251
_symmetry_space_group_name_H-M "P C C A"
_symmetry_group_IT_number 54
_symmetry_cell_setting 'orthorhombic'
loop_
_space_group_symop_operation_xyz
x,y,z
1/2-x,-y,z
1/2+x,-y,1/2-z
-x,y,1/2-z
-x,-y,-z
1/2+x,y,-z
1/2-x,y,1/2+z
x,-y,1/2+z
loop_
_atom_site_type_symbol
_atom_site_label
_atom_site_fract_x
_atom_site_fract_y
_atom_site_fract_z
Si Si1 0.416334 0.646780 0.810056
Si Si2 0.552740 0.056173 0.126639
Si Si3 0.832586 0.437339 0.987076
Si Si4 0.170879 0.848167 0.853242
Si Si5 0.250000 0.000000 0.108713
O O1 0.500000 0.616370 0.750000
O O2 0.400163 0.799047 0.893790
O O3 0.359819 0.624175 0.671585
O O4 0.393116 0.544391 0.946587
O O5 0.500000 0.121919 0.250000
O O6 0.594310 0.920585 0.196880
O O7 0.500000 0.000000 0.000000
O O8 0.750000 0.500000 0.968449
O O9 0.830798 0.314876 0.112482
O O10 0.226916 0.870017 0.715257
O O11 0.185382 0.940801 0.003701
#
# Coordination Sequence:
#
# PCOD8223782 Si02
#       5
#     8   8   8   8   4
#     4  11  26  49  72 105 149 195 245 299 369 445
#     4  11  24  46  74 104 139 183 244 303 355 430
#     4  12  28  44  73 110 151 193 240 301 369 442
#     4  11  24  42  68  99 137 182 235 290 357 424
#     4  10  24  40  68  96 136 180 236 288 350 412
#
# _framework density 23.599295999999999
#
# number of rings (size 3 to 8) (size 9 to 14) (size 15 to 20)
#    0.000    0.889    0.000    6.667   12.444    2.667 
#    0.000    0.000    0.000    0.000    0.000    0.000 
#    0.000    0.000    0.000    0.000    0.000    0.000 
#
# Total GULP energy -445984.511552 kJ/mol
# GULP energy per Si atom -12388.458654 kJ/mol
# Density = 2.354558 g / cm^3
# Si number density = 23.599296 Si / 1000 Ang^3
#
#
#
# Elastic Constant Matrix: (Units=GPa)
#
#
# Indices 1 2 3 4 5 6 
#
# 1 105.1376 39.3807 13.2189 0.0000 0.0000 0.0000
# 2 39.3807 147.1278 26.9414 0.0000 0.0000 0.0000
# 3 13.2189 26.9414 89.8815 0.0000 0.0000 0.0000
# 4 0.0000 0.0000 0.0000 40.2247 0.0000 0.0000
# 5 0.0000 0.0000 0.0000 0.0000 31.2853 0.0000
# 6 0.0000 0.0000 0.0000 0.0000 0.0000 38.6099
#
#
#
# Elastic Compliance Matrix: (Units=1/GPa)
#
#
# Indices 1 2 3 4 5 6 
#
# 1 0.010619 -0.002705 -0.000751 0.000000 0.000000 0.000000
# 2 -0.002705 0.007880 -0.001964 0.000000 0.000000 0.000000
# 3 -0.000751 -0.001964 0.011825 0.000000 0.000000 0.000000
# 4 0.000000 0.000000 0.000000 0.024860 0.000000 0.000000
# 5 0.000000 0.000000 0.000000 0.000000 0.031964 0.000000
# 6 0.000000 0.000000 0.000000 0.000000 0.000000 0.025900
#
#
# Mechanical properties :
#
#
# Convention : Reuss Voigt Hill
#
# Bulk Modulus (GPa) = 51.32365 55.69209 53.50787
# Shear Modulus (GPa) = 38.34839 39.53105 38.93972
#
# Velocity S-wave (km/s) = 4.03548 4.09723 4.06647
# Velocity P-wave (km/s) = 6.59611 6.78479 6.69111
#
# Compressibility (1/GPa) = 0.01948419
#
# Stress axis : x y z
#
# Youngs Moduli (GPa) = 94.17199 126.89591 84.56658
#
# Poissons Ratio (x) = 0.34322 0.06351
# Poissons Ratio (y) = 0.25471 0.16612
# Poissons Ratio (z) = 0.07072 0.24927
#
# Static dielectric constant tensor:
#      x y z
#    x 4.459420 0.000000 0.000000 
#    y 0.000000 4.266420 0.000000 
#    z 0.000000 0.000000 4.355800 
# 
# 
# High freq. dielectric constant tensor:
#      x y z
#    x 1.939990 0.000000 0.000000 
#    y 0.000000 1.946170 0.000000 
#    z 0.000000 0.000000 1.940930 
# 
# From -- ./inp_files/4524.got.cif
#   From: 2010.03.12/outbox.cif.g09.slc.cpg/sg54_3_cif.got.tgz:4524.got - 2010.04.16 15:00:50.
