data_PCOD8223208
_publ_section_title
;
Structure prediction by ZEFSAII (Michael W. Deem and Ramdas Pophale) SiO2 
 PCOD8223208
Probable space group: P C C A
;
_chemical_formula_sum "Si O2"
_cell_formula_units_Z 40
_cell_length_a 27.153193
_cell_length_b 4.929115
_cell_length_c 13.810543
_cell_angle_alpha 90.000000
_cell_angle_beta 90.000000
_cell_angle_gamma 90.000000
_cell_volume 1848.419799
_symmetry_space_group_name_H-M "P C C A"
_symmetry_group_IT_number 54
_symmetry_cell_setting 'orthorhombic'
loop_
_space_group_symop_operation_xyz
x,y,z
1/2-x,-y,z
1/2+x,-y,1/2-z
-x,y,1/2-z
-x,-y,-z
1/2+x,y,-z
1/2-x,y,1/2+z
x,-y,1/2+z
loop_
_atom_site_type_symbol
_atom_site_label
_atom_site_fract_x
_atom_site_fract_y
_atom_site_fract_z
Si Si1 0.347060 0.403734 0.323820
Si Si2 0.151865 0.894451 0.956912
Si Si3 0.958101 0.151023 0.058773
Si Si4 0.282802 0.750739 0.639999
Si Si5 0.542929 0.651244 0.677197
O O1 0.332187 0.687721 0.372321
O O2 0.313982 0.347606 0.231448
O O3 0.403086 0.429606 0.284229
O O4 0.340705 0.189698 0.410809
O O5 0.095274 0.857654 0.992803
O O6 0.184450 0.858924 0.051846
O O7 0.970061 0.464348 0.083195
O O8 0.954922 0.971836 0.156567
O O9 0.000000 0.000000 0.000000
O O10 0.250000 0.500000 0.602791
O O11 0.250000 0.000000 0.676538
O O12 0.500000 0.580250 0.750000
#
# Coordination Sequence:
#
# PCOD8223208 Si02
#       5
#     8   8   8   8   8
#     4  10  23  43  63  91 132 163 206 264 316 374
#     4  10  23  43  63  92 131 164 206 265 316 373
#     4  10  21  38  60  92 124 164 204 247 316 372
#     4  12  26  42  66  97 119 169 223 258 322 375
#     4  10  21  38  60  92 124 164 204 248 314 372
#
# _framework density 21.640104999999998
#
# number of rings (size 3 to 8) (size 9 to 14) (size 15 to 20)
#    0.000    1.600    0.000    3.600    2.800    4.800 
#    3.600    0.000    0.000    0.000    0.000    0.000 
#    0.000    0.000    0.000    0.000    0.000    0.000 
#
# Total GULP energy -495870.631548 kJ/mol
# GULP energy per Si atom -12396.765789 kJ/mol
# Density = 2.159085 g / cm^3
# Si number density = 21.640105 Si / 1000 Ang^3
#
#
#
# Elastic Constant Matrix: (Units=GPa)
#
#
# Indices 1 2 3 4 5 6 
#
# 1 127.1853 29.6375 66.9926 0.0000 0.0000 0.0000
# 2 29.6375 97.6364 6.1325 0.0000 0.0000 0.0000
# 3 66.9926 6.1325 77.3184 0.0000 0.0000 0.0000
# 4 0.0000 0.0000 0.0000 24.5925 0.0000 0.0000
# 5 0.0000 0.0000 0.0000 0.0000 18.7893 0.0000
# 6 0.0000 0.0000 0.0000 0.0000 0.0000 33.7547
#
#
#
# Elastic Compliance Matrix: (Units=1/GPa)
#
#
# Indices 1 2 3 4 5 6 
#
# 1 0.015861 -0.003971 -0.013427 0.000000 0.000000 0.000000
# 2 -0.003971 0.011288 0.002545 0.000000 0.000000 0.000000
# 3 -0.013427 0.002545 0.024366 0.000000 0.000000 0.000000
# 4 0.000000 0.000000 0.000000 0.040663 0.000000 0.000000
# 5 0.000000 0.000000 0.000000 0.000000 0.053222 0.000000
# 6 0.000000 0.000000 0.000000 0.000000 0.000000 0.029625
#
#
# Mechanical properties :
#
#
# Convention : Reuss Voigt Hill
#
# Bulk Modulus (GPa) = 45.85483 56.40726 51.13105
# Shear Modulus (GPa) = 23.58496 28.71915 26.15205
#
# Velocity S-wave (km/s) = 3.30490 3.64693 3.48012
# Velocity P-wave (km/s) = 5.98322 6.62239 6.31090
#
# Compressibility (1/GPa) = 0.02180795
#
# Stress axis : x y z
#
# Youngs Moduli (GPa) = 63.04932 88.59260 41.04099
#
# Poissons Ratio (x) = 0.35181 0.55108
# Poissons Ratio (y) = 0.25038 -0.10447
# Poissons Ratio (z) = 0.84659 -0.22551
#
# Static dielectric constant tensor:
#      x y z
#    x 4.129880 0.000000 0.000000 
#    y 0.000000 4.489790 0.000000 
#    z 0.000000 0.000000 3.469370 
# 
# 
# High freq. dielectric constant tensor:
#      x y z
#    x 1.863700 0.000000 0.000000 
#    y 0.000000 1.874840 0.000000 
#    z 0.000000 0.000000 1.824090 
# 
# From -- ./inp_files/10149.got.cif
#   From: 2010.03.12/outbox.cif.g09.slc.cpg/sg54_6_cif.got.tgz:10149.got - 2010.04.16 15:00:50.
