data_PCOD8223763
_publ_section_title
;
Structure prediction by ZEFSAII (Michael W. Deem and Ramdas Pophale) SiO2 
 PCOD8223763
Probable space group: P C C A
;
_chemical_formula_sum "Si O2"
_cell_formula_units_Z 36
_cell_length_a 10.847894
_cell_length_b 4.999905
_cell_length_c 24.209306
_cell_angle_alpha 90.000000
_cell_angle_beta 90.000000
_cell_angle_gamma 90.000000
_cell_volume 1313.074978
_symmetry_space_group_name_H-M "P C C A"
_symmetry_group_IT_number 54
_symmetry_cell_setting 'orthorhombic'
loop_
_space_group_symop_operation_xyz
x,y,z
1/2-x,-y,z
1/2+x,-y,1/2-z
-x,y,1/2-z
-x,-y,-z
1/2+x,y,-z
1/2-x,y,1/2+z
x,-y,1/2+z
loop_
_atom_site_type_symbol
_atom_site_label
_atom_site_fract_x
_atom_site_fract_y
_atom_site_fract_z
Si Si1 0.367064 0.314226 0.739460
Si Si2 0.062900 0.849847 0.624280
Si Si3 0.250000 0.000000 0.826552
Si Si4 0.627199 0.841927 0.493760
Si Si5 0.589857 0.364949 0.105297
O O1 0.250000 0.500000 0.750385
O O2 0.500000 0.459313 0.750000
O O3 0.353436 0.187167 0.678359
O O4 0.362996 0.079090 0.785523
O O5 0.138825 0.746172 0.570042
O O6 0.942801 0.657055 0.628940
O O7 0.022339 0.156766 0.617053
O O8 0.210432 0.251965 0.864096
O O9 0.617071 0.604804 0.539350
O O10 0.750000 0.000000 0.510245
O O11 0.500000 0.000000 0.500000
#
# Coordination Sequence:
#
# PCOD8223763 Si02
#       5
#     8   8   4   8   8
#     4  12  28  48  76 111 156 208 260 324 386 466
#     4  11  26  47  76 112 154 195 258 321 393 450
#     4  12  26  44  80 106 156 208 266 312 388 470
#     4  10  23  46  76 111 151 197 251 317 387 460
#     4  11  24  49  76 112 151 205 255 317 384 472
#
# _framework density 27.416561000000002
#
# number of rings (size 3 to 8) (size 9 to 14) (size 15 to 20)
#    0.000    0.889    3.333    2.000    4.667    2.667 
#    0.000    6.667    0.000    0.000    0.000    0.000 
#    0.000    0.000    0.000    0.000    0.000    0.000 
#
# Total GULP energy -446275.971103 kJ/mol
# GULP energy per Si atom -12396.554753 kJ/mol
# Density = 2.735416 g / cm^3
# Si number density = 27.416561 Si / 1000 Ang^3
#
#
#
# Elastic Constant Matrix: (Units=GPa)
#
#
# Indices 1 2 3 4 5 6 
#
# 1 140.6193 7.1348 1.5062 0.0000 0.0000 0.0000
# 2 7.1348 41.0662 -12.7759 0.0000 0.0000 0.0000
# 3 1.5062 -12.7759 200.9004 0.0000 0.0000 0.0000
# 4 0.0000 0.0000 0.0000 25.9018 0.0000 0.0000
# 5 0.0000 0.0000 0.0000 0.0000 26.3099 0.0000
# 6 0.0000 0.0000 0.0000 0.0000 0.0000 28.3591
#
#
#
# Elastic Compliance Matrix: (Units=1/GPa)
#
#
# Indices 1 2 3 4 5 6 
#
# 1 0.007178 -0.001289 -0.000136 0.000000 0.000000 0.000000
# 2 -0.001289 0.025074 0.001604 0.000000 0.000000 0.000000
# 3 -0.000136 0.001604 0.005081 0.000000 0.000000 0.000000
# 4 0.000000 0.000000 0.000000 0.038607 0.000000 0.000000
# 5 0.000000 0.000000 0.000000 0.000000 0.038008 0.000000
# 6 0.000000 0.000000 0.000000 0.000000 0.000000 0.035262
#
#
# Mechanical properties :
#
#
# Convention : Reuss Voigt Hill
#
# Bulk Modulus (GPa) = 26.53162 41.59068 34.06115
# Shear Modulus (GPa) = 30.97578 41.89555 36.43566
#
# Velocity S-wave (km/s) = 3.36493 3.91335 3.64945
# Velocity P-wave (km/s) = 4.97948 5.96841 5.49623
#
# Compressibility (1/GPa) = 0.03769088
#
# Stress axis : x y z
#
# Youngs Moduli (GPa) = 139.30920 39.88194 196.82618
#
# Poissons Ratio (x) = 0.05142 0.02673
# Poissons Ratio (y) = 0.17963 -0.31575
# Poissons Ratio (z) = 0.01892 -0.06398
#
# Static dielectric constant tensor:
#      x y z
#    x 4.863700 0.000000 0.000000 
#    y 0.000000 4.422550 0.000000 
#    z 0.000000 0.000000 5.891480 
# 
# 
# High freq. dielectric constant tensor:
#      x y z
#    x 2.106560 0.000000 0.000000 
#    y 0.000000 2.068550 0.000000 
#    z 0.000000 0.000000 2.145320 
# 
# From -- ./inp_files/23866.got.cif
#   From: 2010.03.12/outbox.cif.g09.slc.cpg/sg54_12_cif.got.tgz:23866.got - 2010.04.16 15:00:50.
