data_PCOD8223880
_publ_section_title
;
Structure prediction by ZEFSAII (Michael W. Deem and Ramdas Pophale) SiO2 
 PCOD8223880
Probable space group: P C C A
;
_chemical_formula_sum "Si O2"
_cell_formula_units_Z 36
_cell_length_a 21.385013
_cell_length_b 5.049265
_cell_length_c 14.869054
_cell_angle_alpha 90.000000
_cell_angle_beta 90.000000
_cell_angle_gamma 90.000000
_cell_volume 1605.539600
_symmetry_space_group_name_H-M "P C C A"
_symmetry_group_IT_number 54
_symmetry_cell_setting 'orthorhombic'
loop_
_space_group_symop_operation_xyz
x,y,z
1/2-x,-y,z
1/2+x,-y,1/2-z
-x,y,1/2-z
-x,-y,-z
1/2+x,y,-z
1/2-x,y,1/2+z
x,-y,1/2+z
loop_
_atom_site_type_symbol
_atom_site_label
_atom_site_fract_x
_atom_site_fract_y
_atom_site_fract_z
Si Si1 0.359803 0.087530 0.221051
Si Si2 0.981145 0.748239 0.943261
Si Si3 0.750000 0.500000 0.538377
Si Si4 0.348304 0.607321 0.106843
Si Si5 0.000000 0.080622 0.250000
Si Si6 0.250000 0.000000 0.850277
O O1 0.354461 0.313102 0.145644
O O2 0.310484 0.134744 0.301111
O O3 0.331312 0.807812 0.186949
O O4 0.434446 0.084874 0.245942
O O5 0.907891 0.741399 0.937029
O O6 0.007954 0.744485 0.840744
O O7 0.000000 0.500000 0.000000
O O8 0.000000 0.000000 0.000000
O O9 0.801909 0.377934 0.474849
O O10 0.776691 0.749415 0.594282
#
# Coordination Sequence:
#
# PCOD8223880 Si02
#       6
#     8   8   4   8   4   4
#     4  11  24  45  70  99 139 186 237 289 361 434
#     4  11  25  42  70 101 141 185 231 292 356 435
#     4  12  26  42  70 102 140 180 238 300 356 430
#     4  11  24  45  68  98 137 187 232 289 361 424
#     4  10  26  44  72 104 144 186 234 300 360 434
#     4  12  26  42  70 104 136 186 236 300 356 430
#
# _framework density 22.422367999999999
#
# number of rings (size 3 to 8) (size 9 to 14) (size 15 to 20)
#    0.000    0.889    0.000    6.667    6.222    8.000 
#    0.000    0.000    0.000    0.000    0.000    0.000 
#    0.000    0.000    0.000    0.000    0.000    0.000 
#
# Total GULP energy -446017.258126 kJ/mol
# GULP energy per Si atom -12389.368281 kJ/mol
# Density = 2.237133 g / cm^3
# Si number density = 22.422368 Si / 1000 Ang^3
#
#
#
# Elastic Constant Matrix: (Units=GPa)
#
#
# Indices 1 2 3 4 5 6 
#
# 1 103.9559 30.4126 51.6690 0.0000 0.0000 0.0000
# 2 30.4126 129.3330 47.2175 0.0000 0.0000 0.0000
# 3 51.6690 47.2175 138.5086 0.0000 0.0000 0.0000
# 4 0.0000 0.0000 0.0000 42.2333 0.0000 0.0000
# 5 0.0000 0.0000 0.0000 0.0000 38.7525 0.0000
# 6 0.0000 0.0000 0.0000 0.0000 0.0000 34.4433
#
#
#
# Elastic Compliance Matrix: (Units=1/GPa)
#
#
# Indices 1 2 3 4 5 6 
#
# 1 0.012014 -0.001358 -0.004019 0.000000 0.000000 0.000000
# 2 -0.001358 0.008985 -0.002556 0.000000 0.000000 0.000000
# 3 -0.004019 -0.002556 0.009590 0.000000 0.000000 0.000000
# 4 0.000000 0.000000 0.000000 0.023678 0.000000 0.000000
# 5 0.000000 0.000000 0.000000 0.000000 0.025805 0.000000
# 6 0.000000 0.000000 0.000000 0.000000 0.000000 0.029033
#
#
# Mechanical properties :
#
#
# Convention : Reuss Voigt Hill
#
# Bulk Modulus (GPa) = 67.92062 70.04397 68.98230
# Shear Modulus (GPa) = 38.49739 39.25237 38.87488
#
# Velocity S-wave (km/s) = 4.14807 4.18854 4.16836
# Velocity P-wave (km/s) = 7.30063 7.39582 7.34838
#
# Compressibility (1/GPa) = 0.01472307
#
# Stress axis : x y z
#
# Youngs Moduli (GPa) = 83.23482 111.30222 104.27118
#
# Poissons Ratio (x) = 0.15114 0.41905
# Poissons Ratio (y) = 0.11303 0.26655
# Poissons Ratio (z) = 0.33451 0.28452
#
# Static dielectric constant tensor:
#      x y z
#    x 4.023400 0.000000 0.000000 
#    y 0.000000 3.650470 0.000000 
#    z 0.000000 0.000000 4.028420 
# 
# 
# High freq. dielectric constant tensor:
#      x y z
#    x 1.893000 0.000000 0.000000 
#    y 0.000000 1.891710 0.000000 
#    z 0.000000 0.000000 1.897850 
# 
# From -- ./inp_files/14487.got.cif
#   From: 2010.03.12/outbox.cif.g09.slc.cpg/sg54_8_cif.got.tgz:14487.got - 2010.04.16 15:00:50.
