data_PCOD8223524
_publ_section_title
;
Structure prediction by ZEFSAII (Michael W. Deem and Ramdas Pophale) SiO2 
 PCOD8223524
Probable space group: P C C A
;
_chemical_formula_sum "Si O2"
_cell_formula_units_Z 60
_cell_length_a 17.063992
_cell_length_b 8.855613
_cell_length_c 18.708598
_cell_angle_alpha 90.000000
_cell_angle_beta 90.000000
_cell_angle_gamma 90.000000
_cell_volume 2827.095707
_symmetry_space_group_name_H-M "P C C A"
_symmetry_group_IT_number 54
_symmetry_cell_setting 'orthorhombic'
loop_
_space_group_symop_operation_xyz
x,y,z
1/2-x,-y,z
1/2+x,-y,1/2-z
-x,y,1/2-z
-x,-y,-z
1/2+x,y,-z
1/2-x,y,1/2+z
x,-y,1/2+z
loop_
_atom_site_type_symbol
_atom_site_label
_atom_site_fract_x
_atom_site_fract_y
_atom_site_fract_z
Si Si1 0.588323 0.257915 0.752325
Si Si2 0.644945 0.565266 0.373709
Si Si3 0.913109 0.443422 0.521173
Si Si4 0.339114 0.826567 0.909251
Si Si5 0.701388 0.252343 0.366750
Si Si6 0.691890 0.370218 0.622326
Si Si7 0.334629 0.955229 0.762691
Si Si8 0.250000 0.000000 0.020728
O O1 0.500000 0.206211 0.750000
O O2 0.584484 0.387574 0.812683
O O3 0.628174 0.321193 0.680731
O O4 0.628883 0.101416 0.775260
O O5 0.624777 0.630835 0.450898
O O6 0.640020 0.384082 0.386606
O O7 0.723504 0.646795 0.346517
O O8 0.905628 0.300383 0.574653
O O9 0.858598 0.576994 0.553253
O O10 0.000000 0.500000 0.500000
O O11 0.250116 0.763872 0.899472
O O12 0.374792 0.900780 0.836759
O O13 0.325080 0.946711 0.973260
O O14 0.668243 0.175462 0.295818
O O15 0.716880 0.134435 0.429655
O O16 0.750000 0.500000 0.652726
O O17 0.250000 0.000000 0.789822
#
# Coordination Sequence:
#
# PCOD8223524 Si02
#       8
#     8   8   8   8   8   8   8   4
#     4  12  25  43  68  99 140 177 221 284 354 408
#     4  11  23  40  65  96 124 173 223 274 337 391
#     4  11  24  42  62  97 140 173 223 285 347 403
#     4  11  22  38  72  94 129 177 238 276 331 415
#     4  11  23  37  67  95 131 162 226 283 325 385
#     4  10  22  40  68  97 128 180 234 281 325 412
#     4  12  22  43  65  98 131 178 224 282 333 418
#     4  12  18  36  62 100 124 162 212 288 338 384
#
# _framework density 21.223193999999999
#
# number of rings (size 3 to 8) (size 9 to 14) (size 15 to 20)
#    0.000    0.800    5.333    1.600    9.333    0.000 
#    2.400    0.000    0.000    3.200    0.000    0.000 
#    0.000    0.000    0.000    0.000    0.000    0.000 
#
# Total GULP energy -743360.049781 kJ/mol
# GULP energy per Si atom -12389.334163 kJ/mol
# Density = 2.117489 g / cm^3
# Si number density = 21.223194 Si / 1000 Ang^3
#
#
#
# Elastic Constant Matrix: (Units=GPa)
#
#
# Indices 1 2 3 4 5 6 
#
# 1 80.6799 34.3800 18.8880 0.0000 0.0000 0.0000
# 2 34.3800 125.8142 51.5124 0.0000 0.0000 0.0000
# 3 18.8880 51.5124 129.0526 0.0000 0.0000 0.0000
# 4 0.0000 0.0000 0.0000 70.8817 0.0000 0.0000
# 5 0.0000 0.0000 0.0000 0.0000 16.1338 0.0000
# 6 0.0000 0.0000 0.0000 0.0000 0.0000 24.3180
#
#
#
# Elastic Compliance Matrix: (Units=1/GPa)
#
#
# Indices 1 2 3 4 5 6 
#
# 1 0.014070 -0.003588 -0.000627 0.000000 0.000000 0.000000
# 2 -0.003588 0.010416 -0.003632 0.000000 0.000000 0.000000
# 3 -0.000627 -0.003632 0.009290 0.000000 0.000000 0.000000
# 4 0.000000 0.000000 0.000000 0.014108 0.000000 0.000000
# 5 0.000000 0.000000 0.000000 0.000000 0.061982 0.000000
# 6 0.000000 0.000000 0.000000 0.000000 0.000000 0.041122
#
#
# Mechanical properties :
#
#
# Convention : Reuss Voigt Hill
#
# Bulk Modulus (GPa) = 55.30511 60.56752 57.93631
# Shear Modulus (GPa) = 28.95006 37.65110 33.30058
#
# Velocity S-wave (km/s) = 3.69735 4.21652 3.96544
# Velocity P-wave (km/s) = 6.65902 7.23227 6.95156
#
# Compressibility (1/GPa) = 0.01808151
#
# Stress axis : x y z
#
# Youngs Moduli (GPa) = 71.07078 96.00637 107.63690
#
# Poissons Ratio (x) = 0.34448 0.06750
# Poissons Ratio (y) = 0.25501 0.39099
# Poissons Ratio (z) = 0.04457 0.34874
#
# Static dielectric constant tensor:
#      x y z
#    x 3.543560 0.000000 0.000000 
#    y 0.000000 4.717930 0.000000 
#    z 0.000000 0.000000 3.925820 
# 
# 
# High freq. dielectric constant tensor:
#      x y z
#    x 1.792650 0.000000 0.000000 
#    y 0.000000 1.849090 0.000000 
#    z 0.000000 0.000000 1.845640 
# 
# From -- ./inp_files/18665.got.cif
#   From: 2010.03.12/outbox.cif.g09.slc.cpg/sg54_10_cif.got.tgz:18665.got - 2010.04.16 15:00:50.
