data_PCOD8223062
_publ_section_title
;
Structure prediction by ZEFSAII (Michael W. Deem and Ramdas Pophale) SiO2 
 PCOD8223062
Probable space group: P C C A
;
_chemical_formula_sum "Si O2"
_cell_formula_units_Z 48
_cell_length_a 9.147850
_cell_length_b 9.412707
_cell_length_c 28.118454
_cell_angle_alpha 90.000000
_cell_angle_beta 90.000000
_cell_angle_gamma 90.000000
_cell_volume 2421.168492
_symmetry_space_group_name_H-M "P C C A"
_symmetry_group_IT_number 54
_symmetry_cell_setting 'orthorhombic'
loop_
_space_group_symop_operation_xyz
x,y,z
1/2-x,-y,z
1/2+x,-y,1/2-z
-x,y,1/2-z
-x,-y,-z
1/2+x,y,-z
1/2-x,y,1/2+z
x,-y,1/2+z
loop_
_atom_site_type_symbol
_atom_site_label
_atom_site_fract_x
_atom_site_fract_y
_atom_site_fract_z
Si Si1 0.325846 0.848017 0.957997
Si Si2 0.777259 0.167332 0.646172
Si Si3 0.732575 0.345735 0.865172
Si Si4 0.496533 0.326800 0.197149
Si Si5 0.542901 0.646859 0.196125
Si Si6 0.823028 0.152546 0.951185
O O1 0.267984 0.780007 0.908689
O O2 0.502196 0.857147 0.959736
O O3 0.250000 0.000000 0.961964
O O4 0.257698 0.766940 0.004074
O O5 0.940187 0.205020 0.662833
O O6 0.680283 0.258575 0.681962
O O7 0.750000 0.000000 0.650908
O O8 0.750000 0.500000 0.889867
O O9 0.573146 0.311568 0.844824
O O10 0.785875 0.233245 0.903200
O O11 0.830117 0.348952 0.817707
O O12 0.500000 0.266057 0.250000
O O13 0.580169 0.478993 0.193921
O O14 0.500000 0.689148 0.250000
O O15 0.750000 0.000000 0.944278
#
# Coordination Sequence:
#
# PCOD8223062 Si02
#       6
#     8   8   8   8   8   8
#     4  10  22  38  61  91 117 154 198 239 296 362
#     4  11  23  37  59  92 124 148 198 249 297 347
#     4  10  22  38  59  89 120 150 200 250 295 345
#     4  10  20  41  63  84 117 162 201 242 287 362
#     4  10  22  39  63  86 116 164 207 235 292 352
#     4  11  22  39  65  86 116 159 198 241 297 359
#
# _framework density 19.825137999999999
#
# number of rings (size 3 to 8) (size 9 to 14) (size 15 to 20)
#    0.000    1.667    1.667    3.500    7.000    3.333 
#    0.000    4.167    0.000    0.000    0.000    0.000 
#    0.000    0.000    0.000    0.000    0.000    0.000 
#
# Total GULP energy -594806.147038 kJ/mol
# GULP energy per Si atom -12391.794730 kJ/mol
# Density = 1.978001 g / cm^3
# Si number density = 19.825138 Si / 1000 Ang^3
#
#
#
# Elastic Constant Matrix: (Units=GPa)
#
#
# Indices 1 2 3 4 5 6 
#
# 1 84.9041 23.2469 30.5942 0.0000 0.0000 0.0000
# 2 23.2469 58.5665 42.6724 0.0000 0.0000 0.0000
# 3 30.5942 42.6724 141.8924 0.0000 0.0000 0.0000
# 4 0.0000 0.0000 0.0000 25.2129 0.0000 0.0000
# 5 0.0000 0.0000 0.0000 0.0000 29.0108 0.0000
# 6 0.0000 0.0000 0.0000 0.0000 0.0000 25.5026
#
#
#
# Elastic Compliance Matrix: (Units=1/GPa)
#
#
# Indices 1 2 3 4 5 6 
#
# 1 0.013515 -0.004151 -0.001666 0.000000 0.000000 0.000000
# 2 -0.004151 0.023141 -0.006064 0.000000 0.000000 0.000000
# 3 -0.001666 -0.006064 0.009231 0.000000 0.000000 0.000000
# 4 0.000000 0.000000 0.000000 0.039662 0.000000 0.000000
# 5 0.000000 0.000000 0.000000 0.000000 0.034470 0.000000
# 6 0.000000 0.000000 0.000000 0.000000 0.000000 0.039212
#
#
# Mechanical properties :
#
#
# Convention : Reuss Voigt Hill
#
# Bulk Modulus (GPa) = 45.19898 53.15444 49.17671
# Shear Modulus (GPa) = 26.26519 28.53524 27.40022
#
# Velocity S-wave (km/s) = 3.64379 3.79799 3.72169
# Velocity P-wave (km/s) = 6.36799 6.78990 6.58233
#
# Compressibility (1/GPa) = 0.02212439
#
# Stress axis : x y z
#
# Youngs Moduli (GPa) = 73.99361 43.21386 108.33631
#
# Poissons Ratio (x) = 0.17937 0.18045
# Poissons Ratio (y) = 0.30713 0.65699
# Poissons Ratio (z) = 0.12325 0.26206
#
# Static dielectric constant tensor:
#      x y z
#    x 3.812660 0.000000 0.000000 
#    y 0.000000 3.481700 0.000000 
#    z 0.000000 0.000000 4.112320 
# 
# 
# High freq. dielectric constant tensor:
#      x y z
#    x 1.785360 0.000000 0.000000 
#    y 0.000000 1.742080 0.000000 
#    z 0.000000 0.000000 1.793750 
# 
# From -- ./inp_files/27706.got.cif
#   From: 2010.03.12/outbox.cif.g09.slc.cpg/sg54_14_cif.got.tgz:27706.got - 2010.04.16 15:00:50.
