data_PCOD8223213
_publ_section_title
;
Structure prediction by ZEFSAII (Michael W. Deem and Ramdas Pophale) SiO2 
 PCOD8223213
Probable space group: P C C A
;
_chemical_formula_sum "Si O2"
_cell_formula_units_Z 56
_cell_length_a 20.953149
_cell_length_b 6.127876
_cell_length_c 22.285612
_cell_angle_alpha 90.000000
_cell_angle_beta 90.000000
_cell_angle_gamma 90.000000
_cell_volume 2861.434670
_symmetry_space_group_name_H-M "P C C A"
_symmetry_group_IT_number 54
_symmetry_cell_setting 'orthorhombic'
loop_
_space_group_symop_operation_xyz
x,y,z
1/2-x,-y,z
1/2+x,-y,1/2-z
-x,y,1/2-z
-x,-y,-z
1/2+x,y,-z
1/2-x,y,1/2+z
x,-y,1/2+z
loop_
_atom_site_type_symbol
_atom_site_label
_atom_site_fract_x
_atom_site_fract_y
_atom_site_fract_z
Si Si1 0.410179 0.616215 0.679907
Si Si2 0.317100 0.107473 0.244781
Si Si3 0.429006 0.650282 0.937767
Si Si4 0.320395 0.430239 0.351857
Si Si5 0.592914 0.261474 0.724465
Si Si6 0.998841 0.981822 0.143546
Si Si7 0.950500 0.645568 0.925924
O O1 0.339638 0.706275 0.697411
O O2 0.434140 0.434635 0.727472
O O3 0.464327 0.802771 0.682994
O O4 0.405809 0.517309 0.612772
O O5 0.316265 0.212181 0.311205
O O6 0.250000 0.000000 0.226591
O O7 0.370713 0.924662 0.239279
O O8 0.358441 0.605740 0.913282
O O9 0.451389 0.867674 0.903463
O O10 0.477446 0.450171 0.926400
O O11 0.421658 0.683094 0.008600
O O12 0.250000 0.500000 0.370335
O O13 0.355634 0.625008 0.318000
O O14 0.535772 0.152084 0.687547
O O15 0.049360 0.117711 0.104481
#
# Coordination Sequence:
#
# PCOD8223213 Si02
#       7
#     8   8   8   8   8   8   8
#     4  10  25  37  57  92 125 165 202 246 309 378
#     4  11  22  39  61  87 119 165 204 251 315 372
#     4  10  21  38  62  91 117 162 210 252 310 357
#     4  11  21  38  62  90 117 154 206 256 311 367
#     4  11  22  38  59  91 125 155 196 260 309 369
#     4  11  21  39  61  91 126 163 202 249 313 371
#     4  10  21  39  60  87 126 163 203 254 299 373
#
# _framework density 19.570602999999998
#
# number of rings (size 3 to 8) (size 9 to 14) (size 15 to 20)
#    0.000    1.429    4.286    1.286    0.000    3.429 
#    0.000    0.000    6.286    0.000    0.000    0.000 
#    0.000    0.000    0.000    0.000    0.000    0.000 
#
# Total GULP energy -694351.283069 kJ/mol
# GULP energy per Si atom -12399.130055 kJ/mol
# Density = 1.952606 g / cm^3
# Si number density = 19.570603 Si / 1000 Ang^3
#
#
#
# Elastic Constant Matrix: (Units=GPa)
#
#
# Indices 1 2 3 4 5 6 
#
# 1 98.9101 45.4121 75.8556 0.0000 0.0000 0.0000
# 2 45.4121 111.2385 62.1469 0.0000 0.0000 0.0000
# 3 75.8556 62.1469 141.2066 0.0000 0.0000 0.0000
# 4 0.0000 0.0000 0.0000 21.4607 0.0000 0.0000
# 5 0.0000 0.0000 0.0000 0.0000 25.4254 0.0000
# 6 0.0000 0.0000 0.0000 0.0000 0.0000 36.7622
#
#
#
# Elastic Compliance Matrix: (Units=1/GPa)
#
#
# Indices 1 2 3 4 5 6 
#
# 1 0.017719 -0.002540 -0.008401 0.000000 0.000000 0.000000
# 2 -0.002540 0.012285 -0.004042 0.000000 0.000000 0.000000
# 3 -0.008401 -0.004042 0.013374 0.000000 0.000000 0.000000
# 4 0.000000 0.000000 0.000000 0.046597 0.000000 0.000000
# 5 0.000000 0.000000 0.000000 0.000000 0.039331 0.000000
# 6 0.000000 0.000000 0.000000 0.000000 0.000000 0.027202
#
#
# Mechanical properties :
#
#
# Convention : Reuss Voigt Hill
#
# Bulk Modulus (GPa) = 74.56273 79.79825 77.18049
# Shear Modulus (GPa) = 26.18574 27.92571 27.05573
#
# Velocity S-wave (km/s) = 3.66186 3.78156 3.72219
# Velocity P-wave (km/s) = 7.48739 7.74145 7.61548
#
# Compressibility (1/GPa) = 0.01341153
#
# Stress axis : x y z
#
# Youngs Moduli (GPa) = 56.43646 81.39975 74.77455
#
# Poissons Ratio (x) = 0.20679 0.62815
# Poissons Ratio (y) = 0.14337 0.30225
# Poissons Ratio (z) = 0.47410 0.32903
#
# Static dielectric constant tensor:
#      x y z
#    x 3.407680 0.000000 0.000000 
#    y 0.000000 3.895190 0.000000 
#    z 0.000000 0.000000 3.544880 
# 
# 
# High freq. dielectric constant tensor:
#      x y z
#    x 1.739240 0.000000 0.000000 
#    y 0.000000 1.784190 0.000000 
#    z 0.000000 0.000000 1.751790 
# 
# From -- ./inp_files/22290.got.cif
#   From: 2010.03.12/outbox.cif.g09.slc.cpg/sg54_12_cif.got.tgz:22290.got - 2010.04.16 15:00:50.
