data_PCOD8223427
_publ_section_title
;
Structure prediction by ZEFSAII (Michael W. Deem and Ramdas Pophale) SiO2 
 PCOD8223427
Probable space group: P C C A
;
_chemical_formula_sum "Si O2"
_cell_formula_units_Z 60
_cell_length_a 19.095801
_cell_length_b 6.382145
_cell_length_c 22.102893
_cell_angle_alpha 90.000000
_cell_angle_beta 90.000000
_cell_angle_gamma 90.000000
_cell_volume 2693.727552
_symmetry_space_group_name_H-M "P C C A"
_symmetry_group_IT_number 54
_symmetry_cell_setting 'orthorhombic'
loop_
_space_group_symop_operation_xyz
x,y,z
1/2-x,-y,z
1/2+x,-y,1/2-z
-x,y,1/2-z
-x,-y,-z
1/2+x,y,-z
1/2-x,y,1/2+z
x,-y,1/2+z
loop_
_atom_site_type_symbol
_atom_site_label
_atom_site_fract_x
_atom_site_fract_y
_atom_site_fract_z
Si Si1 0.630083 0.728796 0.506544
Si Si2 0.821755 0.387122 0.214884
Si Si3 0.431014 0.646676 0.713802
Si Si4 0.960113 0.956791 0.561565
Si Si5 0.662943 0.339342 0.575418
Si Si6 0.250000 0.000000 0.480641
Si Si7 0.171259 0.961526 0.696040
Si Si8 0.430613 0.706593 0.120116
O O1 0.674093 0.538317 0.532713
O O2 0.582457 0.652499 0.450556
O O3 0.587532 0.831987 0.564402
O O4 0.685266 0.904841 0.480578
O O5 0.750000 0.500000 0.236060
O O6 0.889427 0.497178 0.241801
O O7 0.831823 0.404307 0.144245
O O8 0.822269 0.145023 0.237414
O O9 0.500000 0.727327 0.750000
O O10 0.454069 0.507159 0.654701
O O11 0.379579 0.837506 0.696148
O O12 0.912104 0.752242 0.557018
O O13 0.011621 0.899424 0.618267
O O14 0.000000 0.000000 0.500000
O O15 0.725385 0.180942 0.564141
O O16 0.139670 0.789385 0.650846
O O17 0.250000 0.000000 0.672075
#
# Coordination Sequence:
#
# PCOD8223427 Si02
#       8
#     8   8   8   8   8   4   8   8
#     4  10  22  41  64  97 137 179 224 277 341 417
#     4  11  23  42  67  94 133 173 230 290 348 417
#     4  11  25  44  70 101 135 175 234 289 346 410
#     4   9  21  41  63  94 136 174 218 271 337 416
#     4  11  23  39  65  94 131 179 225 281 346 410
#     4  10  22  38  56  94 132 172 228 272 332 404
#     4  11  25  45  67  95 130 183 232 283 355 411
#     4  10  24  42  67  99 134 175 226 281 341 418
#
# _framework density 22.273968
#
# number of rings (size 3 to 8) (size 9 to 14) (size 15 to 20)
#    0.000    1.600    1.333    2.000    1.867   12.800 
#    2.400    0.000    0.000    0.000    0.000    0.000 
#    0.000    0.000    0.000    0.000    0.000    0.000 
#
# Total GULP energy -743332.462369 kJ/mol
# GULP energy per Si atom -12388.874373 kJ/mol
# Density = 2.222327 g / cm^3
# Si number density = 22.273968 Si / 1000 Ang^3
#
#
#
# Elastic Constant Matrix: (Units=GPa)
#
#
# Indices 1 2 3 4 5 6 
#
# 1 125.2038 43.1775 22.3258 0.0000 0.0000 0.0000
# 2 43.1775 111.8204 42.7892 0.0000 0.0000 0.0000
# 3 22.3258 42.7892 83.7043 0.0000 0.0000 0.0000
# 4 0.0000 0.0000 0.0000 30.3470 0.0000 0.0000
# 5 0.0000 0.0000 0.0000 0.0000 28.0874 0.0000
# 6 0.0000 0.0000 0.0000 0.0000 0.0000 48.6588
#
#
#
# Elastic Compliance Matrix: (Units=1/GPa)
#
#
# Indices 1 2 3 4 5 6 
#
# 1 0.009257 -0.003269 -0.000798 0.000000 0.000000 0.000000
# 2 -0.003269 0.012272 -0.005402 0.000000 0.000000 0.000000
# 3 -0.000798 -0.005402 0.014921 0.000000 0.000000 0.000000
# 4 0.000000 0.000000 0.000000 0.032952 0.000000 0.000000
# 5 0.000000 0.000000 0.000000 0.000000 0.035603 0.000000
# 6 0.000000 0.000000 0.000000 0.000000 0.000000 0.020551
#
#
# Mechanical properties :
#
#
# Convention : Reuss Voigt Hill
#
# Bulk Modulus (GPa) = 57.10095 59.70150 58.40122
# Shear Modulus (GPa) = 33.26006 35.58105 34.42056
#
# Velocity S-wave (km/s) = 3.86842 4.00112 3.93533
# Velocity P-wave (km/s) = 6.75606 6.94311 6.85022
#
# Compressibility (1/GPa) = 0.01751284
#
# Stress axis : x y z
#
# Youngs Moduli (GPa) = 108.03134 81.48560 67.02028
#
# Poissons Ratio (x) = 0.26637 0.05347
# Poissons Ratio (y) = 0.35315 0.36201
# Poissons Ratio (z) = 0.08619 0.44015
#
# Static dielectric constant tensor:
#      x y z
#    x 4.520700 0.000000 0.000000 
#    y 0.000000 4.323260 0.000000 
#    z 0.000000 0.000000 3.763830 
# 
# 
# High freq. dielectric constant tensor:
#      x y z
#    x 1.900530 0.000000 0.000000 
#    y 0.000000 1.880580 0.000000 
#    z 0.000000 0.000000 1.851390 
# 
# From -- ./inp_files/24774.got.cif
#   From: 2010.03.12/outbox.cif.g09.slc.cpg/sg54_13_cif.got.tgz:24774.got - 2010.04.16 15:00:50.
