data_PCOD8223554
_publ_section_title
;
Structure prediction by ZEFSAII (Michael W. Deem and Ramdas Pophale) SiO2 
 PCOD8223554
Probable space group: P C C A
;
_chemical_formula_sum "Si O2"
_cell_formula_units_Z 48
_cell_length_a 9.065031
_cell_length_b 17.359688
_cell_length_c 14.436193
_cell_angle_alpha 90.000000
_cell_angle_beta 90.000000
_cell_angle_gamma 90.000000
_cell_volume 2271.767534
_symmetry_space_group_name_H-M "P C C A"
_symmetry_group_IT_number 54
_symmetry_cell_setting 'orthorhombic'
loop_
_space_group_symop_operation_xyz
x,y,z
1/2-x,-y,z
1/2+x,-y,1/2-z
-x,y,1/2-z
-x,-y,-z
1/2+x,y,-z
1/2-x,y,1/2+z
x,-y,1/2+z
loop_
_atom_site_type_symbol
_atom_site_label
_atom_site_fract_x
_atom_site_fract_y
_atom_site_fract_z
Si Si1 0.427250 0.741693 0.474263
Si Si2 0.250000 0.500000 0.132707
Si Si3 0.208061 0.334122 0.097906
Si Si4 0.277651 0.303568 0.301243
Si Si5 0.000000 0.572440 0.250000
Si Si6 0.000000 0.822164 0.250000
Si Si7 0.507270 0.100783 0.435048
Si Si8 0.250000 0.000000 0.484552
O O1 0.582977 0.701288 0.464891
O O2 0.358337 0.709957 0.569792
O O3 0.328498 0.713797 0.387594
O O4 0.464928 0.832428 0.486808
O O5 0.217984 0.424543 0.071225
O O6 0.103370 0.516243 0.191886
O O7 0.183797 0.323502 0.208235
O O8 0.395507 0.373412 0.315435
O O9 0.363012 0.224913 0.288540
O O10 0.943617 0.873156 0.334158
O O11 0.336914 0.068682 0.429554
O O12 0.620343 0.032525 0.452645
#
# Coordination Sequence:
#
# PCOD8223554 Si02
#       8
#     8   4   8   8   4   4   8   4
#     4  12  24  43  71  96 132 174 227 278 327 397
#     4  10  24  42  60  96 136 174 226 278 342 390
#     4  11  25  42  63  99 131 175 229 276 333 396
#     4  10  22  41  65  98 128 172 233 277 321 389
#     4   9  22  40  66  88 137 182 218 286 341 390
#     4  11  20  38  68  96 133 168 218 272 325 386
#     4  11  23  42  68  96 131 175 210 274 329 396
#     4  10  24  44  64  96 134 168 216 262 338 398
#
# _framework density 21.128923
#
# number of rings (size 3 to 8) (size 9 to 14) (size 15 to 20)
#    0.000    1.333    1.667    3.500    9.333    1.333 
#    0.000    0.000    0.000    0.000    0.000    0.000 
#    0.000    0.000    0.000    0.000    0.000    0.000 
#
# Total GULP energy -594813.975849 kJ/mol
# GULP energy per Si atom -12391.957830 kJ/mol
# Density = 2.108083 g / cm^3
# Si number density = 21.128923 Si / 1000 Ang^3
#
#
#
# Elastic Constant Matrix: (Units=GPa)
#
#
# Indices 1 2 3 4 5 6 
#
# 1 108.2698 45.1065 16.9730 0.0000 0.0000 0.0000
# 2 45.1065 120.8463 23.5648 0.0000 0.0000 0.0000
# 3 16.9730 23.5648 68.1871 0.0000 0.0000 0.0000
# 4 0.0000 0.0000 0.0000 27.7600 0.0000 0.0000
# 5 0.0000 0.0000 0.0000 0.0000 33.1852 0.0000
# 6 0.0000 0.0000 0.0000 0.0000 0.0000 24.1737
#
#
#
# Elastic Compliance Matrix: (Units=1/GPa)
#
#
# Indices 1 2 3 4 5 6 
#
# 1 0.011064 -0.003852 -0.001423 0.000000 0.000000 0.000000
# 2 -0.003852 0.010214 -0.002571 0.000000 0.000000 0.000000
# 3 -0.001423 -0.002571 0.015908 0.000000 0.000000 0.000000
# 4 0.000000 0.000000 0.000000 0.036023 0.000000 0.000000
# 5 0.000000 0.000000 0.000000 0.000000 0.030134 0.000000
# 6 0.000000 0.000000 0.000000 0.000000 0.000000 0.041367
#
#
# Mechanical properties :
#
#
# Convention : Reuss Voigt Hill
#
# Bulk Modulus (GPa) = 46.52375 52.06575 49.29475
# Shear Modulus (GPa) = 29.83869 31.13438 30.48654
#
# Velocity S-wave (km/s) = 3.76203 3.84284 3.80265
# Velocity P-wave (km/s) = 6.39822 6.66223 6.53156
#
# Compressibility (1/GPa) = 0.02149440
#
# Stress axis : x y z
#
# Youngs Moduli (GPa) = 90.38208 97.90283 62.86069
#
# Poissons Ratio (x) = 0.37715 0.08943
# Poissons Ratio (y) = 0.34818 0.16162
# Poissons Ratio (z) = 0.12859 0.25171
#
# Static dielectric constant tensor:
#      x y z
#    x 4.684840 0.000000 0.000000 
#    y 0.000000 4.068480 0.000000 
#    z 0.000000 0.000000 3.682440 
# 
# 
# High freq. dielectric constant tensor:
#      x y z
#    x 1.841780 0.000000 0.000000 
#    y 0.000000 1.839970 0.000000 
#    z 0.000000 0.000000 1.809330 
# 
# From -- ./inp_files/11791.got.cif
#   From: 2010.03.12/outbox.cif.g09.slc.cpg/sg54_6_cif.got.tgz:11791.got - 2010.04.16 15:00:50.
