data_PCOD8223879
_publ_section_title
;
Structure prediction by ZEFSAII (Michael W. Deem and Ramdas Pophale) SiO2 
 PCOD8223879
Probable space group: P C C A
;
_chemical_formula_sum "Si O2"
_cell_formula_units_Z 60
_cell_length_a 8.202377
_cell_length_b 17.885195
_cell_length_c 18.903039
_cell_angle_alpha 90.000000
_cell_angle_beta 90.000000
_cell_angle_gamma 90.000000
_cell_volume 2773.096844
_symmetry_space_group_name_H-M "P C C A"
_symmetry_group_IT_number 54
_symmetry_cell_setting 'orthorhombic'
loop_
_space_group_symop_operation_xyz
x,y,z
1/2-x,-y,z
1/2+x,-y,1/2-z
-x,y,1/2-z
-x,-y,-z
1/2+x,y,-z
1/2-x,y,1/2+z
x,-y,1/2+z
loop_
_atom_site_type_symbol
_atom_site_label
_atom_site_fract_x
_atom_site_fract_y
_atom_site_fract_z
Si Si1 0.864438 0.174424 0.590780
Si Si2 0.684659 0.579603 0.593404
Si Si3 0.783319 0.294292 0.189792
Si Si4 0.250000 0.000000 0.118177
Si Si5 0.421185 0.961686 0.818155
Si Si6 0.276829 0.835318 0.560483
Si Si7 0.186792 0.417022 0.555527
Si Si8 0.154603 0.709031 0.652532
O O1 0.783942 0.220125 0.653557
O O2 0.874016 0.089401 0.616278
O O3 0.757332 0.180485 0.521036
O O4 0.046842 0.201411 0.574476
O O5 0.750000 0.500000 0.619951
O O6 0.688881 0.634324 0.659996
O O7 0.502568 0.577235 0.567093
O O8 0.788883 0.608244 0.525989
O O9 0.748402 0.285898 0.273209
O O10 0.969839 0.308259 0.170849
O O11 0.421923 0.986287 0.160306
O O12 0.268654 0.075561 0.072325
O O13 0.500000 0.918435 0.750000
O O14 0.250000 0.000000 0.795848
O O15 0.158441 0.788908 0.612194
O O16 0.250000 0.500000 0.570083
O O17 0.273249 0.357947 0.606453
#
# Coordination Sequence:
#
# PCOD8223879 Si02
#       8
#     8   8   8   4   8   8   8   8
#     4  11  26  42  69  96 133 173 225 278 336 407
#     4  11  22  40  67  96 132 171 215 269 323 393
#     4  11  25  43  65  95 129 175 221 272 331 402
#     4  10  26  44  68 100 132 176 228 284 344 410
#     4  11  25  43  69  99 136 178 221 281 344 418
#     4  11  25  45  67  96 132 173 223 282 336 402
#     4  11  22  40  67  98 132 170 215 268 324 395
#     4  11  25  43  67  93 132 175 221 272 335 397
#
# _framework density 21.636458999999999
#
# number of rings (size 3 to 8) (size 9 to 14) (size 15 to 20)
#    0.000    1.067    0.667    5.600    8.400    3.200 
#    0.000    0.000    0.000    0.000    0.000    0.000 
#    0.000    0.000    0.000    0.000    0.000    0.000 
#
# Total GULP energy -743762.002570 kJ/mol
# GULP energy per Si atom -12396.033376 kJ/mol
# Density = 2.158721 g / cm^3
# Si number density = 21.636459 Si / 1000 Ang^3
#
#
#
# Elastic Constant Matrix: (Units=GPa)
#
#
# Indices 1 2 3 4 5 6 
#
# 1 89.6571 15.5372 14.6082 0.0000 0.0000 0.0000
# 2 15.5372 98.1393 46.8403 0.0000 0.0000 0.0000
# 3 14.6082 46.8403 133.5686 0.0000 0.0000 0.0000
# 4 0.0000 0.0000 0.0000 8.5482 0.0000 0.0000
# 5 0.0000 0.0000 0.0000 0.0000 22.6470 0.0000
# 6 0.0000 0.0000 0.0000 0.0000 0.0000 33.9337
#
#
#
# Elastic Compliance Matrix: (Units=1/GPa)
#
#
# Indices 1 2 3 4 5 6 
#
# 1 0.011530 -0.001469 -0.000746 0.000000 0.000000 0.000000
# 2 -0.001469 0.012425 -0.004197 0.000000 0.000000 0.000000
# 3 -0.000746 -0.004197 0.009040 0.000000 0.000000 0.000000
# 4 0.000000 0.000000 0.000000 0.116984 0.000000 0.000000
# 5 0.000000 0.000000 0.000000 0.000000 0.044156 0.000000
# 6 0.000000 0.000000 0.000000 0.000000 0.000000 0.029469
#
#
# Mechanical properties :
#
#
# Convention : Reuss Voigt Hill
#
# Bulk Modulus (GPa) = 49.57489 52.81516 51.19503
# Shear Modulus (GPa) = 20.56332 29.31772 24.94052
#
# Velocity S-wave (km/s) = 3.08620 3.68505 3.39884
# Velocity P-wave (km/s) = 5.97176 6.52452 6.25425
#
# Compressibility (1/GPa) = 0.02017150
#
# Stress axis : x y z
#
# Youngs Moduli (GPa) = 86.73207 80.48155 110.61923
#
# Poissons Ratio (x) = 0.11826 0.08249
# Poissons Ratio (y) = 0.12745 0.46422
# Poissons Ratio (z) = 0.06467 0.33775
#
# Static dielectric constant tensor:
#      x y z
#    x 4.360160 0.000000 0.000000 
#    y 0.000000 3.741190 0.000000 
#    z 0.000000 0.000000 4.130970 
# 
# 
# High freq. dielectric constant tensor:
#      x y z
#    x 1.872000 0.000000 0.000000 
#    y 0.000000 1.841950 0.000000 
#    z 0.000000 0.000000 1.857030 
# 
# From -- ./inp_files/16827.got.cif
#   From: 2010.03.12/outbox.cif.g09.slc.cpg/sg54_9_cif.got.tgz:16827.got - 2010.04.16 15:00:50.
