data_PCOD8223721
_publ_section_title
;
Structure prediction by ZEFSAII (Michael W. Deem and Ramdas Pophale) SiO2 
 PCOD8223721
Probable space group: P C C A
;
_chemical_formula_sum "Si O2"
_cell_formula_units_Z 48
_cell_length_a 9.356753
_cell_length_b 17.057115
_cell_length_c 14.975954
_cell_angle_alpha 90.000000
_cell_angle_beta 90.000000
_cell_angle_gamma 90.000000
_cell_volume 2390.150457
_symmetry_space_group_name_H-M "P C C A"
_symmetry_group_IT_number 54
_symmetry_cell_setting 'orthorhombic'
loop_
_space_group_symop_operation_xyz
x,y,z
1/2-x,-y,z
1/2+x,-y,1/2-z
-x,y,1/2-z
-x,-y,-z
1/2+x,y,-z
1/2-x,y,1/2+z
x,-y,1/2+z
loop_
_atom_site_type_symbol
_atom_site_label
_atom_site_fract_x
_atom_site_fract_y
_atom_site_fract_z
Si Si1 0.166155 0.421691 0.648885
Si Si2 0.166450 0.578520 0.355248
Si Si3 0.526163 0.806189 0.003519
Si Si4 0.585640 0.095877 0.160982
Si Si5 0.583051 0.084981 0.660723
Si Si6 0.221699 0.697330 0.506798
O O1 0.250000 0.500000 0.622748
O O2 0.190961 0.399214 0.752104
O O3 0.229388 0.351172 0.592220
O O4 0.000610 0.435093 0.625629
O O5 0.250000 0.500000 0.381222
O O6 0.230748 0.647629 0.415599
O O7 0.506646 0.867780 0.082433
O O8 0.689303 0.777873 0.999424
O O9 0.477817 0.846853 0.912682
O O10 0.439449 0.726247 0.021961
O O11 0.500000 0.116830 0.250000
O O12 0.753469 0.110792 0.174914
O O13 0.563337 0.005616 0.134158
O O14 0.500000 0.105951 0.750000
#
# Coordination Sequence:
#
# PCOD8223721 Si02
#       6
#     8   8   8   8   8   8
#     4  10  23  43  66  89 119 165 209 253 307 367
#     4  10  23  43  65  90 122 161 208 256 304 371
#     4  12  25  42  61  94 129 167 206 257 317 374
#     4  10  23  43  67  91 125 168 211 261 312 368
#     4  10  23  43  66  94 123 165 217 259 307 373
#     4  12  25  40  63  92 128 166 204 255 316 371
#
# _framework density 20.082418000000001
#
# number of rings (size 3 to 8) (size 9 to 14) (size 15 to 20)
#    0.000    1.333    3.333    1.000    4.667    4.000 
#    0.000    0.000    0.000    0.000    0.000    0.000 
#    0.000    0.000    0.000    0.000    0.000    0.000 
#
# Total GULP energy -595440.797274 kJ/mol
# GULP energy per Si atom -12405.016610 kJ/mol
# Density = 2.003671 g / cm^3
# Si number density = 20.082418 Si / 1000 Ang^3
#
#
#
# Elastic Constant Matrix: (Units=GPa)
#
#
# Indices 1 2 3 4 5 6 
#
# 1 83.2544 47.0297 59.0074 0.0000 0.0000 0.0000
# 2 47.0297 102.1526 74.7228 0.0000 0.0000 0.0000
# 3 59.0074 74.7228 119.5263 0.0000 0.0000 0.0000
# 4 0.0000 0.0000 0.0000 99.1819 0.0000 0.0000
# 5 0.0000 0.0000 0.0000 0.0000 30.9386 0.0000
# 6 0.0000 0.0000 0.0000 0.0000 0.0000 35.0507
#
#
#
# Elastic Compliance Matrix: (Units=1/GPa)
#
#
# Indices 1 2 3 4 5 6 
#
# 1 0.019132 -0.003500 -0.007257 0.000000 0.000000 0.000000
# 2 -0.003500 0.018678 -0.009949 0.000000 0.000000 0.000000
# 3 -0.007257 -0.009949 0.018169 0.000000 0.000000 0.000000
# 4 0.000000 0.000000 0.000000 0.010082 0.000000 0.000000
# 5 0.000000 0.000000 0.000000 0.000000 0.032322 0.000000
# 6 0.000000 0.000000 0.000000 0.000000 0.000000 0.028530
#
#
# Mechanical properties :
#
#
# Convention : Reuss Voigt Hill
#
# Bulk Modulus (GPa) = 68.64800 74.05034 71.34917
# Shear Modulus (GPa) = 28.87164 41.31249 35.09207
#
# Velocity S-wave (km/s) = 3.79576 4.54050 4.18473
# Velocity P-wave (km/s) = 7.31216 8.02754 7.67819
#
# Compressibility (1/GPa) = 0.01456707
#
# Stress axis : x y z
#
# Youngs Moduli (GPa) = 52.26894 53.53910 55.03946
#
# Poissons Ratio (x) = 0.18736 0.39943
# Poissons Ratio (y) = 0.18292 0.54759
# Poissons Ratio (z) = 0.37933 0.53266
#
# Static dielectric constant tensor:
#      x y z
#    x 3.992070 0.000000 0.000000 
#    y 0.000000 3.623860 0.000000 
#    z 0.000000 0.000000 3.634600 
# 
# 
# High freq. dielectric constant tensor:
#      x y z
#    x 1.797400 0.000000 0.000000 
#    y 0.000000 1.788490 0.000000 
#    z 0.000000 0.000000 1.790320 
# 
# From -- ./inp_files/11692.got.cif
#   From: 2010.03.12/outbox.cif.g09.slc.cpg/sg54_6_cif.got.tgz:11692.got - 2010.04.16 15:00:50.
