data_PCOD8223026
_publ_section_title
;
Structure prediction by ZEFSAII (Michael W. Deem and Ramdas Pophale) SiO2 
 PCOD8223026
Probable space group: P C C A
;
_chemical_formula_sum "Si O2"
_cell_formula_units_Z 56
_cell_length_a 14.120488
_cell_length_b 12.508324
_cell_length_c 14.015268
_cell_angle_alpha 90.000000
_cell_angle_beta 90.000000
_cell_angle_gamma 90.000000
_cell_volume 2475.427635
_symmetry_space_group_name_H-M "P C C A"
_symmetry_group_IT_number 54
_symmetry_cell_setting 'orthorhombic'
loop_
_space_group_symop_operation_xyz
x,y,z
1/2-x,-y,z
1/2+x,-y,1/2-z
-x,y,1/2-z
-x,-y,-z
1/2+x,y,-z
1/2-x,y,1/2+z
x,-y,1/2+z
loop_
_atom_site_type_symbol
_atom_site_label
_atom_site_fract_x
_atom_site_fract_y
_atom_site_fract_z
Si Si1 0.605926 0.740953 0.778588
Si Si2 0.000000 0.043431 0.250000
Si Si3 0.648620 0.937974 0.892303
Si Si4 0.250000 0.500000 0.953867
Si Si5 0.599198 0.151355 0.582979
Si Si6 0.452073 0.670483 0.035123
Si Si7 0.913996 0.547562 0.402186
Si Si8 0.209993 0.278562 0.907145
O O1 0.500000 0.773208 0.750000
O O2 0.652916 0.812424 0.862878
O O3 0.614979 0.615048 0.808322
O O4 0.663332 0.772264 0.685035
O O5 0.921670 0.106301 0.187801
O O6 0.933609 0.981766 0.323998
O O7 0.750000 0.000000 0.883598
O O8 0.608789 0.940858 0.001439
O O9 0.222943 0.403993 0.884177
O O10 0.332258 0.451479 0.019454
O O11 0.514473 0.233185 0.569095
O O12 0.696115 0.214078 0.575069
O O13 0.437847 0.578613 0.117624
O O14 0.494290 0.609852 0.942666
O O15 0.353839 0.726206 0.003189
#
# Coordination Sequence:
#
# PCOD8223026 Si02
#       8
#     8   4   8   4   8   8   8   8
#     4  12  22  42  69 104 143 189 244 303 364 440
#     4  12  30  52  72 112 146 182 254 320 372 458
#     4  12  27  49  78 106 143 195 249 310 385 441
#     4  10  20  40  58  96 144 190 240 282 348 440
#     4  12  26  51  74 106 148 193 241 311 385 442
#     4  10  21  42  72 100 145 192 235 288 368 448
#     4  10  20  40  65 101 139 194 237 288 362 447
#     4  11  23  39  72 102 143 189 243 289 355 443
#
# _framework density 22.622353
#
# number of rings (size 3 to 8) (size 9 to 14) (size 15 to 20)
#    0.000    0.857    5.000    1.286    2.000    2.286 
#    9.000    0.000    0.000    0.000    0.000    0.000 
#    0.000    0.000    0.000    0.000    0.000    0.000 
#
# Total GULP energy -693862.062167 kJ/mol
# GULP energy per Si atom -12390.393967 kJ/mol
# Density = 2.257086 g / cm^3
# Si number density = 22.622353 Si / 1000 Ang^3
#
#
#
# Elastic Constant Matrix: (Units=GPa)
#
#
# Indices 1 2 3 4 5 6 
#
# 1 117.8472 48.8741 38.0771 0.0000 0.0000 0.0000
# 2 48.8741 89.1624 49.1653 0.0000 0.0000 0.0000
# 3 38.0771 49.1653 98.6569 0.0000 0.0000 0.0000
# 4 0.0000 0.0000 0.0000 44.9434 0.0000 0.0000
# 5 0.0000 0.0000 0.0000 0.0000 23.2304 0.0000
# 6 0.0000 0.0000 0.0000 0.0000 0.0000 30.9781
#
#
#
# Elastic Compliance Matrix: (Units=1/GPa)
#
#
# Indices 1 2 3 4 5 6 
#
# 1 0.011195 -0.005176 -0.001741 0.000000 0.000000 0.000000
# 2 -0.005176 0.017859 -0.006902 0.000000 0.000000 0.000000
# 3 -0.001741 -0.006902 0.014248 0.000000 0.000000 0.000000
# 4 0.000000 0.000000 0.000000 0.022250 0.000000 0.000000
# 5 0.000000 0.000000 0.000000 0.000000 0.043047 0.000000
# 6 0.000000 0.000000 0.000000 0.000000 0.000000 0.032281
#
#
# Mechanical properties :
#
#
# Convention : Reuss Voigt Hill
#
# Bulk Modulus (GPa) = 63.84713 64.21106 64.02909
# Shear Modulus (GPa) = 28.77877 31.13372 29.95625
#
# Velocity S-wave (km/s) = 3.57057 3.71379 3.64289
# Velocity P-wave (km/s) = 6.72926 6.84362 6.78668
#
# Compressibility (1/GPa) = 0.01566241
#
# Stress axis : x y z
#
# Youngs Moduli (GPa) = 89.32642 55.99491 70.18670
#
# Poissons Ratio (x) = 0.28985 0.12220
# Poissons Ratio (y) = 0.46239 0.48443
# Poissons Ratio (z) = 0.15552 0.38648
#
# Static dielectric constant tensor:
#      x y z
#    x 4.182530 0.000000 0.000000 
#    y 0.000000 4.137820 0.000000 
#    z 0.000000 0.000000 3.951150 
# 
# 
# High freq. dielectric constant tensor:
#      x y z
#    x 1.908290 0.000000 0.000000 
#    y 0.000000 1.896590 0.000000 
#    z 0.000000 0.000000 1.872850 
# 
# From -- ./inp_files/13540.got.cif
#   From: 2010.03.12/outbox.cif.g09.slc.cpg/sg54_7_cif.got.tgz:13540.got - 2010.04.16 15:00:50.
