data_PCOD8223377
_publ_section_title
;
Structure prediction by ZEFSAII (Michael W. Deem and Ramdas Pophale) SiO2 
 PCOD8223377
Probable space group: P C C A
;
_chemical_formula_sum "Si O2"
_cell_formula_units_Z 64
_cell_length_a 14.153463
_cell_length_b 9.112967
_cell_length_c 23.209601
_cell_angle_alpha 90.000000
_cell_angle_beta 90.000000
_cell_angle_gamma 90.000000
_cell_volume 2993.575294
_symmetry_space_group_name_H-M "P C C A"
_symmetry_group_IT_number 54
_symmetry_cell_setting 'orthorhombic'
loop_
_space_group_symop_operation_xyz
x,y,z
1/2-x,-y,z
1/2+x,-y,1/2-z
-x,y,1/2-z
-x,-y,-z
1/2+x,y,-z
1/2-x,y,1/2+z
x,-y,1/2+z
loop_
_atom_site_type_symbol
_atom_site_label
_atom_site_fract_x
_atom_site_fract_y
_atom_site_fract_z
Si Si1 0.745425 0.669868 0.191560
Si Si2 0.812092 0.866034 0.910266
Si Si3 0.028497 0.961338 0.140136
Si Si4 0.031220 0.249124 0.312306
Si Si5 0.906866 0.704923 0.104055
Si Si6 0.183539 0.257125 0.685675
Si Si7 0.839080 0.594793 0.985528
Si Si8 0.068939 0.500897 0.128056
O O1 0.750000 0.500000 0.205111
O O2 0.639265 0.711826 0.175290
O O3 0.806788 0.713536 0.135921
O O4 0.786239 0.751608 0.247797
O O5 0.916705 0.931557 0.903651
O O6 0.774205 0.794826 0.850709
O O7 0.803051 0.746114 0.959319
O O8 0.750000 0.000000 0.932279
O O9 0.975688 0.072978 0.183038
O O10 0.098565 0.857683 0.176326
O O11 0.953534 0.866641 0.103435
O O12 0.000000 0.303689 0.250000
O O13 0.956878 0.334630 0.354013
O O14 0.975503 0.596512 0.138833
O O15 0.900769 0.636972 0.040595
O O16 0.151729 0.421770 0.666014
O O17 0.750000 0.500000 0.006254
O O18 0.899267 0.502538 0.938760
#
# Coordination Sequence:
#
# PCOD8223377 Si02
#       8
#     8   8   8   8   8   8   8   8
#     4  12  25  43  69 101 142 174 224 284 344 407
#     4  10  21  43  66 102 131 171 224 285 334 396
#     4  10  24  45  66  93 141 176 223 271 342 414
#     4  12  25  41  69 101 138 178 227 280 340 415
#     4  11  27  47  63 100 138 184 219 277 348 407
#     4  10  23  42  72  98 132 174 223 279 345 399
#     4  12  24  43  74  97 130 176 235 285 329 406
#     4  11  23  44  71 101 129 178 229 283 337 400
#
# _framework density 21.379117999999998
#
# number of rings (size 3 to 8) (size 9 to 14) (size 15 to 20)
#    0.000    1.000    3.750    2.250    3.500    2.000 
#    2.250    0.000    0.000    0.000    0.000    0.000 
#    0.000    0.000    0.000    0.000    0.000    0.000 
#
# Total GULP energy -793661.601131 kJ/mol
# GULP energy per Si atom -12400.962518 kJ/mol
# Density = 2.133046 g / cm^3
# Si number density = 21.379118 Si / 1000 Ang^3
#
#
#
# Elastic Constant Matrix: (Units=GPa)
#
#
# Indices 1 2 3 4 5 6 
#
# 1 112.2091 40.3452 25.3850 0.0000 0.0000 0.0000
# 2 40.3452 120.0829 15.9579 0.0000 0.0000 0.0000
# 3 25.3850 15.9579 79.1813 0.0000 0.0000 0.0000
# 4 0.0000 0.0000 0.0000 13.6482 0.0000 0.0000
# 5 0.0000 0.0000 0.0000 0.0000 29.9222 0.0000
# 6 0.0000 0.0000 0.0000 0.0000 0.0000 34.1631
#
#
#
# Elastic Compliance Matrix: (Units=1/GPa)
#
#
# Indices 1 2 3 4 5 6 
#
# 1 0.010701 -0.003226 -0.002781 0.000000 0.000000 0.000000
# 2 -0.003226 0.009529 -0.000886 0.000000 0.000000 0.000000
# 3 -0.002781 -0.000886 0.013699 0.000000 0.000000 0.000000
# 4 0.000000 0.000000 0.000000 0.073270 0.000000 0.000000
# 5 0.000000 0.000000 0.000000 0.000000 0.033420 0.000000
# 6 0.000000 0.000000 0.000000 0.000000 0.000000 0.029271
#
#
# Mechanical properties :
#
#
# Convention : Reuss Voigt Hill
#
# Bulk Modulus (GPa) = 49.64228 52.76104 51.20166
# Shear Modulus (GPa) = 26.26187 30.86571 28.56379
#
# Velocity S-wave (km/s) = 3.50864 3.80377 3.65918
# Velocity P-wave (km/s) = 6.29956 6.63505 6.46948
#
# Compressibility (1/GPa) = 0.02014412
#
# Stress axis : x y z
#
# Youngs Moduli (GPa) = 93.45110 104.94135 72.99651
#
# Poissons Ratio (x) = 0.33851 0.20297
# Poissons Ratio (y) = 0.30145 0.06470
# Poissons Ratio (z) = 0.25984 0.09301
#
# Static dielectric constant tensor:
#      x y z
#    x 4.020540 0.000000 0.000000 
#    y 0.000000 4.123130 0.000000 
#    z 0.000000 0.000000 3.566860 
# 
# 
# High freq. dielectric constant tensor:
#      x y z
#    x 1.850340 0.000000 0.000000 
#    y 0.000000 1.855690 0.000000 
#    z 0.000000 0.000000 1.814800 
# 
# From -- ./inp_files/24534.got.cif
#   From: 2010.03.12/outbox.cif.g09.slc.cpg/sg54_13_cif.got.tgz:24534.got - 2010.04.16 15:00:50.
