data_PCOD8223886
_publ_section_title
;
Structure prediction by ZEFSAII (Michael W. Deem and Ramdas Pophale) SiO2 
 PCOD8223886
Probable space group: P C C A
;
_chemical_formula_sum "Si O2"
_cell_formula_units_Z 32
_cell_length_a 5.274912
_cell_length_b 8.290983
_cell_length_c 28.682163
_cell_angle_alpha 90.000000
_cell_angle_beta 90.000000
_cell_angle_gamma 90.000000
_cell_volume 1254.391617
_symmetry_space_group_name_H-M "P C C A"
_symmetry_group_IT_number 54
_symmetry_cell_setting 'orthorhombic'
loop_
_space_group_symop_operation_xyz
x,y,z
1/2-x,-y,z
1/2+x,-y,1/2-z
-x,y,1/2-z
-x,-y,-z
1/2+x,y,-z
1/2-x,y,1/2+z
x,-y,1/2+z
loop_
_atom_site_type_symbol
_atom_site_label
_atom_site_fract_x
_atom_site_fract_y
_atom_site_fract_z
Si Si1 0.335500 0.822927 0.388543
Si Si2 0.504005 0.684170 0.480348
Si Si3 0.996197 0.399785 0.841127
Si Si4 0.156686 0.175303 0.206812
O O1 0.499923 0.716428 0.424890
O O2 0.076216 0.721302 0.382427
O O3 0.490838 0.831701 0.340391
O O4 0.250000 0.000000 0.405784
O O5 0.500000 0.500000 0.500000
O O6 0.754308 0.772027 0.499454
O O7 0.250000 0.500000 0.826640
O O8 0.750000 0.500000 0.858415
O O9 0.900313 0.291549 0.797935
O O10 0.000000 0.246832 0.250000
O O11 0.250000 0.000000 0.220805
#
# Coordination Sequence:
#
# PCOD8223886 Si02
#       4
#     8   8   8   8
#     4  12  27  51  84 121 169 228 291 356 425 522
#     4  10  26  46  77 115 160 213 278 349 434 511
#     4  12  28  50  81 121 166 220 281 351 419 503
#     4  12  28  52  86 125 174 230 289 348 428 515
#
# _framework density 25.510373000000001
#
# number of rings (size 3 to 8) (size 9 to 14) (size 15 to 20)
#    0.000    0.500    5.000    0.750    7.000    3.000 
#    4.500    0.000    0.000    0.000    0.000    0.000 
#    0.000    0.000    0.000    0.000    0.000    0.000 
#
# Total GULP energy -396438.265021 kJ/mol
# GULP energy per Si atom -12388.695782 kJ/mol
# Density = 2.545231 g / cm^3
# Si number density = 25.510373 Si / 1000 Ang^3
#
#
#
# Elastic Constant Matrix: (Units=GPa)
#
#
# Indices 1 2 3 4 5 6 
#
# 1 213.2808 53.6124 55.6611 0.0000 0.0000 0.0000
# 2 53.6124 162.0818 33.6131 0.0000 0.0000 0.0000
# 3 55.6611 33.6131 147.7178 0.0000 0.0000 0.0000
# 4 0.0000 0.0000 0.0000 67.8583 0.0000 0.0000
# 5 0.0000 0.0000 0.0000 0.0000 50.7271 0.0000
# 6 0.0000 0.0000 0.0000 0.0000 0.0000 40.5681
#
#
#
# Elastic Compliance Matrix: (Units=1/GPa)
#
#
# Indices 1 2 3 4 5 6 
#
# 1 0.005511 -0.001461 -0.001744 0.000000 0.000000 0.000000
# 2 -0.001461 0.006863 -0.001011 0.000000 0.000000 0.000000
# 3 -0.001744 -0.001011 0.007657 0.000000 0.000000 0.000000
# 4 0.000000 0.000000 0.000000 0.014737 0.000000 0.000000
# 5 0.000000 0.000000 0.000000 0.000000 0.019713 0.000000
# 6 0.000000 0.000000 0.000000 0.000000 0.000000 0.024650
#
#
# Mechanical properties :
#
#
# Convention : Reuss Voigt Hill
#
# Bulk Modulus (GPa) = 86.22147 89.87263 88.04705
# Shear Modulus (GPa) = 54.68700 57.17695 55.93197
#
# Velocity S-wave (km/s) = 4.63505 4.73940 4.68751
# Velocity P-wave (km/s) = 7.90676 8.07809 7.99288
#
# Compressibility (1/GPa) = 0.01159804
#
# Stress axis : x y z
#
# Youngs Moduli (GPa) = 181.45058 145.71459 130.60078
#
# Poissons Ratio (x) = 0.21292 0.22779
# Poissons Ratio (y) = 0.26514 0.13204
# Poissons Ratio (z) = 0.31647 0.14732
#
# Static dielectric constant tensor:
#      x y z
#    x 5.824760 0.000000 0.000000 
#    y 0.000000 4.926080 0.000000 
#    z 0.000000 0.000000 4.309000 
# 
# 
# High freq. dielectric constant tensor:
#      x y z
#    x 2.048210 0.000000 0.000000 
#    y 0.000000 2.014840 0.000000 
#    z 0.000000 0.000000 2.003630 
# 
# From -- ./inp_files/26845.got.cif
#   From: 2010.03.12/outbox.cif.g09.slc.cpg/sg54_14_cif.got.tgz:26845.got - 2010.04.16 15:00:50.
