data_PCOD8223376
_publ_section_title
;
Structure prediction by ZEFSAII (Michael W. Deem and Ramdas Pophale) SiO2 
 PCOD8223376
Probable space group: P C C A
;
_chemical_formula_sum "Si O2"
_cell_formula_units_Z 32
_cell_length_a 17.928700
_cell_length_b 9.430055
_cell_length_c 9.188375
_cell_angle_alpha 90.000000
_cell_angle_beta 90.000000
_cell_angle_gamma 90.000000
_cell_volume 1553.465946
_symmetry_space_group_name_H-M "P C C A"
_symmetry_group_IT_number 54
_symmetry_cell_setting 'orthorhombic'
loop_
_space_group_symop_operation_xyz
x,y,z
1/2-x,-y,z
1/2+x,-y,1/2-z
-x,y,1/2-z
-x,-y,-z
1/2+x,y,-z
1/2-x,y,1/2+z
x,-y,1/2+z
loop_
_atom_site_type_symbol
_atom_site_label
_atom_site_fract_x
_atom_site_fract_y
_atom_site_fract_z
Si Si1 0.166989 0.384051 0.020831
Si Si2 0.310813 0.337713 0.187404
Si Si3 0.965257 0.803565 0.891530
Si Si4 0.934808 0.115989 0.857387
O O1 0.228219 0.307194 0.123946
O O2 0.152914 0.541513 0.084151
O O3 0.089497 0.300810 0.024493
O O4 0.194606 0.391053 0.854055
O O5 0.357847 0.193620 0.180273
O O6 0.000000 0.727226 0.750000
O O7 0.920985 0.947217 0.846924
O O8 0.038382 0.843042 0.982715
O O9 0.000000 0.166513 0.750000
#
# Coordination Sequence:
#
# PCOD8223376 Si02
#       4
#     8   8   8   8
#     4  11  24  42  60  91 118 163 198 250 295 357
#     4  11  24  41  63  86 125 155 205 245 301 352
#     4  10  23  39  65  89 123 155 201 242 304 350
#     4  10  21  43  61  90 121 157 193 253 293 358
#
# _framework density 20.599101000000001
#
# number of rings (size 3 to 8) (size 9 to 14) (size 15 to 20)
#    0.000    1.500    2.500    3.000    7.000    3.000 
#    0.000    2.500    0.000    0.000    0.000    0.000 
#    0.000    0.000    0.000    0.000    0.000    0.000 
#
# Total GULP energy -396748.195616 kJ/mol
# GULP energy per Si atom -12398.381113 kJ/mol
# Density = 2.055222 g / cm^3
# Si number density = 20.599101 Si / 1000 Ang^3
#
#
#
# Elastic Constant Matrix: (Units=GPa)
#
#
# Indices 1 2 3 4 5 6 
#
# 1 49.1376 21.0559 4.6143 0.0000 0.0000 0.0000
# 2 21.0559 50.5409 8.0873 0.0000 0.0000 0.0000
# 3 4.6143 8.0873 139.3976 0.0000 0.0000 0.0000
# 4 0.0000 0.0000 0.0000 27.2068 0.0000 0.0000
# 5 0.0000 0.0000 0.0000 0.0000 32.4011 0.0000
# 6 0.0000 0.0000 0.0000 0.0000 0.0000 40.7357
#
#
#
# Elastic Compliance Matrix: (Units=1/GPa)
#
#
# Indices 1 2 3 4 5 6 
#
# 1 0.024781 -0.010288 -0.000223 0.000000 0.000000 0.000000
# 2 -0.010288 0.024243 -0.001066 0.000000 0.000000 0.000000
# 3 -0.000223 -0.001066 0.007243 0.000000 0.000000 0.000000
# 4 0.000000 0.000000 0.000000 0.036755 0.000000 0.000000
# 5 0.000000 0.000000 0.000000 0.000000 0.030863 0.000000
# 6 0.000000 0.000000 0.000000 0.000000 0.000000 0.024548
#
#
# Mechanical properties :
#
#
# Convention : Reuss Voigt Hill
#
# Bulk Modulus (GPa) = 30.20114 34.06569 32.13342
# Shear Modulus (GPa) = 27.37849 33.75664 30.56756
#
# Velocity S-wave (km/s) = 3.64965 4.05253 3.85636
# Velocity P-wave (km/s) = 5.69677 6.20248 5.95499
#
# Compressibility (1/GPa) = 0.03311133
#
# Stress axis : x y z
#
# Youngs Moduli (GPa) = 40.35427 41.24962 138.06510
#
# Poissons Ratio (x) = 0.42438 0.03084
# Poissons Ratio (y) = 0.41517 0.14717
# Poissons Ratio (z) = 0.00902 0.04397
#
# Static dielectric constant tensor:
#      x y z
#    x 3.512040 0.000000 0.000000 
#    y 0.000000 3.574220 0.000000 
#    z 0.000000 0.000000 3.973540 
# 
# 
# High freq. dielectric constant tensor:
#      x y z
#    x 1.790430 0.000000 0.000000 
#    y 0.000000 1.791180 0.000000 
#    z 0.000000 0.000000 1.830140 
# 
# From -- ./inp_files/3241.got.cif
#   From: 2010.03.12/outbox.cif.g09.slc.cpg/sg54_2_cif.got.tgz:3241.got - 2010.04.16 15:00:50.
