data_PCOD8223858
_publ_section_title
;
Structure prediction by ZEFSAII (Michael W. Deem and Ramdas Pophale) SiO2 
 PCOD8223858
Probable space group: P C C A
;
_chemical_formula_sum "Si O2"
_cell_formula_units_Z 32
_cell_length_a 10.668730
_cell_length_b 13.517149
_cell_length_c 8.989560
_cell_angle_alpha 90.000000
_cell_angle_beta 90.000000
_cell_angle_gamma 90.000000
_cell_volume 1296.391757
_symmetry_space_group_name_H-M "P C C A"
_symmetry_group_IT_number 54
_symmetry_cell_setting 'orthorhombic'
loop_
_space_group_symop_operation_xyz
x,y,z
1/2-x,-y,z
1/2+x,-y,1/2-z
-x,y,1/2-z
-x,-y,-z
1/2+x,y,-z
1/2-x,y,1/2+z
x,-y,1/2+z
loop_
_atom_site_type_symbol
_atom_site_label
_atom_site_fract_x
_atom_site_fract_y
_atom_site_fract_z
Si Si1 0.750000 0.500000 0.168459
Si Si2 0.000000 0.757352 0.750000
Si Si3 0.750000 0.000000 0.614817
Si Si4 0.328142 0.362665 0.575512
Si Si5 0.000000 0.917788 0.250000
Si Si6 0.649857 0.815477 0.994626
O O1 0.679807 0.578743 0.269060
O O2 0.844574 0.560973 0.060618
O O3 0.045315 0.697659 0.602125
O O4 0.888707 0.816560 0.671232
O O5 0.879720 0.013801 0.708767
O O6 0.747456 0.093930 0.502233
O O7 0.211273 0.288543 0.553190
O O8 0.036488 0.844085 0.115071
#
# Coordination Sequence:
#
# PCOD8223858 Si02
#       6
#     4   4   4   8   4   8
#     4  10  24  48  74 102 152 188 252 306 376 438
#     4  12  25  44  75 106 146 200 241 306 379 444
#     4  12  26  50  76 116 152 204 250 314 378 458
#     4  11  24  48  70 110 146 194 245 314 363 453
#     4  12  27  46  79 112 152 204 255 310 375 454
#     4  12  26  47  74 110 153 193 251 310 376 447
#
# _framework density 24.683896000000001
#
# number of rings (size 3 to 8) (size 9 to 14) (size 15 to 20)
#    0.000    0.500    2.500    5.250    3.500    1.000 
#    0.000    0.000    0.000    0.000    0.000    0.000 
#    0.000    0.000    0.000    0.000    0.000    0.000 
#
# Total GULP energy -396475.169372 kJ/mol
# GULP energy per Si atom -12389.849043 kJ/mol
# Density = 2.462771 g / cm^3
# Si number density = 24.683896 Si / 1000 Ang^3
#
#
#
# Elastic Constant Matrix: (Units=GPa)
#
#
# Indices 1 2 3 4 5 6 
#
# 1 107.3745 35.9151 33.9804 0.0000 0.0000 0.0000
# 2 35.9151 141.4576 62.5055 0.0000 0.0000 0.0000
# 3 33.9804 62.5055 141.0725 0.0000 0.0000 0.0000
# 4 0.0000 0.0000 0.0000 40.0338 0.0000 0.0000
# 5 0.0000 0.0000 0.0000 0.0000 38.8773 0.0000
# 6 0.0000 0.0000 0.0000 0.0000 0.0000 13.2275
#
#
#
# Elastic Compliance Matrix: (Units=1/GPa)
#
#
# Indices 1 2 3 4 5 6 
#
# 1 0.010486 -0.001923 -0.001674 0.000000 0.000000 0.000000
# 2 -0.001923 0.009143 -0.003588 0.000000 0.000000 0.000000
# 3 -0.001674 -0.003588 0.009081 0.000000 0.000000 0.000000
# 4 0.000000 0.000000 0.000000 0.024979 0.000000 0.000000
# 5 0.000000 0.000000 0.000000 0.000000 0.025722 0.000000
# 6 0.000000 0.000000 0.000000 0.000000 0.000000 0.075600
#
#
# Mechanical properties :
#
#
# Convention : Reuss Voigt Hill
#
# Bulk Modulus (GPa) = 69.72803 72.74516 71.23660
# Shear Modulus (GPa) = 28.70922 35.59463 32.15192
#
# Velocity S-wave (km/s) = 3.41409 3.80151 3.61300
# Velocity P-wave (km/s) = 6.62201 6.98594 6.80641
#
# Compressibility (1/GPa) = 0.01434143
#
# Stress axis : x y z
#
# Youngs Moduli (GPa) = 95.36485 109.37640 110.11515
#
# Poissons Ratio (x) = 0.21030 0.18432
# Poissons Ratio (y) = 0.18336 0.39507
# Poissons Ratio (z) = 0.15963 0.39242
#
# Static dielectric constant tensor:
#      x y z
#    x 4.091610 0.000000 0.000000 
#    y 0.000000 4.708430 0.000000 
#    z 0.000000 0.000000 4.550590 
# 
# 
# High freq. dielectric constant tensor:
#      x y z
#    x 1.958860 0.000000 0.000000 
#    y 0.000000 2.005680 0.000000 
#    z 0.000000 0.000000 1.996560 
# 
# From -- ./inp_files/2839.got.cif
#   From: 2010.03.12/outbox.cif.g09.slc.cpg/sg54_2_cif.got.tgz:2839.got - 2010.04.16 15:00:50.
