data_PCOD8223065
_publ_section_title
;
Structure prediction by ZEFSAII (Michael W. Deem and Ramdas Pophale) SiO2 
 PCOD8223065
Probable space group: P C C A
;
_chemical_formula_sum "Si O2"
_cell_formula_units_Z 32
_cell_length_a 13.535205
_cell_length_b 5.385910
_cell_length_c 18.619597
_cell_angle_alpha 90.000000
_cell_angle_beta 90.000000
_cell_angle_gamma 90.000000
_cell_volume 1357.357374
_symmetry_space_group_name_H-M "P C C A"
_symmetry_group_IT_number 54
_symmetry_cell_setting 'orthorhombic'
loop_
_space_group_symop_operation_xyz
x,y,z
1/2-x,-y,z
1/2+x,-y,1/2-z
-x,y,1/2-z
-x,-y,-z
1/2+x,y,-z
1/2-x,y,1/2+z
x,-y,1/2+z
loop_
_atom_site_type_symbol
_atom_site_label
_atom_site_fract_x
_atom_site_fract_y
_atom_site_fract_z
Si Si1 0.550157 0.835005 0.592518
Si Si2 0.132698 0.127218 0.057287
Si Si3 0.357456 0.367026 0.117633
Si Si4 0.809025 0.746853 0.222536
O O1 0.628510 0.815649 0.527480
O O2 0.471975 0.606776 0.591700
O O3 0.608346 0.825447 0.666267
O O4 0.480644 0.083907 0.586845
O O5 0.186636 0.358707 0.099835
O O6 0.190808 0.866113 0.072554
O O7 0.357970 0.323067 0.202180
O O8 0.750000 0.500000 0.195285
O O9 0.750000 0.000000 0.234628
#
# Coordination Sequence:
#
# PCOD8223065 Si02
#       4
#     8   8   8   8
#     4   9  22  40  68  93 114 161 213 264 297 362
#     4   9  20  37  74  88 115 143 226 261 304 340
#     4  10  20  41  63  91 116 164 204 258 296 373
#     4  12  27  41  57  91 137 168 200 247 319 376
#
# _framework density 23.575220000000002
#
# number of rings (size 3 to 8) (size 9 to 14) (size 15 to 20)
#    1.500    0.500    0.000    3.000    3.500    0.000 
#    4.500    7.500    0.000    0.000    0.000    0.000 
#    0.000    0.000    0.000    0.000    0.000    0.000 
#
# Total GULP energy -396498.125546 kJ/mol
# GULP energy per Si atom -12390.566423 kJ/mol
# Density = 2.352156 g / cm^3
# Si number density = 23.575220 Si / 1000 Ang^3
#
#
#
# Elastic Constant Matrix: (Units=GPa)
#
#
# Indices 1 2 3 4 5 6 
#
# 1 64.1163 59.9537 64.4846 0.0000 0.0000 0.0000
# 2 59.9537 182.5806 100.9688 0.0000 0.0000 0.0000
# 3 64.4846 100.9688 148.5513 0.0000 0.0000 0.0000
# 4 0.0000 0.0000 0.0000 26.9177 0.0000 0.0000
# 5 0.0000 0.0000 0.0000 0.0000 27.7762 0.0000
# 6 0.0000 0.0000 0.0000 0.0000 0.0000 47.3044
#
#
#
# Elastic Compliance Matrix: (Units=1/GPa)
#
#
# Indices 1 2 3 4 5 6 
#
# 1 0.029548 -0.004181 -0.009985 0.000000 0.000000 0.000000
# 2 -0.004181 0.009367 -0.004552 0.000000 0.000000 0.000000
# 3 -0.009985 -0.004552 0.014160 0.000000 0.000000 0.000000
# 4 0.000000 0.000000 0.000000 0.037150 0.000000 0.000000
# 5 0.000000 0.000000 0.000000 0.000000 0.036002 0.000000
# 6 0.000000 0.000000 0.000000 0.000000 0.000000 0.021140
#
#
# Mechanical properties :
#
#
# Convention : Reuss Voigt Hill
#
# Bulk Modulus (GPa) = 63.93863 94.00695 78.97279
# Shear Modulus (GPa) = 26.31354 31.72239 29.01796
#
# Velocity S-wave (km/s) = 3.34451 3.67220 3.51218
# Velocity P-wave (km/s) = 6.48801 7.61196 7.07235
#
# Compressibility (1/GPa) = 0.01564000
#
# Stress axis : x y z
#
# Youngs Moduli (GPa) = 33.84268 106.75598 70.62236
#
# Poissons Ratio (x) = 0.44635 0.70515
# Poissons Ratio (y) = 0.14150 0.32146
# Poissons Ratio (z) = 0.33791 0.48593
#
# Static dielectric constant tensor:
#      x y z
#    x 4.432660 0.000000 0.000000 
#    y 0.000000 4.532510 0.000000 
#    z 0.000000 0.000000 3.939570 
# 
# 
# High freq. dielectric constant tensor:
#      x y z
#    x 1.967350 0.000000 0.000000 
#    y 0.000000 1.948110 0.000000 
#    z 0.000000 0.000000 1.922840 
# 
# From -- ./inp_files/17684.got.cif
#   From: 2010.03.12/outbox.cif.g09.slc.cpg/sg54_9_cif.got.tgz:17684.got - 2010.04.16 15:00:50.
