data_PCOD8223241
_publ_section_title
;
Structure prediction by ZEFSAII (Michael W. Deem and Ramdas Pophale) SiO2 
 PCOD8223241
Probable space group: P C C A
;
_chemical_formula_sum "Si O2"
_cell_formula_units_Z 32
_cell_length_a 36.049747
_cell_length_b 7.717017
_cell_length_c 5.177325
_cell_angle_alpha 90.000000
_cell_angle_beta 90.000000
_cell_angle_gamma 90.000000
_cell_volume 1440.313748
_symmetry_space_group_name_H-M "P C C A"
_symmetry_group_IT_number 54
_symmetry_cell_setting 'orthorhombic'
loop_
_space_group_symop_operation_xyz
x,y,z
1/2-x,-y,z
1/2+x,-y,1/2-z
-x,y,1/2-z
-x,-y,-z
1/2+x,y,-z
1/2-x,y,1/2+z
x,-y,1/2+z
loop_
_atom_site_type_symbol
_atom_site_label
_atom_site_fract_x
_atom_site_fract_y
_atom_site_fract_z
Si Si1 0.396440 0.613651 0.788145
Si Si2 0.456650 0.890773 0.746277
Si Si3 0.668521 0.111561 0.216448
Si Si4 0.791078 0.573893 0.325845
O O1 0.393268 0.534796 0.073400
O O2 0.364775 0.755764 0.740153
O O3 0.435955 0.707953 0.760252
O O4 0.500000 0.847698 0.750000
O O5 0.444837 0.989710 0.486421
O O6 0.667138 0.040122 0.926678
O O7 0.706762 0.221323 0.261819
O O8 0.750000 0.500000 0.380679
O O9 0.811815 0.532250 0.596583
#
# Coordination Sequence:
#
# PCOD8223241 Si02
#       4
#     8   8   8   8
#     4  12  24  39  62  90 122 161 202 250 302 353
#     4  10  21  39  61  87 123 163 202 249 301 353
#     4  12  24  41  64  91 120 156 203 248 296 357
#     4  10  21  41  63  86 120 156 189 239 299 355
#
# _framework density 22.217381
#
# number of rings (size 3 to 8) (size 9 to 14) (size 15 to 20)
#    0.000    1.000    0.000    7.500    0.000    1.000 
#    0.000   15.000    0.000    0.000    0.000    0.000 
#    0.000    0.000    0.000    0.000    0.000    0.000 
#
# Total GULP energy -396775.820256 kJ/mol
# GULP energy per Si atom -12399.244383 kJ/mol
# Density = 2.216681 g / cm^3
# Si number density = 22.217381 Si / 1000 Ang^3
#
#
#
# Elastic Constant Matrix: (Units=GPa)
#
#
# Indices 1 2 3 4 5 6 
#
# 1 66.3510 31.6234 -4.4389 0.0000 0.0000 0.0000
# 2 31.6234 93.6491 13.2798 0.0000 0.0000 0.0000
# 3 -4.4389 13.2798 135.4818 0.0000 0.0000 0.0000
# 4 0.0000 0.0000 0.0000 58.6404 0.0000 0.0000
# 5 0.0000 0.0000 0.0000 0.0000 9.3597 0.0000
# 6 0.0000 0.0000 0.0000 0.0000 0.0000 57.3917
#
#
#
# Elastic Compliance Matrix: (Units=1/GPa)
#
#
# Indices 1 2 3 4 5 6 
#
# 1 0.018157 -0.006303 0.001213 0.000000 0.000000 0.000000
# 2 -0.006303 0.013017 -0.001482 0.000000 0.000000 0.000000
# 3 0.001213 -0.001482 0.007566 0.000000 0.000000 0.000000
# 4 0.000000 0.000000 0.000000 0.017053 0.000000 0.000000
# 5 0.000000 0.000000 0.000000 0.000000 0.106841 0.000000
# 6 0.000000 0.000000 0.000000 0.000000 0.000000 0.017424
#
#
# Mechanical properties :
#
#
# Convention : Reuss Voigt Hill
#
# Bulk Modulus (GPa) = 39.07179 41.82340 40.44760
# Shear Modulus (GPa) = 24.78500 42.07953 33.43227
#
# Velocity S-wave (km/s) = 3.34364 4.35672 3.88336
# Velocity P-wave (km/s) = 5.70358 6.64632 6.19291
#
# Compressibility (1/GPa) = 0.02559391
#
# Stress axis : x y z
#
# Youngs Moduli (GPa) = 55.07646 76.82389 132.16842
#
# Poissons Ratio (x) = 0.48423 -0.16028
# Poissons Ratio (y) = 0.34715 0.19593
# Poissons Ratio (z) = -0.06679 0.11388
#
# Static dielectric constant tensor:
#      x y z
#    x 4.240260 0.000000 0.000000 
#    y 0.000000 4.130810 0.000000 
#    z 0.000000 0.000000 4.729680 
# 
# 
# High freq. dielectric constant tensor:
#      x y z
#    x 1.869650 0.000000 0.000000 
#    y 0.000000 1.873130 0.000000 
#    z 0.000000 0.000000 1.908570 
# 
# From -- ./inp_files/2081.got.cif
#   From: 2010.03.12/outbox.cif.g09.slc.cpg/sg54_2_cif.got.tgz:2081.got - 2010.04.16 15:00:50.
