data_PCOD8223839
_publ_section_title
;
Structure prediction by ZEFSAII (Michael W. Deem and Ramdas Pophale) SiO2 
 PCOD8223839
Probable space group: P C C A
;
_chemical_formula_sum "Si O2"
_cell_formula_units_Z 24
_cell_length_a 5.054237
_cell_length_b 15.853832
_cell_length_c 12.286529
_cell_angle_alpha 90.000000
_cell_angle_beta 90.000000
_cell_angle_gamma 90.000000
_cell_volume 984.507581
_symmetry_space_group_name_H-M "P C C A"
_symmetry_group_IT_number 54
_symmetry_cell_setting 'orthorhombic'
loop_
_space_group_symop_operation_xyz
x,y,z
1/2-x,-y,z
1/2+x,-y,1/2-z
-x,y,1/2-z
-x,-y,-z
1/2+x,y,-z
1/2-x,y,1/2+z
x,-y,1/2+z
loop_
_atom_site_type_symbol
_atom_site_label
_atom_site_fract_x
_atom_site_fract_y
_atom_site_fract_z
Si Si1 0.750000 0.000000 0.677797
Si Si2 0.247037 0.598282 0.570275
Si Si3 0.000000 0.293993 0.750000
Si Si4 0.344011 0.824893 0.929370
O O1 0.830664 0.077368 0.602040
O O2 0.500000 0.027585 0.750000
O O3 0.250000 0.500000 0.599685
O O4 0.463624 0.623031 0.478974
O O5 0.299956 0.648008 0.681373
O O6 0.185121 0.234126 0.824033
O O7 0.626269 0.803190 0.981420
#
# Coordination Sequence:
#
# PCOD8223839 Si02
#       4
#     4   8   4   8
#     4  12  24  48  76 104 142 200 244 292 364 432
#     4  10  24  46  71 103 140 183 234 290 356 428
#     4  12  26  46  76 108 146 188 244 296 364 430
#     4  12  27  46  72 107 148 192 240 302 359 426
#
# _framework density 24.377670999999999
#
# number of rings (size 3 to 8) (size 9 to 14) (size 15 to 20)
#    0.000    0.667    1.667    5.000    0.000    8.000 
#    0.000    0.000    0.000    0.000    0.000    0.000 
#    0.000    0.000    0.000    0.000    0.000    0.000 
#
# Total GULP energy -297835.588113 kJ/mol
# GULP energy per Si atom -12409.816171 kJ/mol
# Density = 2.432219 g / cm^3
# Si number density = 24.377671 Si / 1000 Ang^3
#
#
#
# Elastic Constant Matrix: (Units=GPa)
#
#
# Indices 1 2 3 4 5 6 
#
# 1 102.6730 23.5122 31.2476 0.0000 0.0000 0.0000
# 2 23.5122 142.9388 83.3899 0.0000 0.0000 0.0000
# 3 31.2476 83.3899 140.8157 0.0000 0.0000 0.0000
# 4 0.0000 0.0000 0.0000 18.4230 0.0000 0.0000
# 5 0.0000 0.0000 0.0000 0.0000 30.4427 0.0000
# 6 0.0000 0.0000 0.0000 0.0000 0.0000 19.8562
#
#
#
# Elastic Compliance Matrix: (Units=1/GPa)
#
#
# Indices 1 2 3 4 5 6 
#
# 1 0.010474 -0.000561 -0.001992 0.000000 0.000000 0.000000
# 2 -0.000561 0.010719 -0.006223 0.000000 0.000000 0.000000
# 3 -0.001992 -0.006223 0.011229 0.000000 0.000000 0.000000
# 4 0.000000 0.000000 0.000000 0.054280 0.000000 0.000000
# 5 0.000000 0.000000 0.000000 0.000000 0.032849 0.000000
# 6 0.000000 0.000000 0.000000 0.000000 0.000000 0.050362
#
#
# Mechanical properties :
#
#
# Convention : Reuss Voigt Hill
#
# Bulk Modulus (GPa) = 67.25023 73.63632 70.44328
# Shear Modulus (GPa) = 25.98461 30.29623 28.14042
#
# Velocity S-wave (km/s) = 3.26838 3.52914 3.40126
# Velocity P-wave (km/s) = 6.47223 6.84679 6.66214
#
# Compressibility (1/GPa) = 0.01486984
#
# Stress axis : x y z
#
# Youngs Moduli (GPa) = 95.47098 93.29405 89.05595
#
# Poissons Ratio (x) = 0.05230 0.17743
# Poissons Ratio (y) = 0.05352 0.55421
# Poissons Ratio (z) = 0.19021 0.58059
#
# Static dielectric constant tensor:
#      x y z
#    x 4.407780 0.000000 0.000000 
#    y 0.000000 4.760450 0.000000 
#    z 0.000000 0.000000 4.379330 
# 
# 
# High freq. dielectric constant tensor:
#      x y z
#    x 1.968920 0.000000 0.000000 
#    y 0.000000 1.999270 0.000000 
#    z 0.000000 0.000000 1.973410 
# 
# From -- ./inp_files/6197.got.cif
#   From: 2010.03.12/outbox.cif.g09.slc.cpg/sg54_4_cif.got.tgz:6197.got - 2010.04.16 15:00:50.
