data_PCOD8223754
_publ_section_title
;
Structure prediction by ZEFSAII (Michael W. Deem and Ramdas Pophale) SiO2 
 PCOD8223754
Probable space group: P C C A
;
_chemical_formula_sum "Si O2"
_cell_formula_units_Z 56
_cell_length_a 29.920551
_cell_length_b 5.327892
_cell_length_c 14.935354
_cell_angle_alpha 90.000000
_cell_angle_beta 90.000000
_cell_angle_gamma 90.000000
_cell_volume 2380.896522
_symmetry_space_group_name_H-M "P C C A"
_symmetry_group_IT_number 54
_symmetry_cell_setting 'orthorhombic'
loop_
_space_group_symop_operation_xyz
x,y,z
1/2-x,-y,z
1/2+x,-y,1/2-z
-x,y,1/2-z
-x,-y,-z
1/2+x,y,-z
1/2-x,y,1/2+z
x,-y,1/2+z
loop_
_atom_site_type_symbol
_atom_site_label
_atom_site_fract_x
_atom_site_fract_y
_atom_site_fract_z
Si Si1 0.560759 0.914204 0.920090
Si Si2 0.723861 0.752306 0.776815
Si Si3 0.578321 0.403242 0.134726
Si Si4 0.872430 0.621149 0.310561
Si Si5 0.631157 0.715621 0.472569
Si Si6 0.224693 0.249440 0.935073
Si Si7 0.972297 0.875925 0.607334
O O1 0.580837 0.734391 0.845351
O O2 0.604239 0.027982 0.967119
O O3 0.525170 0.096775 0.869590
O O4 0.531859 0.798484 0.001713
O O5 0.750000 0.500000 0.808711
O O6 0.674060 0.775185 0.818815
O O7 0.718511 0.746957 0.670682
O O8 0.750000 0.000000 0.809467
O O9 0.618591 0.426820 0.206306
O O10 0.544775 0.630052 0.159646
O O11 0.554166 0.131132 0.134928
O O12 0.602044 0.463432 0.038776
O O13 0.864248 0.376914 0.370808
O O14 0.678068 0.769120 0.516072
O O15 0.250000 0.500000 0.967985
O O16 0.250000 0.000000 0.966442
#
# Coordination Sequence:
#
# PCOD8223754 Si02
#       7
#     8   8   8   8   8   8   8
#     4  10  25  44  72 103 140 188 239 297 349 430
#     4  10  24  46  71 101 142 183 231 295 353 418
#     4  11  25  46  74 101 143 192 228 298 352 422
#     4  12  26  45  72 109 142 187 248 290 358 427
#     4  11  25  46  70 105 142 183 241 289 360 424
#     4  10  23  45  73 100 134 186 231 283 361 427
#     4  10  24  48  72  99 146 187 237 290 365 411
#
# _framework density 23.520553
#
# number of rings (size 3 to 8) (size 9 to 14) (size 15 to 20)
#    0.000    1.429    2.857    0.000    8.000    2.857 
#    0.000    0.000    0.000    0.000    0.000    0.000 
#    0.000    0.000    0.000    0.000    0.000    0.000 
#
# Total GULP energy -693947.993322 kJ/mol
# GULP energy per Si atom -12391.928452 kJ/mol
# Density = 2.346702 g / cm^3
# Si number density = 23.520553 Si / 1000 Ang^3
#
#
#
# Elastic Constant Matrix: (Units=GPa)
#
#
# Indices 1 2 3 4 5 6 
#
# 1 132.9285 40.1121 -1.0591 0.0000 0.0000 0.0000
# 2 40.1121 133.8493 5.0699 0.0000 0.0000 0.0000
# 3 -1.0591 5.0699 39.7360 0.0000 0.0000 0.0000
# 4 0.0000 0.0000 0.0000 -29.7244 0.0000 0.0000
# 5 0.0000 0.0000 0.0000 0.0000 45.4894 0.0000
# 6 0.0000 0.0000 0.0000 0.0000 0.0000 33.9589
#
#
#
# Elastic Compliance Matrix: (Units=1/GPa)
#
#
# Indices 1 2 3 4 5 6 
#
# 1 0.008282 -0.002503 0.000540 0.000000 0.000000 0.000000
# 2 -0.002503 0.008264 -0.001121 0.000000 0.000000 0.000000
# 3 0.000540 -0.001121 0.025324 0.000000 0.000000 0.000000
# 4 0.000000 0.000000 0.000000 -0.033642 0.000000 0.000000
# 5 0.000000 0.000000 0.000000 0.000000 0.021983 0.000000
# 6 0.000000 0.000000 0.000000 0.000000 0.000000 0.029447
#
#
# Mechanical properties :
#
#
# Convention : Reuss Voigt Hill
#
# Bulk Modulus (GPa) = 28.00937 43.86218 35.93578
# Shear Modulus (GPa) = 64.32919 27.43751 45.88335
#
# Velocity S-wave (km/s) = 5.23542 3.41916 4.42155
# Velocity P-wave (km/s) = 6.96279 5.85461 6.43261
#
# Compressibility (1/GPa) = 0.03570233
#
# Stress axis : x y z
#
# Youngs Moduli (GPa) = 120.73951 121.01406 39.48898
#
# Poissons Ratio (x) = 0.30284 -0.02133
# Poissons Ratio (y) = 0.30215 0.04427
# Poissons Ratio (z) = -0.06520 0.13566
#
# Static dielectric constant tensor:
#      x y z
#    x 4.476920 0.000000 0.000000 
#    y 0.000000 1.402550 0.000000 
#    z 0.000000 0.000000 4.304020 
# 
# 
# High freq. dielectric constant tensor:
#      x y z
#    x 1.949940 0.000000 0.000000 
#    y 0.000000 1.912960 0.000000 
#    z 0.000000 0.000000 1.929370 
# 
# From -- ./inp_files/15343.got.cif
#   From: 2010.03.12/outbox.cif.g09.slc.cpg/sg54_8_cif.got.tgz:15343.got - 2010.04.16 15:00:50.
