data_PCOD8223187
_publ_section_title
;
Structure prediction by ZEFSAII (Michael W. Deem and Ramdas Pophale) SiO2 
 PCOD8223187
Probable space group: P C C A
;
_chemical_formula_sum "Si O2"
_cell_formula_units_Z 60
_cell_length_a 20.168859
_cell_length_b 6.770314
_cell_length_c 21.529781
_cell_angle_alpha 90.000000
_cell_angle_beta 90.000000
_cell_angle_gamma 90.000000
_cell_volume 2939.881013
_symmetry_space_group_name_H-M "P C C A"
_symmetry_group_IT_number 54
_symmetry_cell_setting 'orthorhombic'
loop_
_space_group_symop_operation_xyz
x,y,z
1/2-x,-y,z
1/2+x,-y,1/2-z
-x,y,1/2-z
-x,-y,-z
1/2+x,y,-z
1/2-x,y,1/2+z
x,-y,1/2+z
loop_
_atom_site_type_symbol
_atom_site_label
_atom_site_fract_x
_atom_site_fract_y
_atom_site_fract_z
Si Si1 0.153110 0.677922 0.482836
Si Si2 0.515488 0.102243 0.681300
Si Si3 0.878286 0.406978 0.182386
Si Si4 0.824470 0.957046 0.903208
Si Si5 0.750000 0.500000 0.608543
Si Si6 0.110523 0.654482 0.676834
Si Si7 0.461113 0.278294 0.395343
Si Si8 0.895535 0.362324 0.928920
O O1 0.175611 0.808753 0.539532
O O2 0.214618 0.661215 0.435400
O O3 0.090803 0.779565 0.448856
O O4 0.130803 0.460210 0.507122
O O5 0.500000 0.020428 0.750000
O O6 0.588847 0.192172 0.672716
O O7 0.466662 0.287419 0.668753
O O8 0.509380 0.918751 0.635612
O O9 0.805741 0.398334 0.151540
O O10 0.871270 0.435077 0.256282
O O11 0.924004 0.581123 0.154274
O O12 0.851875 0.857384 0.840347
O O13 0.750000 0.000000 0.885783
O O14 0.867840 0.143119 0.923278
O O15 0.131815 0.483867 0.629686
O O16 0.524604 0.376595 0.428116
#
# Coordination Sequence:
#
# PCOD8223187 Si02
#       8
#     8   8   8   8   4   8   8   8
#     4  10  24  41  60  90 123 165 215 257 308 369
#     4  10  21  37  61  93 127 159 203 253 311 370
#     4  10  23  40  66  93 127 163 200 258 311 375
#     4  11  24  41  63  90 125 171 208 258 316 369
#     4  10  22  46  64  86 124 166 208 250 320 374
#     4  10  22  41  63  96 126 161 207 258 308 378
#     4  11  22  37  64  95 122 166 207 256 316 368
#     4  11  22  39  64  90 127 164 209 259 309 368
#
# _framework density 20.408989999999999
#
# number of rings (size 3 to 8) (size 9 to 14) (size 15 to 20)
#    0.000    1.600    2.667    1.200    1.867    6.400 
#    0.000    4.667    0.000    0.000    0.000    0.000 
#    0.000    0.000    0.000    0.000    0.000    0.000 
#
# Total GULP energy -743891.498665 kJ/mol
# GULP energy per Si atom -12398.191644 kJ/mol
# Density = 2.036254 g / cm^3
# Si number density = 20.408990 Si / 1000 Ang^3
#
#
#
# Elastic Constant Matrix: (Units=GPa)
#
#
# Indices 1 2 3 4 5 6 
#
# 1 133.6784 24.4951 42.3137 0.0000 0.0000 0.0000
# 2 24.4951 54.9564 12.8974 0.0000 0.0000 0.0000
# 3 42.3137 12.8974 77.6311 0.0000 0.0000 0.0000
# 4 0.0000 0.0000 0.0000 28.7258 0.0000 0.0000
# 5 0.0000 0.0000 0.0000 0.0000 31.4802 0.0000
# 6 0.0000 0.0000 0.0000 0.0000 0.0000 22.1012
#
#
#
# Elastic Compliance Matrix: (Units=1/GPa)
#
#
# Indices 1 2 3 4 5 6 
#
# 1 0.009538 -0.003154 -0.004675 0.000000 0.000000 0.000000
# 2 -0.003154 0.019978 -0.001600 0.000000 0.000000 0.000000
# 3 -0.004675 -0.001600 0.015695 0.000000 0.000000 0.000000
# 4 0.000000 0.000000 0.000000 0.034812 0.000000 0.000000
# 5 0.000000 0.000000 0.000000 0.000000 0.031766 0.000000
# 6 0.000000 0.000000 0.000000 0.000000 0.000000 0.045246
#
#
# Mechanical properties :
#
#
# Convention : Reuss Voigt Hill
#
# Bulk Modulus (GPa) = 37.94584 47.29758 42.62171
# Shear Modulus (GPa) = 27.07412 28.89875 27.98643
#
# Velocity S-wave (km/s) = 3.64617 3.76703 3.70710
# Velocity P-wave (km/s) = 6.02986 6.49199 6.26519
#
# Compressibility (1/GPa) = 0.02635335
#
# Stress axis : x y z
#
# Youngs Moduli (GPa) = 104.83921 50.05610 63.71309
#
# Poissons Ratio (x) = 0.15789 0.29786
# Poissons Ratio (y) = 0.33069 0.10192
# Poissons Ratio (z) = 0.49012 0.08008
#
# Static dielectric constant tensor:
#      x y z
#    x 3.801940 0.000000 0.000000 
#    y 0.000000 3.520030 0.000000 
#    z 0.000000 0.000000 3.763740 
# 
# 
# High freq. dielectric constant tensor:
#      x y z
#    x 1.805350 0.000000 0.000000 
#    y 0.000000 1.788010 0.000000 
#    z 0.000000 0.000000 1.803110 
# 
# From -- ./inp_files/24772.got.cif
#   From: 2010.03.12/outbox.cif.g09.slc.cpg/sg54_13_cif.got.tgz:24772.got - 2010.04.16 15:00:50.
