data_PCOD8223287
_publ_section_title
;
Structure prediction by ZEFSAII (Michael W. Deem and Ramdas Pophale) SiO2 
 PCOD8223287
Probable space group: P C C A
;
_chemical_formula_sum "Si O2"
_cell_formula_units_Z 32
_cell_length_a 13.335660
_cell_length_b 16.930240
_cell_length_c 5.320764
_cell_angle_alpha 90.000000
_cell_angle_beta 90.000000
_cell_angle_gamma 90.000000
_cell_volume 1201.300410
_symmetry_space_group_name_H-M "P C C A"
_symmetry_group_IT_number 54
_symmetry_cell_setting 'orthorhombic'
loop_
_space_group_symop_operation_xyz
x,y,z
1/2-x,-y,z
1/2+x,-y,1/2-z
-x,y,1/2-z
-x,-y,-z
1/2+x,y,-z
1/2-x,y,1/2+z
x,-y,1/2+z
loop_
_atom_site_type_symbol
_atom_site_label
_atom_site_fract_x
_atom_site_fract_y
_atom_site_fract_z
Si Si1 0.367097 0.285841 0.875786
Si Si2 0.388727 0.468002 0.954898
Si Si3 0.881650 0.044414 0.728768
Si Si4 0.855675 0.220715 0.627827
O O1 0.388425 0.378098 0.868052
O O2 0.248895 0.267591 0.885752
O O3 0.415501 0.244670 0.627204
O O4 0.417542 0.248802 0.126471
O O5 0.335319 0.517868 0.726872
O O6 0.500000 0.500000 0.000000
O O7 0.833614 0.127926 0.654077
O O8 0.000000 0.054118 0.750000
O O9 0.845901 0.985648 0.503977
#
# Coordination Sequence:
#
# PCOD8223287 Si02
#       4
#     8   8   8   8
#     4  10  21  40  61  88 131 157 214 259 319 382
#     4  10  21  40  62  88 122 161 210 262 315 376
#     4  10  21  40  64  91 127 166 210 257 310 378
#     4  10  21  40  61  93 125 168 206 261 319 376
#
# _framework density 26.637799999999999
#
# number of rings (size 3 to 8) (size 9 to 14) (size 15 to 20)
#    0.000    2.000    0.000    3.000    0.000    0.000 
#   13.500   30.000    0.000    0.000    0.000    0.000 
#    0.000    0.000    0.000    0.000    0.000    0.000 
#
# Total GULP energy -396557.187527 kJ/mol
# GULP energy per Si atom -12392.412110 kJ/mol
# Density = 2.657717 g / cm^3
# Si number density = 26.637800 Si / 1000 Ang^3
#
#
#
# Elastic Constant Matrix: (Units=GPa)
#
#
# Indices 1 2 3 4 5 6 
#
# 1 56.9967 28.4991 7.8136 0.0000 0.0000 0.0000
# 2 28.4991 208.3479 77.8703 0.0000 0.0000 0.0000
# 3 7.8136 77.8703 321.2169 0.0000 0.0000 0.0000
# 4 0.0000 0.0000 0.0000 66.5561 0.0000 0.0000
# 5 0.0000 0.0000 0.0000 0.0000 -18.5627 0.0000
# 6 0.0000 0.0000 0.0000 0.0000 0.0000 -2.5883
#
#
#
# Elastic Compliance Matrix: (Units=1/GPa)
#
#
# Indices 1 2 3 4 5 6 
#
# 1 0.018843 -0.002646 0.000183 0.000000 0.000000 0.000000
# 2 -0.002646 0.005649 -0.001305 0.000000 0.000000 0.000000
# 3 0.000183 -0.001305 0.003425 0.000000 0.000000 0.000000
# 4 0.000000 0.000000 0.000000 0.015025 0.000000 0.000000
# 5 0.000000 0.000000 0.000000 0.000000 -0.053871 0.000000
# 6 0.000000 0.000000 0.000000 0.000000 0.000000 -0.386360
#
#
# Mechanical properties :
#
#
# Convention : Reuss Voigt Hill
#
# Bulk Modulus (GPa) = 49.06453 90.54752 69.80602
# Shear Modulus (GPa) = -13.05621 40.57291 13.75835
#
# Velocity S-wave (km/s) = -2.21631 3.90697 2.27512
# Velocity P-wave (km/s) = 3.45105 7.37689 5.75883
#
# Compressibility (1/GPa) = 0.02038132
#
# Stress axis : x y z
#
# Youngs Moduli (GPa) = 53.07081 177.01016 291.96108
#
# Poissons Ratio (x) = 0.46834 -0.05345
# Poissons Ratio (y) = 0.14042 0.38106
# Poissons Ratio (z) = -0.00972 0.23103
#
# Static dielectric constant tensor:
#      x y z
#    x 4.344390 0.000000 0.000000 
#    y 0.000000 4.508690 0.000000 
#    z 0.000000 0.000000 9.972540 
# 
# 
# High freq. dielectric constant tensor:
#      x y z
#    x 2.067110 0.000000 0.000000 
#    y 0.000000 2.056590 0.000000 
#    z 0.000000 0.000000 2.116960 
# 
# From -- ./inp_files/1200.got.cif
#   From: 2010.03.12/outbox.cif.g09.slc.cpg/sg54_1_cif.got.tgz:1200.got - 2010.04.16 15:00:50.
