data_PCOD8223805
_publ_section_title
;
Structure prediction by ZEFSAII (Michael W. Deem and Ramdas Pophale) SiO2 
 PCOD8223805
Probable space group: P C C A
;
_chemical_formula_sum "Si O2"
_cell_formula_units_Z 48
_cell_length_a 9.103391
_cell_length_b 9.173242
_cell_length_c 27.494635
_cell_angle_alpha 90.000000
_cell_angle_beta 90.000000
_cell_angle_gamma 90.000000
_cell_volume 2296.011220
_symmetry_space_group_name_H-M "P C C A"
_symmetry_group_IT_number 54
_symmetry_cell_setting 'orthorhombic'
loop_
_space_group_symop_operation_xyz
x,y,z
1/2-x,-y,z
1/2+x,-y,1/2-z
-x,y,1/2-z
-x,-y,-z
1/2+x,y,-z
1/2-x,y,1/2+z
x,-y,1/2+z
loop_
_atom_site_type_symbol
_atom_site_label
_atom_site_fract_x
_atom_site_fract_y
_atom_site_fract_z
Si Si1 0.406483 0.576725 0.958313
Si Si2 0.575317 0.512087 0.147553
Si Si3 0.590010 0.975245 0.867060
Si Si4 0.585892 0.721741 0.796646
Si Si5 0.421528 0.244747 0.699081
Si Si6 0.405325 0.927708 0.958767
O O1 0.250000 0.500000 0.961132
O O2 0.476777 0.541324 0.905674
O O3 0.398998 0.751913 0.964528
O O4 0.500000 0.500000 0.000000
O O5 0.750000 0.500000 0.153003
O O6 0.497335 0.427240 0.191399
O O7 0.513540 0.673660 0.156677
O O8 0.567957 0.817247 0.844610
O O9 0.466229 0.986290 0.907605
O O10 0.750000 0.000000 0.891890
O O11 0.579894 0.081824 0.821088
O O12 0.500000 0.789162 0.750000
O O13 0.758948 0.694144 0.789157
O O14 0.500000 0.247938 0.750000
O O15 0.250000 0.000000 0.964466
O O16 0.500000 0.000000 0.000000
#
# Coordination Sequence:
#
# PCOD8223805 Si02
#       6
#     8   8   8   8   8   8
#     4  11  26  46  70 101 137 178 224 277 341 407
#     4  11  24  42  65  95 132 172 226 269 335 398
#     4  10  24  43  66  97 133 172 224 273 338 398
#     4  11  22  42  65  92 132 172 221 277 333 398
#     4  11  24  40  65  98 131 178 223 277 336 396
#     4  12  26  45  73 103 137 178 226 280 341 406
#
# _framework density 20.905823000000002
#
# number of rings (size 3 to 8) (size 9 to 14) (size 15 to 20)
#    0.000    1.000    1.667    4.000    7.000    2.667 
#    0.000    0.000    0.000    0.000    0.000    0.000 
#    0.000    0.000    0.000    0.000    0.000    0.000 
#
# Total GULP energy -595046.202782 kJ/mol
# GULP energy per Si atom -12396.795891 kJ/mol
# Density = 2.085824 g / cm^3
# Si number density = 20.905823 Si / 1000 Ang^3
#
#
#
# Elastic Constant Matrix: (Units=GPa)
#
#
# Indices 1 2 3 4 5 6 
#
# 1 152.3766 43.4214 75.4649 0.0000 0.0000 0.0000
# 2 43.4214 105.1613 39.5382 0.0000 0.0000 0.0000
# 3 75.4649 39.5382 126.8287 0.0000 0.0000 0.0000
# 4 0.0000 0.0000 0.0000 5.8386 0.0000 0.0000
# 5 0.0000 0.0000 0.0000 0.0000 39.2693 0.0000
# 6 0.0000 0.0000 0.0000 0.0000 0.0000 35.7810
#
#
#
# Elastic Compliance Matrix: (Units=1/GPa)
#
#
# Indices 1 2 3 4 5 6 
#
# 1 0.009689 -0.002076 -0.005118 0.000000 0.000000 0.000000
# 2 -0.002076 0.011217 -0.002261 0.000000 0.000000 0.000000
# 3 -0.005118 -0.002261 0.011635 0.000000 0.000000 0.000000
# 4 0.000000 0.000000 0.000000 0.171275 0.000000 0.000000
# 5 0.000000 0.000000 0.000000 0.000000 0.025465 0.000000
# 6 0.000000 0.000000 0.000000 0.000000 0.000000 0.027948
#
#
# Mechanical properties :
#
#
# Convention : Reuss Voigt Hill
#
# Bulk Modulus (GPa) = 73.37002 77.91282 75.64142
# Shear Modulus (GPa) = 17.81375 31.24058 24.52716
#
# Velocity S-wave (km/s) = 2.92223 3.86987 3.42895
# Velocity P-wave (km/s) = 6.82331 7.57082 7.20676
#
# Compressibility (1/GPa) = 0.01362954
#
# Stress axis : x y z
#
# Youngs Moduli (GPa) = 103.21009 89.15235 85.94958
#
# Poissons Ratio (x) = 0.18512 0.43987
# Poissons Ratio (y) = 0.21431 0.19435
# Poissons Ratio (z) = 0.52820 0.20160
#
# Static dielectric constant tensor:
#      x y z
#    x 4.650310 0.000000 0.000000 
#    y 0.000000 3.892700 0.000000 
#    z 0.000000 0.000000 3.888580 
# 
# 
# High freq. dielectric constant tensor:
#      x y z
#    x 1.829060 0.000000 0.000000 
#    y 0.000000 1.829330 0.000000 
#    z 0.000000 0.000000 1.831280 
# 
# From -- ./inp_files/27693.got.cif
#   From: 2010.03.12/outbox.cif.g09.slc.cpg/sg54_14_cif.got.tgz:27693.got - 2010.04.16 15:00:50.
