data_PCOD8223696
_publ_section_title
;
Structure prediction by ZEFSAII (Michael W. Deem and Ramdas Pophale) SiO2 
 PCOD8223696
Probable space group: P C C A
;
_chemical_formula_sum "Si O2"
_cell_formula_units_Z 64
_cell_length_a 12.312196
_cell_length_b 8.264279
_cell_length_c 27.317749
_cell_angle_alpha 90.000000
_cell_angle_beta 90.000000
_cell_angle_gamma 90.000000
_cell_volume 2779.619830
_symmetry_space_group_name_H-M "P C C A"
_symmetry_group_IT_number 54
_symmetry_cell_setting 'orthorhombic'
loop_
_space_group_symop_operation_xyz
x,y,z
1/2-x,-y,z
1/2+x,-y,1/2-z
-x,y,1/2-z
-x,-y,-z
1/2+x,y,-z
1/2-x,y,1/2+z
x,-y,1/2+z
loop_
_atom_site_type_symbol
_atom_site_label
_atom_site_fract_x
_atom_site_fract_y
_atom_site_fract_z
Si Si1 0.038788 0.309347 0.203708
Si Si2 0.145350 0.402156 0.761317
Si Si3 0.266737 0.820823 0.575186
Si Si4 0.127725 0.194103 0.856139
Si Si5 0.511839 0.323283 0.445058
Si Si6 0.620863 0.821734 0.131221
Si Si7 0.965667 0.697477 0.946712
Si Si8 0.740631 0.173494 0.316124
O O1 0.066112 0.480587 0.230546
O O2 0.139895 0.243942 0.174355
O O3 0.000000 0.197760 0.250000
O O4 0.936530 0.313316 0.166619
O O5 0.250000 0.500000 0.779684
O O6 0.170152 0.272356 0.720621
O O7 0.902012 0.303695 0.691622
O O8 0.361548 0.724218 0.548055
O O9 0.154289 0.724392 0.574569
O O10 0.313028 0.837094 0.630610
O O11 0.250000 0.000000 0.552524
O O12 0.048699 0.238939 0.900389
O O13 0.252537 0.224022 0.873138
O O14 0.108402 0.002496 0.846228
O O15 0.457751 0.264735 0.495651
O O16 0.499982 0.513677 0.437138
O O17 0.557536 0.809970 0.079226
O O18 0.750000 0.000000 0.291077
#
# Coordination Sequence:
#
# PCOD8223696 Si02
#       8
#     8   8   8   8   8   8   8   8
#     4  11  24  42  66 101 140 191 243 289 355 421
#     4  10  24  42  69 104 142 194 237 293 356 427
#     4  11  24  45  73 105 145 187 243 304 363 437
#     4  11  27  46  73 110 151 193 247 301 372 443
#     4  11  28  46  75 108 143 193 244 302 378 442
#     4  11  25  47  74 107 150 195 242 308 368 438
#     4  11  26  49  75 106 144 190 244 310 371 443
#     4  10  23  41  67 100 141 187 238 294 355 426
#
# _framework density 23.024733000000001
#
# number of rings (size 3 to 8) (size 9 to 14) (size 15 to 20)
#    0.000    1.250    1.250    2.625   12.250    3.000 
#    0.000    0.000    0.000    0.000    0.000    0.000 
#    0.000    0.000    0.000    0.000    0.000    0.000 
#
# Total GULP energy -792960.493518 kJ/mol
# GULP energy per Si atom -12390.007711 kJ/mol
# Density = 2.297233 g / cm^3
# Si number density = 23.024733 Si / 1000 Ang^3
#
#
#
# Elastic Constant Matrix: (Units=GPa)
#
#
# Indices 1 2 3 4 5 6 
#
# 1 123.2494 47.4163 44.1023 0.0000 0.0000 0.0000
# 2 47.4163 103.2023 43.7858 0.0000 0.0000 0.0000
# 3 44.1023 43.7858 109.0045 0.0000 0.0000 0.0000
# 4 0.0000 0.0000 0.0000 41.8686 0.0000 0.0000
# 5 0.0000 0.0000 0.0000 0.0000 36.8003 0.0000
# 6 0.0000 0.0000 0.0000 0.0000 0.0000 21.9626
#
#
#
# Elastic Compliance Matrix: (Units=1/GPa)
#
#
# Indices 1 2 3 4 5 6 
#
# 1 0.010515 -0.003648 -0.002789 0.000000 0.000000 0.000000
# 2 -0.003648 0.012946 -0.003724 0.000000 0.000000 0.000000
# 3 -0.002789 -0.003724 0.011798 0.000000 0.000000 0.000000
# 4 0.000000 0.000000 0.000000 0.023884 0.000000 0.000000
# 5 0.000000 0.000000 0.000000 0.000000 0.027174 0.000000
# 6 0.000000 0.000000 0.000000 0.000000 0.000000 0.045532
#
#
# Mechanical properties :
#
#
# Convention : Reuss Voigt Hill
#
# Bulk Modulus (GPa) = 66.94821 67.34056 67.14438
# Shear Modulus (GPa) = 31.81669 33.46977 32.64323
#
# Velocity S-wave (km/s) = 3.72135 3.81680 3.76938
# Velocity P-wave (km/s) = 6.89960 6.98101 6.94042
#
# Compressibility (1/GPa) = 0.01493692
#
# Stress axis : x y z
#
# Youngs Moduli (GPa) = 95.10227 77.24505 84.75772
#
# Poissons Ratio (x) = 0.28178 0.23639
# Poissons Ratio (y) = 0.34692 0.31566
# Poissons Ratio (z) = 0.26524 0.28768
#
# Static dielectric constant tensor:
#      x y z
#    x 3.615100 0.000000 0.000000 
#    y 0.000000 4.227990 0.000000 
#    z 0.000000 0.000000 4.224110 
# 
# 
# High freq. dielectric constant tensor:
#      x y z
#    x 1.923570 0.000000 0.000000 
#    y 0.000000 1.910530 0.000000 
#    z 0.000000 0.000000 1.912420 
# 
# From -- ./inp_files/28156.got.cif
#   From: 2010.03.12/outbox.cif.g09.slc.cpg/sg54_15_cif.got.tgz:28156.got - 2010.04.16 15:00:50.
