data_PCOD8223160
_publ_section_title
;
Structure prediction by ZEFSAII (Michael W. Deem and Ramdas Pophale) SiO2 
 PCOD8223160
Probable space group: P C C A
;
_chemical_formula_sum "Si O2"
_cell_formula_units_Z 48
_cell_length_a 8.685335
_cell_length_b 13.115485
_cell_length_c 20.594856
_cell_angle_alpha 90.000000
_cell_angle_beta 90.000000
_cell_angle_gamma 90.000000
_cell_volume 2346.009082
_symmetry_space_group_name_H-M "P C C A"
_symmetry_group_IT_number 54
_symmetry_cell_setting 'orthorhombic'
loop_
_space_group_symop_operation_xyz
x,y,z
1/2-x,-y,z
1/2+x,-y,1/2-z
-x,y,1/2-z
-x,-y,-z
1/2+x,y,-z
1/2-x,y,1/2+z
x,-y,1/2+z
loop_
_atom_site_type_symbol
_atom_site_label
_atom_site_fract_x
_atom_site_fract_y
_atom_site_fract_z
Si Si1 0.750000 0.000000 0.811762
Si Si2 0.351440 0.256251 0.862649
Si Si3 0.080670 0.464594 0.316024
Si Si4 0.983789 0.316488 0.673803
Si Si5 0.389103 0.150991 0.091964
Si Si6 0.779379 0.118502 0.533366
Si Si7 0.000000 0.864742 0.750000
O O1 0.628606 0.938777 0.855913
O O2 0.848674 0.929938 0.764260
O O3 0.415318 0.372995 0.869196
O O4 0.177678 0.262199 0.838257
O O5 0.343465 0.190434 0.928515
O O6 0.464973 0.202481 0.812665
O O7 0.250000 0.500000 0.294480
O O8 0.000453 0.564667 0.347276
O O9 0.000000 0.425925 0.250000
O O10 0.000000 0.306287 0.750000
O O11 0.113015 0.257260 0.632015
O O12 0.544680 0.139859 0.050750
O O13 0.245352 0.145777 0.042454
O O14 0.750000 0.000000 0.548107
#
# Coordination Sequence:
#
# PCOD8223160 Si02
#       7
#     4   8   8   8   8   8   4
#     4  12  28  40  60  88 128 162 200 258 312 364
#     4  10  21  36  60  88 119 159 203 251 301 366
#     4   9  17  35  58  88 119 155 196 248 316 370
#     4   9  19  37  63  88 123 157 194 256 320 366
#     4  11  24  41  61  88 119 165 209 250 304 367
#     4  11  23  40  61  83 120 167 212 249 297 362
#     4  12  26  38  60  92 124 156 204 254 306 366
#
# _framework density 20.460279
#
# number of rings (size 3 to 8) (size 9 to 14) (size 15 to 20)
#    0.000    1.667    1.667    2.500    9.333    0.000 
#    0.000    0.833    0.000    0.000    0.000    0.000 
#    0.000    0.000    0.000    0.000    0.000    0.000 
#
# Total GULP energy -594999.461224 kJ/mol
# GULP energy per Si atom -12395.822109 kJ/mol
# Density = 2.041371 g / cm^3
# Si number density = 20.460279 Si / 1000 Ang^3
#
#
#
# Elastic Constant Matrix: (Units=GPa)
#
#
# Indices 1 2 3 4 5 6 
#
# 1 51.7859 29.2475 16.8951 0.0000 0.0000 0.0000
# 2 29.2475 155.5903 53.9712 0.0000 0.0000 0.0000
# 3 16.8951 53.9712 73.5153 0.0000 0.0000 0.0000
# 4 0.0000 0.0000 0.0000 4.7346 0.0000 0.0000
# 5 0.0000 0.0000 0.0000 0.0000 29.5275 0.0000
# 6 0.0000 0.0000 0.0000 0.0000 0.0000 29.4766
#
#
#
# Elastic Compliance Matrix: (Units=1/GPa)
#
#
# Indices 1 2 3 4 5 6 
#
# 1 0.021999 -0.003195 -0.002710 0.000000 0.000000 0.000000
# 2 -0.003195 0.009087 -0.005937 0.000000 0.000000 0.000000
# 3 -0.002710 -0.005937 0.018584 0.000000 0.000000 0.000000
# 4 0.000000 0.000000 0.000000 0.211212 0.000000 0.000000
# 5 0.000000 0.000000 0.000000 0.000000 0.033867 0.000000
# 6 0.000000 0.000000 0.000000 0.000000 0.000000 0.033925
#
#
# Mechanical properties :
#
#
# Convention : Reuss Voigt Hill
#
# Bulk Modulus (GPa) = 38.48260 53.45768 45.97014
# Shear Modulus (GPa) = 13.84961 24.79957 19.32459
#
# Velocity S-wave (km/s) = 2.60456 3.48528 3.07659
# Velocity P-wave (km/s) = 5.28150 6.51003 5.92768
#
# Compressibility (1/GPa) = 0.02598577
#
# Stress axis : x y z
#
# Youngs Moduli (GPa) = 45.45657 110.04457 53.80953
#
# Poissons Ratio (x) = 0.35163 0.14582
# Poissons Ratio (y) = 0.14525 0.31947
# Poissons Ratio (z) = 0.12318 0.65334
#
# Static dielectric constant tensor:
#      x y z
#    x 3.663280 0.000000 0.000000 
#    y 0.000000 4.248290 0.000000 
#    z 0.000000 0.000000 3.691250 
# 
# 
# High freq. dielectric constant tensor:
#      x y z
#    x 1.797960 0.000000 0.000000 
#    y 0.000000 1.814080 0.000000 
#    z 0.000000 0.000000 1.778890 
# 
# From -- ./inp_files/16674.got.cif
#   From: 2010.03.12/outbox.cif.g09.slc.cpg/sg54_9_cif.got.tgz:16674.got - 2010.04.16 15:00:50.
