data_PCOD8223549
_publ_section_title
;
Structure prediction by ZEFSAII (Michael W. Deem and Ramdas Pophale) SiO2 
 PCOD8223549
Probable space group: P C C A
;
_chemical_formula_sum "Si O2"
_cell_formula_units_Z 24
_cell_length_a 16.254653
_cell_length_b 6.903132
_cell_length_c 9.086774
_cell_angle_alpha 90.000000
_cell_angle_beta 90.000000
_cell_angle_gamma 90.000000
_cell_volume 1019.608876
_symmetry_space_group_name_H-M "P C C A"
_symmetry_group_IT_number 54
_symmetry_cell_setting 'orthorhombic'
loop_
_space_group_symop_operation_xyz
x,y,z
1/2-x,-y,z
1/2+x,-y,1/2-z
-x,y,1/2-z
-x,-y,-z
1/2+x,y,-z
1/2-x,y,1/2+z
x,-y,1/2+z
loop_
_atom_site_type_symbol
_atom_site_label
_atom_site_fract_x
_atom_site_fract_y
_atom_site_fract_z
Si Si1 0.155350 0.547601 0.222960
Si Si2 0.077117 0.717197 0.944492
Si Si3 0.064457 0.854590 0.380180
O O1 0.250000 0.500000 0.236828
O O2 0.134435 0.596060 0.055155
O O3 0.094657 0.376366 0.284021
O O4 0.142301 0.738602 0.321327
O O5 0.981389 0.716221 0.998122
O O6 0.099604 0.946314 0.946396
O O7 0.000000 0.901096 0.250000
#
# Coordination Sequence:
#
# PCOD8223549 Si02
#       3
#     8   8   8
#     4  11  23  40  64  94 128 165 206 260 322 381
#     4  10  22  41  65  92 125 166 214 263 313 373
#     4   9  21  41  65  93 123 165 216 263 310 372
#
# _framework density 23.538439
#
# number of rings (size 3 to 8) (size 9 to 14) (size 15 to 20)
#    0.000    2.000    0.000    2.000    0.000   13.333 
#    0.000    6.667    0.000    0.000    0.000    0.000 
#    0.000    0.000    0.000    0.000    0.000    0.000 
#
# Total GULP energy -297476.966525 kJ/mol
# GULP energy per Si atom -12394.873605 kJ/mol
# Density = 2.348486 g / cm^3
# Si number density = 23.538439 Si / 1000 Ang^3
#
#
#
# Elastic Constant Matrix: (Units=GPa)
#
#
# Indices 1 2 3 4 5 6 
#
# 1 105.1976 69.4867 47.3321 0.0000 0.0000 0.0000
# 2 69.4867 85.5888 69.9152 0.0000 0.0000 0.0000
# 3 47.3321 69.9152 92.6847 0.0000 0.0000 0.0000
# 4 0.0000 0.0000 0.0000 52.1929 0.0000 0.0000
# 5 0.0000 0.0000 0.0000 0.0000 22.4051 0.0000
# 6 0.0000 0.0000 0.0000 0.0000 0.0000 27.7974
#
#
#
# Elastic Compliance Matrix: (Units=1/GPa)
#
#
# Indices 1 2 3 4 5 6 
#
# 1 0.021606 -0.022219 0.005727 0.000000 0.000000 0.000000
# 2 -0.022219 0.053293 -0.028853 0.000000 0.000000 0.000000
# 3 0.005727 -0.028853 0.029630 0.000000 0.000000 0.000000
# 4 0.000000 0.000000 0.000000 0.019160 0.000000 0.000000
# 5 0.000000 0.000000 0.000000 0.000000 0.044633 0.000000
# 6 0.000000 0.000000 0.000000 0.000000 0.000000 0.035975
#
#
# Mechanical properties :
#
#
# Convention : Reuss Voigt Hill
#
# Bulk Modulus (GPa) = 72.27125 72.99324 72.63225
# Shear Modulus (GPa) = 16.68902 26.92823 21.80862
#
# Velocity S-wave (km/s) = 2.66562 3.38599 3.04717
# Velocity P-wave (km/s) = 6.34383 6.80912 6.58059
#
# Compressibility (1/GPa) = 0.01383676
#
# Stress axis : x y z
#
# Youngs Moduli (GPa) = 46.28400 18.76432 33.75008
#
# Poissons Ratio (x) = 0.41693 -0.19330
# Poissons Ratio (y) = 1.02841 0.97381
# Poissons Ratio (z) = -0.26508 0.54141
#
# Static dielectric constant tensor:
#      x y z
#    x 3.693460 0.000000 0.000000 
#    y 0.000000 4.358520 0.000000 
#    z 0.000000 0.000000 4.463710 
# 
# 
# High freq. dielectric constant tensor:
#      x y z
#    x 1.890480 0.000000 0.000000 
#    y 0.000000 1.949470 0.000000 
#    z 0.000000 0.000000 1.946470 
# 
# From -- ./inp_files/3156.got.cif
#   From: 2010.03.12/outbox.cif.g09.slc.cpg/sg54_2_cif.got.tgz:3156.got - 2010.04.16 15:00:50.
