data_PCOD8223013
_publ_section_title
;
Structure prediction by ZEFSAII (Michael W. Deem and Ramdas Pophale) SiO2 
 PCOD8223013
Probable space group: P C C A
;
_chemical_formula_sum "Si O2"
_cell_formula_units_Z 64
_cell_length_a 20.128351
_cell_length_b 8.515856
_cell_length_c 18.188387
_cell_angle_alpha 90.000000
_cell_angle_beta 90.000000
_cell_angle_gamma 90.000000
_cell_volume 3117.673937
_symmetry_space_group_name_H-M "P C C A"
_symmetry_group_IT_number 54
_symmetry_cell_setting 'orthorhombic'
loop_
_space_group_symop_operation_xyz
x,y,z
1/2-x,-y,z
1/2+x,-y,1/2-z
-x,y,1/2-z
-x,-y,-z
1/2+x,y,-z
1/2-x,y,1/2+z
x,-y,1/2+z
loop_
_atom_site_type_symbol
_atom_site_label
_atom_site_fract_x
_atom_site_fract_y
_atom_site_fract_z
Si Si1 0.794238 0.354573 0.457317
Si Si2 0.084576 0.930287 0.062697
Si Si3 0.811389 0.738360 0.347298
Si Si4 0.628740 0.168517 0.060664
Si Si5 0.566866 0.134301 0.794904
Si Si6 0.821966 0.047522 0.711536
Si Si7 0.402372 0.539006 0.141600
Si Si8 0.004222 0.638991 0.441963
O O1 0.750000 0.500000 0.485577
O O2 0.760904 0.279639 0.384552
O O3 0.802407 0.232969 0.524684
O O4 0.870475 0.396799 0.434989
O O5 0.147927 0.835717 0.092115
O O6 0.030820 0.803087 0.034883
O O7 0.058246 0.042857 0.127973
O O8 0.101004 0.031375 0.991160
O O9 0.804366 0.819557 0.269898
O O10 0.844094 0.571160 0.326289
O O11 0.638070 0.105185 0.141722
O O12 0.579990 0.316798 0.072876
O O13 0.500000 0.099871 0.750000
O O14 0.576173 0.320045 0.805815
O O15 0.632369 0.082373 0.750616
O O16 0.750000 0.000000 0.681963
O O17 0.467487 0.430648 0.129929
O O18 0.000000 0.500000 0.500000
#
# Coordination Sequence:
#
# PCOD8223013 Si02
#       8
#     8   8   8   8   8   8   8   8
#     4  10  20  39  65  92 121 169 222 264 317 405
#     4  10  22  39  65  91 123 177 216 260 335 396
#     4   9  22  40  67  86 123 168 225 266 314 398
#     4  12  24  40  64  93 136 168 214 272 344 393
#     4  11  22  42  68  98 130 172 227 276 327 403
#     4  11  26  43  61  98 135 170 216 283 336 391
#     4  10  20  40  65  95 118 173 219 261 330 391
#     4  11  21  38  62  95 132 163 215 271 326 395
#
# _framework density 20.528126
#
# number of rings (size 3 to 8) (size 9 to 14) (size 15 to 20)
#    0.000    1.500    2.500    1.875    3.500    2.000 
#    0.000    5.625    0.000    0.000    0.000    0.000 
#    0.000    0.000    0.000    0.000    0.000    0.000 
#
# Total GULP energy -793285.343175 kJ/mol
# GULP energy per Si atom -12395.083487 kJ/mol
# Density = 2.048140 g / cm^3
# Si number density = 20.528126 Si / 1000 Ang^3
#
#
#
# Elastic Constant Matrix: (Units=GPa)
#
#
# Indices 1 2 3 4 5 6 
#
# 1 98.3273 46.9486 44.3760 0.0000 0.0000 0.0000
# 2 46.9486 122.3941 52.2058 0.0000 0.0000 0.0000
# 3 44.3760 52.2058 102.8527 0.0000 0.0000 0.0000
# 4 0.0000 0.0000 0.0000 28.3183 0.0000 0.0000
# 5 0.0000 0.0000 0.0000 0.0000 26.5692 0.0000
# 6 0.0000 0.0000 0.0000 0.0000 0.0000 28.5340
#
#
#
# Elastic Compliance Matrix: (Units=1/GPa)
#
#
# Indices 1 2 3 4 5 6 
#
# 1 0.013706 -0.003491 -0.004142 0.000000 0.000000 0.000000
# 2 -0.003491 0.011317 -0.004238 0.000000 0.000000 0.000000
# 3 -0.004142 -0.004238 0.013661 0.000000 0.000000 0.000000
# 4 0.000000 0.000000 0.000000 0.035313 0.000000 0.000000
# 5 0.000000 0.000000 0.000000 0.000000 0.037638 0.000000
# 6 0.000000 0.000000 0.000000 0.000000 0.000000 0.035046
#
#
# Mechanical properties :
#
#
# Convention : Reuss Voigt Hill
#
# Bulk Modulus (GPa) = 66.92280 67.84833 67.38557
# Shear Modulus (GPa) = 28.50586 28.68721 28.59653
#
# Velocity S-wave (km/s) = 3.73047 3.74232 3.73640
# Velocity P-wave (km/s) = 7.15727 7.19697 7.17715
#
# Compressibility (1/GPa) = 0.01494259
#
# Stress axis : x y z
#
# Youngs Moduli (GPa) = 72.96039 88.36157 73.20237
#
# Poissons Ratio (x) = 0.30846 0.30318
# Poissons Ratio (y) = 0.25470 0.31024
# Poissons Ratio (z) = 0.30217 0.37449
#
# Static dielectric constant tensor:
#      x y z
#    x 4.038250 0.000000 0.000000 
#    y 0.000000 4.010450 0.000000 
#    z 0.000000 0.000000 3.481130 
# 
# 
# High freq. dielectric constant tensor:
#      x y z
#    x 1.813220 0.000000 0.000000 
#    y 0.000000 1.816890 0.000000 
#    z 0.000000 0.000000 1.780260 
# 
# From -- ./inp_files/18929.got.cif
#   From: 2010.03.12/outbox.cif.g09.slc.cpg/sg54_10_cif.got.tgz:18929.got - 2010.04.16 15:00:50.
