data_PCOD8223935
_publ_section_title
;
Structure prediction by ZEFSAII (Michael W. Deem and Ramdas Pophale) SiO2 
 PCOD8223935
Probable space group: P C C A
;
_chemical_formula_sum "Si O2"
_cell_formula_units_Z 48
_cell_length_a 9.513833
_cell_length_b 8.236448
_cell_length_c 29.316836
_cell_angle_alpha 90.000000
_cell_angle_beta 90.000000
_cell_angle_gamma 90.000000
_cell_volume 2297.272862
_symmetry_space_group_name_H-M "P C C A"
_symmetry_group_IT_number 54
_symmetry_cell_setting 'orthorhombic'
loop_
_space_group_symop_operation_xyz
x,y,z
1/2-x,-y,z
1/2+x,-y,1/2-z
-x,y,1/2-z
-x,-y,-z
1/2+x,y,-z
1/2-x,y,1/2+z
x,-y,1/2+z
loop_
_atom_site_type_symbol
_atom_site_label
_atom_site_fract_x
_atom_site_fract_y
_atom_site_fract_z
Si Si1 0.114642 0.584441 0.889873
Si Si2 0.374266 0.117901 0.065496
Si Si3 0.402669 0.087592 0.205884
Si Si4 0.912150 0.945789 0.626160
Si Si5 0.863374 0.634207 0.358251
Si Si6 0.870772 0.389281 0.005444
O O1 0.250000 0.500000 0.867067
O O2 0.075855 0.753173 0.866669
O O3 0.155135 0.638944 0.941194
O O4 0.995067 0.450783 0.882832
O O5 0.312468 0.230257 0.105915
O O6 0.250000 0.000000 0.051690
O O7 0.516073 0.020619 0.080244
O O8 0.402209 0.220940 0.019955
O O9 0.500000 0.080490 0.250000
O O10 0.388041 0.276037 0.190188
O O11 0.250000 0.000000 0.213021
O O12 0.493117 0.002635 0.167383
O O13 0.750000 0.000000 0.628742
O O14 0.750000 0.500000 0.347703
O O15 0.750000 0.500000 0.982509
O O16 0.000000 0.500000 0.000000
#
# Coordination Sequence:
#
# PCOD8223935 Si02
#       6
#     8   8   8   8   8   8
#     4  11  23  40  64  90 130 170 219 270 324 380
#     4  11  23  40  63  92 128 173 224 271 325 384
#     4  11  24  45  70 100 134 168 208 261 325 389
#     4  11  24  42  67  97 129 171 219 270 322 390
#     4  11  21  41  68  94 127 167 213 260 320 389
#     4  11  25  41  61  90 129 178 218 276 328 373
#
# _framework density 20.894338999999999
#
# number of rings (size 3 to 8) (size 9 to 14) (size 15 to 20)
#    0.000    1.000    1.667    7.000    4.667    1.333 
#    0.000    5.833    0.000    0.000    0.000    0.000 
#    0.000    0.000    0.000    0.000    0.000    0.000 
#
# Total GULP energy -594889.138844 kJ/mol
# GULP energy per Si atom -12393.523726 kJ/mol
# Density = 2.084678 g / cm^3
# Si number density = 20.894339 Si / 1000 Ang^3
#
#
#
# Elastic Constant Matrix: (Units=GPa)
#
#
# Indices 1 2 3 4 5 6 
#
# 1 155.4846 68.3868 52.5140 0.0000 0.0000 0.0000
# 2 68.3868 154.0311 43.1226 0.0000 0.0000 0.0000
# 3 52.5140 43.1226 74.9055 0.0000 0.0000 0.0000
# 4 0.0000 0.0000 0.0000 34.6704 0.0000 0.0000
# 5 0.0000 0.0000 0.0000 0.0000 65.6956 0.0000
# 6 0.0000 0.0000 0.0000 0.0000 0.0000 46.9888
#
#
#
# Elastic Compliance Matrix: (Units=1/GPa)
#
#
# Indices 1 2 3 4 5 6 
#
# 1 0.009311 -0.002750 -0.004945 0.000000 0.000000 0.000000
# 2 -0.002750 0.008552 -0.002995 0.000000 0.000000 0.000000
# 3 -0.004945 -0.002995 0.018541 0.000000 0.000000 0.000000
# 4 0.000000 0.000000 0.000000 0.028843 0.000000 0.000000
# 5 0.000000 0.000000 0.000000 0.000000 0.015222 0.000000
# 6 0.000000 0.000000 0.000000 0.000000 0.000000 0.021282
#
#
# Mechanical properties :
#
#
# Convention : Reuss Voigt Hill
#
# Bulk Modulus (GPa) = 66.55902 79.16311 72.86107
# Shear Modulus (GPa) = 39.02059 44.16414 41.59236
#
# Velocity S-wave (km/s) = 4.32617 4.60248 4.46646
# Velocity P-wave (km/s) = 7.54179 8.13716 7.84512
#
# Compressibility (1/GPa) = 0.01502426
#
# Stress axis : x y z
#
# Youngs Moduli (GPa) = 107.40132 116.93805 53.93398
#
# Poissons Ratio (x) = 0.32152 0.26669
# Poissons Ratio (y) = 0.29530 0.16156
# Poissons Ratio (z) = 0.53107 0.35028
#
# Static dielectric constant tensor:
#      x y z
#    x 3.933160 0.000000 0.000000 
#    y 0.000000 4.088870 0.000000 
#    z 0.000000 0.000000 3.537170 
# 
# 
# High freq. dielectric constant tensor:
#      x y z
#    x 1.835000 0.000000 0.000000 
#    y 0.000000 1.838290 0.000000 
#    z 0.000000 0.000000 1.795360 
# 
# From -- ./inp_files/27741.got.cif
#   From: 2010.03.12/outbox.cif.g09.slc.cpg/sg54_14_cif.got.tgz:27741.got - 2010.04.16 15:00:50.
