data_PCOD8223134
_publ_section_title
;
Structure prediction by ZEFSAII (Michael W. Deem and Ramdas Pophale) SiO2 
 PCOD8223134
Probable space group: P C C A
;
_chemical_formula_sum "Si O2"
_cell_formula_units_Z 64
_cell_length_a 15.996428
_cell_length_b 37.992050
_cell_length_c 5.177457
_cell_angle_alpha 90.000000
_cell_angle_beta 90.000000
_cell_angle_gamma 90.000000
_cell_volume 3146.532663
_symmetry_space_group_name_H-M "P C C A"
_symmetry_group_IT_number 54
_symmetry_cell_setting 'orthorhombic'
loop_
_space_group_symop_operation_xyz
x,y,z
1/2-x,-y,z
1/2+x,-y,1/2-z
-x,y,1/2-z
-x,-y,-z
1/2+x,y,-z
1/2-x,y,1/2+z
x,-y,1/2+z
loop_
_atom_site_type_symbol
_atom_site_label
_atom_site_fract_x
_atom_site_fract_y
_atom_site_fract_z
Si Si1 0.802123 0.340874 0.867944
Si Si2 0.401233 0.725885 0.741925
Si Si3 0.303436 0.166769 0.672986
Si Si4 0.905007 0.514968 0.472225
Si Si5 0.401244 0.980327 0.246807
Si Si6 0.598719 0.765091 0.256742
Si Si7 0.695175 0.420749 0.350158
Si Si8 0.196652 0.087797 0.176500
O O1 0.729087 0.334295 0.659084
O O2 0.876992 0.314604 0.800294
O O3 0.836781 0.380590 0.851290
O O4 0.500000 0.727959 0.750000
O O5 0.364006 0.749256 0.507801
O O6 0.364184 0.741907 0.006994
O O7 0.267460 0.172812 0.387493
O O8 0.377856 0.194148 0.715071
O O9 0.340357 0.127294 0.701007
O O10 0.860322 0.492398 0.245324
O O11 0.889093 0.555784 0.395782
O O12 0.000000 0.500000 0.500000
O O13 0.500000 0.982725 0.250000
O O14 0.377524 0.939515 0.224861
O O15 0.363882 0.997466 0.507079
O O16 0.500000 0.762532 0.250000
O O17 0.762701 0.428672 0.574073
O O18 0.267958 0.081773 0.390111
#
# Coordination Sequence:
#
# PCOD8223134 Si02
#       8
#     8   8   8   8   8   8   8   8
#     4  10  21  37  58  83 112 143 184 225 268 323
#     4  10  21  37  55  82 112 144 182 223 270 320
#     4  10  21  36  54  80 110 140 181 225 273 323
#     4  10  21  37  56  81 114 141 182 227 265 319
#     4  10  21  36  54  78 106 138 180 226 271 324
#     4  10  21  36  56  79 112 144 183 224 266 325
#     4  10  21  37  58  83 112 145 182 225 272 320
#     4  10  21  36  54  78 108 140 177 225 272 329
#
# _framework density 20.339846999999999
#
# number of rings (size 3 to 8) (size 9 to 14) (size 15 to 20)
#    0.000    2.000    0.000    3.000    0.000    6.500 
#    2.250    0.000    5.500    9.000    0.000    0.000 
#    0.000    0.000    0.000    0.000    0.000    0.000 
#
# Total GULP energy -793303.296295 kJ/mol
# GULP energy per Si atom -12395.364005 kJ/mol
# Density = 2.029355 g / cm^3
# Si number density = 20.339847 Si / 1000 Ang^3
#
#
#
# Elastic Constant Matrix: (Units=GPa)
#
#
# Indices 1 2 3 4 5 6 
#
# 1 20.5219 35.2889 16.5736 0.0000 0.0000 0.0000
# 2 35.2889 148.9023 45.6937 0.0000 0.0000 0.0000
# 3 16.5736 45.6937 146.9098 0.0000 0.0000 0.0000
# 4 0.0000 0.0000 0.0000 34.7546 0.0000 0.0000
# 5 0.0000 0.0000 0.0000 0.0000 13.3276 0.0000
# 6 0.0000 0.0000 0.0000 0.0000 0.0000 41.9077
#
#
#
# Elastic Compliance Matrix: (Units=1/GPa)
#
#
# Indices 1 2 3 4 5 6 
#
# 1 0.083961 -0.018784 -0.003629 0.000000 0.000000 0.000000
# 2 -0.018784 0.011627 -0.001497 0.000000 0.000000 0.000000
# 3 -0.003629 -0.001497 0.007682 0.000000 0.000000 0.000000
# 4 0.000000 0.000000 0.000000 0.028773 0.000000 0.000000
# 5 0.000000 0.000000 0.000000 0.000000 0.075032 0.000000
# 6 0.000000 0.000000 0.000000 0.000000 0.000000 0.023862
#
#
# Mechanical properties :
#
#
# Convention : Reuss Voigt Hill
#
# Bulk Modulus (GPa) = 18.03503 56.82737 37.43120
# Shear Modulus (GPa) = 16.82132 32.58316 24.70224
#
# Velocity S-wave (km/s) = 2.87890 4.00676 3.48871
# Velocity P-wave (km/s) = 4.46507 7.02888 5.88821
#
# Compressibility (1/GPa) = 0.05544765
#
# Stress axis : x y z
#
# Youngs Moduli (GPa) = 11.91033 86.00637 130.17368
#
# Poissons Ratio (x) = 1.61558 0.47246
# Poissons Ratio (y) = 0.22373 0.19490
# Poissons Ratio (z) = 0.04323 0.12877
#
# Static dielectric constant tensor:
#      x y z
#    x 3.160610 0.000000 0.000000 
#    y 0.000000 3.873020 0.000000 
#    z 0.000000 0.000000 5.475280 
# 
# 
# High freq. dielectric constant tensor:
#      x y z
#    x 1.750540 0.000000 0.000000 
#    y 0.000000 1.805880 0.000000 
#    z 0.000000 0.000000 1.828340 
# 
# From -- ./inp_files/1098.got.cif
#   From: 2010.03.12/outbox.cif.g09.slc.cpg/sg54_1_cif.got.tgz:1098.got - 2010.04.16 15:00:50.
