data_PCOD8223217
_publ_section_title
;
Structure prediction by ZEFSAII (Michael W. Deem and Ramdas Pophale) SiO2 
 PCOD8223217
Probable space group: P C C A
;
_chemical_formula_sum "Si O2"
_cell_formula_units_Z 40
_cell_length_a 9.267627
_cell_length_b 15.416348
_cell_length_c 13.626614
_cell_angle_alpha 90.000000
_cell_angle_beta 90.000000
_cell_angle_gamma 90.000000
_cell_volume 1946.874717
_symmetry_space_group_name_H-M "P C C A"
_symmetry_group_IT_number 54
_symmetry_cell_setting 'orthorhombic'
loop_
_space_group_symop_operation_xyz
x,y,z
1/2-x,-y,z
1/2+x,-y,1/2-z
-x,y,1/2-z
-x,-y,-z
1/2+x,y,-z
1/2-x,y,1/2+z
x,-y,1/2+z
loop_
_atom_site_type_symbol
_atom_site_label
_atom_site_fract_x
_atom_site_fract_y
_atom_site_fract_z
Si Si1 0.000000 0.377883 0.250000
Si Si2 0.750000 0.000000 0.015815
Si Si3 0.500000 0.223538 0.250000
Si Si4 0.442478 0.277880 0.947400
Si Si5 0.505738 0.886437 0.936905
Si Si6 0.357530 0.337543 0.394879
Si Si7 0.250000 0.500000 0.801647
O O1 0.001844 0.314833 0.343774
O O2 0.140507 0.439981 0.239298
O O3 0.844652 0.929065 0.077591
O O4 0.628961 0.958024 0.946947
O O5 0.446800 0.164685 0.160241
O O6 0.374114 0.285914 0.291638
O O7 0.270893 0.289710 0.952981
O O8 0.489540 0.177645 0.967614
O O9 0.502471 0.334661 0.037090
O O10 0.338709 0.438345 0.373912
#
# Coordination Sequence:
#
# PCOD8223217 Si02
#       7
#     4   4   4   8   8   8   4
#     4  10  23  38  59  86 116 158 200 244 297 348
#     4  10  22  38  60  86 116 150 182 240 296 334
#     4  10  21  38  63  86 116 156 192 234 289 352
#     4  10  22  39  60  86 117 160 201 237 293 360
#     4  10  21  40  60  85 118 148 191 236 286 353
#     4  10  22  38  60  86 118 160 198 243 297 341
#     4  10  22  38  56  88 122 152 202 252 292 342
#
# _framework density 20.545750000000002
#
# number of rings (size 3 to 8) (size 9 to 14) (size 15 to 20)
#    0.000    2.000    0.000    3.000    0.000   16.000 
#    0.000    4.000    0.000    0.000    0.000    0.000 
#    0.000    0.000    0.000    0.000    0.000    0.000 
#
# Total GULP energy -495648.782049 kJ/mol
# GULP energy per Si atom -12391.219551 kJ/mol
# Density = 2.049899 g / cm^3
# Si number density = 20.545750 Si / 1000 Ang^3
#
#
#
# Elastic Constant Matrix: (Units=GPa)
#
#
# Indices 1 2 3 4 5 6 
#
# 1 123.4996 44.3173 46.5766 0.0000 0.0000 0.0000
# 2 44.3173 123.8575 53.4859 0.0000 0.0000 0.0000
# 3 46.5766 53.4859 111.0005 0.0000 0.0000 0.0000
# 4 0.0000 0.0000 0.0000 17.0916 0.0000 0.0000
# 5 0.0000 0.0000 0.0000 0.0000 36.0087 0.0000
# 6 0.0000 0.0000 0.0000 0.0000 0.0000 39.1527
#
#
#
# Elastic Compliance Matrix: (Units=1/GPa)
#
#
# Indices 1 2 3 4 5 6 
#
# 1 0.010093 -0.002251 -0.003151 0.000000 0.000000 0.000000
# 2 -0.002251 0.010697 -0.004210 0.000000 0.000000 0.000000
# 3 -0.003151 -0.004210 0.012360 0.000000 0.000000 0.000000
# 4 0.000000 0.000000 0.000000 0.058508 0.000000 0.000000
# 5 0.000000 0.000000 0.000000 0.000000 0.027771 0.000000
# 6 0.000000 0.000000 0.000000 0.000000 0.000000 0.025541
#
#
# Mechanical properties :
#
#
# Convention : Reuss Voigt Hill
#
# Bulk Modulus (GPa) = 71.80286 71.90192 71.85239
# Shear Modulus (GPa) = 29.61465 32.71578 31.16522
#
# Velocity S-wave (km/s) = 3.80070 3.99474 3.89893
# Velocity P-wave (km/s) = 7.36777 7.50661 7.43752
#
# Compressibility (1/GPa) = 0.01392702
#
# Stress axis : x y z
#
# Youngs Moduli (GPa) = 99.07748 93.48238 80.90910
#
# Poissons Ratio (x) = 0.21042 0.25491
# Poissons Ratio (y) = 0.22301 0.34063
# Poissons Ratio (z) = 0.31215 0.39356
#
# Static dielectric constant tensor:
#      x y z
#    x 3.886900 0.000000 0.000000 
#    y 0.000000 4.033660 0.000000 
#    z 0.000000 0.000000 3.520680 
# 
# 
# High freq. dielectric constant tensor:
#      x y z
#    x 1.810640 0.000000 0.000000 
#    y 0.000000 1.822270 0.000000 
#    z 0.000000 0.000000 1.779850 
# 
# From -- ./inp_files/6939.got.cif
#   From: 2010.03.12/outbox.cif.g09.slc.cpg/sg54_4_cif.got.tgz:6939.got - 2010.04.16 15:00:50.
