data_PCOD8223506
_publ_section_title
;
Structure prediction by ZEFSAII (Michael W. Deem and Ramdas Pophale) SiO2 
 PCOD8223506
Probable space group: P C C A
;
_chemical_formula_sum "Si O2"
_cell_formula_units_Z 60
_cell_length_a 8.766356
_cell_length_b 10.674823
_cell_length_c 28.389709
_cell_angle_alpha 90.000000
_cell_angle_beta 90.000000
_cell_angle_gamma 90.000000
_cell_volume 2656.689057
_symmetry_space_group_name_H-M "P C C A"
_symmetry_group_IT_number 54
_symmetry_cell_setting 'orthorhombic'
loop_
_space_group_symop_operation_xyz
x,y,z
1/2-x,-y,z
1/2+x,-y,1/2-z
-x,y,1/2-z
-x,-y,-z
1/2+x,y,-z
1/2-x,y,1/2+z
x,-y,1/2+z
loop_
_atom_site_type_symbol
_atom_site_label
_atom_site_fract_x
_atom_site_fract_y
_atom_site_fract_z
Si Si1 0.486439 0.416400 0.122570
Si Si2 0.418892 0.721664 0.532351
Si Si3 0.000000 0.198905 0.750000
Si Si4 0.577442 0.786875 0.446077
Si Si5 0.527262 0.690826 0.150027
Si Si6 0.757344 0.368114 0.798691
Si Si7 0.841650 0.824015 0.158063
Si Si8 0.410583 0.960679 0.933771
O O1 0.452282 0.397479 0.066407
O O2 0.570417 0.548077 0.134409
O O3 0.327255 0.401677 0.150008
O O4 0.592026 0.306782 0.141216
O O5 0.462534 0.698804 0.477465
O O6 0.247964 0.769116 0.535991
O O7 0.536682 0.832027 0.544054
O O8 0.858627 0.278368 0.767964
O O9 0.922507 0.124625 0.706382
O O10 0.568521 0.745949 0.392712
O O11 0.534309 0.933845 0.445889
O O12 0.411844 0.689012 0.194495
O O13 0.663479 0.786565 0.163068
O O14 0.750000 0.500000 0.770220
O O15 0.877825 0.935957 0.121898
O O16 0.250000 0.000000 0.957221
#
# Coordination Sequence:
#
# PCOD8223506 Si02
#       8
#     8   8   4   8   8   8   8   8
#     4   9  20  39  60  90 130 170 203 249 321 375
#     4  11  24  40  62  94 126 164 215 271 309 363
#     4  10  22  40  64  92 126 158 208 274 316 378
#     4  12  24  39  64  93 125 168 217 262 312 370
#     4  11  21  38  64  91 130 173 209 250 316 393
#     4   9  19  36  61  89 125 164 204 253 312 379
#     4  10  22  40  66  91 125 163 211 262 323 379
#     4  11  22  43  67  88 123 165 213 268 317 379
#
# _framework density 22.584502000000001
#
# number of rings (size 3 to 8) (size 9 to 14) (size 15 to 20)
#    0.000    1.600    2.667    2.000    1.867    4.267 
#    0.000    0.000    2.933    0.000    0.000    0.000 
#    0.000    0.000    0.000    0.000    0.000    0.000 
#
# Total GULP energy -743352.825280 kJ/mol
# GULP energy per Si atom -12389.213755 kJ/mol
# Density = 2.253310 g / cm^3
# Si number density = 22.584502 Si / 1000 Ang^3
#
#
#
# Elastic Constant Matrix: (Units=GPa)
#
#
# Indices 1 2 3 4 5 6 
#
# 1 135.7965 7.7609 29.9724 0.0000 0.0000 0.0000
# 2 7.7609 36.4485 4.8723 0.0000 0.0000 0.0000
# 3 29.9724 4.8723 68.1854 0.0000 0.0000 0.0000
# 4 0.0000 0.0000 0.0000 41.1021 0.0000 0.0000
# 5 0.0000 0.0000 0.0000 0.0000 26.2609 0.0000
# 6 0.0000 0.0000 0.0000 0.0000 0.0000 23.9250
#
#
#
# Elastic Compliance Matrix: (Units=1/GPa)
#
#
# Indices 1 2 3 4 5 6 
#
# 1 0.008214 -0.001279 -0.003519 0.000000 0.000000 0.000000
# 2 -0.001279 0.027900 -0.001432 0.000000 0.000000 0.000000
# 3 -0.003519 -0.001432 0.016315 0.000000 0.000000 0.000000
# 4 0.000000 0.000000 0.000000 0.024330 0.000000 0.000000
# 5 0.000000 0.000000 0.000000 0.000000 0.038079 0.000000
# 6 0.000000 0.000000 0.000000 0.000000 0.000000 0.041797
#
#
# Mechanical properties :
#
#
# Convention : Reuss Voigt Hill
#
# Bulk Modulus (GPa) = 25.01885 36.18241 30.60063
# Shear Modulus (GPa) = 27.40975 31.44591 29.42783
#
# Velocity S-wave (km/s) = 3.48753 3.73549 3.61364
# Velocity P-wave (km/s) = 5.22677 5.88735 5.56687
#
# Compressibility (1/GPa) = 0.03996986
#
# Stress axis : x y z
#
# Youngs Moduli (GPa) = 121.74684 35.84283 61.29280
#
# Poissons Ratio (x) = 0.04583 0.21570
# Poissons Ratio (y) = 0.15565 0.08775
# Poissons Ratio (z) = 0.42845 0.05131
#
# Static dielectric constant tensor:
#      x y z
#    x 3.796060 0.000000 0.000000 
#    y 0.000000 3.976070 0.000000 
#    z 0.000000 0.000000 4.402060 
# 
# 
# High freq. dielectric constant tensor:
#      x y z
#    x 1.900760 0.000000 0.000000 
#    y 0.000000 1.869520 0.000000 
#    z 0.000000 0.000000 1.889660 
# 
# From -- ./inp_files/25952.got.cif
#   From: 2010.03.12/outbox.cif.g09.slc.cpg/sg54_13_cif.got.tgz:25952.got - 2010.04.16 15:00:50.
