data_PCOD8223588
_publ_section_title
;
Structure prediction by ZEFSAII (Michael W. Deem and Ramdas Pophale) SiO2 
 PCOD8223588
Probable space group: P C C A
;
_chemical_formula_sum "Si O2"
_cell_formula_units_Z 48
_cell_length_a 8.908990
_cell_length_b 9.116837
_cell_length_c 28.249663
_cell_angle_alpha 90.000000
_cell_angle_beta 90.000000
_cell_angle_gamma 90.000000
_cell_volume 2294.488751
_symmetry_space_group_name_H-M "P C C A"
_symmetry_group_IT_number 54
_symmetry_cell_setting 'orthorhombic'
loop_
_space_group_symop_operation_xyz
x,y,z
1/2-x,-y,z
1/2+x,-y,1/2-z
-x,y,1/2-z
-x,-y,-z
1/2+x,y,-z
1/2-x,y,1/2+z
x,-y,1/2+z
loop_
_atom_site_type_symbol
_atom_site_label
_atom_site_fract_x
_atom_site_fract_y
_atom_site_fract_z
Si Si1 0.580245 0.456266 0.383992
Si Si2 0.540735 0.713828 0.695605
Si Si3 0.652352 0.715674 0.139577
Si Si4 0.077992 0.963001 0.796502
Si Si5 0.790958 0.168378 0.038905
Si Si6 0.486106 0.338239 0.480134
O O1 0.750000 0.500000 0.395192
O O2 0.582585 0.372164 0.334424
O O3 0.454420 0.584853 0.379023
O O4 0.535672 0.342858 0.425370
O O5 0.500000 0.672103 0.750000
O O6 0.709135 0.669821 0.675306
O O7 0.504947 0.884649 0.686675
O O8 0.549812 0.835215 0.165847
O O9 0.715205 0.803049 0.094812
O O10 0.000000 0.901268 0.750000
O O11 0.250000 0.000000 0.785368
O O12 0.683835 0.288925 0.015637
O O13 0.750000 0.000000 0.028863
O O14 0.942266 0.209814 0.011989
O O15 0.500000 0.500000 0.500000
#
# Coordination Sequence:
#
# PCOD8223588 Si02
#       6
#     8   8   8   8   8   8
#     4  12  26  42  62  99 135 179 232 278 338 413
#     4  10  22  42  67  97 131 173 225 279 339 410
#     4  11  23  42  71  95 133 183 226 277 351 415
#     4   9  20  39  66  96 129 171 222 271 342 409
#     4  12  25  45  73 103 137 180 238 291 345 417
#     4  12  25  45  71  99 139 186 227 285 350 415
#
# _framework density 20.919692999999999
#
# number of rings (size 3 to 8) (size 9 to 14) (size 15 to 20)
#    0.000    1.000    3.333    4.000    0.000    6.000 
#    0.000    0.000    0.000    0.000    0.000    0.000 
#    0.000    0.000    0.000    0.000    0.000    0.000 
#
# Total GULP energy -594703.626687 kJ/mol
# GULP energy per Si atom -12389.658889 kJ/mol
# Density = 2.087208 g / cm^3
# Si number density = 20.919693 Si / 1000 Ang^3
#
#
#
# Elastic Constant Matrix: (Units=GPa)
#
#
# Indices 1 2 3 4 5 6 
#
# 1 47.8968 12.0077 14.6959 0.0000 0.0000 0.0000
# 2 12.0077 98.4712 36.7560 0.0000 0.0000 0.0000
# 3 14.6959 36.7560 114.6694 0.0000 0.0000 0.0000
# 4 0.0000 0.0000 0.0000 40.2608 0.0000 0.0000
# 5 0.0000 0.0000 0.0000 0.0000 37.9394 0.0000
# 6 0.0000 0.0000 0.0000 0.0000 0.0000 29.2536
#
#
#
# Elastic Compliance Matrix: (Units=1/GPa)
#
#
# Indices 1 2 3 4 5 6 
#
# 1 0.022027 -0.001854 -0.002229 0.000000 0.000000 0.000000
# 2 -0.001854 0.011691 -0.003510 0.000000 0.000000 0.000000
# 3 -0.002229 -0.003510 0.010131 0.000000 0.000000 0.000000
# 4 0.000000 0.000000 0.000000 0.024838 0.000000 0.000000
# 5 0.000000 0.000000 0.000000 0.000000 0.026358 0.000000
# 6 0.000000 0.000000 0.000000 0.000000 0.000000 0.034184
#
#
# Mechanical properties :
#
#
# Convention : Reuss Voigt Hill
#
# Bulk Modulus (GPa) = 34.88648 43.10627 38.99638
# Shear Modulus (GPa) = 32.47392 34.66261 33.56827
#
# Velocity S-wave (km/s) = 3.94422 4.07496 4.01012
# Velocity P-wave (km/s) = 6.12005 6.54147 6.33426
#
# Compressibility (1/GPa) = 0.02866440
#
# Stress axis : x y z
#
# Youngs Moduli (GPa) = 45.39911 85.53224 98.70287
#
# Poissons Ratio (x) = 0.15859 0.21997
# Poissons Ratio (y) = 0.08417 0.34644
# Poissons Ratio (z) = 0.10118 0.30021
#
# Static dielectric constant tensor:
#      x y z
#    x 3.773460 0.000000 0.000000 
#    y 0.000000 3.927650 0.000000 
#    z 0.000000 0.000000 4.116890 
# 
# 
# High freq. dielectric constant tensor:
#      x y z
#    x 1.811670 0.000000 0.000000 
#    y 0.000000 1.825460 0.000000 
#    z 0.000000 0.000000 1.832180 
# 
# From -- ./inp_files/27691.got.cif
#   From: 2010.03.12/outbox.cif.g09.slc.cpg/sg54_14_cif.got.tgz:27691.got - 2010.04.16 15:00:50.
