data_PCOD8223318
_publ_section_title
;
Structure prediction by ZEFSAII (Michael W. Deem and Ramdas Pophale) SiO2 
 PCOD8223318
Probable space group: P C C A
;
_chemical_formula_sum "Si O2"
_cell_formula_units_Z 56
_cell_length_a 16.296696
_cell_length_b 11.599972
_cell_length_c 14.118080
_cell_angle_alpha 90.000000
_cell_angle_beta 90.000000
_cell_angle_gamma 90.000000
_cell_volume 2668.899029
_symmetry_space_group_name_H-M "P C C A"
_symmetry_group_IT_number 54
_symmetry_cell_setting 'orthorhombic'
loop_
_space_group_symop_operation_xyz
x,y,z
1/2-x,-y,z
1/2+x,-y,1/2-z
-x,y,1/2-z
-x,-y,-z
1/2+x,y,-z
1/2-x,y,1/2+z
x,-y,1/2+z
loop_
_atom_site_type_symbol
_atom_site_label
_atom_site_fract_x
_atom_site_fract_y
_atom_site_fract_z
Si Si1 0.364848 0.898033 0.387759
Si Si2 0.760702 0.128962 0.779822
Si Si3 0.970387 0.299529 0.146465
Si Si4 0.764385 0.243808 0.970631
Si Si5 0.925900 0.865425 0.179537
Si Si6 0.333638 0.450401 0.927800
Si Si7 0.909370 0.686774 0.027282
O O1 0.302462 0.860900 0.305734
O O2 0.450249 0.834356 0.367881
O O3 0.321767 0.858652 0.486248
O O4 0.392191 0.030940 0.387843
O O5 0.743183 0.220628 0.861730
O O6 0.850919 0.165942 0.747186
O O7 0.750000 0.000000 0.821449
O O8 0.884481 0.368171 0.140804
O O9 0.000000 0.329875 0.250000
O O10 0.037841 0.324437 0.067462
O O11 0.807220 0.369973 0.982115
O O12 0.676129 0.245282 0.020310
O O13 0.954158 0.757371 0.112797
O O14 0.000000 0.900565 0.250000
O O15 0.250000 0.500000 0.879774
O O16 0.395046 0.553041 0.951748
#
# Coordination Sequence:
#
# PCOD8223318 Si02
#       7
#     8   8   8   8   8   8   8
#     4  10  22  43  62  93 133 168 211 263 322 398
#     4  10  22  39  65  95 126 165 217 257 316 404
#     4  11  23  41  65  93 127 169 213 270 329 384
#     4  10  21  40  69  90 124 174 212 261 328 378
#     4  11  25  40  62  98 134 165 212 274 327 389
#     4   9  22  44  64  90 128 168 219 271 317 394
#     4  11  23  42  64  94 131 166 217 271 324 381
#
# _framework density 20.982434999999999
#
# number of rings (size 3 to 8) (size 9 to 14) (size 15 to 20)
#    0.000    1.714    1.429    1.714    6.000    2.286 
#    2.571    0.714    0.000    0.000    0.000    0.000 
#    0.000    0.000    0.000    0.000    0.000    0.000 
#
# Total GULP energy -693921.213592 kJ/mol
# GULP energy per Si atom -12391.450243 kJ/mol
# Density = 2.093468 g / cm^3
# Si number density = 20.982435 Si / 1000 Ang^3
#
#
#
# Elastic Constant Matrix: (Units=GPa)
#
#
# Indices 1 2 3 4 5 6 
#
# 1 75.2170 25.6900 25.8741 0.0000 0.0000 0.0000
# 2 25.6900 95.2423 34.1965 0.0000 0.0000 0.0000
# 3 25.8741 34.1965 82.5950 0.0000 0.0000 0.0000
# 4 0.0000 0.0000 0.0000 4.8299 0.0000 0.0000
# 5 0.0000 0.0000 0.0000 0.0000 4.5173 0.0000
# 6 0.0000 0.0000 0.0000 0.0000 0.0000 34.3580
#
#
#
# Elastic Compliance Matrix: (Units=1/GPa)
#
#
# Indices 1 2 3 4 5 6 
#
# 1 0.015541 -0.002871 -0.003680 0.000000 0.000000 0.000000
# 2 -0.002871 0.012863 -0.004426 0.000000 0.000000 0.000000
# 3 -0.003680 -0.004426 0.015093 0.000000 0.000000 0.000000
# 4 0.000000 0.000000 0.000000 0.207042 0.000000 0.000000
# 5 0.000000 0.000000 0.000000 0.000000 0.221372 0.000000
# 6 0.000000 0.000000 0.000000 0.000000 0.000000 0.029105
#
#
# Mechanical properties :
#
#
# Convention : Reuss Voigt Hill
#
# Bulk Modulus (GPa) = 46.41886 47.17504 46.79695
# Shear Modulus (GPa) = 9.43128 19.89396 14.66262
#
# Velocity S-wave (km/s) = 2.12240 3.08250 2.64636
# Velocity P-wave (km/s) = 5.30819 5.93304 5.62929
#
# Compressibility (1/GPa) = 0.02154297
#
# Stress axis : x y z
#
# Youngs Moduli (GPa) = 64.34494 77.74154 66.25706
#
# Poissons Ratio (x) = 0.22317 0.24383
# Poissons Ratio (y) = 0.18471 0.29328
# Poissons Ratio (z) = 0.23679 0.34411
#
# Static dielectric constant tensor:
#      x y z
#    x 4.189230 0.000000 0.000000 
#    y 0.000000 3.990650 0.000000 
#    z 0.000000 0.000000 3.509500 
# 
# 
# High freq. dielectric constant tensor:
#      x y z
#    x 1.834800 0.000000 0.000000 
#    y 0.000000 1.827370 0.000000 
#    z 0.000000 0.000000 1.800550 
# 
# From -- ./inp_files/13499.got.cif
#   From: 2010.03.12/outbox.cif.g09.slc.cpg/sg54_7_cif.got.tgz:13499.got - 2010.04.16 15:00:50.
