data_PCOD8223817
_publ_section_title
;
Structure prediction by ZEFSAII (Michael W. Deem and Ramdas Pophale) SiO2 
 PCOD8223817
Probable space group: P C C A
;
_chemical_formula_sum "Si O2"
_cell_formula_units_Z 40
_cell_length_a 10.805648
_cell_length_b 16.670050
_cell_length_c 8.861542
_cell_angle_alpha 90.000000
_cell_angle_beta 90.000000
_cell_angle_gamma 90.000000
_cell_volume 1596.235697
_symmetry_space_group_name_H-M "P C C A"
_symmetry_group_IT_number 54
_symmetry_cell_setting 'orthorhombic'
loop_
_space_group_symop_operation_xyz
x,y,z
1/2-x,-y,z
1/2+x,-y,1/2-z
-x,y,1/2-z
-x,-y,-z
1/2+x,y,-z
1/2-x,y,1/2+z
x,-y,1/2+z
loop_
_atom_site_type_symbol
_atom_site_label
_atom_site_fract_x
_atom_site_fract_y
_atom_site_fract_z
Si Si1 0.254965 0.330129 0.009769
Si Si2 0.858141 0.434839 0.248042
Si Si3 0.359721 0.223637 0.268350
Si Si4 0.994096 0.085500 0.072281
Si Si5 0.255392 0.903856 0.587272
O O1 0.162839 0.393163 0.089896
O O2 0.337478 0.289372 0.137919
O O3 0.346584 0.372405 0.890166
O O4 0.171653 0.262864 0.928721
O O5 0.750000 0.500000 0.225136
O O6 0.000000 0.469609 0.250000
O O7 0.500000 0.195020 0.250000
O O8 0.276177 0.142928 0.244735
O O9 0.000000 0.077795 0.250000
O O10 0.123144 0.127468 0.018541
O O11 0.867448 0.127206 0.019954
O O12 0.000000 0.000000 0.000000
O O13 0.250000 0.000000 0.617387
#
# Coordination Sequence:
#
# PCOD8223817 Si02
#       5
#     8   8   8   8   8
#     4  10  25  46  69 109 153 193 244 300 369 450
#     4  11  24  45  77 113 152 194 243 298 360 439
#     4  11  25  45  74 100 146 200 250 307 382 445
#     4  10  24  44  68 100 138 178 236 311 377 439
#     4  10  25  44  71 101 141 187 253 311 373 434
#
# _framework density 25.058958000000001
#
# number of rings (size 3 to 8) (size 9 to 14) (size 15 to 20)
#    0.000    1.600    0.000    1.800    5.600   16.800 
#    0.000    0.000    0.000    0.000    0.000    0.000 
#    0.000    0.000    0.000    0.000    0.000    0.000 
#
# Total GULP energy -495731.239328 kJ/mol
# GULP energy per Si atom -12393.280983 kJ/mol
# Density = 2.500192 g / cm^3
# Si number density = 25.058958 Si / 1000 Ang^3
#
#
#
# Elastic Constant Matrix: (Units=GPa)
#
#
# Indices 1 2 3 4 5 6 
#
# 1 233.1899 35.4364 39.5558 0.0000 0.0000 0.0000
# 2 35.4364 87.4954 11.6597 0.0000 0.0000 0.0000
# 3 39.5558 11.6597 106.1728 0.0000 0.0000 0.0000
# 4 0.0000 0.0000 0.0000 21.7768 0.0000 0.0000
# 5 0.0000 0.0000 0.0000 0.0000 35.2990 0.0000
# 6 0.0000 0.0000 0.0000 0.0000 0.0000 38.6364
#
#
#
# Elastic Compliance Matrix: (Units=1/GPa)
#
#
# Indices 1 2 3 4 5 6 
#
# 1 0.004825 -0.001740 -0.001607 0.000000 0.000000 0.000000
# 2 -0.001740 0.012227 -0.000694 0.000000 0.000000 0.000000
# 3 -0.001607 -0.000694 0.010093 0.000000 0.000000 0.000000
# 4 0.000000 0.000000 0.000000 0.045920 0.000000 0.000000
# 5 0.000000 0.000000 0.000000 0.000000 0.028329 0.000000
# 6 0.000000 0.000000 0.000000 0.000000 0.000000 0.025882
#
#
# Mechanical properties :
#
#
# Convention : Reuss Voigt Hill
#
# Bulk Modulus (GPa) = 52.45793 66.68465 59.57129
# Shear Modulus (GPa) = 35.28231 41.82286 38.55258
#
# Velocity S-wave (km/s) = 3.75637 4.08975 3.92660
# Velocity P-wave (km/s) = 6.30817 6.99787 6.66195
#
# Compressibility (1/GPa) = 0.01906289
#
# Stress axis : x y z
#
# Youngs Moduli (GPa) = 207.23984 81.78954 99.07437
#
# Poissons Ratio (x) = 0.14233 0.15918
# Poissons Ratio (y) = 0.36064 0.06879
# Poissons Ratio (z) = 0.33296 0.05679
#
# Static dielectric constant tensor:
#      x y z
#    x 5.791640 0.000000 0.000000 
#    y 0.000000 4.347190 0.000000 
#    z 0.000000 0.000000 4.922510 
# 
# 
# High freq. dielectric constant tensor:
#      x y z
#    x 2.013880 0.000000 0.000000 
#    y 0.000000 1.987420 0.000000 
#    z 0.000000 0.000000 2.017070 
# 
# From -- ./inp_files/2923.got.cif
#   From: 2010.03.12/outbox.cif.g09.slc.cpg/sg54_2_cif.got.tgz:2923.got - 2010.04.16 15:00:50.
