data_PCOD8223804
_publ_section_title
;
Structure prediction by ZEFSAII (Michael W. Deem and Ramdas Pophale) SiO2 
 PCOD8223804
Probable space group: P C C A
;
_chemical_formula_sum "Si O2"
_cell_formula_units_Z 40
_cell_length_a 9.507925
_cell_length_b 13.171528
_cell_length_c 14.821104
_cell_angle_alpha 90.000000
_cell_angle_beta 90.000000
_cell_angle_gamma 90.000000
_cell_volume 1856.104662
_symmetry_space_group_name_H-M "P C C A"
_symmetry_group_IT_number 54
_symmetry_cell_setting 'orthorhombic'
loop_
_space_group_symop_operation_xyz
x,y,z
1/2-x,-y,z
1/2+x,-y,1/2-z
-x,y,1/2-z
-x,-y,-z
1/2+x,y,-z
1/2-x,y,1/2+z
x,-y,1/2+z
loop_
_atom_site_type_symbol
_atom_site_label
_atom_site_fract_x
_atom_site_fract_y
_atom_site_fract_z
Si Si1 0.128903 0.928455 0.506763
Si Si2 0.341069 0.718375 0.767165
Si Si3 0.841607 0.094842 0.284167
Si Si4 0.711385 0.384758 0.411787
Si Si5 0.582241 0.706827 0.542816
O O1 0.166240 0.894628 0.608093
O O2 0.087277 0.829357 0.448660
O O3 0.250000 0.000000 0.464027
O O4 0.000000 0.000000 0.500000
O O5 0.500000 0.760194 0.750000
O O6 0.226691 0.806391 0.760460
O O7 0.302407 0.630895 0.695341
O O8 0.337064 0.667877 0.866885
O O9 0.000000 0.082471 0.250000
O O10 0.750000 0.000000 0.250811
O O11 0.750000 0.500000 0.434020
O O12 0.841118 0.321754 0.450850
O O13 0.572478 0.342464 0.461892
#
# Coordination Sequence:
#
# PCOD8223804 Si02
#       5
#     8   8   8   8   8
#     4  11  25  40  64  99 137 179 223 270 332 410
#     4  10  24  43  66  94 133 178 219 279 339 409
#     4  11  25  40  63  96 134 176 224 272 328 407
#     4  11  24  46  69  99 131 170 227 283 343 404
#     4  11  24  43  71  97 138 177 220 280 343 400
#
# _framework density 21.550508000000001
#
# number of rings (size 3 to 8) (size 9 to 14) (size 15 to 20)
#    0.000    1.200    2.000    2.400   16.800    0.800 
#    0.000    5.000    0.000    0.000    0.000    0.000 
#    0.000    0.000    0.000    0.000    0.000    0.000 
#
# Total GULP energy -495883.189617 kJ/mol
# GULP energy per Si atom -12397.079740 kJ/mol
# Density = 2.150146 g / cm^3
# Si number density = 21.550508 Si / 1000 Ang^3
#
#
#
# Elastic Constant Matrix: (Units=GPa)
#
#
# Indices 1 2 3 4 5 6 
#
# 1 142.2920 68.2799 16.4591 0.0000 0.0000 0.0000
# 2 68.2799 130.4543 17.0657 0.0000 0.0000 0.0000
# 3 16.4591 17.0657 63.4523 0.0000 0.0000 0.0000
# 4 0.0000 0.0000 0.0000 23.0007 0.0000 0.0000
# 5 0.0000 0.0000 0.0000 0.0000 36.1438 0.0000
# 6 0.0000 0.0000 0.0000 0.0000 0.0000 37.2055
#
#
#
# Elastic Compliance Matrix: (Units=1/GPa)
#
#
# Indices 1 2 3 4 5 6 
#
# 1 0.009467 -0.004803 -0.001164 0.000000 0.000000 0.000000
# 2 -0.004803 0.010382 -0.001546 0.000000 0.000000 0.000000
# 3 -0.001164 -0.001546 0.016478 0.000000 0.000000 0.000000
# 4 0.000000 0.000000 0.000000 0.043477 0.000000 0.000000
# 5 0.000000 0.000000 0.000000 0.000000 0.027667 0.000000
# 6 0.000000 0.000000 0.000000 0.000000 0.000000 0.026878
#
#
# Mechanical properties :
#
#
# Convention : Reuss Voigt Hill
#
# Bulk Modulus (GPa) = 46.94809 59.97867 53.46338
# Shear Modulus (GPa) = 31.95405 34.89627 33.42516
#
# Velocity S-wave (km/s) = 3.85483 4.02839 3.94257
# Velocity P-wave (km/s) = 6.45332 7.03771 6.75184
#
# Compressibility (1/GPa) = 0.02130012
#
# Stress axis : x y z
#
# Youngs Moduli (GPa) = 105.62881 96.32411 60.68812
#
# Poissons Ratio (x) = 0.46263 0.07064
# Poissons Ratio (y) = 0.50732 0.09385
# Poissons Ratio (z) = 0.12295 0.14895
#
# Static dielectric constant tensor:
#      x y z
#    x 3.939040 0.000000 0.000000 
#    y 0.000000 3.733610 0.000000 
#    z 0.000000 0.000000 3.830330 
# 
# 
# High freq. dielectric constant tensor:
#      x y z
#    x 1.855160 0.000000 0.000000 
#    y 0.000000 1.836860 0.000000 
#    z 0.000000 0.000000 1.852810 
# 
# From -- ./inp_files/11488.got.cif
#   From: 2010.03.12/outbox.cif.g09.slc.cpg/sg54_6_cif.got.tgz:11488.got - 2010.04.16 15:00:50.
