data_PCOD8223920
_publ_section_title
;
Structure prediction by ZEFSAII (Michael W. Deem and Ramdas Pophale) SiO2 
 PCOD8223920
Probable space group: P C C A
;
_chemical_formula_sum "Si O2"
_cell_formula_units_Z 64
_cell_length_a 18.419800
_cell_length_b 14.567901
_cell_length_c 10.751681
_cell_angle_alpha 90.000000
_cell_angle_beta 90.000000
_cell_angle_gamma 90.000000
_cell_volume 2885.082671
_symmetry_space_group_name_H-M "P C C A"
_symmetry_group_IT_number 54
_symmetry_cell_setting 'orthorhombic'
loop_
_space_group_symop_operation_xyz
x,y,z
1/2-x,-y,z
1/2+x,-y,1/2-z
-x,y,1/2-z
-x,-y,-z
1/2+x,y,-z
1/2-x,y,1/2+z
x,-y,1/2+z
loop_
_atom_site_type_symbol
_atom_site_label
_atom_site_fract_x
_atom_site_fract_y
_atom_site_fract_z
Si Si1 0.605846 0.842228 0.587918
Si Si2 0.464579 0.528904 0.873599
Si Si3 0.929325 0.228069 0.169331
Si Si4 0.321168 0.278683 0.227081
Si Si5 0.187510 0.570904 0.421660
Si Si6 0.045623 0.974572 0.877077
Si Si7 0.327236 0.729806 0.116651
Si Si8 0.027533 0.282621 0.586897
O O1 0.668762 0.800878 0.673228
O O2 0.630397 0.814762 0.448212
O O3 0.521933 0.808091 0.609371
O O4 0.609416 0.949818 0.618479
O O5 0.500000 0.482301 0.750000
O O6 0.379721 0.506478 0.881766
O O7 0.473422 0.638702 0.866447
O O8 0.500000 0.500000 0.000000
O O9 0.915301 0.125062 0.115181
O O10 0.862711 0.273338 0.245409
O O11 0.000000 0.221263 0.250000
O O12 0.947966 0.295745 0.055694
O O13 0.293153 0.369740 0.299322
O O14 0.258817 0.250832 0.129178
O O15 0.398316 0.289530 0.162143
O O16 0.250000 0.500000 0.460994
O O17 0.164147 0.635292 0.538572
O O18 0.000000 0.983653 0.750000
O O19 0.000000 0.000000 0.000000
#
# Coordination Sequence:
#
# PCOD8223920 Si02
#       8
#     8   8   8   8   8   8   8   8
#     4  11  21  44  70  98 139 183 238 295 347 433
#     4  12  26  45  69 103 135 172 231 300 358 429
#     4  11  22  40  71 107 144 184 234 300 355 429
#     4  11  25  41  71  95 133 185 237 280 365 438
#     4  11  26  47  70  97 135 182 237 300 365 445
#     4  11  21  38  70 114 143 184 245 306 356 423
#     4  11  25  45  66  99 144 188 236 293 366 445
#     4  12  21  44  73  97 132 184 232 292 363 425
#
# _framework density 22.183073
#
# number of rings (size 3 to 8) (size 9 to 14) (size 15 to 20)
#    0.000    0.750    6.250    1.875    5.250    3.000 
#    0.000    0.625    0.000    0.000    0.000    0.000 
#    0.000    0.000    0.000    0.000    0.000    0.000 
#
# Total GULP energy -793217.240807 kJ/mol
# GULP energy per Si atom -12394.019388 kJ/mol
# Density = 2.213258 g / cm^3
# Si number density = 22.183073 Si / 1000 Ang^3
#
#
#
# Elastic Constant Matrix: (Units=GPa)
#
#
# Indices 1 2 3 4 5 6 
#
# 1 121.9462 31.1932 35.1551 0.0000 0.0000 0.0000
# 2 31.1932 49.7155 19.6142 0.0000 0.0000 0.0000
# 3 35.1551 19.6142 131.8825 0.0000 0.0000 0.0000
# 4 0.0000 0.0000 0.0000 22.1175 0.0000 0.0000
# 5 0.0000 0.0000 0.0000 0.0000 45.2639 0.0000
# 6 0.0000 0.0000 0.0000 0.0000 0.0000 24.2462
#
#
#
# Elastic Compliance Matrix: (Units=1/GPa)
#
#
# Indices 1 2 3 4 5 6 
#
# 1 0.010186 -0.005652 -0.001875 0.000000 0.000000 0.000000
# 2 -0.005652 0.024504 -0.002138 0.000000 0.000000 0.000000
# 3 -0.001875 -0.002138 0.008400 0.000000 0.000000 0.000000
# 4 0.000000 0.000000 0.000000 0.045213 0.000000 0.000000
# 5 0.000000 0.000000 0.000000 0.000000 0.022093 0.000000
# 6 0.000000 0.000000 0.000000 0.000000 0.000000 0.041244
#
#
# Mechanical properties :
#
#
# Convention : Reuss Voigt Hill
#
# Bulk Modulus (GPa) = 42.08391 52.82989 47.45690
# Shear Modulus (GPa) = 27.95025 32.83096 30.39060
#
# Velocity S-wave (km/s) = 3.55347 3.85125 3.70535
# Velocity P-wave (km/s) = 5.98737 6.60631 6.30444
#
# Compressibility (1/GPa) = 0.02376205
#
# Stress axis : x y z
#
# Youngs Moduli (GPa) = 98.16934 40.80975 119.04473
#
# Poissons Ratio (x) = 0.23064 0.22319
# Poissons Ratio (y) = 0.55482 0.25450
# Poissons Ratio (z) = 0.18405 0.08724
#
# Static dielectric constant tensor:
#      x y z
#    x 4.046600 0.000000 0.000000 
#    y 0.000000 4.266800 0.000000 
#    z 0.000000 0.000000 5.981490 
# 
# 
# High freq. dielectric constant tensor:
#      x y z
#    x 1.861030 0.000000 0.000000 
#    y 0.000000 1.857060 0.000000 
#    z 0.000000 0.000000 1.894830 
# 
# From -- ./inp_files/9069.got.cif
#   From: 2010.03.12/outbox.cif.g09.slc.cpg/sg54_5_cif.got.tgz:9069.got - 2010.04.16 15:00:50.
