data_PCOD8223296
_publ_section_title
;
Structure prediction by ZEFSAII (Michael W. Deem and Ramdas Pophale) SiO2 
 PCOD8223296
Probable space group: P C C A
;
_chemical_formula_sum "Si O2"
_cell_formula_units_Z 60
_cell_length_a 23.164692
_cell_length_b 8.661571
_cell_length_c 12.792138
_cell_angle_alpha 90.000000
_cell_angle_beta 90.000000
_cell_angle_gamma 90.000000
_cell_volume 2566.648141
_symmetry_space_group_name_H-M "P C C A"
_symmetry_group_IT_number 54
_symmetry_cell_setting 'orthorhombic'
loop_
_space_group_symop_operation_xyz
x,y,z
1/2-x,-y,z
1/2+x,-y,1/2-z
-x,y,1/2-z
-x,-y,-z
1/2+x,y,-z
1/2-x,y,1/2+z
x,-y,1/2+z
loop_
_atom_site_type_symbol
_atom_site_label
_atom_site_fract_x
_atom_site_fract_y
_atom_site_fract_z
Si Si1 0.623153 0.533125 0.989804
Si Si2 0.482216 0.720534 0.449338
Si Si3 0.000000 0.473780 0.250000
Si Si4 0.110794 0.976993 0.892265
Si Si5 0.802394 0.401787 0.334349
Si Si6 0.701285 0.261575 0.621373
Si Si7 0.705568 0.125592 0.981574
Si Si8 0.425973 0.704761 0.873793
O O1 0.557880 0.591446 0.995896
O O2 0.668165 0.663691 0.023671
O O3 0.626987 0.381433 0.065813
O O4 0.638542 0.487106 0.870466
O O5 0.512565 0.641670 0.347625
O O6 0.445315 0.872790 0.419073
O O7 0.528449 0.759397 0.537295
O O8 0.948088 0.589662 0.217176
O O9 0.159957 0.876031 0.833909
O O10 0.093162 0.129677 0.824048
O O11 0.143469 0.048015 0.993950
O O12 0.750000 0.500000 0.381820
O O13 0.795202 0.390638 0.210567
O O14 0.802604 0.234680 0.384003
O O15 0.764337 0.205267 0.584481
O O16 0.750000 0.000000 0.939060
#
# Coordination Sequence:
#
# PCOD8223296 Si02
#       8
#     8   8   4   8   8   8   8   8
#     4  10  21  40  63  95 132 168 215 274 325 386
#     4  10  23  42  66  92 133 175 217 277 339 386
#     4  10  22  40  62  94 126 166 214 276 320 390
#     4  10  22  43  66  90 128 177 211 276 329 389
#     4  12  24  39  71 100 126 174 221 263 329 406
#     4  10  24  42  64  96 136 173 210 272 335 393
#     4  10  22  44  64  90 139 165 215 273 329 396
#     4  11  22  41  67  93 129 171 221 277 327 391
#
# _framework density 23.376791999999998
#
# number of rings (size 3 to 8) (size 9 to 14) (size 15 to 20)
#    0.000    1.600    2.667    2.000    1.867    8.533 
#    2.400    0.000    0.000    0.000    0.000    0.000 
#    0.000    0.000    0.000    0.000    0.000    0.000 
#
# Total GULP energy -743411.859903 kJ/mol
# GULP energy per Si atom -12390.197665 kJ/mol
# Density = 2.332358 g / cm^3
# Si number density = 23.376792 Si / 1000 Ang^3
#
#
#
# Elastic Constant Matrix: (Units=GPa)
#
#
# Indices 1 2 3 4 5 6 
#
# 1 74.0465 26.6047 19.4693 0.0000 0.0000 0.0000
# 2 26.6047 118.4521 13.2644 0.0000 0.0000 0.0000
# 3 19.4693 13.2644 63.1194 0.0000 0.0000 0.0000
# 4 0.0000 0.0000 0.0000 33.0494 0.0000 0.0000
# 5 0.0000 0.0000 0.0000 0.0000 20.7667 0.0000
# 6 0.0000 0.0000 0.0000 0.0000 0.0000 39.6915
#
#
#
# Elastic Compliance Matrix: (Units=1/GPa)
#
#
# Indices 1 2 3 4 5 6 
#
# 1 0.015709 -0.003058 -0.004203 0.000000 0.000000 0.000000
# 2 -0.003058 0.009241 -0.000999 0.000000 0.000000 0.000000
# 3 -0.004203 -0.000999 0.017349 0.000000 0.000000 0.000000
# 4 0.000000 0.000000 0.000000 0.030258 0.000000 0.000000
# 5 0.000000 0.000000 0.000000 0.000000 0.048154 0.000000
# 6 0.000000 0.000000 0.000000 0.000000 0.000000 0.025194
#
#
# Mechanical properties :
#
#
# Convention : Reuss Voigt Hill
#
# Bulk Modulus (GPa) = 38.78931 41.58831 40.18881
# Shear Modulus (GPa) = 29.23693 31.78684 30.51188
#
# Velocity S-wave (km/s) = 3.54033 3.69149 3.61670
# Velocity P-wave (km/s) = 5.77417 5.99988 5.88811
#
# Compressibility (1/GPa) = 0.02578030
#
# Stress axis : x y z
#
# Youngs Moduli (GPa) = 63.65906 108.21550 57.63936
#
# Poissons Ratio (x) = 0.33088 0.24225
# Poissons Ratio (y) = 0.19464 0.05757
# Poissons Ratio (z) = 0.26755 0.10809
#
# Static dielectric constant tensor:
#      x y z
#    x 4.211900 0.000000 0.000000 
#    y 0.000000 4.672960 0.000000 
#    z 0.000000 0.000000 3.680490 
# 
# 
# High freq. dielectric constant tensor:
#      x y z
#    x 1.928060 0.000000 0.000000 
#    y 0.000000 1.949000 0.000000 
#    z 0.000000 0.000000 1.881320 
# 
# From -- ./inp_files/10344.got.cif
#   From: 2010.03.12/outbox.cif.g09.slc.cpg/sg54_6_cif.got.tgz:10344.got - 2010.04.16 15:00:50.
