data_PCOD8223472
_publ_section_title
;
Structure prediction by ZEFSAII (Michael W. Deem and Ramdas Pophale) SiO2 
 PCOD8223472
Probable space group: P C C A
;
_chemical_formula_sum "Si O2"
_cell_formula_units_Z 64
_cell_length_a 18.005811
_cell_length_b 16.125179
_cell_length_c 11.045295
_cell_angle_alpha 90.000000
_cell_angle_beta 90.000000
_cell_angle_gamma 90.000000
_cell_volume 3206.967444
_symmetry_space_group_name_H-M "P C C A"
_symmetry_group_IT_number 54
_symmetry_cell_setting 'orthorhombic'
loop_
_space_group_symop_operation_xyz
x,y,z
1/2-x,-y,z
1/2+x,-y,1/2-z
-x,y,1/2-z
-x,-y,-z
1/2+x,y,-z
1/2-x,y,1/2+z
x,-y,1/2+z
loop_
_atom_site_type_symbol
_atom_site_label
_atom_site_fract_x
_atom_site_fract_y
_atom_site_fract_z
Si Si1 0.540364 0.896080 0.877329
Si Si2 0.671131 0.786084 0.381205
Si Si3 0.166331 0.762757 0.152991
Si Si4 0.417830 0.467513 0.527365
Si Si5 0.830741 0.331919 0.601656
Si Si6 0.671281 0.617538 0.032957
Si Si7 0.544270 0.088303 0.874838
Si Si8 0.918779 0.349579 0.254875
O O1 0.500000 0.877868 0.750000
O O2 0.610364 0.836466 0.874171
O O3 0.563582 0.991691 0.883293
O O4 0.495686 0.877954 0.002468
O O5 0.753912 0.807225 0.337635
O O6 0.669238 0.747705 0.514624
O O7 0.624212 0.869327 0.371346
O O8 0.641349 0.718413 0.288248
O O9 0.149912 0.706303 0.269024
O O10 0.164371 0.700765 0.041921
O O11 0.500000 0.500000 0.500000
O O12 0.396175 0.396324 0.430209
O O13 0.350439 0.534615 0.540696
O O14 0.419927 0.428185 0.658977
O O15 0.752916 0.383159 0.594392
O O16 0.603828 0.614852 0.126663
O O17 0.500000 0.108073 0.750000
O O18 0.000000 0.307205 0.250000
#
# Coordination Sequence:
#
# PCOD8223472 Si02
#       8
#     8   8   8   8   8   8   8   8
#     4  10  23  42  61  98 132 165 206 256 319 381
#     4  10  22  39  64  91 119 164 210 253 310 368
#     4  11  24  39  65  90 126 162 209 253 313 378
#     4  11  24  40  61  90 118 160 211 257 308 365
#     4  10  23  44  59  87 128 164 202 262 313 373
#     4  11  24  41  61  90 120 165 209 251 319 370
#     4  10  22  40  68  93 128 168 209 255 314 381
#     4  11  22  39  63  87 124 155 210 263 304 373
#
# _framework density 19.956547
#
# number of rings (size 3 to 8) (size 9 to 14) (size 15 to 20)
#    0.000    1.500    2.500    1.500    5.250    1.500 
#    0.000    0.000    0.000    6.000    0.000    0.000 
#    0.000    0.000    0.000    0.000    0.000    0.000 
#
# Total GULP energy -793353.156931 kJ/mol
# GULP energy per Si atom -12396.143077 kJ/mol
# Density = 1.991113 g / cm^3
# Si number density = 19.956547 Si / 1000 Ang^3
#
#
#
# Elastic Constant Matrix: (Units=GPa)
#
#
# Indices 1 2 3 4 5 6 
#
# 1 87.9227 38.9079 51.3373 0.0000 0.0000 0.0000
# 2 38.9079 67.8260 32.7302 0.0000 0.0000 0.0000
# 3 51.3373 32.7302 117.2291 0.0000 0.0000 0.0000
# 4 0.0000 0.0000 0.0000 -9.6838 0.0000 0.0000
# 5 0.0000 0.0000 0.0000 0.0000 26.3028 0.0000
# 6 0.0000 0.0000 0.0000 0.0000 0.0000 18.9842
#
#
#
# Elastic Compliance Matrix: (Units=1/GPa)
#
#
# Indices 1 2 3 4 5 6 
#
# 1 0.018132 -0.007593 -0.005821 0.000000 0.000000 0.000000
# 2 -0.007593 0.020219 -0.002320 0.000000 0.000000 0.000000
# 3 -0.005821 -0.002320 0.011727 0.000000 0.000000 0.000000
# 4 0.000000 0.000000 0.000000 -0.103265 0.000000 0.000000
# 5 0.000000 0.000000 0.000000 0.000000 0.038019 0.000000
# 6 0.000000 0.000000 0.000000 0.000000 0.000000 0.052675
#
#
# Mechanical properties :
#
#
# Convention : Reuss Voigt Hill
#
# Bulk Modulus (GPa) = 53.73086 57.65874 55.69480
# Shear Modulus (GPa) = 66.50956 17.12080 41.81518
#
# Velocity S-wave (km/s) = 5.77923 2.93218 4.58242
# Velocity P-wave (km/s) = 8.45666 6.35755 7.48109
#
# Compressibility (1/GPa) = 0.01861128
#
# Stress axis : x y z
#
# Youngs Moduli (GPa) = 55.15065 49.45944 85.27289
#
# Poissons Ratio (x) = 0.37552 0.49634
# Poissons Ratio (y) = 0.41873 0.19784
# Poissons Ratio (z) = 0.32101 0.11475
#
# Static dielectric constant tensor:
#      x y z
#    x 3.922080 0.000000 0.000000 
#    y 0.000000 3.864310 0.000000 
#    z 0.000000 0.000000 3.797730 
# 
# 
# High freq. dielectric constant tensor:
#      x y z
#    x 1.783110 0.000000 0.000000 
#    y 0.000000 1.778420 0.000000 
#    z 0.000000 0.000000 1.788980 
# 
# From -- ./inp_files/9089.got.cif
#   From: 2010.03.12/outbox.cif.g09.slc.cpg/sg54_5_cif.got.tgz:9089.got - 2010.04.16 15:00:50.
