data_PCOD8223988
_publ_section_title
;
Structure prediction by ZEFSAII (Michael W. Deem and Ramdas Pophale) SiO2 
 PCOD8223988
Probable space group: P C C A
;
_chemical_formula_sum "Si O2"
_cell_formula_units_Z 32
_cell_length_a 11.482357
_cell_length_b 9.129329
_cell_length_c 14.471932
_cell_angle_alpha 90.000000
_cell_angle_beta 90.000000
_cell_angle_gamma 90.000000
_cell_volume 1517.037852
_symmetry_space_group_name_H-M "P C C A"
_symmetry_group_IT_number 54
_symmetry_cell_setting 'orthorhombic'
loop_
_space_group_symop_operation_xyz
x,y,z
1/2-x,-y,z
1/2+x,-y,1/2-z
-x,y,1/2-z
-x,-y,-z
1/2+x,y,-z
1/2-x,y,1/2+z
x,-y,1/2+z
loop_
_atom_site_type_symbol
_atom_site_label
_atom_site_fract_x
_atom_site_fract_y
_atom_site_fract_z
Si Si1 0.044080 0.335942 0.657236
Si Si2 0.756052 0.171746 0.930390
Si Si3 0.871512 0.645642 0.781074
Si Si4 0.710103 0.649144 0.601099
O O1 0.114390 0.223400 0.594867
O O2 0.124023 0.476415 0.684876
O O3 0.000000 0.253471 0.750000
O O4 0.927127 0.382992 0.606193
O O5 0.661783 0.249638 0.865430
O O6 0.750000 0.000000 0.916707
O O7 0.733676 0.210483 0.037440
O O8 0.777024 0.666653 0.698995
O O9 0.000000 0.694955 0.750000
O O10 0.750000 0.500000 0.550124
#
# Coordination Sequence:
#
# PCOD8223988 Si02
#       4
#     8   8   8   8
#     4  11  22  46  75  99 131 177 235 294 341 395
#     4  12  29  44  62 102 147 186 223 272 350 427
#     4  11  23  45  74 101 128 176 234 294 343 396
#     4  12  23  43  75 102 132 173 235 292 344 402
#
# _framework density 21.093738999999999
#
# number of rings (size 3 to 8) (size 9 to 14) (size 15 to 20)
#    0.000    0.500    7.500    2.250    3.500    5.000 
#    0.000    0.000    0.000    0.000    0.000    0.000 
#    0.000    0.000    0.000    0.000    0.000    0.000 
#
# Total GULP energy -396719.373727 kJ/mol
# GULP energy per Si atom -12397.480429 kJ/mol
# Density = 2.104573 g / cm^3
# Si number density = 21.093739 Si / 1000 Ang^3
#
#
#
# Elastic Constant Matrix: (Units=GPa)
#
#
# Indices 1 2 3 4 5 6 
#
# 1 142.6874 59.5616 46.9986 0.0000 0.0000 0.0000
# 2 59.5616 125.3707 65.5590 0.0000 0.0000 0.0000
# 3 46.9986 65.5590 116.6510 0.0000 0.0000 0.0000
# 4 0.0000 0.0000 0.0000 16.2578 0.0000 0.0000
# 5 0.0000 0.0000 0.0000 0.0000 24.6778 0.0000
# 6 0.0000 0.0000 0.0000 0.0000 0.0000 11.0494
#
#
#
# Elastic Compliance Matrix: (Units=1/GPa)
#
#
# Indices 1 2 3 4 5 6 
#
# 1 0.008982 -0.003363 -0.001729 0.000000 0.000000 0.000000
# 2 -0.003363 0.012555 -0.005701 0.000000 0.000000 0.000000
# 3 -0.001729 -0.005701 0.012473 0.000000 0.000000 0.000000
# 4 0.000000 0.000000 0.000000 0.061509 0.000000 0.000000
# 5 0.000000 0.000000 0.000000 0.000000 0.040522 0.000000
# 6 0.000000 0.000000 0.000000 0.000000 0.000000 0.090502
#
#
# Mechanical properties :
#
#
# Convention : Reuss Voigt Hill
#
# Bulk Modulus (GPa) = 80.48756 80.99416 80.74086
# Shear Modulus (GPa) = 19.81997 24.56968 22.19482
#
# Velocity S-wave (km/s) = 3.06864 3.41660 3.24728
# Velocity P-wave (km/s) = 7.12708 7.35152 7.24017
#
# Compressibility (1/GPa) = 0.01242428
#
# Stress axis : x y z
#
# Youngs Moduli (GPa) = 111.33970 79.64703 80.17192
#
# Poissons Ratio (x) = 0.26786 0.13858
# Poissons Ratio (y) = 0.37444 0.45708
# Poissons Ratio (z) = 0.19246 0.45409
#
# Static dielectric constant tensor:
#      x y z
#    x 4.126910 0.000000 0.000000 
#    y 0.000000 3.480960 0.000000 
#    z 0.000000 0.000000 3.946440 
# 
# 
# High freq. dielectric constant tensor:
#      x y z
#    x 1.856490 0.000000 0.000000 
#    y 0.000000 1.789850 0.000000 
#    z 0.000000 0.000000 1.831860 
# 
# From -- ./inp_files/12163.got.cif
#   From: 2010.03.12/outbox.cif.g09.slc.cpg/sg54_7_cif.got.tgz:12163.got - 2010.04.16 15:00:50.
