data_PCOD8223291
_publ_section_title
;
Structure prediction by ZEFSAII (Michael W. Deem and Ramdas Pophale) SiO2 
 PCOD8223291
Probable space group: P C C A
;
_chemical_formula_sum "Si O2"
_cell_formula_units_Z 48
_cell_length_a 16.093419
_cell_length_b 23.127183
_cell_length_c 5.230238
_cell_angle_alpha 90.000000
_cell_angle_beta 90.000000
_cell_angle_gamma 90.000000
_cell_volume 1946.670767
_symmetry_space_group_name_H-M "P C C A"
_symmetry_group_IT_number 54
_symmetry_cell_setting 'orthorhombic'
loop_
_space_group_symop_operation_xyz
x,y,z
1/2-x,-y,z
1/2+x,-y,1/2-z
-x,y,1/2-z
-x,-y,-z
1/2+x,y,-z
1/2-x,y,1/2+z
x,-y,1/2+z
loop_
_atom_site_type_symbol
_atom_site_label
_atom_site_fract_x
_atom_site_fract_y
_atom_site_fract_z
Si Si1 0.466442 0.565622 0.499253
Si Si2 0.404874 0.963987 0.754652
Si Si3 0.212032 0.296899 0.118958
Si Si4 0.946393 0.760784 0.002919
Si Si5 0.220501 0.575105 0.097729
Si Si6 0.694899 0.850504 0.642375
O O1 0.500000 0.598491 0.250000
O O2 0.500000 0.500000 0.500000
O O3 0.369302 0.572128 0.479818
O O4 0.500000 0.598264 0.750000
O O5 0.500000 0.940909 0.750000
O O6 0.339531 0.915080 0.830256
O O7 0.389008 0.986566 0.466933
O O8 0.240995 0.265232 0.381437
O O9 0.243707 0.361937 0.168693
O O10 0.112882 0.293176 0.080974
O O11 0.887375 0.812128 0.098525
O O12 0.000000 0.741634 0.250000
O O13 0.000000 0.778132 0.750000
O O14 0.222347 0.544259 0.377789
O O15 0.754273 0.838385 0.400979
#
# Coordination Sequence:
#
# PCOD8223291 Si02
#       6
#     8   8   8   8   8   8
#     4  10  21  40  62  92 128 166 213 261 306 366
#     4  10  22  40  62  90 128 170 214 265 321 379
#     4  10  21  42  65  92 126 162 204 257 320 383
#     4  12  25  43  67  94 125 164 212 265 324 391
#     4  10  21  40  64  91 125 167 207 257 316 374
#     4  12  25  41  65  94 129 170 215 269 323 390
#
# _framework density 24.657481000000001
#
# number of rings (size 3 to 8) (size 9 to 14) (size 15 to 20)
#    0.000    1.333    0.000    5.500    0.000    4.000 
#    0.000   30.000    0.000    0.000    0.000    0.000 
#    0.000    0.000    0.000    0.000    0.000    0.000 
#
# Total GULP energy -594669.029855 kJ/mol
# GULP energy per Si atom -12388.938122 kJ/mol
# Density = 2.460136 g / cm^3
# Si number density = 24.657481 Si / 1000 Ang^3
#
#
#
# Elastic Constant Matrix: (Units=GPa)
#
#
# Indices 1 2 3 4 5 6 
#
# 1 131.2006 31.2018 46.9231 0.0000 0.0000 0.0000
# 2 31.2018 61.8735 3.7146 0.0000 0.0000 0.0000
# 3 46.9231 3.7146 226.1172 0.0000 0.0000 0.0000
# 4 0.0000 0.0000 0.0000 20.5313 0.0000 0.0000
# 5 0.0000 0.0000 0.0000 0.0000 62.0699 0.0000
# 6 0.0000 0.0000 0.0000 0.0000 0.0000 44.6645
#
#
#
# Elastic Compliance Matrix: (Units=1/GPa)
#
#
# Indices 1 2 3 4 5 6 
#
# 1 0.009391 -0.004623 -0.001873 0.000000 0.000000 0.000000
# 2 -0.004623 0.018454 0.000656 0.000000 0.000000 0.000000
# 3 -0.001873 0.000656 0.004800 0.000000 0.000000 0.000000
# 4 0.000000 0.000000 0.000000 0.048706 0.000000 0.000000
# 5 0.000000 0.000000 0.000000 0.000000 0.016111 0.000000
# 6 0.000000 0.000000 0.000000 0.000000 0.000000 0.022389
#
#
# Mechanical properties :
#
#
# Convention : Reuss Voigt Hill
#
# Bulk Modulus (GPa) = 47.69701 64.76336 56.23019
# Shear Modulus (GPa) = 36.09574 47.94327 42.01951
#
# Velocity S-wave (km/s) = 3.83023 4.41428 4.13259
# Velocity P-wave (km/s) = 6.24073 7.23211 6.75463
#
# Compressibility (1/GPa) = 0.02096567
#
# Stress axis : x y z
#
# Youngs Moduli (GPa) = 106.48181 54.18844 208.31766
#
# Poissons Ratio (x) = 0.25054 0.39016
# Poissons Ratio (y) = 0.49231 -0.13671
# Poissons Ratio (z) = 0.19943 -0.03556
#
# Static dielectric constant tensor:
#      x y z
#    x 4.556070 0.000000 0.000000 
#    y 0.000000 4.242070 0.000000 
#    z 0.000000 0.000000 5.454580 
# 
# 
# High freq. dielectric constant tensor:
#      x y z
#    x 1.985500 0.000000 0.000000 
#    y 0.000000 1.963690 0.000000 
#    z 0.000000 0.000000 2.026660 
# 
# From -- ./inp_files/608.got.cif
#   From: 2010.03.12/outbox.cif.g09.slc.cpg/sg54_1_cif.got.tgz:608.got - 2010.04.16 15:00:50.
