data_PCOD8223125
_publ_section_title
;
Structure prediction by ZEFSAII (Michael W. Deem and Ramdas Pophale) SiO2 
 PCOD8223125
Probable space group: P C C A
;
_chemical_formula_sum "Si O2"
_cell_formula_units_Z 48
_cell_length_a 17.549602
_cell_length_b 25.870229
_cell_length_c 5.168824
_cell_angle_alpha 90.000000
_cell_angle_beta 90.000000
_cell_angle_gamma 90.000000
_cell_volume 2346.709272
_symmetry_space_group_name_H-M "P C C A"
_symmetry_group_IT_number 54
_symmetry_cell_setting 'orthorhombic'
loop_
_space_group_symop_operation_xyz
x,y,z
1/2-x,-y,z
1/2+x,-y,1/2-z
-x,y,1/2-z
-x,-y,-z
1/2+x,y,-z
1/2-x,y,1/2+z
x,-y,1/2+z
loop_
_atom_site_type_symbol
_atom_site_label
_atom_site_fract_x
_atom_site_fract_y
_atom_site_fract_z
Si Si1 0.202939 0.263594 0.411869
Si Si2 0.283359 0.056956 0.031380
Si Si3 0.046945 0.083561 0.502350
Si Si4 0.296531 0.383800 0.903530
Si Si5 0.952403 0.795101 0.499063
Si Si6 0.589350 0.468924 0.739961
O O1 0.265563 0.248940 0.628926
O O2 0.181728 0.323801 0.406220
O O3 0.127970 0.232614 0.485231
O O4 0.241395 0.086655 0.794678
O O5 0.250000 0.000000 0.081532
O O6 0.373434 0.053623 0.994055
O O7 0.063993 0.144162 0.516599
O O8 0.000000 0.064352 0.750000
O O9 0.000000 0.067913 0.250000
O O10 0.233286 0.398400 0.688514
O O11 0.372422 0.414664 0.830565
O O12 0.000000 0.779993 0.750000
O O13 0.000000 0.776186 0.250000
O O14 0.500000 0.458405 0.750000
O O15 0.614544 0.510110 0.520388
#
# Coordination Sequence:
#
# PCOD8223125 Si02
#       6
#     8   8   8   8   8   8
#     4  10  21  37  56  82 114 146 181 226 280 334
#     4  10  21  38  56  82 114 145 187 231 271 326
#     4  10  21  38  59  83 113 148 186 231 279 327
#     4  10  21  36  54  78 107 139 178 220 266 324
#     4  10  21  37  58  85 113 144 186 229 274 334
#     4  10  21  36  53  76 105 137 178 224 269 318
#
# _framework density 20.454172
#
# number of rings (size 3 to 8) (size 9 to 14) (size 15 to 20)
#    0.000    2.000    0.000    3.000    0.000    4.000 
#    0.000   12.500    0.000    0.000    0.000    0.000 
#    0.000    0.000    0.000    0.000    0.000    0.000 
#
# Total GULP energy -595213.721965 kJ/mol
# GULP energy per Si atom -12400.285874 kJ/mol
# Density = 2.040762 g / cm^3
# Si number density = 20.454172 Si / 1000 Ang^3
#
#
#
# Elastic Constant Matrix: (Units=GPa)
#
#
# Indices 1 2 3 4 5 6 
#
# 1 122.1537 41.4535 39.6356 0.0000 0.0000 0.0000
# 2 41.4535 41.0820 15.4313 0.0000 0.0000 0.0000
# 3 39.6356 15.4313 152.5874 0.0000 0.0000 0.0000
# 4 0.0000 0.0000 0.0000 -0.9390 0.0000 0.0000
# 5 0.0000 0.0000 0.0000 0.0000 36.2979 0.0000
# 6 0.0000 0.0000 0.0000 0.0000 0.0000 38.8835
#
#
#
# Elastic Compliance Matrix: (Units=1/GPa)
#
#
# Indices 1 2 3 4 5 6 
#
# 1 0.013092 -0.012405 -0.002146 0.000000 0.000000 0.000000
# 2 -0.012405 0.037056 -0.000525 0.000000 0.000000 0.000000
# 3 -0.002146 -0.000525 0.007164 0.000000 0.000000 0.000000
# 4 0.000000 0.000000 0.000000 -1.064931 0.000000 0.000000
# 5 0.000000 0.000000 0.000000 0.000000 0.027550 0.000000
# 6 0.000000 0.000000 0.000000 0.000000 0.000000 0.025718
#
#
# Mechanical properties :
#
#
# Convention : Reuss Voigt Hill
#
# Bulk Modulus (GPa) = 36.81904 56.54042 46.67973
# Shear Modulus (GPa) = -5.46362 29.46865 12.00252
#
# Velocity S-wave (km/s) = -1.63614 3.79979 2.42502
# Velocity P-wave (km/s) = 3.80402 6.85228 5.54185
#
# Compressibility (1/GPa) = 0.02715986
#
# Stress axis : x y z
#
# Youngs Moduli (GPa) = 76.38008 26.98643 139.58149
#
# Poissons Ratio (x) = 0.33476 0.29959
# Poissons Ratio (y) = 0.94746 0.07332
# Poissons Ratio (z) = 0.16394 0.01418
#
# Static dielectric constant tensor:
#      x y z
#    x 3.393070 0.000000 0.000000 
#    y 0.000000 3.490130 0.000000 
#    z 0.000000 0.000000 37.132650 
# 
# 
# High freq. dielectric constant tensor:
#      x y z
#    x 1.799810 0.000000 0.000000 
#    y 0.000000 1.777510 0.000000 
#    z 0.000000 0.000000 1.831420 
# 
# From -- ./inp_files/632.got.cif
#   From: 2010.03.12/outbox.cif.g09.slc.cpg/sg54_1_cif.got.tgz:632.got - 2010.04.16 15:00:50.
