data_PCOD8223545
_publ_section_title
;
Structure prediction by ZEFSAII (Michael W. Deem and Ramdas Pophale) SiO2 
 PCOD8223545
Probable space group: P C C A
;
_chemical_formula_sum "Si O2"
_cell_formula_units_Z 56
_cell_length_a 9.978128
_cell_length_b 15.010170
_cell_length_c 19.931008
_cell_angle_alpha 90.000000
_cell_angle_beta 90.000000
_cell_angle_gamma 90.000000
_cell_volume 2985.134785
_symmetry_space_group_name_H-M "P C C A"
_symmetry_group_IT_number 54
_symmetry_cell_setting 'orthorhombic'
loop_
_space_group_symop_operation_xyz
x,y,z
1/2-x,-y,z
1/2+x,-y,1/2-z
-x,y,1/2-z
-x,-y,-z
1/2+x,y,-z
1/2-x,y,1/2+z
x,-y,1/2+z
loop_
_atom_site_type_symbol
_atom_site_label
_atom_site_fract_x
_atom_site_fract_y
_atom_site_fract_z
Si Si1 0.500000 0.217165 0.250000
Si Si2 0.598423 0.305067 0.621535
Si Si3 0.591237 0.318753 0.123515
Si Si4 0.232213 0.101630 0.554354
Si Si5 0.095663 0.495737 0.436248
Si Si6 0.984606 0.200521 0.501968
Si Si7 0.500000 0.214949 0.750000
Si Si8 0.250782 0.103710 0.212047
O O1 0.505608 0.281203 0.185339
O O2 0.375794 0.151240 0.246010
O O3 0.755081 0.293485 0.636187
O O4 0.562673 0.406034 0.603464
O O5 0.556690 0.238791 0.562924
O O6 0.513238 0.279741 0.686618
O O7 0.569145 0.424640 0.116511
O O8 0.537578 0.279314 0.054201
O O9 0.341003 0.159045 0.514614
O O10 0.251443 0.117580 0.632758
O O11 0.081629 0.126929 0.533987
O O12 0.250000 0.000000 0.533729
O O13 0.250000 0.500000 0.461544
O O14 0.000000 0.500000 0.500000
O O15 0.623862 0.149221 0.755045
O O16 0.250000 0.000000 0.231640
#
# Coordination Sequence:
#
# PCOD8223545 Si02
#       8
#     4   8   8   8   8   8   4   8
#     4  12  23  43  64  90 128 168 208 253 311 374
#     4  11  23  40  65  92 127 160 203 255 310 366
#     4  11  23  40  65  92 127 160 203 255 310 366
#     4  11  24  39  59  92 123 157 206 258 307 363
#     4  10  22  41  64  96 126 158 204 255 306 372
#     4  12  21  39  64  88 122 160 198 255 311 362
#     4  12  23  43  64  90 128 168 208 253 311 374
#     4  11  24  41  63  92 125 165 212 262 309 367
#
# _framework density 18.759620999999999
#
# number of rings (size 3 to 8) (size 9 to 14) (size 15 to 20)
#    0.000    0.857    7.143    0.857    0.000    0.571 
#    2.571    1.429    0.000    0.000    0.000    0.000 
#    0.000    0.000    0.000    0.000    0.000    0.000 
#
# Total GULP energy -694678.930456 kJ/mol
# GULP energy per Si atom -12404.980901 kJ/mol
# Density = 1.871692 g / cm^3
# Si number density = 18.759621 Si / 1000 Ang^3
#
#
#
# Elastic Constant Matrix: (Units=GPa)
#
#
# Indices 1 2 3 4 5 6 
#
# 1 100.3052 45.5415 21.6389 0.0000 0.0000 0.0000
# 2 45.5415 115.2397 52.8914 0.0000 0.0000 0.0000
# 3 21.6389 52.8914 79.8935 0.0000 0.0000 0.0000
# 4 0.0000 0.0000 0.0000 9.7049 0.0000 0.0000
# 5 0.0000 0.0000 0.0000 0.0000 28.6035 0.0000
# 6 0.0000 0.0000 0.0000 0.0000 0.0000 22.7829
#
#
#
# Elastic Compliance Matrix: (Units=1/GPa)
#
#
# Indices 1 2 3 4 5 6 
#
# 1 0.012151 -0.004728 -0.000161 0.000000 0.000000 0.000000
# 2 -0.004728 0.014305 -0.008190 0.000000 0.000000 0.000000
# 3 -0.000161 -0.008190 0.017982 0.000000 0.000000 0.000000
# 4 0.000000 0.000000 0.000000 0.103041 0.000000 0.000000
# 5 0.000000 0.000000 0.000000 0.000000 0.034961 0.000000
# 6 0.000000 0.000000 0.000000 0.000000 0.000000 0.043893
#
#
# Mechanical properties :
#
#
# Convention : Reuss Voigt Hill
#
# Bulk Modulus (GPa) = 54.70284 59.50909 57.10597
# Shear Modulus (GPa) = 19.33617 23.90936 21.62276
#
# Velocity S-wave (km/s) = 3.21399 3.57390 3.39871
# Velocity P-wave (km/s) = 6.55714 6.98721 6.77559
#
# Compressibility (1/GPa) = 0.01828059
#
# Stress axis : x y z
#
# Youngs Moduli (GPa) = 82.29794 69.90670 55.61140
#
# Poissons Ratio (x) = 0.33052 0.00895
# Poissons Ratio (y) = 0.38911 0.45543
# Poissons Ratio (z) = 0.01325 0.57250
#
# Static dielectric constant tensor:
#      x y z
#    x 3.486560 0.000000 0.000000 
#    y 0.000000 3.616720 0.000000 
#    z 0.000000 0.000000 3.399950 
# 
# 
# High freq. dielectric constant tensor:
#      x y z
#    x 1.738990 0.000000 0.000000 
#    y 0.000000 1.741020 0.000000 
#    z 0.000000 0.000000 1.730080 
# 
# From -- ./inp_files/20579.got.cif
#   From: 2010.03.12/outbox.cif.g09.slc.cpg/sg54_11_cif.got.tgz:20579.got - 2010.04.16 15:00:50.
