data_PCOD8223333
_publ_section_title
;
Structure prediction by ZEFSAII (Michael W. Deem and Ramdas Pophale) SiO2 
 PCOD8223333
Probable space group: P C C A
;
_chemical_formula_sum "Si O2"
_cell_formula_units_Z 56
_cell_length_a 22.160412
_cell_length_b 13.089763
_cell_length_c 9.645893
_cell_angle_alpha 90.000000
_cell_angle_beta 90.000000
_cell_angle_gamma 90.000000
_cell_volume 2798.027985
_symmetry_space_group_name_H-M "P C C A"
_symmetry_group_IT_number 54
_symmetry_cell_setting 'orthorhombic'
loop_
_space_group_symop_operation_xyz
x,y,z
1/2-x,-y,z
1/2+x,-y,1/2-z
-x,y,1/2-z
-x,-y,-z
1/2+x,y,-z
1/2-x,y,1/2+z
x,-y,1/2+z
loop_
_atom_site_type_symbol
_atom_site_label
_atom_site_fract_x
_atom_site_fract_y
_atom_site_fract_z
Si Si1 0.541616 0.016640 0.374306
Si Si2 0.375417 0.348156 0.032054
Si Si3 0.312121 0.447281 0.526193
Si Si4 0.986243 0.239198 0.900552
Si Si5 0.609207 0.166846 0.964776
Si Si6 0.686504 0.710582 0.246993
Si Si7 0.679989 0.734100 0.689149
O O1 0.500000 0.975510 0.250000
O O2 0.554397 0.137749 0.364605
O O3 0.500000 0.000000 0.500000
O O4 0.601297 0.948308 0.404008
O O5 0.365848 0.470033 0.036648
O O6 0.446155 0.321396 0.015056
O O7 0.354401 0.291554 0.170915
O O8 0.339301 0.301398 0.905078
O O9 0.250000 0.500000 0.481749
O O10 0.303780 0.398531 0.678541
O O11 0.327180 0.363112 0.411901
O O12 0.000000 0.288111 0.750000
O O13 0.044700 0.216904 0.994985
O O14 0.640675 0.224845 0.838928
O O15 0.650279 0.170391 0.104605
O O16 0.751561 0.763916 0.227495
#
# Coordination Sequence:
#
# PCOD8223333 Si02
#       7
#     8   8   8   8   8   8   8
#     4   9  20  38  67  94 115 158 210 250 301 380
#     4  12  22  34  63  88 122 160 212 261 308 367
#     4  11  21  38  61  89 118 162 217 260 303 373
#     4  10  21  41  64  93 121 166 208 258 322 372
#     4  10  22  40  63  93 130 158 203 263 315 381
#     4  11  23  36  61  95 122 160 209 267 311 366
#     4  11  21  39  60  89 124 164 211 252 317 375
#
# _framework density 20.014097
#
# number of rings (size 3 to 8) (size 9 to 14) (size 15 to 20)
#    0.000    1.429    4.286    1.714    4.000    0.000 
#    0.000    2.857    0.000    5.143    0.000    0.000 
#    0.000    0.000    0.000    0.000    0.000    0.000 
#
# Total GULP energy -694013.271403 kJ/mol
# GULP energy per Si atom -12393.094132 kJ/mol
# Density = 1.996854 g / cm^3
# Si number density = 20.014097 Si / 1000 Ang^3
#
#
#
# Elastic Constant Matrix: (Units=GPa)
#
#
# Indices 1 2 3 4 5 6 
#
# 1 120.3693 50.0200 30.0739 0.0000 0.0000 0.0000
# 2 50.0200 65.6367 25.5154 0.0000 0.0000 0.0000
# 3 30.0739 25.5154 123.8518 0.0000 0.0000 0.0000
# 4 0.0000 0.0000 0.0000 22.3955 0.0000 0.0000
# 5 0.0000 0.0000 0.0000 0.0000 40.6738 0.0000
# 6 0.0000 0.0000 0.0000 0.0000 0.0000 32.8368
#
#
#
# Elastic Compliance Matrix: (Units=1/GPa)
#
#
# Indices 1 2 3 4 5 6 
#
# 1 0.012306 -0.008932 -0.001148 0.000000 0.000000 0.000000
# 2 -0.008932 0.023045 -0.002579 0.000000 0.000000 0.000000
# 3 -0.001148 -0.002579 0.008884 0.000000 0.000000 0.000000
# 4 0.000000 0.000000 0.000000 0.044652 0.000000 0.000000
# 5 0.000000 0.000000 0.000000 0.000000 0.024586 0.000000
# 6 0.000000 0.000000 0.000000 0.000000 0.000000 0.030454
#
#
# Mechanical properties :
#
#
# Convention : Reuss Voigt Hill
#
# Bulk Modulus (GPa) = 52.86084 57.89737 55.37910
# Shear Modulus (GPa) = 28.48191 32.79780 30.63985
#
# Velocity S-wave (km/s) = 3.77648 4.05252 3.91693
# Velocity P-wave (km/s) = 6.74425 7.13361 6.94166
#
# Compressibility (1/GPa) = 0.01891760
#
# Stress axis : x y z
#
# Youngs Moduli (GPa) = 81.25873 43.39396 112.55940
#
# Poissons Ratio (x) = 0.38760 0.12923
# Poissons Ratio (y) = 0.72581 0.29025
# Poissons Ratio (z) = 0.09329 0.11190
#
# Static dielectric constant tensor:
#      x y z
#    x 3.521830 0.000000 0.000000 
#    y 0.000000 2.045730 0.000000 
#    z 0.000000 0.000000 3.803940 
# 
# 
# High freq. dielectric constant tensor:
#      x y z
#    x 1.773620 0.000000 0.000000 
#    y 0.000000 1.755440 0.000000 
#    z 0.000000 0.000000 1.805250 
# 
# From -- ./inp_files/4819.got.cif
#   From: 2010.03.12/outbox.cif.g09.slc.cpg/sg54_3_cif.got.tgz:4819.got - 2010.04.16 15:00:50.
