data_PCOD8223115
_publ_section_title
;
Structure prediction by ZEFSAII (Michael W. Deem and Ramdas Pophale) SiO2 
 PCOD8223115
Probable space group: P C C A
;
_chemical_formula_sum "Si O2"
_cell_formula_units_Z 28
_cell_length_a 13.725867
_cell_length_b 17.906247
_cell_length_c 5.158320
_cell_angle_alpha 90.000000
_cell_angle_beta 90.000000
_cell_angle_gamma 90.000000
_cell_volume 1267.805518
_symmetry_space_group_name_H-M "P C C A"
_symmetry_group_IT_number 54
_symmetry_cell_setting 'orthorhombic'
loop_
_space_group_symop_operation_xyz
x,y,z
1/2-x,-y,z
1/2+x,-y,1/2-z
-x,y,1/2-z
-x,-y,-z
1/2+x,y,-z
1/2-x,y,1/2+z
x,-y,1/2+z
loop_
_atom_site_type_symbol
_atom_site_label
_atom_site_fract_x
_atom_site_fract_y
_atom_site_fract_z
Si Si1 0.000000 0.050945 0.750000
Si Si2 0.810664 0.321638 0.794820
Si Si3 0.607654 0.531810 0.954122
Si Si4 0.686740 0.847601 0.816915
O O1 0.904603 0.101251 0.758258
O O2 0.000000 0.000000 0.500000
O O3 0.776937 0.334468 0.499688
O O4 0.894504 0.381084 0.870989
O O5 0.851430 0.237725 0.816132
O O6 0.661862 0.483286 0.727956
O O7 0.500000 0.500000 0.000000
O O8 0.767927 0.864296 0.598574
#
# Coordination Sequence:
#
# PCOD8223115 Si02
#       4
#     4   8   8   8
#     4  12  26  42  68 104 132 166 210 256 322 396
#     4  10  21  38  60  84 114 157 206 253 306 368
#     4  10  21  35  52  80 114 151 196 246 305 358
#     4  10  23  44  67  94 130 172 215 264 319 381
#
# _framework density 22.085405000000002
#
# number of rings (size 3 to 8) (size 9 to 14) (size 15 to 20)
#    0.000    1.714    0.000    3.429    0.000    9.143 
#    0.000    8.571    0.000    0.000    0.000    0.000 
#    0.000    0.000    0.000    0.000    0.000    0.000 
#
# Total GULP energy -347012.856337 kJ/mol
# GULP energy per Si atom -12393.316298 kJ/mol
# Density = 2.203514 g / cm^3
# Si number density = 22.085405 Si / 1000 Ang^3
#
#
#
# Elastic Constant Matrix: (Units=GPa)
#
#
# Indices 1 2 3 4 5 6 
#
# 1 84.4706 76.5356 15.1856 0.0000 0.0000 0.0000
# 2 76.5356 174.5398 59.2207 0.0000 0.0000 0.0000
# 3 15.1856 59.2207 176.2201 0.0000 0.0000 0.0000
# 4 0.0000 0.0000 0.0000 41.0519 0.0000 0.0000
# 5 0.0000 0.0000 0.0000 0.0000 23.1160 0.0000
# 6 0.0000 0.0000 0.0000 0.0000 0.0000 48.7383
#
#
#
# Elastic Compliance Matrix: (Units=1/GPa)
#
#
# Indices 1 2 3 4 5 6 
#
# 1 0.019934 -0.009208 0.001377 0.000000 0.000000 0.000000
# 2 -0.009208 0.010720 -0.002809 0.000000 0.000000 0.000000
# 3 0.001377 -0.002809 0.006500 0.000000 0.000000 0.000000
# 4 0.000000 0.000000 0.000000 0.024359 0.000000 0.000000
# 5 0.000000 0.000000 0.000000 0.000000 0.043260 0.000000
# 6 0.000000 0.000000 0.000000 0.000000 0.000000 0.020518
#
#
# Mechanical properties :
#
#
# Convention : Reuss Voigt Hill
#
# Bulk Modulus (GPa) = 62.99909 81.90159 72.45034
# Shear Modulus (GPa) = 32.92415 41.53383 37.22899
#
# Velocity S-wave (km/s) = 3.86523 4.34129 4.11016
# Velocity P-wave (km/s) = 6.96471 7.89263 7.44314
#
# Compressibility (1/GPa) = 0.01587325
#
# Stress axis : x y z
#
# Youngs Moduli (GPa) = 50.16513 93.28094 153.84291
#
# Poissons Ratio (x) = 0.85895 -0.21180
# Poissons Ratio (y) = 0.46193 0.43217
# Poissons Ratio (z) = -0.06906 0.26204
#
# Static dielectric constant tensor:
#      x y z
#    x 3.567670 0.000000 0.000000 
#    y 0.000000 4.205110 0.000000 
#    z 0.000000 0.000000 -7.376760 
# 
# 
# High freq. dielectric constant tensor:
#      x y z
#    x 1.842230 0.000000 0.000000 
#    y 0.000000 1.878410 0.000000 
#    z 0.000000 0.000000 1.907500 
# 
# From -- ./inp_files/355.got.cif
#   From: 2010.03.12/outbox.cif.g09.slc.cpg/sg54_1_cif.got.tgz:355.got - 2010.04.16 15:00:50.
