data_PCOD8223437
_publ_section_title
;
Structure prediction by ZEFSAII (Michael W. Deem and Ramdas Pophale) SiO2 
 PCOD8223437
Probable space group: P C C A
;
_chemical_formula_sum "Si O2"
_cell_formula_units_Z 52
_cell_length_a 20.132863
_cell_length_b 7.653592
_cell_length_c 16.363097
_cell_angle_alpha 90.000000
_cell_angle_beta 90.000000
_cell_angle_gamma 90.000000
_cell_volume 2521.368659
_symmetry_space_group_name_H-M "P C C A"
_symmetry_group_IT_number 54
_symmetry_cell_setting 'orthorhombic'
loop_
_space_group_symop_operation_xyz
x,y,z
1/2-x,-y,z
1/2+x,-y,1/2-z
-x,y,1/2-z
-x,-y,-z
1/2+x,y,-z
1/2-x,y,1/2+z
x,-y,1/2+z
loop_
_atom_site_type_symbol
_atom_site_label
_atom_site_fract_x
_atom_site_fract_y
_atom_site_fract_z
Si Si1 0.698681 0.752288 0.010558
Si Si2 0.534129 0.932570 0.580751
Si Si3 0.657090 0.127295 0.988097
Si Si4 0.750000 0.500000 0.389324
Si Si5 0.590601 0.273969 0.649440
Si Si6 0.490714 0.581461 0.656469
Si Si7 0.627536 0.334634 0.833472
O O1 0.778487 0.771237 0.022561
O O2 0.693984 0.595502 0.945619
O O3 0.671625 0.925862 0.968282
O O4 0.657495 0.718138 0.094000
O O5 0.606233 0.852185 0.562343
O O6 0.508727 0.228393 0.385274
O O7 0.500000 0.000000 0.500000
O O8 0.544826 0.101697 0.638345
O O9 0.622365 0.191027 0.904638
O O10 0.794137 0.381289 0.330027
O O11 0.547766 0.445842 0.626663
O O12 0.608774 0.262993 0.744741
O O13 0.500000 0.623505 0.750000
O O14 0.418973 0.496647 0.640898
#
# Coordination Sequence:
#
# PCOD8223437 Si02
#       7
#     8   8   8   4   8   8   8
#     4   9  20  39  61  88 126 162 213 264 316 380
#     4  11  24  39  65  95 122 168 214 257 325 384
#     4   9  20  39  60  91 122 164 213 262 317 384
#     4  10  22  38  62  92 122 172 210 260 324 376
#     4  10  23  43  64  95 127 167 211 267 321 379
#     4  10  24  42  62  94 129 162 209 266 318 382
#     4  10  22  42  62  91 130 166 212 266 324 384
#
# _framework density 20.623721
#
# number of rings (size 3 to 8) (size 9 to 14) (size 15 to 20)
#    0.000    2.154    0.000    0.923    8.615    4.923 
#    5.538   10.769    0.000    0.000    0.000    0.000 
#    0.000    0.000    0.000    0.000    0.000    0.000 
#
# Total GULP energy -644329.252544 kJ/mol
# GULP energy per Si atom -12390.947164 kJ/mol
# Density = 2.057678 g / cm^3
# Si number density = 20.623721 Si / 1000 Ang^3
#
#
#
# Elastic Constant Matrix: (Units=GPa)
#
#
# Indices 1 2 3 4 5 6 
#
# 1 85.2777 39.5257 49.9755 0.0000 0.0000 0.0000
# 2 39.5257 129.3735 63.9231 0.0000 0.0000 0.0000
# 3 49.9755 63.9231 94.5078 0.0000 0.0000 0.0000
# 4 0.0000 0.0000 0.0000 34.7513 0.0000 0.0000
# 5 0.0000 0.0000 0.0000 0.0000 37.4663 0.0000
# 6 0.0000 0.0000 0.0000 0.0000 0.0000 17.6008
#
#
#
# Elastic Compliance Matrix: (Units=1/GPa)
#
#
# Indices 1 2 3 4 5 6 
#
# 1 0.017103 -0.001136 -0.008275 0.000000 0.000000 0.000000
# 2 -0.001136 0.011685 -0.007303 0.000000 0.000000 0.000000
# 3 -0.008275 -0.007303 0.019896 0.000000 0.000000 0.000000
# 4 0.000000 0.000000 0.000000 0.028776 0.000000 0.000000
# 5 0.000000 0.000000 0.000000 0.000000 0.026691 0.000000
# 6 0.000000 0.000000 0.000000 0.000000 0.000000 0.056815
#
#
# Mechanical properties :
#
#
# Convention : Reuss Voigt Hill
#
# Bulk Modulus (GPa) = 65.54946 68.44530 66.99738
# Shear Modulus (GPa) = 25.06525 28.34601 26.70563
#
# Velocity S-wave (km/s) = 3.48998 3.71136 3.60237
# Velocity P-wave (km/s) = 6.93488 7.18508 7.06108
#
# Compressibility (1/GPa) = 0.01525566
#
# Stress axis : x y z
#
# Youngs Moduli (GPa) = 58.47043 85.58066 50.26048
#
# Poissons Ratio (x) = 0.09725 0.41592
# Poissons Ratio (y) = 0.06644 0.36703
# Poissons Ratio (z) = 0.48386 0.62495
#
# Static dielectric constant tensor:
#      x y z
#    x 5.694260 0.000000 0.000000 
#    y 0.000000 3.875670 0.000000 
#    z 0.000000 0.000000 3.546260 
# 
# 
# High freq. dielectric constant tensor:
#      x y z
#    x 1.823110 0.000000 0.000000 
#    y 0.000000 1.816800 0.000000 
#    z 0.000000 0.000000 1.789630 
# 
# From -- ./inp_files/14926.got.cif
#   From: 2010.03.12/outbox.cif.g09.slc.cpg/sg54_8_cif.got.tgz:14926.got - 2010.04.16 15:00:50.
