data_PCOD8223840
_publ_section_title
;
Structure prediction by ZEFSAII (Michael W. Deem and Ramdas Pophale) SiO2 
 PCOD8223840
Probable space group: P C C A
;
_chemical_formula_sum "Si O2"
_cell_formula_units_Z 40
_cell_length_a 14.325586
_cell_length_b 8.691543
_cell_length_c 14.543468
_cell_angle_alpha 90.000000
_cell_angle_beta 90.000000
_cell_angle_gamma 90.000000
_cell_volume 1810.828241
_symmetry_space_group_name_H-M "P C C A"
_symmetry_group_IT_number 54
_symmetry_cell_setting 'orthorhombic'
loop_
_space_group_symop_operation_xyz
x,y,z
1/2-x,-y,z
1/2+x,-y,1/2-z
-x,y,1/2-z
-x,-y,-z
1/2+x,y,-z
1/2-x,y,1/2+z
x,-y,1/2+z
loop_
_atom_site_type_symbol
_atom_site_label
_atom_site_fract_x
_atom_site_fract_y
_atom_site_fract_z
Si Si1 0.678666 0.127262 0.311990
Si Si2 0.883421 0.819355 0.118157
Si Si3 0.231945 0.681793 0.019888
Si Si4 0.489458 0.082080 0.645749
Si Si5 0.021270 0.676547 0.998057
O O1 0.645108 0.222432 0.222383
O O2 0.733796 0.244091 0.378646
O O3 0.750000 0.000000 0.274882
O O4 0.593854 0.041906 0.364194
O O5 0.803137 0.771626 0.046433
O O6 0.913196 0.000277 0.113108
O O7 0.979770 0.730226 0.095812
O O8 0.250000 0.500000 0.026134
O O9 0.129178 0.707628 0.980483
O O10 0.500000 0.140244 0.750000
O O11 0.467010 0.229554 0.582266
O O12 0.000000 0.500000 0.000000
#
# Coordination Sequence:
#
# PCOD8223840 Si02
#       5
#     8   8   8   8   8
#     4  11  26  44  75 106 141 186 243 299 351 431
#     4  11  25  47  71 103 141 186 241 296 356 426
#     4  12  27  45  71 106 144 190 236 291 366 429
#     4  10  24  46  71 106 138 185 241 294 360 419
#     4  12  25  46  70 101 146 191 233 295 366 431
#
# _framework density 22.089338999999999
#
# number of rings (size 3 to 8) (size 9 to 14) (size 15 to 20)
#    0.000    0.800    4.000    1.800    8.400    0.800 
#    3.600    0.000    0.000    0.000    0.000    0.000 
#    0.000    0.000    0.000    0.000    0.000    0.000 
#
# Total GULP energy -495761.465641 kJ/mol
# GULP energy per Si atom -12394.036641 kJ/mol
# Density = 2.203906 g / cm^3
# Si number density = 22.089339 Si / 1000 Ang^3
#
#
#
# Elastic Constant Matrix: (Units=GPa)
#
#
# Indices 1 2 3 4 5 6 
#
# 1 126.8827 47.7795 56.4660 0.0000 0.0000 0.0000
# 2 47.7795 136.0684 100.2865 0.0000 0.0000 0.0000
# 3 56.4660 100.2865 150.9947 0.0000 0.0000 0.0000
# 4 0.0000 0.0000 0.0000 16.2065 0.0000 0.0000
# 5 0.0000 0.0000 0.0000 0.0000 43.8666 0.0000
# 6 0.0000 0.0000 0.0000 0.0000 0.0000 35.8916
#
#
#
# Elastic Compliance Matrix: (Units=1/GPa)
#
#
# Indices 1 2 3 4 5 6 
#
# 1 0.009593 -0.001419 -0.002645 0.000000 0.000000 0.000000
# 2 -0.001419 0.014607 -0.009171 0.000000 0.000000 0.000000
# 3 -0.002645 -0.009171 0.013703 0.000000 0.000000 0.000000
# 4 0.000000 0.000000 0.000000 0.061704 0.000000 0.000000
# 5 0.000000 0.000000 0.000000 0.000000 0.022796 0.000000
# 6 0.000000 0.000000 0.000000 0.000000 0.000000 0.027862
#
#
# Mechanical properties :
#
#
# Convention : Reuss Voigt Hill
#
# Bulk Modulus (GPa) = 87.46647 91.44553 89.45600
# Shear Modulus (GPa) = 27.69417 33.15385 30.42401
#
# Velocity S-wave (km/s) = 3.54465 3.87835 3.71525
# Velocity P-wave (km/s) = 7.51235 7.84496 7.68045
#
# Compressibility (1/GPa) = 0.01143295
#
# Stress axis : x y z
#
# Youngs Moduli (GPa) = 104.24627 68.46252 72.97898
#
# Poissons Ratio (x) = 0.09716 0.19301
# Poissons Ratio (y) = 0.14794 0.66926
# Poissons Ratio (z) = 0.27570 0.62784
#
# Static dielectric constant tensor:
#      x y z
#    x 4.490700 0.000000 0.000000 
#    y 0.000000 3.860940 0.000000 
#    z 0.000000 0.000000 3.965140 
# 
# 
# High freq. dielectric constant tensor:
#      x y z
#    x 1.891710 0.000000 0.000000 
#    y 0.000000 1.857850 0.000000 
#    z 0.000000 0.000000 1.866640 
# 
# From -- ./inp_files/13197.got.cif
#   From: 2010.03.12/outbox.cif.g09.slc.cpg/sg54_7_cif.got.tgz:13197.got - 2010.04.16 15:00:50.
