data_PCOD8223475
_publ_section_title
;
Structure prediction by ZEFSAII (Michael W. Deem and Ramdas Pophale) SiO2 
 PCOD8223475
Probable space group: P C C A
;
_chemical_formula_sum "Si O2"
_cell_formula_units_Z 56
_cell_length_a 14.524013
_cell_length_b 20.040203
_cell_length_c 8.872647
_cell_angle_alpha 90.000000
_cell_angle_beta 90.000000
_cell_angle_gamma 90.000000
_cell_volume 2582.509625
_symmetry_space_group_name_H-M "P C C A"
_symmetry_group_IT_number 54
_symmetry_cell_setting 'orthorhombic'
loop_
_space_group_symop_operation_xyz
x,y,z
1/2-x,-y,z
1/2+x,-y,1/2-z
-x,y,1/2-z
-x,-y,-z
1/2+x,y,-z
1/2-x,y,1/2+z
x,-y,1/2+z
loop_
_atom_site_type_symbol
_atom_site_label
_atom_site_fract_x
_atom_site_fract_y
_atom_site_fract_z
Si Si1 0.681967 0.870407 0.234422
Si Si2 0.145461 0.355975 0.985391
Si Si3 0.339688 0.799495 0.949915
Si Si4 0.250000 0.000000 0.628855
Si Si5 0.218890 0.575638 0.189080
Si Si6 0.077361 0.944749 0.002304
Si Si7 0.500000 0.854306 0.750000
Si Si8 0.974767 0.568318 0.421688
O O1 0.648902 0.834046 0.386758
O O2 0.745419 0.823356 0.129768
O O3 0.743263 0.934437 0.270126
O O4 0.590916 0.896735 0.143982
O O5 0.167319 0.278826 0.969932
O O6 0.188226 0.397853 0.849900
O O7 0.035367 0.371173 0.993650
O O8 0.194276 0.380833 0.137065
O O9 0.431184 0.810718 0.851230
O O10 0.334686 0.991687 0.517184
O O11 0.250000 0.500000 0.207370
O O12 0.134639 0.583280 0.068114
O O13 0.065094 0.898845 0.146883
O O14 0.000000 0.000000 0.000000
O O15 0.000000 0.558422 0.250000
O O16 0.000000 0.500000 0.500000
#
# Coordination Sequence:
#
# PCOD8223475 Si02
#       8
#     8   8   8   4   8   8   4   8
#     4  12  25  48  71 105 143 186 239 308 361 438
#     4  11  25  43  68 101 138 190 236 289 359 434
#     4  12  26  47  72  99 147 197 241 292 368 451
#     4  12  22  44  72 104 136 178 232 304 362 414
#     4  11  22  40  70 100 135 179 231 296 360 420
#     4  12  26  45  75 106 138 175 234 298 371 423
#     4  12  26  46  68 102 138 192 228 288 356 432
#     4  10  22  39  65  98 136 172 223 296 353 415
#
# _framework density 21.684332999999999
#
# number of rings (size 3 to 8) (size 9 to 14) (size 15 to 20)
#    0.000    0.571    4.286    3.429    5.000    1.714 
#    0.000    0.000    3.143    0.000    0.000    0.000 
#    0.000    0.000    0.000    0.000    0.000    0.000 
#
# Total GULP energy -694317.668843 kJ/mol
# GULP energy per Si atom -12398.529801 kJ/mol
# Density = 2.163498 g / cm^3
# Si number density = 21.684333 Si / 1000 Ang^3
#
#
#
# Elastic Constant Matrix: (Units=GPa)
#
#
# Indices 1 2 3 4 5 6 
#
# 1 108.5011 50.8065 43.0802 0.0000 0.0000 0.0000
# 2 50.8065 163.9427 39.7615 0.0000 0.0000 0.0000
# 3 43.0802 39.7615 89.7351 0.0000 0.0000 0.0000
# 4 0.0000 0.0000 0.0000 11.3130 0.0000 0.0000
# 5 0.0000 0.0000 0.0000 0.0000 28.5886 0.0000
# 6 0.0000 0.0000 0.0000 0.0000 0.0000 31.6390
#
#
#
# Elastic Compliance Matrix: (Units=1/GPa)
#
#
# Indices 1 2 3 4 5 6 
#
# 1 0.012354 -0.002678 -0.004744 0.000000 0.000000 0.000000
# 2 -0.002678 0.007415 -0.002000 0.000000 0.000000 0.000000
# 3 -0.004744 -0.002000 0.014308 0.000000 0.000000 0.000000
# 4 0.000000 0.000000 0.000000 0.088394 0.000000 0.000000
# 5 0.000000 0.000000 0.000000 0.000000 0.034979 0.000000
# 6 0.000000 0.000000 0.000000 0.000000 0.000000 0.031607
#
#
# Mechanical properties :
#
#
# Convention : Reuss Voigt Hill
#
# Bulk Modulus (GPa) = 65.65020 69.94171 67.79596
# Shear Modulus (GPa) = 23.47666 29.54350 26.51008
#
# Velocity S-wave (km/s) = 3.29394 3.69512 3.50028
# Velocity P-wave (km/s) = 6.69387 7.10843 6.90426
#
# Compressibility (1/GPa) = 0.01523225
#
# Stress axis : x y z
#
# Youngs Moduli (GPa) = 80.94388 134.86888 69.89231
#
# Poissons Ratio (x) = 0.36117 0.33160
# Poissons Ratio (y) = 0.21676 0.13977
# Poissons Ratio (z) = 0.38403 0.26971
#
# Static dielectric constant tensor:
#      x y z
#    x 4.314020 0.000000 0.000000 
#    y 0.000000 3.793730 0.000000 
#    z 0.000000 0.000000 4.415000 
# 
# 
# High freq. dielectric constant tensor:
#      x y z
#    x 1.865580 0.000000 0.000000 
#    y 0.000000 1.849110 0.000000 
#    z 0.000000 0.000000 1.858230 
# 
# From -- ./inp_files/3706.got.cif
#   From: 2010.03.12/outbox.cif.g09.slc.cpg/sg54_2_cif.got.tgz:3706.got - 2010.04.16 15:00:50.
