data_PCOD8223253
_publ_section_title
;
Structure prediction by ZEFSAII (Michael W. Deem and Ramdas Pophale) SiO2 
 PCOD8223253
Probable space group: P C C A
;
_chemical_formula_sum "Si O2"
_cell_formula_units_Z 48
_cell_length_a 15.087345
_cell_length_b 16.734637
_cell_length_c 9.777531
_cell_angle_alpha 90.000000
_cell_angle_beta 90.000000
_cell_angle_gamma 90.000000
_cell_volume 2468.643169
_symmetry_space_group_name_H-M "P C C A"
_symmetry_group_IT_number 54
_symmetry_cell_setting 'orthorhombic'
loop_
_space_group_symop_operation_xyz
x,y,z
1/2-x,-y,z
1/2+x,-y,1/2-z
-x,y,1/2-z
-x,-y,-z
1/2+x,y,-z
1/2-x,y,1/2+z
x,-y,1/2+z
loop_
_atom_site_type_symbol
_atom_site_label
_atom_site_fract_x
_atom_site_fract_y
_atom_site_fract_z
Si Si1 0.656806 0.665006 0.942778
Si Si2 0.716324 0.409927 0.162073
Si Si3 0.946194 0.972352 0.371125
Si Si4 0.018182 0.573118 0.403435
Si Si5 0.191136 0.152680 0.517640
Si Si6 0.806331 0.919910 0.770807
O O1 0.706958 0.630384 0.810344
O O2 0.552110 0.642301 0.943677
O O3 0.658412 0.759907 0.944459
O O4 0.707803 0.634364 0.076697
O O5 0.750000 0.500000 0.183094
O O6 0.621588 0.401635 0.083065
O O7 0.875759 0.910221 0.421259
O O8 0.000000 0.928791 0.250000
O O9 0.905818 0.051494 0.299113
O O10 0.000000 0.000000 0.500000
O O11 0.000000 0.543752 0.250000
O O12 0.000000 0.500000 0.500000
O O13 0.281977 0.131675 0.595083
O O14 0.201898 0.140361 0.356264
O O15 0.750000 0.000000 0.742308
#
# Coordination Sequence:
#
# PCOD8223253 Si02
#       6
#     8   8   8   8   8   8
#     4  11  24  41  61  95 127 160 208 263 321 366
#     4  11  22  40  67  89 122 166 210 251 310 387
#     4  11  22  39  64  91 122 163 213 252 303 374
#     4  10  22  39  63  90 122 160 207 252 308 374
#     4  11  23  40  61  89 127 158 203 262 313 367
#     4  10  21  39  63  88 120 167 209 247 306 376
#
# _framework density 19.443878999999999
#
# number of rings (size 3 to 8) (size 9 to 14) (size 15 to 20)
#    0.000    1.333    3.333    3.000    4.667    2.000 
#    3.000    0.000    0.000    0.000    0.000    0.000 
#    0.000    0.000    0.000    0.000    0.000    0.000 
#
# Total GULP energy -595025.816818 kJ/mol
# GULP energy per Si atom -12396.371184 kJ/mol
# Density = 1.939962 g / cm^3
# Si number density = 19.443879 Si / 1000 Ang^3
#
#
#
# Elastic Constant Matrix: (Units=GPa)
#
#
# Indices 1 2 3 4 5 6 
#
# 1 96.2747 28.6455 35.8008 0.0000 0.0000 0.0000
# 2 28.6455 105.1178 29.7901 0.0000 0.0000 0.0000
# 3 35.8008 29.7901 101.7992 0.0000 0.0000 0.0000
# 4 0.0000 0.0000 0.0000 27.8520 0.0000 0.0000
# 5 0.0000 0.0000 0.0000 0.0000 35.5033 0.0000
# 6 0.0000 0.0000 0.0000 0.0000 0.0000 4.9871
#
#
#
# Elastic Compliance Matrix: (Units=1/GPa)
#
#
# Indices 1 2 3 4 5 6 
#
# 1 0.012460 -0.002348 -0.003695 0.000000 0.000000 0.000000
# 2 -0.002348 0.010816 -0.002339 0.000000 0.000000 0.000000
# 3 -0.003695 -0.002339 0.011807 0.000000 0.000000 0.000000
# 4 0.000000 0.000000 0.000000 0.035904 0.000000 0.000000
# 5 0.000000 0.000000 0.000000 0.000000 0.028166 0.000000
# 6 0.000000 0.000000 0.000000 0.000000 0.000000 0.200517
#
#
# Mechanical properties :
#
#
# Convention : Reuss Voigt Hill
#
# Bulk Modulus (GPa) = 54.59014 54.62938 54.60976
# Shear Modulus (GPa) = 15.50192 27.59884 21.55038
#
# Velocity S-wave (km/s) = 2.82665 3.77159 3.33278
# Velocity P-wave (km/s) = 6.22816 6.86465 6.55414
#
# Compressibility (1/GPa) = 0.01831833
#
# Stress axis : x y z
#
# Youngs Moduli (GPa) = 80.25989 92.45549 84.69454
#
# Poissons Ratio (x) = 0.21711 0.31291
# Poissons Ratio (y) = 0.18847 0.19813
# Poissons Ratio (z) = 0.29653 0.21628
#
# Static dielectric constant tensor:
#      x y z
#    x -5.247650 0.000000 0.000000 
#    y 0.000000 3.464470 0.000000 
#    z 0.000000 0.000000 3.490880 
# 
# 
# High freq. dielectric constant tensor:
#      x y z
#    x 1.767300 0.000000 0.000000 
#    y 0.000000 1.743340 0.000000 
#    z 0.000000 0.000000 1.774180 
# 
# From -- ./inp_files/3579.got.cif
#   From: 2010.03.12/outbox.cif.g09.slc.cpg/sg54_2_cif.got.tgz:3579.got - 2010.04.16 15:00:50.
