data_PCOD8223382
_publ_section_title
;
Structure prediction by ZEFSAII (Michael W. Deem and Ramdas Pophale) SiO2 
 PCOD8223382
Probable space group: P C C A
;
_chemical_formula_sum "Si O2"
_cell_formula_units_Z 64
_cell_length_a 18.112579
_cell_length_b 12.269125
_cell_length_c 14.232919
_cell_angle_alpha 90.000000
_cell_angle_beta 90.000000
_cell_angle_gamma 90.000000
_cell_volume 3162.917482
_symmetry_space_group_name_H-M "P C C A"
_symmetry_group_IT_number 54
_symmetry_cell_setting 'orthorhombic'
loop_
_space_group_symop_operation_xyz
x,y,z
1/2-x,-y,z
1/2+x,-y,1/2-z
-x,y,1/2-z
-x,-y,-z
1/2+x,y,-z
1/2-x,y,1/2+z
x,-y,1/2+z
loop_
_atom_site_type_symbol
_atom_site_label
_atom_site_fract_x
_atom_site_fract_y
_atom_site_fract_z
Si Si1 0.572658 0.020984 0.691862
Si Si2 0.213917 0.109315 0.213433
Si Si3 0.915626 0.395251 0.724901
Si Si4 0.932881 0.446347 0.055653
Si Si5 0.349980 0.750115 0.061939
Si Si6 0.663633 0.497813 0.898395
Si Si7 0.162189 0.813214 0.351271
Si Si8 0.506151 0.775063 0.137219
O O1 0.500000 0.985374 0.750000
O O2 0.630831 0.079927 0.759783
O O3 0.552077 0.114331 0.615599
O O4 0.607460 0.916229 0.641972
O O5 0.211710 0.199959 0.131688
O O6 0.260643 0.153767 0.302461
O O7 0.250000 0.000000 0.171413
O O8 0.907619 0.469638 0.634220
O O9 0.876396 0.461871 0.806026
O O10 0.875610 0.280442 0.710355
O O11 0.000000 0.371636 0.750000
O O12 0.952179 0.329649 0.097587
O O13 0.863451 0.428221 0.985780
O O14 0.000000 0.500000 0.000000
O O15 0.361543 0.623703 0.080798
O O16 0.430169 0.798637 0.083315
O O17 0.322661 0.772656 0.956460
O O18 0.750000 0.500000 0.884410
O O19 0.500000 0.760839 0.250000
#
# Coordination Sequence:
#
# PCOD8223382 Si02
#       8
#     8   8   8   8   8   8   8   8
#     4  10  21  43  67  99 131 175 232 277 340 414
#     4  10  23  43  67  95 139 184 223 286 352 403
#     4  12  23  43  70  96 137 184 217 285 354 397
#     4  12  22  42  66 100 133 175 234 277 340 412
#     4  12  22  45  69  97 137 179 237 282 341 420
#     4  12  27  43  66 103 141 183 233 282 347 422
#     4  11  25  42  68 100 140 177 226 292 346 413
#     4  11  21  40  71 101 131 181 228 292 334 406
#
# _framework density 20.234483000000001
#
# number of rings (size 3 to 8) (size 9 to 14) (size 15 to 20)
#    0.000    0.750    6.250    2.250    0.000    3.500 
#    0.000    1.250    0.000    0.000    0.000    0.000 
#    0.000    0.000    0.000    0.000    0.000    0.000 
#
# Total GULP energy -793585.452419 kJ/mol
# GULP energy per Si atom -12399.772694 kJ/mol
# Density = 2.018843 g / cm^3
# Si number density = 20.234483 Si / 1000 Ang^3
#
#
#
# Elastic Constant Matrix: (Units=GPa)
#
#
# Indices 1 2 3 4 5 6 
#
# 1 113.1835 30.5249 44.3399 0.0000 0.0000 0.0000
# 2 30.5249 133.2308 51.2454 0.0000 0.0000 0.0000
# 3 44.3399 51.2454 124.7632 0.0000 0.0000 0.0000
# 4 0.0000 0.0000 0.0000 28.6076 0.0000 0.0000
# 5 0.0000 0.0000 0.0000 0.0000 17.8926 0.0000
# 6 0.0000 0.0000 0.0000 0.0000 0.0000 25.2434
#
#
#
# Elastic Compliance Matrix: (Units=1/GPa)
#
#
# Indices 1 2 3 4 5 6 
#
# 1 0.010409 -0.001142 -0.003230 0.000000 0.000000 0.000000
# 2 -0.001142 0.009039 -0.003307 0.000000 0.000000 0.000000
# 3 -0.003230 -0.003307 0.010521 0.000000 0.000000 0.000000
# 4 0.000000 0.000000 0.000000 0.034956 0.000000 0.000000
# 5 0.000000 0.000000 0.000000 0.000000 0.055889 0.000000
# 6 0.000000 0.000000 0.000000 0.000000 0.000000 0.039614
#
#
# Mechanical properties :
#
#
# Convention : Reuss Voigt Hill
#
# Bulk Modulus (GPa) = 68.44145 69.26646 68.85395
# Shear Modulus (GPa) = 27.67672 30.68654 29.18163
#
# Velocity S-wave (km/s) = 3.70239 3.89851 3.80172
# Velocity P-wave (km/s) = 7.22319 7.38720 7.30566
#
# Compressibility (1/GPa) = 0.01461103
#
# Stress axis : x y z
#
# Youngs Moduli (GPa) = 96.07404 110.62609 95.04483
#
# Poissons Ratio (x) = 0.12638 0.30699
# Poissons Ratio (y) = 0.10976 0.31430
# Poissons Ratio (z) = 0.31031 0.36583
#
# Static dielectric constant tensor:
#      x y z
#    x 3.955280 0.000000 0.000000 
#    y 0.000000 4.043290 0.000000 
#    z 0.000000 0.000000 3.674660 
# 
# 
# High freq. dielectric constant tensor:
#      x y z
#    x 1.798640 0.000000 0.000000 
#    y 0.000000 1.805670 0.000000 
#    z 0.000000 0.000000 1.784840 
# 
# From -- ./inp_files/14329.got.cif
#   From: 2010.03.12/outbox.cif.g09.slc.cpg/sg54_8_cif.got.tgz:14329.got - 2010.04.16 15:00:50.
