data_PCOD8223478
_publ_section_title
;
Structure prediction by ZEFSAII (Michael W. Deem and Ramdas Pophale) SiO2 
 PCOD8223478
Probable space group: P C C A
;
_chemical_formula_sum "Si O2"
_cell_formula_units_Z 64
_cell_length_a 15.041272
_cell_length_b 11.598655
_cell_length_c 17.494944
_cell_angle_alpha 90.000000
_cell_angle_beta 90.000000
_cell_angle_gamma 90.000000
_cell_volume 3052.142120
_symmetry_space_group_name_H-M "P C C A"
_symmetry_group_IT_number 54
_symmetry_cell_setting 'orthorhombic'
loop_
_space_group_symop_operation_xyz
x,y,z
1/2-x,-y,z
1/2+x,-y,1/2-z
-x,y,1/2-z
-x,-y,-z
1/2+x,y,-z
1/2-x,y,1/2+z
x,-y,1/2+z
loop_
_atom_site_type_symbol
_atom_site_label
_atom_site_fract_x
_atom_site_fract_y
_atom_site_fract_z
Si Si1 0.402563 0.355464 0.229775
Si Si2 0.260119 0.629593 0.331241
Si Si3 0.309647 0.816234 0.621754
Si Si4 0.112137 0.169872 0.116467
Si Si5 0.882294 0.937772 0.050485
Si Si6 0.970413 0.039243 0.833111
Si Si7 0.701635 0.175699 0.552182
Si Si8 0.911101 0.381848 0.291602
O O1 0.500000 0.304392 0.250000
O O2 0.340577 0.340486 0.304817
O O3 0.355385 0.291221 0.161128
O O4 0.415771 0.482204 0.193920
O O5 0.250000 0.500000 0.364803
O O6 0.306587 0.713262 0.393292
O O7 0.322795 0.639245 0.257734
O O8 0.211431 0.851659 0.649670
O O9 0.372272 0.924528 0.638705
O O10 0.295352 0.779333 0.533932
O O11 0.093846 0.307142 0.129360
O O12 0.040046 0.099541 0.167332
O O13 0.097227 0.121741 0.030772
O O14 0.791036 0.885857 0.080913
O O15 0.960788 0.905269 0.107563
O O16 0.876039 0.078282 0.052432
O O17 0.000000 0.083171 0.750000
O O18 0.000000 0.339855 0.250000
#
# Coordination Sequence:
#
# PCOD8223478 Si02
#       8
#     8   8   8   8   8   8   8   8
#     4  10  22  42  67  96 132 166 215 274 334 388
#     4  10  22  42  66  95 132 168 216 281 330 390
#     4  11  23  41  64  88 130 169 210 267 327 394
#     4  11  22  42  64  91 127 171 217 264 327 398
#     4  10  24  43  61  89 132 173 212 270 324 389
#     4  12  26  38  63  97 124 169 223 267 325 392
#     4  10  23  43  62  89 130 173 211 264 333 387
#     4  10  22  39  67  96 127 168 216 273 329 391
#
# _framework density 20.968879000000001
#
# number of rings (size 3 to 8) (size 9 to 14) (size 15 to 20)
#    0.000    1.500    2.500    1.500    7.000    0.000 
#    6.750    0.000    0.000    3.000    0.000    0.000 
#    0.000    0.000    0.000    0.000    0.000    0.000 
#
# Total GULP energy -792867.266305 kJ/mol
# GULP energy per Si atom -12388.551036 kJ/mol
# Density = 2.092115 g / cm^3
# Si number density = 20.968879 Si / 1000 Ang^3
#
#
#
# Elastic Constant Matrix: (Units=GPa)
#
#
# Indices 1 2 3 4 5 6 
#
# 1 112.9208 11.0206 45.0377 0.0000 0.0000 0.0000
# 2 11.0206 107.5823 65.7267 0.0000 0.0000 0.0000
# 3 45.0377 65.7267 90.3604 0.0000 0.0000 0.0000
# 4 0.0000 0.0000 0.0000 31.1880 0.0000 0.0000
# 5 0.0000 0.0000 0.0000 0.0000 32.8505 0.0000
# 6 0.0000 0.0000 0.0000 0.0000 0.0000 18.4767
#
#
#
# Elastic Compliance Matrix: (Units=1/GPa)
#
#
# Indices 1 2 3 4 5 6 
#
# 1 0.012111 0.004405 -0.009241 0.000000 0.000000 0.000000
# 2 0.004405 0.018332 -0.015530 0.000000 0.000000 0.000000
# 3 -0.009241 -0.015530 0.026969 0.000000 0.000000 0.000000
# 4 0.000000 0.000000 0.000000 0.032064 0.000000 0.000000
# 5 0.000000 0.000000 0.000000 0.000000 0.030441 0.000000
# 6 0.000000 0.000000 0.000000 0.000000 0.000000 0.054122
#
#
# Mechanical properties :
#
#
# Convention : Reuss Voigt Hill
#
# Bulk Modulus (GPa) = 59.94919 61.60373 60.77646
# Shear Modulus (GPa) = 22.69326 29.10827 25.90077
#
# Velocity S-wave (km/s) = 3.29330 3.72985 3.51835
# Velocity P-wave (km/s) = 6.56603 6.92759 6.74923
#
# Compressibility (1/GPa) = 0.01668079
#
# Stress axis : x y z
#
# Youngs Moduli (GPa) = 82.56660 54.55013 37.08015
#
# Poissons Ratio (x) = -0.24028 0.34264
# Poissons Ratio (y) = -0.36369 0.57584
# Poissons Ratio (z) = 0.76297 0.84715
#
# Static dielectric constant tensor:
#      x y z
#    x 4.072050 0.000000 0.000000 
#    y 0.000000 3.906800 0.000000 
#    z 0.000000 0.000000 3.480530 
# 
# 
# High freq. dielectric constant tensor:
#      x y z
#    x 1.839830 0.000000 0.000000 
#    y 0.000000 1.824490 0.000000 
#    z 0.000000 0.000000 1.794430 
# 
# From -- ./inp_files/18220.got.cif
#   From: 2010.03.12/outbox.cif.g09.slc.cpg/sg54_10_cif.got.tgz:18220.got - 2010.04.16 15:00:50.
