data_PCOD8223832
_publ_section_title
;
Structure prediction by ZEFSAII (Michael W. Deem and Ramdas Pophale) SiO2 
 PCOD8223832
Probable space group: P C C A
;
_chemical_formula_sum "Si O2"
_cell_formula_units_Z 32
_cell_length_a 7.986783
_cell_length_b 12.481177
_cell_length_c 14.301369
_cell_angle_alpha 90.000000
_cell_angle_beta 90.000000
_cell_angle_gamma 90.000000
_cell_volume 1425.624136
_symmetry_space_group_name_H-M "P C C A"
_symmetry_group_IT_number 54
_symmetry_cell_setting 'orthorhombic'
loop_
_space_group_symop_operation_xyz
x,y,z
1/2-x,-y,z
1/2+x,-y,1/2-z
-x,y,1/2-z
-x,-y,-z
1/2+x,y,-z
1/2-x,y,1/2+z
x,-y,1/2+z
loop_
_atom_site_type_symbol
_atom_site_label
_atom_site_fract_x
_atom_site_fract_y
_atom_site_fract_z
Si Si1 0.750000 0.000000 0.386297
Si Si2 0.500000 0.908743 0.250000
Si Si3 0.684554 0.612181 0.783937
Si Si4 0.402297 0.781629 0.566444
Si Si5 0.780751 0.244161 0.128961
O O1 0.585471 0.983576 0.325625
O O2 0.801223 0.894458 0.445131
O O3 0.643915 0.844438 0.196946
O O4 0.750000 0.500000 0.824964
O O5 0.500000 0.592353 0.750000
O O6 0.698414 0.704073 0.863101
O O7 0.785107 0.647693 0.690820
O O8 0.395716 0.733291 0.461713
O O9 0.593123 0.792560 0.600204
#
# Coordination Sequence:
#
# PCOD8223832 Si02
#       5
#     4   4   8   8   8
#     4  12  24  40  68 100 140 180 220 276 328 408
#     4  12  24  40  70  94 140 182 222 270 338 402
#     4  10  24  45  70  97 135 175 225 281 333 397
#     4  11  25  45  65 106 135 177 226 274 332 406
#     4  11  25  45  69  99 138 176 228 274 337 398
#
# _framework density 22.446308999999999
#
# number of rings (size 3 to 8) (size 9 to 14) (size 15 to 20)
#    0.000    1.000    2.500    3.000    3.500    6.000 
#    0.000    5.000    0.000    0.000    0.000    0.000 
#    0.000    0.000    0.000    0.000    0.000    0.000 
#
# Total GULP energy -396731.265735 kJ/mol
# GULP energy per Si atom -12397.852054 kJ/mol
# Density = 2.239522 g / cm^3
# Si number density = 22.446309 Si / 1000 Ang^3
#
#
#
# Elastic Constant Matrix: (Units=GPa)
#
#
# Indices 1 2 3 4 5 6 
#
# 1 64.9056 37.8093 31.8564 0.0000 0.0000 0.0000
# 2 37.8093 129.5444 44.8783 0.0000 0.0000 0.0000
# 3 31.8564 44.8783 126.6208 0.0000 0.0000 0.0000
# 4 0.0000 0.0000 0.0000 22.7417 0.0000 0.0000
# 5 0.0000 0.0000 0.0000 0.0000 43.7449 0.0000
# 6 0.0000 0.0000 0.0000 0.0000 0.0000 7.6695
#
#
#
# Elastic Compliance Matrix: (Units=1/GPa)
#
#
# Indices 1 2 3 4 5 6 
#
# 1 0.019723 -0.004602 -0.003331 0.000000 0.000000 0.000000
# 2 -0.004602 0.009874 -0.002342 0.000000 0.000000 0.000000
# 3 -0.003331 -0.002342 0.009566 0.000000 0.000000 0.000000
# 4 0.000000 0.000000 0.000000 0.043972 0.000000 0.000000
# 5 0.000000 0.000000 0.000000 0.000000 0.022860 0.000000
# 6 0.000000 0.000000 0.000000 0.000000 0.000000 0.130386
#
#
# Mechanical properties :
#
#
# Convention : Reuss Voigt Hill
#
# Bulk Modulus (GPa) = 53.72764 61.12873 57.42819
# Shear Modulus (GPa) = 19.00168 28.59967 23.80067
#
# Velocity S-wave (km/s) = 2.91269 3.57338 3.25982
# Velocity P-wave (km/s) = 5.94136 6.65716 6.30942
#
# Compressibility (1/GPa) = 0.01861239
#
# Stress axis : x y z
#
# Youngs Moduli (GPa) = 50.70254 101.27716 104.54181
#
# Poissons Ratio (x) = 0.46613 0.34821
# Poissons Ratio (y) = 0.23336 0.24480
# Poissons Ratio (z) = 0.16888 0.23716
#
# Static dielectric constant tensor:
#      x y z
#    x 4.030780 0.000000 0.000000 
#    y 0.000000 4.044280 0.000000 
#    z 0.000000 0.000000 4.213760 
# 
# 
# High freq. dielectric constant tensor:
#      x y z
#    x 1.897070 0.000000 0.000000 
#    y 0.000000 1.872230 0.000000 
#    z 0.000000 0.000000 1.891110 
# 
# From -- ./inp_files/11256.got.cif
#   From: 2010.03.12/outbox.cif.g09.slc.cpg/sg54_6_cif.got.tgz:11256.got - 2010.04.16 15:00:50.
