data_PCOD8223959
_publ_section_title
;
Structure prediction by ZEFSAII (Michael W. Deem and Ramdas Pophale) SiO2 
 PCOD8223959
Probable space group: P C C A
;
_chemical_formula_sum "Si O2"
_cell_formula_units_Z 40
_cell_length_a 7.721971
_cell_length_b 13.815146
_cell_length_c 15.480344
_cell_angle_alpha 90.000000
_cell_angle_beta 90.000000
_cell_angle_gamma 90.000000
_cell_volume 1651.445525
_symmetry_space_group_name_H-M "P C C A"
_symmetry_group_IT_number 54
_symmetry_cell_setting 'orthorhombic'
loop_
_space_group_symop_operation_xyz
x,y,z
1/2-x,-y,z
1/2+x,-y,1/2-z
-x,y,1/2-z
-x,-y,-z
1/2+x,y,-z
1/2-x,y,1/2+z
x,-y,1/2+z
loop_
_atom_site_type_symbol
_atom_site_label
_atom_site_fract_x
_atom_site_fract_y
_atom_site_fract_z
Si Si1 0.816122 0.284340 0.284304
Si Si2 0.656450 0.696353 0.610955
Si Si3 0.808928 0.894443 0.573475
Si Si4 0.289857 0.611768 0.559327
Si Si5 0.292679 0.103479 0.619281
O O1 0.711917 0.337356 0.207151
O O2 0.845405 0.353665 0.367560
O O3 0.719730 0.186552 0.317094
O O4 0.000000 0.251721 0.250000
O O5 0.674916 0.813638 0.610103
O O6 0.473439 0.645190 0.597045
O O7 0.780224 0.660844 0.534003
O O8 0.813028 0.890655 0.469801
O O9 0.750000 0.000000 0.606245
O O10 0.496186 0.123949 0.604992
O O11 0.250000 0.500000 0.545374
O O12 0.250000 0.000000 0.662532
#
# Coordination Sequence:
#
# PCOD8223959 Si02
#       5
#     8   8   8   8   8
#     4  12  26  47  71 110 152 193 249 316 379 461
#     4  12  25  48  76 109 149 194 250 315 390 456
#     4  11  22  40  74 109 147 201 256 299 378 455
#     4  12  28  50  78 107 141 196 253 322 396 458
#     4  11  23  42  70 108 153 202 252 309 372 454
#
# _framework density 24.221202000000002
#
# number of rings (size 3 to 8) (size 9 to 14) (size 15 to 20)
#    0.000    0.400    4.000    6.000    2.800    3.200 
#    0.000    0.000    0.000    0.000    0.000    0.000 
#    0.000    0.000    0.000    0.000    0.000    0.000 
#
# Total GULP energy -495830.565615 kJ/mol
# GULP energy per Si atom -12395.764140 kJ/mol
# Density = 2.416607 g / cm^3
# Si number density = 24.221202 Si / 1000 Ang^3
#
#
#
# Elastic Constant Matrix: (Units=GPa)
#
#
# Indices 1 2 3 4 5 6 
#
# 1 85.7798 34.3201 24.9336 0.0000 0.0000 0.0000
# 2 34.3201 141.0744 42.6433 0.0000 0.0000 0.0000
# 3 24.9336 42.6433 150.7313 0.0000 0.0000 0.0000
# 4 0.0000 0.0000 0.0000 7.9538 0.0000 0.0000
# 5 0.0000 0.0000 0.0000 0.0000 33.3902 0.0000
# 6 0.0000 0.0000 0.0000 0.0000 0.0000 38.5359
#
#
#
# Elastic Compliance Matrix: (Units=1/GPa)
#
#
# Indices 1 2 3 4 5 6 
#
# 1 0.013176 -0.002785 -0.001392 0.000000 0.000000 0.000000
# 2 -0.002785 0.008340 -0.001899 0.000000 0.000000 0.000000
# 3 -0.001392 -0.001899 0.007402 0.000000 0.000000 0.000000
# 4 0.000000 0.000000 0.000000 0.125726 0.000000 0.000000
# 5 0.000000 0.000000 0.000000 0.000000 0.029949 0.000000
# 6 0.000000 0.000000 0.000000 0.000000 0.000000 0.025950
#
#
# Mechanical properties :
#
#
# Convention : Reuss Voigt Hill
#
# Bulk Modulus (GPa) = 59.63968 64.59774 62.11871
# Shear Modulus (GPa) = 21.90266 34.35521 28.12894
#
# Velocity S-wave (km/s) = 3.01038 3.77024 3.41153
# Velocity P-wave (km/s) = 6.06297 6.75876 6.42029
#
# Compressibility (1/GPa) = 0.01676736
#
# Stress axis : x y z
#
# Youngs Moduli (GPa) = 75.89273 119.90563 135.10364
#
# Poissons Ratio (x) = 0.33392 0.18803
# Poissons Ratio (y) = 0.21135 0.25653
# Poissons Ratio (z) = 0.10563 0.22767
#
# Static dielectric constant tensor:
#      x y z
#    x 4.224790 0.000000 0.000000 
#    y 0.000000 4.509480 0.000000 
#    z 0.000000 0.000000 5.206790 
# 
# 
# High freq. dielectric constant tensor:
#      x y z
#    x 1.955540 0.000000 0.000000 
#    y 0.000000 1.958660 0.000000 
#    z 0.000000 0.000000 1.973700 
# 
# From -- ./inp_files/16328.got.cif
#   From: 2010.03.12/outbox.cif.g09.slc.cpg/sg54_9_cif.got.tgz:16328.got - 2010.04.16 15:00:50.
