data_PCOD8223727
_publ_section_title
;
Structure prediction by ZEFSAII (Michael W. Deem and Ramdas Pophale) SiO2 
 PCOD8223727
Probable space group: P C C A
;
_chemical_formula_sum "Si O2"
_cell_formula_units_Z 40
_cell_length_a 13.899077
_cell_length_b 11.401581
_cell_length_c 11.776300
_cell_angle_alpha 90.000000
_cell_angle_beta 90.000000
_cell_angle_gamma 90.000000
_cell_volume 1866.207363
_symmetry_space_group_name_H-M "P C C A"
_symmetry_group_IT_number 54
_symmetry_cell_setting 'orthorhombic'
loop_
_space_group_symop_operation_xyz
x,y,z
1/2-x,-y,z
1/2+x,-y,1/2-z
-x,y,1/2-z
-x,-y,-z
1/2+x,y,-z
1/2-x,y,1/2+z
x,-y,1/2+z
loop_
_atom_site_type_symbol
_atom_site_label
_atom_site_fract_x
_atom_site_fract_y
_atom_site_fract_z
Si Si1 0.793483 0.313934 0.158243
Si Si2 0.405658 0.715139 0.565198
Si Si3 0.597988 0.527275 0.318508
Si Si4 0.884288 0.713828 0.009492
Si Si5 0.239815 0.862556 0.652710
O O1 0.815621 0.422069 0.241944
O O2 0.689861 0.337374 0.101842
O O3 0.792560 0.191593 0.227279
O O4 0.877319 0.305042 0.065421
O O5 0.376503 0.602652 0.640283
O O6 0.517846 0.750779 0.573613
O O7 0.345731 0.820752 0.618061
O O8 0.500000 0.527491 0.250000
O O9 0.585957 0.607679 0.428696
O O10 0.837507 0.824199 0.943598
O O11 0.250000 0.000000 0.665488
#
# Coordination Sequence:
#
# PCOD8223727 Si02
#       5
#     8   8   8   8   8
#     4  10  24  43  64  95 139 173 218 270 339 394
#     4  11  24  42  66 100 135 172 223 274 336 404
#     4  11  23  41  67  98 140 172 211 270 334 415
#     4  10  23  43  69 100 132 177 220 272 342 401
#     4  10  25  45  67  95 129 176 234 284 331 390
#
# _framework density 21.433847
#
# number of rings (size 3 to 8) (size 9 to 14) (size 15 to 20)
#    0.000    1.600    2.000    0.600    2.800   12.800 
#    0.000    2.000    0.000    0.000    0.000    0.000 
#    0.000    0.000    0.000    0.000    0.000    0.000 
#
# Total GULP energy -496158.155629 kJ/mol
# GULP energy per Si atom -12403.953891 kJ/mol
# Density = 2.138506 g / cm^3
# Si number density = 21.433847 Si / 1000 Ang^3
#
#
#
# Elastic Constant Matrix: (Units=GPa)
#
#
# Indices 1 2 3 4 5 6 
#
# 1 151.2724 57.4263 52.2372 0.0000 0.0000 0.0000
# 2 57.4263 151.8486 64.8637 0.0000 0.0000 0.0000
# 3 52.2372 64.8637 117.4833 0.0000 0.0000 0.0000
# 4 0.0000 0.0000 0.0000 21.1656 0.0000 0.0000
# 5 0.0000 0.0000 0.0000 0.0000 43.4473 0.0000
# 6 0.0000 0.0000 0.0000 0.0000 0.0000 22.9514
#
#
#
# Elastic Compliance Matrix: (Units=1/GPa)
#
#
# Indices 1 2 3 4 5 6 
#
# 1 0.008264 -0.002036 -0.002551 0.000000 0.000000 0.000000
# 2 -0.002036 0.009120 -0.004130 0.000000 0.000000 0.000000
# 3 -0.002551 -0.004130 0.011926 0.000000 0.000000 0.000000
# 4 0.000000 0.000000 0.000000 0.047246 0.000000 0.000000
# 5 0.000000 0.000000 0.000000 0.000000 0.023016 0.000000
# 6 0.000000 0.000000 0.000000 0.000000 0.000000 0.043570
#
#
# Mechanical properties :
#
#
# Convention : Reuss Voigt Hill
#
# Bulk Modulus (GPa) = 84.19366 85.51762 84.85564
# Shear Modulus (GPa) = 30.38882 33.91801 32.15342
#
# Velocity S-wave (km/s) = 3.76945 3.98232 3.87734
# Velocity P-wave (km/s) = 7.63616 7.81858 7.72791
#
# Compressibility (1/GPa) = 0.01187738
#
# Stress axis : x y z
#
# Youngs Moduli (GPa) = 121.00384 109.65505 83.85057
#
# Poissons Ratio (x) = 0.22324 0.21386
# Poissons Ratio (y) = 0.24635 0.34628
# Poissons Ratio (z) = 0.30862 0.45285
#
# Static dielectric constant tensor:
#      x y z
#    x 3.935520 0.000000 0.000000 
#    y 0.000000 3.485070 0.000000 
#    z 0.000000 0.000000 4.193480 
# 
# 
# High freq. dielectric constant tensor:
#      x y z
#    x 1.857180 0.000000 0.000000 
#    y 0.000000 1.811810 0.000000 
#    z 0.000000 0.000000 1.859950 
# 
# From -- ./inp_files/8188.got.cif
#   From: 2010.03.12/outbox.cif.g09.slc.cpg/sg54_5_cif.got.tgz:8188.got - 2010.04.16 15:00:50.
