data_PCOD8223210
_publ_section_title
;
Structure prediction by ZEFSAII (Michael W. Deem and Ramdas Pophale) SiO2 
 PCOD8223210
Probable space group: P C C A
;
_chemical_formula_sum "Si O2"
_cell_formula_units_Z 60
_cell_length_a 26.860083
_cell_length_b 11.175895
_cell_length_c 9.268364
_cell_angle_alpha 90.000000
_cell_angle_beta 90.000000
_cell_angle_gamma 90.000000
_cell_volume 2782.228178
_symmetry_space_group_name_H-M "P C C A"
_symmetry_group_IT_number 54
_symmetry_cell_setting 'orthorhombic'
loop_
_space_group_symop_operation_xyz
x,y,z
1/2-x,-y,z
1/2+x,-y,1/2-z
-x,y,1/2-z
-x,-y,-z
1/2+x,y,-z
1/2-x,y,1/2+z
x,-y,1/2+z
loop_
_atom_site_type_symbol
_atom_site_label
_atom_site_fract_x
_atom_site_fract_y
_atom_site_fract_z
Si Si1 0.909883 0.914123 0.104802
Si Si2 0.952013 0.655762 0.834163
Si Si3 0.750000 0.000000 0.261462
Si Si4 0.549634 0.062941 0.820976
Si Si5 0.133101 0.504354 0.770722
Si Si6 0.800083 0.432576 0.478903
Si Si7 0.050455 0.334563 0.831933
Si Si8 0.301868 0.851893 0.989055
O O1 0.940373 0.805798 0.174180
O O2 0.902938 0.013263 0.228980
O O3 0.943455 0.980728 0.984092
O O4 0.860492 0.866780 0.028584
O O5 0.951989 0.796235 0.820405
O O6 0.901592 0.620081 0.750231
O O7 0.000000 0.601434 0.750000
O O8 0.952057 0.616662 0.002391
O O9 0.714378 0.922911 0.366811
O O10 0.777583 0.904692 0.157638
O O11 0.500000 0.007327 0.750000
O O12 0.183309 0.521790 0.678233
O O13 0.095787 0.393365 0.740161
O O14 0.153491 0.481211 0.929811
O O15 0.750000 0.500000 0.523150
O O16 0.790692 0.289652 0.493921
O O17 0.000000 0.367233 0.750000
#
# Coordination Sequence:
#
# PCOD8223210 Si02
#       8
#     8   8   4   8   8   8   8   8
#     4  11  21  41  63  94 132 173 220 280 335 412
#     4  10  23  42  64  96 138 178 228 280 337 413
#     4  10  26  46  76 102 132 180 220 300 354 414
#     4  10  21  38  60  94 133 173 220 272 336 398
#     4  12  24  47  66  99 133 182 228 283 341 408
#     4  12  28  46  72 102 139 182 235 290 349 414
#     4  11  24  41  66  96 136 180 225 280 337 408
#     4  11  24  49  71 103 137 172 234 282 356 413
#
# _framework density 21.565448
#
# number of rings (size 3 to 8) (size 9 to 14) (size 15 to 20)
#    0.000    1.067    2.667    3.200    5.600    3.200 
#    2.400    0.000    0.000    0.000    0.000    0.000 
#    0.000    0.000    0.000    0.000    0.000    0.000 
#
# Total GULP energy -743501.351179 kJ/mol
# GULP energy per Si atom -12391.689186 kJ/mol
# Density = 2.151636 g / cm^3
# Si number density = 21.565448 Si / 1000 Ang^3
#
#
#
# Elastic Constant Matrix: (Units=GPa)
#
#
# Indices 1 2 3 4 5 6 
#
# 1 99.8886 37.7945 27.0796 0.0000 0.0000 0.0000
# 2 37.7945 78.0394 67.9585 0.0000 0.0000 0.0000
# 3 27.0796 67.9585 96.3486 0.0000 0.0000 0.0000
# 4 0.0000 0.0000 0.0000 29.8008 0.0000 0.0000
# 5 0.0000 0.0000 0.0000 0.0000 43.9191 0.0000
# 6 0.0000 0.0000 0.0000 0.0000 0.0000 37.5053
#
#
#
# Elastic Compliance Matrix: (Units=1/GPa)
#
#
# Indices 1 2 3 4 5 6 
#
# 1 0.012396 -0.007698 0.001945 0.000000 0.000000 0.000000
# 2 -0.007698 0.037996 -0.024637 0.000000 0.000000 0.000000
# 3 0.001945 -0.024637 0.027210 0.000000 0.000000 0.000000
# 4 0.000000 0.000000 0.000000 0.033556 0.000000 0.000000
# 5 0.000000 0.000000 0.000000 0.000000 0.022769 0.000000
# 6 0.000000 0.000000 0.000000 0.000000 0.000000 0.026663
#
#
# Mechanical properties :
#
#
# Convention : Reuss Voigt Hill
#
# Bulk Modulus (GPa) = 59.43893 59.99355 59.71624
# Shear Modulus (GPa) = 22.02871 31.67464 26.85167
#
# Velocity S-wave (km/s) = 3.19953 3.83661 3.53246
# Velocity P-wave (km/s) = 6.42427 6.89244 6.66247
#
# Compressibility (1/GPa) = 0.01682399
#
# Stress axis : x y z
#
# Youngs Moduli (GPa) = 80.66935 26.31833 36.75175
#
# Poissons Ratio (x) = 0.20259 -0.07149
# Poissons Ratio (y) = 0.62096 0.90545
# Poissons Ratio (z) = -0.15693 0.64840
#
# Static dielectric constant tensor:
#      x y z
#    x 4.087400 0.000000 0.000000 
#    y 0.000000 3.815540 0.000000 
#    z 0.000000 0.000000 4.294180 
# 
# 
# High freq. dielectric constant tensor:
#      x y z
#    x 1.854780 0.000000 0.000000 
#    y 0.000000 1.848650 0.000000 
#    z 0.000000 0.000000 1.856130 
# 
# From -- ./inp_files/5586.got.cif
#   From: 2010.03.12/outbox.cif.g09.slc.cpg/sg54_3_cif.got.tgz:5586.got - 2010.04.16 15:00:50.
