data_PCOD8223489
_publ_section_title
;
Structure prediction by ZEFSAII (Michael W. Deem and Ramdas Pophale) SiO2 
 PCOD8223489
Probable space group: P C C A
;
_chemical_formula_sum "Si O2"
_cell_formula_units_Z 40
_cell_length_a 13.681522
_cell_length_b 11.356018
_cell_length_c 11.631537
_cell_angle_alpha 90.000000
_cell_angle_beta 90.000000
_cell_angle_gamma 90.000000
_cell_volume 1807.164105
_symmetry_space_group_name_H-M "P C C A"
_symmetry_group_IT_number 54
_symmetry_cell_setting 'orthorhombic'
loop_
_space_group_symop_operation_xyz
x,y,z
1/2-x,-y,z
1/2+x,-y,1/2-z
-x,y,1/2-z
-x,-y,-z
1/2+x,y,-z
1/2-x,y,1/2+z
x,-y,1/2+z
loop_
_atom_site_type_symbol
_atom_site_label
_atom_site_fract_x
_atom_site_fract_y
_atom_site_fract_z
Si Si1 0.679533 0.305547 0.844005
Si Si2 0.921542 0.278816 0.583554
Si Si3 0.860051 0.526591 0.648060
Si Si4 0.259515 0.862284 0.345539
Si Si5 0.368820 0.277226 0.028593
O O1 0.638680 0.419374 0.776242
O O2 0.680184 0.191283 0.761173
O O3 0.791480 0.330726 0.881264
O O4 0.609119 0.283260 0.950382
O O5 0.921286 0.407078 0.643048
O O6 0.849290 0.192858 0.652197
O O7 0.032922 0.231484 0.591972
O O8 0.750000 0.500000 0.607256
O O9 0.903192 0.621463 0.559369
O O10 0.316916 0.831753 0.462987
O O11 0.250000 0.000000 0.329028
#
# Coordination Sequence:
#
# PCOD8223489 Si02
#       5
#     8   8   8   8   8
#     4  10  22  40  62  83 129 160 200 249 314 357
#     4  11  23  41  63  93 123 161 205 251 308 365
#     4  11  20  38  59  92 123 162 195 239 298 376
#     4  10  23  42  62  88 120 161 211 256 309 363
#     4  10  23  41  63  92 123 161 205 251 303 368
#
# _framework density 22.134126999999999
#
# number of rings (size 3 to 8) (size 9 to 14) (size 15 to 20)
#    0.000    1.600    6.000    0.600    2.800    8.000 
#    3.600    2.000    0.000    0.000    0.000    0.000 
#    0.000    0.000    0.000    0.000    0.000    0.000 
#
# Total GULP energy -496059.262571 kJ/mol
# GULP energy per Si atom -12401.481564 kJ/mol
# Density = 2.208375 g / cm^3
# Si number density = 22.134127 Si / 1000 Ang^3
#
#
#
# Elastic Constant Matrix: (Units=GPa)
#
#
# Indices 1 2 3 4 5 6 
#
# 1 87.5694 10.0769 2.1465 0.0000 0.0000 0.0000
# 2 10.0769 136.8786 39.1988 0.0000 0.0000 0.0000
# 3 2.1465 39.1988 82.5001 0.0000 0.0000 0.0000
# 4 0.0000 0.0000 0.0000 18.0548 0.0000 0.0000
# 5 0.0000 0.0000 0.0000 0.0000 19.2618 0.0000
# 6 0.0000 0.0000 0.0000 0.0000 0.0000 15.9544
#
#
#
# Elastic Compliance Matrix: (Units=1/GPa)
#
#
# Indices 1 2 3 4 5 6 
#
# 1 0.011518 -0.000882 0.000119 0.000000 0.000000 0.000000
# 2 -0.000882 0.008524 -0.004027 0.000000 0.000000 0.000000
# 3 0.000119 -0.004027 0.014032 0.000000 0.000000 0.000000
# 4 0.000000 0.000000 0.000000 0.055387 0.000000 0.000000
# 5 0.000000 0.000000 0.000000 0.000000 0.051916 0.000000
# 6 0.000000 0.000000 0.000000 0.000000 0.000000 0.062679
#
#
# Mechanical properties :
#
#
# Convention : Reuss Voigt Hill
#
# Bulk Modulus (GPa) = 40.82633 45.53250 43.17942
# Shear Modulus (GPa) = 22.54289 27.68927 25.11608
#
# Velocity S-wave (km/s) = 3.19481 3.54075 3.37222
# Velocity P-wave (km/s) = 5.66516 6.10997 5.89176
#
# Compressibility (1/GPa) = 0.02449399
#
# Stress axis : x y z
#
# Youngs Moduli (GPa) = 86.81990 117.31642 71.26813
#
# Poissons Ratio (x) = 0.10349 -0.00852
# Poissons Ratio (y) = 0.07659 0.28700
# Poissons Ratio (z) = -0.01037 0.47244
#
# Static dielectric constant tensor:
#      x y z
#    x 3.911760 0.000000 0.000000 
#    y 0.000000 3.707380 0.000000 
#    z 0.000000 0.000000 4.092120 
# 
# 
# High freq. dielectric constant tensor:
#      x y z
#    x 1.867910 0.000000 0.000000 
#    y 0.000000 1.837630 0.000000 
#    z 0.000000 0.000000 1.882540 
# 
# From -- ./inp_files/8189.got.cif
#   From: 2010.03.12/outbox.cif.g09.slc.cpg/sg54_5_cif.got.tgz:8189.got - 2010.04.16 15:00:50.
