data_PCOD8223816
_publ_section_title
;
Structure prediction by ZEFSAII (Michael W. Deem and Ramdas Pophale) SiO2 
 PCOD8223816
Probable space group: P C C A
;
_chemical_formula_sum "Si O2"
_cell_formula_units_Z 36
_cell_length_a 10.860818
_cell_length_b 6.218595
_cell_length_c 23.538590
_cell_angle_alpha 90.000000
_cell_angle_beta 90.000000
_cell_angle_gamma 90.000000
_cell_volume 1589.773501
_symmetry_space_group_name_H-M "P C C A"
_symmetry_group_IT_number 54
_symmetry_cell_setting 'orthorhombic'
loop_
_space_group_symop_operation_xyz
x,y,z
1/2-x,-y,z
1/2+x,-y,1/2-z
-x,y,1/2-z
-x,-y,-z
1/2+x,y,-z
1/2-x,y,1/2+z
x,-y,1/2+z
loop_
_atom_site_type_symbol
_atom_site_label
_atom_site_fract_x
_atom_site_fract_y
_atom_site_fract_z
Si Si1 0.111814 0.955390 0.888687
Si Si2 0.947745 0.681510 0.807779
Si Si3 0.415928 0.283152 0.110660
Si Si4 0.371446 0.625658 0.489873
Si Si5 0.750000 0.000000 0.317010
O O1 0.101957 0.817838 0.946443
O O2 0.049067 0.836047 0.835682
O O3 0.250000 0.000000 0.869919
O O4 0.053709 0.192691 0.901010
O O5 0.913147 0.504861 0.854638
O O6 0.000000 0.573943 0.750000
O O7 0.824543 0.809458 0.785239
O O8 0.356765 0.094490 0.145383
O O9 0.337165 0.295075 0.052894
O O10 0.250000 0.500000 0.467224
O O11 0.500000 0.500000 0.500000
#
# Coordination Sequence:
#
# PCOD8223816 Si02
#       5
#     8   8   8   8   4
#     4  11  26  44  69 106 142 182 235 291 356 423
#     4  11  25  46  71  98 138 185 235 295 350 418
#     4  11  24  45  69 100 141 185 233 282 356 431
#     4  12  24  42  72 103 144 184 230 294 363 428
#     4  10  24  44  68 100 130 178 238 284 350 426
#
# _framework density 22.644734
#
# number of rings (size 3 to 8) (size 9 to 14) (size 15 to 20)
#    0.000    0.889    2.222    4.000    6.222    3.556 
#    4.000    0.000    0.000    0.000    0.000    0.000 
#    0.000    0.000    0.000    0.000    0.000    0.000 
#
# Total GULP energy -446030.200170 kJ/mol
# GULP energy per Si atom -12389.727782 kJ/mol
# Density = 2.259319 g / cm^3
# Si number density = 22.644734 Si / 1000 Ang^3
#
#
#
# Elastic Constant Matrix: (Units=GPa)
#
#
# Indices 1 2 3 4 5 6 
#
# 1 127.3393 42.0008 13.0609 0.0000 0.0000 0.0000
# 2 42.0008 93.6264 20.6354 0.0000 0.0000 0.0000
# 3 13.0609 20.6354 112.2652 0.0000 0.0000 0.0000
# 4 0.0000 0.0000 0.0000 20.7971 0.0000 0.0000
# 5 0.0000 0.0000 0.0000 0.0000 26.9720 0.0000
# 6 0.0000 0.0000 0.0000 0.0000 0.0000 38.0006
#
#
#
# Elastic Compliance Matrix: (Units=1/GPa)
#
#
# Indices 1 2 3 4 5 6 
#
# 1 0.009228 -0.004068 -0.000326 0.000000 0.000000 0.000000
# 2 -0.004068 0.012925 -0.001902 0.000000 0.000000 0.000000
# 3 -0.000326 -0.001902 0.009295 0.000000 0.000000 0.000000
# 4 0.000000 0.000000 0.000000 0.048084 0.000000 0.000000
# 5 0.000000 0.000000 0.000000 0.000000 0.037075 0.000000
# 6 0.000000 0.000000 0.000000 0.000000 0.000000 0.026315
#
#
# Mechanical properties :
#
#
# Convention : Reuss Voigt Hill
#
# Bulk Modulus (GPa) = 53.03451 53.84723 53.44087
# Shear Modulus (GPa) = 30.90223 34.32284 32.61253
#
# Velocity S-wave (km/s) = 3.69813 3.89743 3.79909
# Velocity P-wave (km/s) = 6.45802 6.63959 6.54943
#
# Compressibility (1/GPa) = 0.01885565
#
# Stress axis : x y z
#
# Youngs Moduli (GPa) = 108.36343 77.36980 107.58370
#
# Poissons Ratio (x) = 0.31474 0.03506
# Poissons Ratio (y) = 0.44082 0.20467
# Poissons Ratio (z) = 0.03531 0.14719
#
# Static dielectric constant tensor:
#      x y z
#    x 4.109840 0.000000 0.000000 
#    y 0.000000 4.106060 0.000000 
#    z 0.000000 0.000000 4.153140 
# 
# 
# High freq. dielectric constant tensor:
#      x y z
#    x 1.911990 0.000000 0.000000 
#    y 0.000000 1.895200 0.000000 
#    z 0.000000 0.000000 1.884760 
# 
# From -- ./inp_files/23810.got.cif
#   From: 2010.03.12/outbox.cif.g09.slc.cpg/sg54_12_cif.got.tgz:23810.got - 2010.04.16 15:00:50.
