data_PCOD8223068
_publ_section_title
;
Structure prediction by ZEFSAII (Michael W. Deem and Ramdas Pophale) SiO2 
 PCOD8223068
Probable space group: P C C A
;
_chemical_formula_sum "Si O2"
_cell_formula_units_Z 48
_cell_length_a 25.023434
_cell_length_b 6.026586
_cell_length_c 14.460086
_cell_angle_alpha 90.000000
_cell_angle_beta 90.000000
_cell_angle_gamma 90.000000
_cell_volume 2180.665951
_symmetry_space_group_name_H-M "P C C A"
_symmetry_group_IT_number 54
_symmetry_cell_setting 'orthorhombic'
loop_
_space_group_symop_operation_xyz
x,y,z
1/2-x,-y,z
1/2+x,-y,1/2-z
-x,y,1/2-z
-x,-y,-z
1/2+x,y,-z
1/2-x,y,1/2+z
x,-y,1/2+z
loop_
_atom_site_type_symbol
_atom_site_label
_atom_site_fract_x
_atom_site_fract_y
_atom_site_fract_z
Si Si1 0.898195 0.823139 0.671432
Si Si2 0.162525 0.560302 0.231313
Si Si3 0.447695 0.354557 0.005140
Si Si4 0.650011 0.674463 0.445270
Si Si5 0.301820 0.146153 0.378626
Si Si6 0.410157 0.059234 0.151409
O O1 0.869484 0.595729 0.698355
O O2 0.940807 0.775972 0.591221
O O3 0.854435 0.999193 0.636794
O O4 0.931084 0.914471 0.761312
O O5 0.183795 0.422365 0.142560
O O6 0.207913 0.685549 0.291950
O O7 0.123601 0.744288 0.193133
O O8 0.396299 0.506348 0.023837
O O9 0.455781 0.172805 0.087493
O O10 0.500000 0.500000 0.000000
O O11 0.691283 0.710310 0.528372
O O12 0.625691 0.909790 0.416144
O O13 0.250000 0.000000 0.389968
#
# Coordination Sequence:
#
# PCOD8223068 Si02
#       6
#     8   8   8   8   8   8
#     4  10  20  41  66  89 136 169 213 287 334 388
#     4   9  20  40  64  89 132 174 207 277 334 386
#     4  11  22  39  68  98 127 174 225 270 340 409
#     4  10  20  41  65  93 134 165 218 286 331 384
#     4  11  22  39  68  98 126 175 226 267 339 403
#     4   9  20  40  65  90 129 173 210 273 336 383
#
# _framework density 22.011626
#
# number of rings (size 3 to 8) (size 9 to 14) (size 15 to 20)
#    0.000    2.000    3.333    0.000    0.000    1.333 
#    0.000   18.333    3.667    0.000    0.000    0.000 
#    0.000    0.000    0.000    0.000    0.000    0.000 
#
# Total GULP energy -594901.507959 kJ/mol
# GULP energy per Si atom -12393.781416 kJ/mol
# Density = 2.196153 g / cm^3
# Si number density = 22.011626 Si / 1000 Ang^3
#
#
#
# Elastic Constant Matrix: (Units=GPa)
#
#
# Indices 1 2 3 4 5 6 
#
# 1 74.7267 29.4508 67.5958 0.0000 0.0000 0.0000
# 2 29.4508 101.5401 65.9343 0.0000 0.0000 0.0000
# 3 67.5958 65.9343 190.9499 0.0000 0.0000 0.0000
# 4 0.0000 0.0000 0.0000 53.4404 0.0000 0.0000
# 5 0.0000 0.0000 0.0000 0.0000 10.2663 0.0000
# 6 0.0000 0.0000 0.0000 0.0000 0.0000 36.7477
#
#
#
# Elastic Compliance Matrix: (Units=1/GPa)
#
#
# Indices 1 2 3 4 5 6 
#
# 1 0.019871 -0.001541 -0.006502 0.000000 0.000000 0.000000
# 2 -0.001541 0.012814 -0.003879 0.000000 0.000000 0.000000
# 3 -0.006502 -0.003879 0.008878 0.000000 0.000000 0.000000
# 4 0.000000 0.000000 0.000000 0.018712 0.000000 0.000000
# 5 0.000000 0.000000 0.000000 0.000000 0.097406 0.000000
# 6 0.000000 0.000000 0.000000 0.000000 0.000000 0.027213
#
#
# Mechanical properties :
#
#
# Convention : Reuss Voigt Hill
#
# Bulk Modulus (GPa) = 56.43830 77.01982 66.72906
# Shear Modulus (GPa) = 23.29420 33.70663 28.50042
#
# Velocity S-wave (km/s) = 3.25663 3.91744 3.60222
# Velocity P-wave (km/s) = 6.31164 7.45173 6.90525
#
# Compressibility (1/GPa) = 0.01771846
#
# Stress axis : x y z
#
# Youngs Moduli (GPa) = 50.32403 78.03828 112.63626
#
# Poissons Ratio (x) = 0.12029 0.73238
# Poissons Ratio (y) = 0.07757 0.43692
# Poissons Ratio (z) = 0.32721 0.30272
#
# Static dielectric constant tensor:
#      x y z
#    x 1.330310 0.000000 0.000000 
#    y 0.000000 4.505520 0.000000 
#    z 0.000000 0.000000 9.885180 
# 
# 
# High freq. dielectric constant tensor:
#      x y z
#    x 1.803340 0.000000 0.000000 
#    y 0.000000 1.893550 0.000000 
#    z 0.000000 0.000000 1.898580 
# 
# From -- ./inp_files/15145.got.cif
#   From: 2010.03.12/outbox.cif.g09.slc.cpg/sg54_8_cif.got.tgz:15145.got - 2010.04.16 15:00:50.
