data_PCOD8223865
_publ_section_title
;
Structure prediction by ZEFSAII (Michael W. Deem and Ramdas Pophale) SiO2 
 PCOD8223865
Probable space group: P C C A
;
_chemical_formula_sum "Si O2"
_cell_formula_units_Z 48
_cell_length_a 17.307370
_cell_length_b 9.183559
_cell_length_c 13.737732
_cell_angle_alpha 90.000000
_cell_angle_beta 90.000000
_cell_angle_gamma 90.000000
_cell_volume 2183.519820
_symmetry_space_group_name_H-M "P C C A"
_symmetry_group_IT_number 54
_symmetry_cell_setting 'orthorhombic'
loop_
_space_group_symop_operation_xyz
x,y,z
1/2-x,-y,z
1/2+x,-y,1/2-z
-x,y,1/2-z
-x,-y,-z
1/2+x,y,-z
1/2-x,y,1/2+z
x,-y,1/2+z
loop_
_atom_site_type_symbol
_atom_site_label
_atom_site_fract_x
_atom_site_fract_y
_atom_site_fract_z
Si Si1 0.781718 0.845319 0.324954
Si Si2 0.422121 0.934138 0.808592
Si Si3 0.060484 0.700298 0.470948
Si Si4 0.533868 0.590002 0.141795
Si Si5 0.735533 0.331590 0.997597
Si Si6 0.170925 0.218686 0.338218
O O1 0.861444 0.853776 0.263989
O O2 0.789879 0.726583 0.409933
O O3 0.710516 0.782018 0.265167
O O4 0.750000 0.000000 0.365205
O O5 0.500000 0.972528 0.750000
O O6 0.445590 0.842260 0.903735
O O7 0.383804 0.079202 0.851481
O O8 0.007236 0.703784 0.567519
O O9 0.144856 0.686343 0.517502
O O10 0.031602 0.571216 0.400924
O O11 0.500000 0.595218 0.250000
O O12 0.622897 0.633996 0.149589
O O13 0.750000 0.500000 0.017508
O O14 0.759094 0.225592 0.085696
#
# Coordination Sequence:
#
# PCOD8223865 Si02
#       6
#     8   8   8   8   8   8
#     4  10  25  43  70 100 134 182 232 286 347 415
#     4  11  25  44  70 103 138 183 229 290 354 415
#     4  11  25  43  69 102 136 187 232 285 357 413
#     4  11  24  44  68 100 143 180 232 294 346 415
#     4  12  25  43  69 101 136 184 231 286 355 418
#     4  11  24  47  67 101 138 177 237 286 346 422
#
# _framework density 21.982856000000002
#
# number of rings (size 3 to 8) (size 9 to 14) (size 15 to 20)
#    0.000    1.000    3.333    2.000    4.667    5.333 
#    0.000    0.000    0.000    0.000    0.000    0.000 
#    0.000    0.000    0.000    0.000    0.000    0.000 
#
# Total GULP energy -595061.693727 kJ/mol
# GULP energy per Si atom -12397.118619 kJ/mol
# Density = 2.193282 g / cm^3
# Si number density = 21.982856 Si / 1000 Ang^3
#
#
#
# Elastic Constant Matrix: (Units=GPa)
#
#
# Indices 1 2 3 4 5 6 
#
# 1 89.0077 16.3857 13.6884 0.0000 0.0000 0.0000
# 2 16.3857 72.5670 46.6469 0.0000 0.0000 0.0000
# 3 13.6884 46.6469 107.9778 0.0000 0.0000 0.0000
# 4 0.0000 0.0000 0.0000 23.0857 0.0000 0.0000
# 5 0.0000 0.0000 0.0000 0.0000 25.4730 0.0000
# 6 0.0000 0.0000 0.0000 0.0000 0.0000 35.4619
#
#
#
# Elastic Compliance Matrix: (Units=1/GPa)
#
#
# Indices 1 2 3 4 5 6 
#
# 1 0.011740 -0.002346 -0.000475 0.000000 0.000000 0.000000
# 2 -0.002346 0.019547 -0.008147 0.000000 0.000000 0.000000
# 3 -0.000475 -0.008147 0.012841 0.000000 0.000000 0.000000
# 4 0.000000 0.000000 0.000000 0.043317 0.000000 0.000000
# 5 0.000000 0.000000 0.000000 0.000000 0.039257 0.000000
# 6 0.000000 0.000000 0.000000 0.000000 0.000000 0.028199
#
#
# Mechanical properties :
#
#
# Convention : Reuss Voigt Hill
#
# Bulk Modulus (GPa) = 45.05999 46.99938 46.02968
# Shear Modulus (GPa) = 27.13942 29.65955 28.39948
#
# Velocity S-wave (km/s) = 3.51746 3.67715 3.59819
# Velocity P-wave (km/s) = 6.08597 6.28132 6.18441
#
# Compressibility (1/GPa) = 0.02219264
#
# Stress axis : x y z
#
# Youngs Moduli (GPa) = 85.18012 51.15875 77.87592
#
# Poissons Ratio (x) = 0.11999 0.03699
# Poissons Ratio (y) = 0.19979 0.63446
# Poissons Ratio (z) = 0.04046 0.41679
#
# Static dielectric constant tensor:
#      x y z
#    x 4.156900 0.000000 0.000000 
#    y 0.000000 3.916750 0.000000 
#    z 0.000000 0.000000 3.940100 
# 
# 
# High freq. dielectric constant tensor:
#      x y z
#    x 1.877780 0.000000 0.000000 
#    y 0.000000 1.861370 0.000000 
#    z 0.000000 0.000000 1.871200 
# 
# From -- ./inp_files/14101.got.cif
#   From: 2010.03.12/outbox.cif.g09.slc.cpg/sg54_8_cif.got.tgz:14101.got - 2010.04.16 15:00:50.
