data_PCOD8223465
_publ_section_title
;
Structure prediction by ZEFSAII (Michael W. Deem and Ramdas Pophale) SiO2 
 PCOD8223465
Probable space group: P C C A
;
_chemical_formula_sum "Si O2"
_cell_formula_units_Z 56
_cell_length_a 21.048952
_cell_length_b 13.635500
_cell_length_c 8.773332
_cell_angle_alpha 90.000000
_cell_angle_beta 90.000000
_cell_angle_gamma 90.000000
_cell_volume 2518.060206
_symmetry_space_group_name_H-M "P C C A"
_symmetry_group_IT_number 54
_symmetry_cell_setting 'orthorhombic'
loop_
_space_group_symop_operation_xyz
x,y,z
1/2-x,-y,z
1/2+x,-y,1/2-z
-x,y,1/2-z
-x,-y,-z
1/2+x,y,-z
1/2-x,y,1/2+z
x,-y,1/2+z
loop_
_atom_site_type_symbol
_atom_site_label
_atom_site_fract_x
_atom_site_fract_y
_atom_site_fract_z
Si Si1 0.669599 0.310493 0.632835
Si Si2 0.795539 0.267874 0.475246
Si Si3 0.428506 0.547125 0.245868
Si Si4 0.362031 0.922208 0.059997
Si Si5 0.016255 0.832069 0.424399
Si Si6 0.083702 0.636353 0.430161
Si Si7 0.391589 0.889393 0.409586
O O1 0.731300 0.321789 0.526904
O O2 0.692202 0.299564 0.804304
O O3 0.618664 0.399169 0.633000
O O4 0.636682 0.216624 0.560947
O O5 0.800364 0.147702 0.474083
O O6 0.850279 0.305796 0.589534
O O7 0.500000 0.589691 0.250000
O O8 0.428663 0.431001 0.282451
O O9 0.407586 0.563386 0.072893
O O10 0.385863 0.917149 0.233059
O O11 0.418939 0.888682 0.952094
O O12 0.349688 0.034541 0.010934
O O13 0.026834 0.715221 0.453980
O O14 0.000000 0.851341 0.250000
O O15 0.964423 0.880449 0.536423
#
# Coordination Sequence:
#
# PCOD8223465 Si02
#       7
#     8   8   8   8   8   8   8
#     4  10  23  40  64  87 124 168 207 265 317 388
#     4   9  22  42  59  88 121 161 212 254 319 379
#     4  11  22  40  63  93 123 160 208 260 323 381
#     4  10  22  39  61  89 125 162 208 261 308 382
#     4  11  22  38  60  90 124 163 208 260 317 378
#     4  10  23  40  62  89 123 160 204 263 314 382
#     4  11  22  39  61  90 122 166 207 256 320 370
#
# _framework density 22.239341
#
# number of rings (size 3 to 8) (size 9 to 14) (size 15 to 20)
#    0.000    1.714    0.000    4.286    0.000    6.857 
#    0.000    5.714    0.000    0.000    0.000    0.000 
#    0.000    0.000    0.000    0.000    0.000    0.000 
#
# Total GULP energy -693958.179034 kJ/mol
# GULP energy per Si atom -12392.110340 kJ/mol
# Density = 2.218872 g / cm^3
# Si number density = 22.239341 Si / 1000 Ang^3
#
#
#
# Elastic Constant Matrix: (Units=GPa)
#
#
# Indices 1 2 3 4 5 6 
#
# 1 92.7107 9.7935 7.3089 0.0000 0.0000 0.0000
# 2 9.7935 85.2670 12.3947 0.0000 0.0000 0.0000
# 3 7.3089 12.3947 61.4590 0.0000 0.0000 0.0000
# 4 0.0000 0.0000 0.0000 36.8459 0.0000 0.0000
# 5 0.0000 0.0000 0.0000 0.0000 31.9788 0.0000
# 6 0.0000 0.0000 0.0000 0.0000 0.0000 25.3436
#
#
#
# Elastic Compliance Matrix: (Units=1/GPa)
#
#
# Indices 1 2 3 4 5 6 
#
# 1 0.010988 -0.001105 -0.001084 0.000000 0.000000 0.000000
# 2 -0.001105 0.012193 -0.002328 0.000000 0.000000 0.000000
# 3 -0.001084 -0.002328 0.016869 0.000000 0.000000 0.000000
# 4 0.000000 0.000000 0.000000 0.027140 0.000000 0.000000
# 5 0.000000 0.000000 0.000000 0.000000 0.031271 0.000000
# 6 0.000000 0.000000 0.000000 0.000000 0.000000 0.039458
#
#
# Mechanical properties :
#
#
# Convention : Reuss Voigt Hill
#
# Bulk Modulus (GPa) = 32.23895 33.15900 32.69898
# Shear Modulus (GPa) = 31.78815 32.82961 32.30888
#
# Velocity S-wave (km/s) = 3.78480 3.84630 3.81567
# Velocity P-wave (km/s) = 5.79891 5.88793 5.84359
#
# Compressibility (1/GPa) = 0.03101838
#
# Stress axis : x y z
#
# Youngs Moduli (GPa) = 91.00526 82.01364 59.27908
#
# Poissons Ratio (x) = 0.09058 0.06426
# Poissons Ratio (y) = 0.10052 0.13798
# Poissons Ratio (z) = 0.09865 0.19090
#
# Static dielectric constant tensor:
#      x y z
#    x 4.097580 0.000000 0.000000 
#    y 0.000000 4.253490 0.000000 
#    z 0.000000 0.000000 3.811240 
# 
# 
# High freq. dielectric constant tensor:
#      x y z
#    x 1.864200 0.000000 0.000000 
#    y 0.000000 1.881260 0.000000 
#    z 0.000000 0.000000 1.872340 
# 
# From -- ./inp_files/4825.got.cif
#   From: 2010.03.12/outbox.cif.g09.slc.cpg/sg54_3_cif.got.tgz:4825.got - 2010.04.16 15:00:50.
