data_PCOD8223347
_publ_section_title
;
Structure prediction by ZEFSAII (Michael W. Deem and Ramdas Pophale) SiO2 
 PCOD8223347
Probable space group: P C C A
;
_chemical_formula_sum "Si O2"
_cell_formula_units_Z 56
_cell_length_a 20.375822
_cell_length_b 12.983351
_cell_length_c 9.443427
_cell_angle_alpha 90.000000
_cell_angle_beta 90.000000
_cell_angle_gamma 90.000000
_cell_volume 2498.225079
_symmetry_space_group_name_H-M "P C C A"
_symmetry_group_IT_number 54
_symmetry_cell_setting 'orthorhombic'
loop_
_space_group_symop_operation_xyz
x,y,z
1/2-x,-y,z
1/2+x,-y,1/2-z
-x,y,1/2-z
-x,-y,-z
1/2+x,y,-z
1/2-x,y,1/2+z
x,-y,1/2+z
loop_
_atom_site_type_symbol
_atom_site_label
_atom_site_fract_x
_atom_site_fract_y
_atom_site_fract_z
Si Si1 0.677759 0.208846 0.113778
Si Si2 0.858098 0.977365 0.565378
Si Si3 0.589790 0.368065 0.479165
Si Si4 0.446427 0.718080 0.033322
Si Si5 0.424887 0.465335 0.733533
Si Si6 0.938410 0.936082 0.829601
Si Si7 0.701915 0.785771 0.937846
O O1 0.705036 0.226555 0.269944
O O2 0.674557 0.087861 0.084060
O O3 0.606171 0.261489 0.092749
O O4 0.730127 0.257296 0.003189
O O5 0.878464 0.931201 0.717635
O O6 0.806033 0.903070 0.489831
O O7 0.920848 0.989746 0.460747
O O8 0.515408 0.324018 0.473263
O O9 0.603046 0.445257 0.610398
O O10 0.607777 0.434687 0.339639
O O11 0.639063 0.274309 0.496471
O O12 0.414872 0.636191 0.139659
O O13 0.458039 0.822248 0.120534
O O14 0.500000 0.494015 0.750000
O O15 0.000000 0.987951 0.750000
#
# Coordination Sequence:
#
# PCOD8223347 Si02
#       7
#     8   8   8   8   8   8   8
#     4  11  28  44  70  99 139 185 230 289 336 419
#     4  11  23  43  65  98 133 187 232 277 335 414
#     4  11  25  43  77 103 139 178 231 288 347 409
#     4  10  22  43  71  99 137 176 229 286 345 406
#     4  10  21  41  71 106 132 179 222 285 342 416
#     4  11  21  37  63  99 142 175 222 282 349 399
#     4  12  27  46  70 101 137 185 232 281 349 404
#
# _framework density 22.415913
#
# number of rings (size 3 to 8) (size 9 to 14) (size 15 to 20)
#    0.000    1.143    1.429    5.571   10.000    2.286 
#    0.000    0.714    0.000    0.000    0.000    0.000 
#    0.000    0.000    0.000    0.000    0.000    0.000 
#
# Total GULP energy -694439.631424 kJ/mol
# GULP energy per Si atom -12400.707704 kJ/mol
# Density = 2.236489 g / cm^3
# Si number density = 22.415913 Si / 1000 Ang^3
#
#
#
# Elastic Constant Matrix: (Units=GPa)
#
#
# Indices 1 2 3 4 5 6 
#
# 1 104.9423 29.0120 48.6811 0.0000 0.0000 0.0000
# 2 29.0120 78.1199 31.0285 0.0000 0.0000 0.0000
# 3 48.6811 31.0285 139.0047 0.0000 0.0000 0.0000
# 4 0.0000 0.0000 0.0000 31.1446 0.0000 0.0000
# 5 0.0000 0.0000 0.0000 0.0000 35.6901 0.0000
# 6 0.0000 0.0000 0.0000 0.0000 0.0000 11.4628
#
#
#
# Elastic Compliance Matrix: (Units=1/GPa)
#
#
# Indices 1 2 3 4 5 6 
#
# 1 0.012009 -0.003061 -0.003523 0.000000 0.000000 0.000000
# 2 -0.003061 0.014826 -0.002238 0.000000 0.000000 0.000000
# 3 -0.003523 -0.002238 0.008927 0.000000 0.000000 0.000000
# 4 0.000000 0.000000 0.000000 0.032108 0.000000 0.000000
# 5 0.000000 0.000000 0.000000 0.000000 0.028019 0.000000
# 6 0.000000 0.000000 0.000000 0.000000 0.000000 0.087239
#
#
# Mechanical properties :
#
#
# Convention : Reuss Voigt Hill
#
# Bulk Modulus (GPa) = 55.18531 59.94555 57.56543
# Shear Modulus (GPa) = 24.17667 29.88252 27.02959
#
# Velocity S-wave (km/s) = 3.28769 3.65512 3.47626
# Velocity P-wave (km/s) = 6.25173 6.67934 6.46907
#
# Compressibility (1/GPa) = 0.01812076
#
# Stress axis : x y z
#
# Youngs Moduli (GPa) = 83.26881 67.44762 112.01833
#
# Poissons Ratio (x) = 0.20645 0.39459
# Poissons Ratio (y) = 0.25487 0.25065
# Poissons Ratio (z) = 0.29332 0.15092
#
# Static dielectric constant tensor:
#      x y z
#    x 3.744520 0.000000 0.000000 
#    y 0.000000 3.956790 0.000000 
#    z 0.000000 0.000000 -0.250310 
# 
# 
# High freq. dielectric constant tensor:
#      x y z
#    x 1.863370 0.000000 0.000000 
#    y 0.000000 1.878070 0.000000 
#    z 0.000000 0.000000 1.898490 
# 
# From -- ./inp_files/4791.got.cif
#   From: 2010.03.12/outbox.cif.g09.slc.cpg/sg54_3_cif.got.tgz:4791.got - 2010.04.16 15:00:50.
