data_PCOD8223135
_publ_section_title
;
Structure prediction by ZEFSAII (Michael W. Deem and Ramdas Pophale) SiO2 
 PCOD8223135
Probable space group: P C C A
;
_chemical_formula_sum "Si O2"
_cell_formula_units_Z 48
_cell_length_a 18.881518
_cell_length_b 24.690438
_cell_length_c 5.170832
_cell_angle_alpha 90.000000
_cell_angle_beta 90.000000
_cell_angle_gamma 90.000000
_cell_volume 2410.605422
_symmetry_space_group_name_H-M "P C C A"
_symmetry_group_IT_number 54
_symmetry_cell_setting 'orthorhombic'
loop_
_space_group_symop_operation_xyz
x,y,z
1/2-x,-y,z
1/2+x,-y,1/2-z
-x,y,1/2-z
-x,-y,-z
1/2+x,y,-z
1/2-x,y,1/2+z
x,-y,1/2+z
loop_
_atom_site_type_symbol
_atom_site_label
_atom_site_fract_x
_atom_site_fract_y
_atom_site_fract_z
Si Si1 0.205437 0.616277 0.237508
Si Si2 0.078872 0.892317 0.775737
Si Si3 0.205761 0.742996 0.242427
Si Si4 0.280356 0.940189 0.169248
Si Si5 0.919042 0.534845 0.233450
Si Si6 0.579569 0.177225 0.224666
O O1 0.249655 0.598780 0.488278
O O2 0.188517 0.679667 0.237397
O O3 0.130262 0.586783 0.232294
O O4 0.135677 0.940221 0.725275
O O5 0.091190 0.845755 0.563293
O O6 0.000000 0.917238 0.750000
O O7 0.091755 0.869444 0.062051
O O8 0.246542 0.760356 0.500499
O O9 0.131199 0.773015 0.226709
O O10 0.238190 0.909498 0.400483
O O11 0.250000 0.000000 0.112806
O O12 0.902994 0.491442 0.456349
O O13 0.000000 0.555205 0.250000
O O14 0.500000 0.200085 0.250000
#
# Coordination Sequence:
#
# PCOD8223135 Si02
#       6
#     8   8   8   8   8   8
#     4  10  21  36  54  78 108 141 179 221 268 324
#     4  10  21  37  56  80 110 141 176 220 265 311
#     4  10  21  36  54  80 111 142 177 219 268 319
#     4  10  21  37  55  80 108 137 177 218 257 311
#     4  10  21  36  54  78 106 138 181 228 272 319
#     4  10  21  36  56  82 109 141 180 218 263 320
#
# _framework density 19.912009999999999
#
# number of rings (size 3 to 8) (size 9 to 14) (size 15 to 20)
#    0.000    2.000    0.000    3.000    0.000    6.667 
#    0.000    3.333    0.000   12.000    0.000    0.000 
#    0.000    0.000    0.000    0.000    0.000    0.000 
#
# Total GULP energy -595200.748647 kJ/mol
# GULP energy per Si atom -12400.015597 kJ/mol
# Density = 1.986669 g / cm^3
# Si number density = 19.912010 Si / 1000 Ang^3
#
#
#
# Elastic Constant Matrix: (Units=GPa)
#
#
# Indices 1 2 3 4 5 6 
#
# 1 136.7271 55.6574 21.8599 0.0000 0.0000 0.0000
# 2 55.6574 46.1567 6.3489 0.0000 0.0000 0.0000
# 3 21.8599 6.3489 116.4318 0.0000 0.0000 0.0000
# 4 0.0000 0.0000 0.0000 1.4872 0.0000 0.0000
# 5 0.0000 0.0000 0.0000 0.0000 27.6597 0.0000
# 6 0.0000 0.0000 0.0000 0.0000 0.0000 41.8554
#
#
#
# Elastic Compliance Matrix: (Units=1/GPa)
#
#
# Indices 1 2 3 4 5 6 
#
# 1 0.014735 -0.017518 -0.001811 0.000000 0.000000 0.000000
# 2 -0.017518 0.042657 0.000963 0.000000 0.000000 0.000000
# 3 -0.001811 0.000963 0.008876 0.000000 0.000000 0.000000
# 4 0.000000 0.000000 0.000000 0.672399 0.000000 0.000000
# 5 0.000000 0.000000 0.000000 0.000000 0.036154 0.000000
# 6 0.000000 0.000000 0.000000 0.000000 0.000000 0.023892
#
#
# Mechanical properties :
#
#
# Convention : Reuss Voigt Hill
#
# Bulk Modulus (GPa) = 33.85816 51.89423 42.87619
# Shear Modulus (GPa) = 5.91513 28.56375 17.23944
#
# Velocity S-wave (km/s) = 1.72542 3.79159 2.94561
# Velocity P-wave (km/s) = 4.58369 6.72953 5.75746
#
# Compressibility (1/GPa) = 0.02953498
#
# Stress axis : x y z
#
# Youngs Moduli (GPa) = 67.86738 23.44268 112.66024
#
# Poissons Ratio (x) = 0.41068 0.20404
# Poissons Ratio (y) = 1.18893 -0.10849
# Poissons Ratio (z) = 0.12292 -0.02258
#
# Static dielectric constant tensor:
#      x y z
#    x 3.752040 0.000000 0.000000 
#    y 0.000000 3.237680 0.000000 
#    z 0.000000 0.000000 4.777720 
# 
# 
# High freq. dielectric constant tensor:
#      x y z
#    x 1.787870 0.000000 0.000000 
#    y 0.000000 1.741420 0.000000 
#    z 0.000000 0.000000 1.810350 
# 
# From -- ./inp_files/1017.got.cif
#   From: 2010.03.12/outbox.cif.g09.slc.cpg/sg54_1_cif.got.tgz:1017.got - 2010.04.16 15:00:50.
