data_PCOD8223220
_publ_section_title
;
Structure prediction by ZEFSAII (Michael W. Deem and Ramdas Pophale) SiO2 
 PCOD8223220
Probable space group: P C C A
;
_chemical_formula_sum "Si O2"
_cell_formula_units_Z 52
_cell_length_a 19.550775
_cell_length_b 14.702206
_cell_length_c 8.795161
_cell_angle_alpha 90.000000
_cell_angle_beta 90.000000
_cell_angle_gamma 90.000000
_cell_volume 2528.076869
_symmetry_space_group_name_H-M "P C C A"
_symmetry_group_IT_number 54
_symmetry_cell_setting 'orthorhombic'
loop_
_space_group_symop_operation_xyz
x,y,z
1/2-x,-y,z
1/2+x,-y,1/2-z
-x,y,1/2-z
-x,-y,-z
1/2+x,y,-z
1/2-x,y,1/2+z
x,-y,1/2+z
loop_
_atom_site_type_symbol
_atom_site_label
_atom_site_fract_x
_atom_site_fract_y
_atom_site_fract_z
Si Si1 0.837968 0.423498 0.078305
Si Si2 0.250000 0.500000 0.683001
Si Si3 0.416897 0.247153 0.899285
Si Si4 0.952938 0.441869 0.610323
Si Si5 0.321983 0.103488 0.515278
Si Si6 0.320127 0.910579 0.374330
Si Si7 0.930895 0.257901 0.455536
O O1 0.778363 0.418649 0.206685
O O2 0.872119 0.328359 0.031319
O O3 0.891675 0.492061 0.157133
O O4 0.810258 0.459652 0.918651
O O5 0.381399 0.151902 0.929318
O O6 0.420906 0.270990 0.722505
O O7 0.489379 0.234931 0.983104
O O8 0.916936 0.353721 0.536157
O O9 0.000000 0.410640 0.750000
O O10 0.000000 0.500000 0.500000
O O11 0.248965 0.131875 0.445500
O O12 0.312852 0.086502 0.693465
O O13 0.379896 0.179748 0.480538
O O14 0.341496 0.009528 0.433809
#
# Coordination Sequence:
#
# PCOD8223220 Si02
#       7
#     8   4   8   8   8   8   8
#     4  11  22  39  59  87 122 161 204 256 307 381
#     4  10  24  38  56  86 126 162 204 256 320 360
#     4  10  21  38  64  87 123 159 206 250 322 363
#     4  12  23  40  64  90 121 167 212 257 315 380
#     4  10  21  41  64  90 125 158 216 252 319 379
#     4  10  21  39  63  90 117 170 197 260 311 380
#     4  10  22  40  60  94 122 160 205 262 308 379
#
# _framework density 20.568995000000001
#
# number of rings (size 3 to 8) (size 9 to 14) (size 15 to 20)
#    0.000    1.538    1.538    4.615    0.000    5.538 
#    5.538    0.000    0.000    0.000    0.000    0.000 
#    0.000    0.000    0.000    0.000    0.000    0.000 
#
# Total GULP energy -644646.417514 kJ/mol
# GULP energy per Si atom -12397.046491 kJ/mol
# Density = 2.052218 g / cm^3
# Si number density = 20.568995 Si / 1000 Ang^3
#
#
#
# Elastic Constant Matrix: (Units=GPa)
#
#
# Indices 1 2 3 4 5 6 
#
# 1 85.4195 40.2208 28.2843 0.0000 0.0000 0.0000
# 2 40.2208 98.6566 34.6132 0.0000 0.0000 0.0000
# 3 28.2843 34.6132 76.6649 0.0000 0.0000 0.0000
# 4 0.0000 0.0000 0.0000 7.7858 0.0000 0.0000
# 5 0.0000 0.0000 0.0000 0.0000 21.6625 0.0000
# 6 0.0000 0.0000 0.0000 0.0000 0.0000 43.5648
#
#
#
# Elastic Compliance Matrix: (Units=1/GPa)
#
#
# Indices 1 2 3 4 5 6 
#
# 1 0.015172 -0.005016 -0.003333 0.000000 0.000000 0.000000
# 2 -0.005016 0.013702 -0.004336 0.000000 0.000000 0.000000
# 3 -0.003333 -0.004336 0.016231 0.000000 0.000000 0.000000
# 4 0.000000 0.000000 0.000000 0.128439 0.000000 0.000000
# 5 0.000000 0.000000 0.000000 0.000000 0.046163 0.000000
# 6 0.000000 0.000000 0.000000 0.000000 0.000000 0.022954
#
#
# Mechanical properties :
#
#
# Convention : Reuss Voigt Hill
#
# Bulk Modulus (GPa) = 50.66886 51.88641 51.27764
# Shear Modulus (GPa) = 18.20760 25.11080 21.65920
#
# Velocity S-wave (km/s) = 2.97845 3.49780 3.24852
# Velocity P-wave (km/s) = 6.04279 6.44927 6.24934
#
# Compressibility (1/GPa) = 0.01973599
#
# Stress axis : x y z
#
# Youngs Moduli (GPa) = 65.90882 72.97984 61.61070
#
# Poissons Ratio (x) = 0.36609 0.20534
# Poissons Ratio (y) = 0.33062 0.26713
# Poissons Ratio (z) = 0.21967 0.31643
#
# Static dielectric constant tensor:
#      x y z
#    x 2.956380 0.000000 0.000000 
#    y 0.000000 3.696860 0.000000 
#    z 0.000000 0.000000 2.430540 
# 
# 
# High freq. dielectric constant tensor:
#      x y z
#    x 1.817770 0.000000 0.000000 
#    y 0.000000 1.796950 0.000000 
#    z 0.000000 0.000000 1.805070 
# 
# From -- ./inp_files/4768.got.cif
#   From: 2010.03.12/outbox.cif.g09.slc.cpg/sg54_3_cif.got.tgz:4768.got - 2010.04.16 15:00:50.
