data_PCOD8223741
_publ_section_title
;
Structure prediction by ZEFSAII (Michael W. Deem and Ramdas Pophale) SiO2 
 PCOD8223741
Probable space group: P C C A
;
_chemical_formula_sum "Si O2"
_cell_formula_units_Z 40
_cell_length_a 9.893422
_cell_length_b 10.788512
_cell_length_c 16.767504
_cell_angle_alpha 90.000000
_cell_angle_beta 90.000000
_cell_angle_gamma 90.000000
_cell_volume 1789.684603
_symmetry_space_group_name_H-M "P C C A"
_symmetry_group_IT_number 54
_symmetry_cell_setting 'orthorhombic'
loop_
_space_group_symop_operation_xyz
x,y,z
1/2-x,-y,z
1/2+x,-y,1/2-z
-x,y,1/2-z
-x,-y,-z
1/2+x,y,-z
1/2-x,y,1/2+z
x,-y,1/2+z
loop_
_atom_site_type_symbol
_atom_site_label
_atom_site_fract_x
_atom_site_fract_y
_atom_site_fract_z
Si Si1 0.662641 0.885826 0.163307
Si Si2 0.685625 0.349097 0.909444
Si Si3 0.454538 0.431217 0.159637
Si Si4 0.718487 0.362947 0.091400
Si Si5 0.857286 0.097991 0.344214
O O1 0.691237 0.753312 0.121249
O O2 0.692660 0.861540 0.256482
O O3 0.512640 0.943155 0.154711
O O4 0.750000 0.000000 0.128761
O O5 0.557630 0.434917 0.884594
O O6 0.807436 0.368597 0.846282
O O7 0.640479 0.209132 0.906542
O O8 0.739194 0.377406 0.997304
O O9 0.500000 0.450594 0.250000
O O10 0.561432 0.341506 0.114524
O O11 0.750000 0.500000 0.130219
O O12 0.750000 0.000000 0.378865
#
# Coordination Sequence:
#
# PCOD8223741 Si02
#       5
#     8   8   8   8   8
#     4  10  24  44  71 101 132 184 236 282 352 416
#     4  11  25  43  65 106 133 180 226 282 355 416
#     4  11  25  41  68  98 140 180 231 277 344 423
#     4  12  25  43  69  99 145 175 222 290 351 413
#     4  10  23  44  70  95 137 178 236 293 336 415
#
# _framework density 22.350307000000001
#
# number of rings (size 3 to 8) (size 9 to 14) (size 15 to 20)
#    0.000    1.200    2.000    3.000   14.000    0.800 
#    0.000    2.000    0.000    0.000    0.000    0.000 
#    0.000    0.000    0.000    0.000    0.000    0.000 
#
# Total GULP energy -495745.318314 kJ/mol
# GULP energy per Si atom -12393.632958 kJ/mol
# Density = 2.229944 g / cm^3
# Si number density = 22.350307 Si / 1000 Ang^3
#
#
#
# Elastic Constant Matrix: (Units=GPa)
#
#
# Indices 1 2 3 4 5 6 
#
# 1 108.7660 47.2557 29.2623 0.0000 0.0000 0.0000
# 2 47.2557 131.7739 26.8152 0.0000 0.0000 0.0000
# 3 29.2623 26.8152 82.3140 0.0000 0.0000 0.0000
# 4 0.0000 0.0000 0.0000 26.1189 0.0000 0.0000
# 5 0.0000 0.0000 0.0000 0.0000 28.1040 0.0000
# 6 0.0000 0.0000 0.0000 0.0000 0.0000 46.1127
#
#
#
# Elastic Compliance Matrix: (Units=1/GPa)
#
#
# Indices 1 2 3 4 5 6 
#
# 1 0.011521 -0.003532 -0.002945 0.000000 0.000000 0.000000
# 2 -0.003532 0.009211 -0.001745 0.000000 0.000000 0.000000
# 3 -0.002945 -0.001745 0.013764 0.000000 0.000000 0.000000
# 4 0.000000 0.000000 0.000000 0.038286 0.000000 0.000000
# 5 0.000000 0.000000 0.000000 0.000000 0.035582 0.000000
# 6 0.000000 0.000000 0.000000 0.000000 0.000000 0.021686
#
#
# Mechanical properties :
#
#
# Convention : Reuss Voigt Hill
#
# Bulk Modulus (GPa) = 55.39737 58.83559 57.11648
# Shear Modulus (GPa) = 32.78446 34.70183 33.74315
#
# Velocity S-wave (km/s) = 3.83410 3.94462 3.88975
# Velocity P-wave (km/s) = 6.66635 6.86500 6.76640
#
# Compressibility (1/GPa) = 0.01805140
#
# Stress axis : x y z
#
# Youngs Moduli (GPa) = 86.79762 108.57137 72.65367
#
# Poissons Ratio (x) = 0.38351 0.21396
# Poissons Ratio (y) = 0.30660 0.12676
# Poissons Ratio (z) = 0.25562 0.18943
#
# Static dielectric constant tensor:
#      x y z
#    x 4.200180 0.000000 0.000000 
#    y 0.000000 4.004260 0.000000 
#    z 0.000000 0.000000 3.764740 
# 
# 
# High freq. dielectric constant tensor:
#      x y z
#    x 1.894340 0.000000 0.000000 
#    y 0.000000 1.875690 0.000000 
#    z 0.000000 0.000000 1.865020 
# 
# From -- ./inp_files/16346.got.cif
#   From: 2010.03.12/outbox.cif.g09.slc.cpg/sg54_9_cif.got.tgz:16346.got - 2010.04.16 15:00:50.
