data_PCOD8223035
_publ_section_title
;
Structure prediction by ZEFSAII (Michael W. Deem and Ramdas Pophale) SiO2 
 PCOD8223035
Probable space group: P C C A
;
_chemical_formula_sum "Si O2"
_cell_formula_units_Z 60
_cell_length_a 24.203327
_cell_length_b 7.834114
_cell_length_c 15.701820
_cell_angle_alpha 90.000000
_cell_angle_beta 90.000000
_cell_angle_gamma 90.000000
_cell_volume 2977.247573
_symmetry_space_group_name_H-M "P C C A"
_symmetry_group_IT_number 54
_symmetry_cell_setting 'orthorhombic'
loop_
_space_group_symop_operation_xyz
x,y,z
1/2-x,-y,z
1/2+x,-y,1/2-z
-x,y,1/2-z
-x,-y,-z
1/2+x,y,-z
1/2-x,y,1/2+z
x,-y,1/2+z
loop_
_atom_site_type_symbol
_atom_site_label
_atom_site_fract_x
_atom_site_fract_y
_atom_site_fract_z
Si Si1 0.242656 0.180711 0.235311
Si Si2 0.840185 0.848534 0.136402
Si Si3 0.024238 0.213615 0.335122
Si Si4 0.459739 0.819265 0.822727
Si Si5 0.037111 0.659451 0.505379
Si Si6 0.250000 0.500000 0.621630
Si Si7 0.352374 0.232098 0.865266
Si Si8 0.341444 0.453775 0.485790
O O1 0.285726 0.147341 0.309593
O O2 0.262336 0.335017 0.177952
O O3 0.182738 0.225690 0.276986
O O4 0.250000 0.000000 0.183598
O O5 0.893928 0.783678 0.190958
O O6 0.824304 0.716283 0.063485
O O7 0.851786 0.038341 0.096593
O O8 0.084639 0.294812 0.350255
O O9 0.000000 0.303587 0.250000
O O10 0.981704 0.230271 0.413506
O O11 0.030890 0.017325 0.315557
O O12 0.500000 0.732418 0.750000
O O13 0.473065 0.762739 0.918637
O O14 0.097279 0.580594 0.518652
O O15 0.000000 0.500000 0.500000
O O16 0.304361 0.466389 0.568342
O O17 0.329953 0.374218 0.930823
#
# Coordination Sequence:
#
# PCOD8223035 Si02
#       8
#     8   8   8   8   8   4   8   8
#     4  10  22  40  62  88 118 154 204 253 300 361
#     4   9  20  40  62  85 114 158 201 246 297 359
#     4  10  21  38  61  88 119 161 203 250 305 363
#     4   9  20  38  62  88 118 158 202 247 306 365
#     4  11  22  38  56  90 126 155 199 250 302 367
#     4  12  26  38  58  90 124 154 198 252 310 360
#     4  10  20  40  64  84 115 158 204 247 298 361
#     4  11  23  39  59  87 121 157 200 245 307 362
#
# _framework density 20.152840999999999
#
# number of rings (size 3 to 8) (size 9 to 14) (size 15 to 20)
#    0.000    1.867    1.333    2.000    1.867    2.667 
#    0.000    0.000    0.000    0.000    0.000    0.000 
#    0.000    0.000    0.000    0.000    0.000    0.000 
#
# Total GULP energy -743397.781862 kJ/mol
# GULP energy per Si atom -12389.963031 kJ/mol
# Density = 2.010697 g / cm^3
# Si number density = 20.152841 Si / 1000 Ang^3
#
#
#
# Elastic Constant Matrix: (Units=GPa)
#
#
# Indices 1 2 3 4 5 6 
#
# 1 66.9634 -1.2839 31.3427 0.0000 0.0000 0.0000
# 2 -1.2839 73.5583 18.6509 0.0000 0.0000 0.0000
# 3 31.3427 18.6509 85.2891 0.0000 0.0000 0.0000
# 4 0.0000 0.0000 0.0000 101.3492 0.0000 0.0000
# 5 0.0000 0.0000 0.0000 0.0000 -1.1633 0.0000
# 6 0.0000 0.0000 0.0000 0.0000 0.0000 26.4681
#
#
#
# Elastic Compliance Matrix: (Units=1/GPa)
#
#
# Indices 1 2 3 4 5 6 
#
# 1 0.018351 0.002149 -0.007214 0.000000 0.000000 0.000000
# 2 0.002149 0.014644 -0.003992 0.000000 0.000000 0.000000
# 3 -0.007214 -0.003992 0.015249 0.000000 0.000000 0.000000
# 4 0.000000 0.000000 0.000000 0.009867 0.000000 0.000000
# 5 0.000000 0.000000 0.000000 0.000000 -0.859628 0.000000
# 6 0.000000 0.000000 0.000000 0.000000 0.000000 0.037781
#
#
# Mechanical properties :
#
#
# Convention : Reuss Voigt Hill
#
# Bulk Modulus (GPa) = 33.18842 35.91447 34.55145
# Shear Modulus (GPa) = -6.79738 37.13755 15.17009
#
# Velocity S-wave (km/s) = -1.83854 4.29744 2.74661
# Velocity P-wave (km/s) = 3.46369 6.51795 5.21923
#
# Compressibility (1/GPa) = 0.03013099
#
# Stress axis : x y z
#
# Youngs Moduli (GPa) = 54.49219 68.28533 65.57864
#
# Poissons Ratio (x) = -0.14677 0.47308
# Poissons Ratio (y) = -0.11713 0.26181
# Poissons Ratio (z) = 0.39310 0.27262
#
# Static dielectric constant tensor:
#      x y z
#    x 3.854990 0.000000 0.000000 
#    y 0.000000 4.199750 0.000000 
#    z 0.000000 0.000000 3.398600 
# 
# 
# High freq. dielectric constant tensor:
#      x y z
#    x 1.804180 0.000000 0.000000 
#    y 0.000000 1.800280 0.000000 
#    z 0.000000 0.000000 1.764380 
# 
# From -- ./inp_files/14976.got.cif
#   From: 2010.03.12/outbox.cif.g09.slc.cpg/sg54_8_cif.got.tgz:14976.got - 2010.04.16 15:00:50.
