data_PCOD8223175
_publ_section_title
;
Structure prediction by ZEFSAII (Michael W. Deem and Ramdas Pophale) SiO2 
 PCOD8223175
Probable space group: P C C A
;
_chemical_formula_sum "Si O2"
_cell_formula_units_Z 40
_cell_length_a 9.730291
_cell_length_b 8.627869
_cell_length_c 23.841648
_cell_angle_alpha 90.000000
_cell_angle_beta 90.000000
_cell_angle_gamma 90.000000
_cell_volume 2001.546310
_symmetry_space_group_name_H-M "P C C A"
_symmetry_group_IT_number 54
_symmetry_cell_setting 'orthorhombic'
loop_
_space_group_symop_operation_xyz
x,y,z
1/2-x,-y,z
1/2+x,-y,1/2-z
-x,y,1/2-z
-x,-y,-z
1/2+x,y,-z
1/2-x,y,1/2+z
x,-y,1/2+z
loop_
_atom_site_type_symbol
_atom_site_label
_atom_site_fract_x
_atom_site_fract_y
_atom_site_fract_z
Si Si1 0.714467 0.321827 0.947453
Si Si2 0.660524 0.854218 0.338023
Si Si3 0.551641 0.170263 0.514445
Si Si4 0.142842 0.863814 0.861809
Si Si5 0.656965 0.647805 0.236376
O O1 0.750000 0.500000 0.954598
O O2 0.680884 0.282084 0.883249
O O3 0.580494 0.282742 0.984662
O O4 0.845947 0.222307 0.965853
O O5 0.504921 0.917329 0.338600
O O6 0.702271 0.786475 0.277832
O O7 0.750000 0.000000 0.354694
O O8 0.635977 0.176112 0.572550
O O9 0.500000 0.000000 0.500000
O O10 0.182270 0.708695 0.826958
O O11 0.250000 0.000000 0.850228
O O12 0.750000 0.500000 0.247101
O O13 0.500000 0.600865 0.250000
#
# Coordination Sequence:
#
# PCOD8223175 Si02
#       5
#     8   8   8   8   8
#     4  11  22  37  58  86 118 152 193 245 301 353
#     4  10  21  38  60  83 112 151 194 239 289 353
#     4  11  22  39  60  85 118 158 200 244 295 361
#     4  10  21  37  57  84 114 147 192 241 288 347
#     4  10  22  39  58  84 117 150 190 241 296 354
#
# _framework density 19.984549000000001
#
# number of rings (size 3 to 8) (size 9 to 14) (size 15 to 20)
#    0.000    1.600    0.000    6.000    0.000    2.400 
#    0.000    8.000    0.000    0.000    0.000    0.000 
#    0.000    0.000    0.000    0.000    0.000    0.000 
#
# Total GULP energy -496114.677953 kJ/mol
# GULP energy per Si atom -12402.866949 kJ/mol
# Density = 1.993906 g / cm^3
# Si number density = 19.984549 Si / 1000 Ang^3
#
#
#
# Elastic Constant Matrix: (Units=GPa)
#
#
# Indices 1 2 3 4 5 6 
#
# 1 118.7478 70.1603 32.3598 0.0000 0.0000 0.0000
# 2 70.1603 117.6702 33.1387 0.0000 0.0000 0.0000
# 3 32.3598 33.1387 97.4360 0.0000 0.0000 0.0000
# 4 0.0000 0.0000 0.0000 19.3560 0.0000 0.0000
# 5 0.0000 0.0000 0.0000 0.0000 27.9468 0.0000
# 6 0.0000 0.0000 0.0000 0.0000 0.0000 43.6551
#
#
#
# Elastic Compliance Matrix: (Units=1/GPa)
#
#
# Indices 1 2 3 4 5 6 
#
# 1 0.013313 -0.007402 -0.001904 0.000000 0.000000 0.000000
# 2 -0.007402 0.013514 -0.002138 0.000000 0.000000 0.000000
# 3 -0.001904 -0.002138 0.011623 0.000000 0.000000 0.000000
# 4 0.000000 0.000000 0.000000 0.051664 0.000000 0.000000
# 5 0.000000 0.000000 0.000000 0.000000 0.035782 0.000000
# 6 0.000000 0.000000 0.000000 0.000000 0.000000 0.022907
#
#
# Mechanical properties :
#
#
# Convention : Reuss Voigt Hill
#
# Bulk Modulus (GPa) = 64.25869 67.24126 65.74997
# Shear Modulus (GPa) = 28.26818 31.40457 29.83638
#
# Velocity S-wave (km/s) = 3.76507 3.96844 3.86809
# Velocity P-wave (km/s) = 7.15017 7.39714 7.27471
#
# Compressibility (1/GPa) = 0.01556210
#
# Stress axis : x y z
#
# Youngs Moduli (GPa) = 75.11273 73.99914 86.03892
#
# Poissons Ratio (x) = 0.54772 0.16383
# Poissons Ratio (y) = 0.55597 0.18394
# Poissons Ratio (z) = 0.14303 0.15820
#
# Static dielectric constant tensor:
#      x y z
#    x 3.792180 0.000000 0.000000 
#    y 0.000000 3.416930 0.000000 
#    z 0.000000 0.000000 3.738160 
# 
# 
# High freq. dielectric constant tensor:
#      x y z
#    x 1.790380 0.000000 0.000000 
#    y 0.000000 1.770690 0.000000 
#    z 0.000000 0.000000 1.788830 
# 
# From -- ./inp_files/23194.got.cif
#   From: 2010.03.12/outbox.cif.g09.slc.cpg/sg54_12_cif.got.tgz:23194.got - 2010.04.16 15:00:50.
