data_PCOD8223169
_publ_section_title
;
Structure prediction by ZEFSAII (Michael W. Deem and Ramdas Pophale) SiO2 
 PCOD8223169
Probable space group: P C C A
;
_chemical_formula_sum "Si O2"
_cell_formula_units_Z 48
_cell_length_a 17.465052
_cell_length_b 22.617771
_cell_length_c 5.270193
_cell_angle_alpha 90.000000
_cell_angle_beta 90.000000
_cell_angle_gamma 90.000000
_cell_volume 2081.834520
_symmetry_space_group_name_H-M "P C C A"
_symmetry_group_IT_number 54
_symmetry_cell_setting 'orthorhombic'
loop_
_space_group_symop_operation_xyz
x,y,z
1/2-x,-y,z
1/2+x,-y,1/2-z
-x,y,1/2-z
-x,-y,-z
1/2+x,y,-z
1/2-x,y,1/2+z
x,-y,1/2+z
loop_
_atom_site_type_symbol
_atom_site_label
_atom_site_fract_x
_atom_site_fract_y
_atom_site_fract_z
Si Si1 0.546726 0.237124 0.000702
Si Si2 0.282601 0.934358 0.030787
Si Si3 0.046169 0.097818 0.000341
Si Si4 0.216376 0.389646 0.401371
Si Si5 0.412017 0.464921 0.746823
Si Si6 0.220170 0.741051 0.452998
O O1 0.500000 0.256587 0.250000
O O2 0.562469 0.167441 0.999010
O O3 0.629525 0.268624 0.009826
O O4 0.500000 0.256651 0.750000
O O5 0.242938 0.901328 0.791096
O O6 0.373660 0.936194 0.999914
O O7 0.250000 0.000000 0.066014
O O8 0.000000 0.078450 0.750000
O O9 0.000000 0.078281 0.250000
O O10 0.231705 0.418844 0.676282
O O11 0.130162 0.403181 0.310678
O O12 0.233285 0.320143 0.413716
O O13 0.500000 0.447928 0.750000
O O14 0.389911 0.488432 0.467864
O O15 0.258801 0.775688 0.691569
#
# Coordination Sequence:
#
# PCOD8223169 Si02
#       6
#     8   8   8   8   8   8
#     4  10  21  38  61  88 118 152 193 242 295 351
#     4  10  21  38  56  83 119 155 197 241 293 349
#     4  10  21  38  60  86 116 153 196 243 294 349
#     4  10  21  37  55  82 115 147 186 227 278 338
#     4  10  21  37  58  83 111 146 187 232 280 330
#     4  10  21  38  58  86 119 152 193 237 291 354
#
# _framework density 23.056585999999999
#
# number of rings (size 3 to 8) (size 9 to 14) (size 15 to 20)
#    0.000    2.000    0.000    3.000    0.000    3.333 
#    0.000   20.000    0.000    0.000    0.000    0.000 
#    0.000    0.000    0.000    0.000    0.000    0.000 
#
# Total GULP energy -594826.280350 kJ/mol
# GULP energy per Si atom -12392.214174 kJ/mol
# Density = 2.300411 g / cm^3
# Si number density = 23.056586 Si / 1000 Ang^3
#
#
#
# Elastic Constant Matrix: (Units=GPa)
#
#
# Indices 1 2 3 4 5 6 
#
# 1 114.9486 23.3906 50.8242 0.0000 0.0000 0.0000
# 2 23.3906 40.9439 1.2555 0.0000 0.0000 0.0000
# 3 50.8242 1.2555 233.6811 0.0000 0.0000 0.0000
# 4 0.0000 0.0000 0.0000 -5.7065 0.0000 0.0000
# 5 0.0000 0.0000 0.0000 0.0000 47.1856 0.0000
# 6 0.0000 0.0000 0.0000 0.0000 0.0000 14.8705
#
#
#
# Elastic Compliance Matrix: (Units=1/GPa)
#
#
# Indices 1 2 3 4 5 6 
#
# 1 0.011008 -0.006217 -0.002361 0.000000 0.000000 0.000000
# 2 -0.006217 0.027938 0.001202 0.000000 0.000000 0.000000
# 3 -0.002361 0.001202 0.004786 0.000000 0.000000 0.000000
# 4 0.000000 0.000000 0.000000 -0.175239 0.000000 0.000000
# 5 0.000000 0.000000 0.000000 0.000000 0.021193 0.000000
# 6 0.000000 0.000000 0.000000 0.000000 0.000000 0.067247
#
#
# Mechanical properties :
#
#
# Convention : Reuss Voigt Hill
#
# Bulk Modulus (GPa) = 34.50410 60.05715 47.28063
# Shear Modulus (GPa) = -268.03464 32.21013 -117.91226
#
# Velocity S-wave (km/s) = -10.79366 3.74171 -7.15901
# Velocity P-wave (km/s) = 11.84652 6.69114 6.91262
#
# Compressibility (1/GPa) = 0.02898206
#
# Stress axis : x y z
#
# Youngs Moduli (GPa) = 90.84001 35.79332 208.92745
#
# Poissons Ratio (x) = 0.22251 0.49325
# Poissons Ratio (y) = 0.56471 -0.25112
# Poissons Ratio (z) = 0.21446 -0.04302
#
# Static dielectric constant tensor:
#      x y z
#    x 4.056320 0.000000 0.000000 
#    y 0.000000 3.563560 0.000000 
#    z 0.000000 0.000000 6.494870 
# 
# 
# High freq. dielectric constant tensor:
#      x y z
#    x 1.913520 0.000000 0.000000 
#    y 0.000000 1.865320 0.000000 
#    z 0.000000 0.000000 1.954680 
# 
# From -- ./inp_files/606.got.cif
#   From: 2010.03.12/outbox.cif.g09.slc.cpg/sg54_1_cif.got.tgz:606.got - 2010.04.16 15:00:50.
