data_PCOD8223877
_publ_section_title
;
Structure prediction by ZEFSAII (Michael W. Deem and Ramdas Pophale) SiO2 
 PCOD8223877
Probable space group: P C C A
;
_chemical_formula_sum "Si O2"
_cell_formula_units_Z 32
_cell_length_a 7.313713
_cell_length_b 16.210696
_cell_length_c 9.500827
_cell_angle_alpha 90.000000
_cell_angle_beta 90.000000
_cell_angle_gamma 90.000000
_cell_volume 1126.421641
_symmetry_space_group_name_H-M "P C C A"
_symmetry_group_IT_number 54
_symmetry_cell_setting 'orthorhombic'
loop_
_space_group_symop_operation_xyz
x,y,z
1/2-x,-y,z
1/2+x,-y,1/2-z
-x,y,1/2-z
-x,-y,-z
1/2+x,y,-z
1/2-x,y,1/2+z
x,-y,1/2+z
loop_
_atom_site_type_symbol
_atom_site_label
_atom_site_fract_x
_atom_site_fract_y
_atom_site_fract_z
Si Si1 0.171188 0.909458 0.649061
Si Si2 0.003635 0.811529 0.068004
Si Si3 0.819983 0.408337 0.846437
Si Si4 0.802804 0.304111 0.119213
O O1 0.338536 0.843231 0.679432
O O2 0.000000 0.898922 0.750000
O O3 0.115081 0.890370 0.485703
O O4 0.250000 0.000000 0.657631
O O5 0.082879 0.777869 0.917008
O O6 0.905561 0.730943 0.128964
O O7 0.750000 0.500000 0.863529
O O8 0.668371 0.347947 0.770995
O O9 0.000000 0.410541 0.750000
O O10 0.841716 0.374304 0.003084
#
# Coordination Sequence:
#
# PCOD8223877 Si02
#       4
#     8   8   8   8
#     4  11  26  48  77 111 150 200 253 318 393 471
#     4  10  25  47  75 106 153 198 253 322 385 458
#     4  12  28  47  73 113 158 206 265 328 397 464
#     4  11  25  47  78 109 154 207 266 322 388 469
#
# _framework density 28.408545
#
# number of rings (size 3 to 8) (size 9 to 14) (size 15 to 20)
#    0.000    1.000    2.500    1.500   10.500    7.000 
#    0.000    0.000    0.000    0.000    0.000    0.000 
#    0.000    0.000    0.000    0.000    0.000    0.000 
#
# Total GULP energy -396455.189086 kJ/mol
# GULP energy per Si atom -12389.224659 kJ/mol
# Density = 2.834389 g / cm^3
# Si number density = 28.408545 Si / 1000 Ang^3
#
#
#
# Elastic Constant Matrix: (Units=GPa)
#
#
# Indices 1 2 3 4 5 6 
#
# 1 81.6809 35.4653 -15.2885 0.0000 0.0000 0.0000
# 2 35.4653 168.8013 30.9792 0.0000 0.0000 0.0000
# 3 -15.2885 30.9792 81.9412 0.0000 0.0000 0.0000
# 4 0.0000 0.0000 0.0000 39.1576 0.0000 0.0000
# 5 0.0000 0.0000 0.0000 0.0000 33.4985 0.0000
# 6 0.0000 0.0000 0.0000 0.0000 0.0000 39.2231
#
#
#
# Elastic Compliance Matrix: (Units=1/GPa)
#
#
# Indices 1 2 3 4 5 6 
#
# 1 0.014706 -0.003861 0.004204 0.000000 0.000000 0.000000
# 2 -0.003861 0.007380 -0.003510 0.000000 0.000000 0.000000
# 3 0.004204 -0.003510 0.014315 0.000000 0.000000 0.000000
# 4 0.000000 0.000000 0.000000 0.025538 0.000000 0.000000
# 5 0.000000 0.000000 0.000000 0.000000 0.029852 0.000000
# 6 0.000000 0.000000 0.000000 0.000000 0.000000 0.025495
#
#
# Mechanical properties :
#
#
# Convention : Reuss Voigt Hill
#
# Bulk Modulus (GPa) = 33.26114 48.30392 40.78253
# Shear Modulus (GPa) = 37.41285 41.12699 39.26992
#
# Velocity S-wave (km/s) = 3.63293 3.80899 3.72200
# Velocity P-wave (km/s) = 5.41582 6.03198 5.73218
#
# Compressibility (1/GPa) = 0.03006511
#
# Stress axis : x y z
#
# Youngs Moduli (GPa) = 67.99893 135.50826 69.85502
#
# Poissons Ratio (x) = 0.52323 -0.29365
# Poissons Ratio (y) = 0.26256 0.24522
# Poissons Ratio (z) = -0.28584 0.47569
#
# Static dielectric constant tensor:
#      x y z
#    x 5.889990 0.000000 0.000000 
#    y 0.000000 5.206530 0.000000 
#    z 0.000000 0.000000 5.025350 
# 
# 
# High freq. dielectric constant tensor:
#      x y z
#    x 2.166730 0.000000 0.000000 
#    y 0.000000 2.168170 0.000000 
#    z 0.000000 0.000000 2.149390 
# 
# From -- ./inp_files/6706.got.cif
#   From: 2010.03.12/outbox.cif.g09.slc.cpg/sg54_4_cif.got.tgz:6706.got - 2010.04.16 15:00:50.
