data_PCOD8223818
_publ_section_title
;
Structure prediction by ZEFSAII (Michael W. Deem and Ramdas Pophale) SiO2 
 PCOD8223818
Probable space group: P C C A
;
_chemical_formula_sum "Si O2"
_cell_formula_units_Z 36
_cell_length_a 28.709732
_cell_length_b 5.098123
_cell_length_c 10.569490
_cell_angle_alpha 90.000000
_cell_angle_beta 90.000000
_cell_angle_gamma 90.000000
_cell_volume 1547.011278
_symmetry_space_group_name_H-M "P C C A"
_symmetry_group_IT_number 54
_symmetry_cell_setting 'orthorhombic'
loop_
_space_group_symop_operation_xyz
x,y,z
1/2-x,-y,z
1/2+x,-y,1/2-z
-x,y,1/2-z
-x,-y,-z
1/2+x,y,-z
1/2-x,y,1/2+z
x,-y,1/2+z
loop_
_atom_site_type_symbol
_atom_site_label
_atom_site_fract_x
_atom_site_fract_y
_atom_site_fract_z
Si Si1 0.091879 0.472915 0.627537
Si Si2 0.832952 0.210729 0.264867
Si Si3 0.029880 0.032799 0.125960
Si Si4 0.831427 0.186033 0.989105
Si Si5 0.750000 0.500000 0.877244
O O1 0.126863 0.564335 0.740950
O O2 0.060748 0.718284 0.588984
O O3 0.127106 0.401113 0.512795
O O4 0.059791 0.224139 0.662581
O O5 0.782141 0.330757 0.285300
O O6 0.844767 0.019162 0.380452
O O7 0.831630 0.060769 0.129771
O O8 0.000000 0.103321 0.250000
O O9 0.000000 0.000000 0.000000
O O10 0.780919 0.313248 0.966190
#
# Coordination Sequence:
#
# PCOD8223818 Si02
#       5
#     8   8   8   8   4
#     4  11  26  47  72 110 146 193 244 300 371 433
#     4  11  25  45  75 106 153 196 247 308 364 450
#     4  12  28  48  76 107 148 192 248 308 370 442
#     4  11  25  45  75 106 153 194 250 303 369 443
#     4  10  24  44  68 112 146 202 246 304 364 438
#
# _framework density 23.270675000000001
#
# number of rings (size 3 to 8) (size 9 to 14) (size 15 to 20)
#    0.000    0.889    2.222    2.667    6.222   10.667 
#    0.000    0.000    0.000    0.000    0.000    0.000 
#    0.000    0.000    0.000    0.000    0.000    0.000 
#
# Total GULP energy -446147.805497 kJ/mol
# GULP energy per Si atom -12392.994597 kJ/mol
# Density = 2.321771 g / cm^3
# Si number density = 23.270675 Si / 1000 Ang^3
#
#
#
# Elastic Constant Matrix: (Units=GPa)
#
#
# Indices 1 2 3 4 5 6 
#
# 1 159.7553 64.5602 58.9675 0.0000 0.0000 0.0000
# 2 64.5602 140.4329 56.6040 0.0000 0.0000 0.0000
# 3 58.9675 56.6040 210.7151 0.0000 0.0000 0.0000
# 4 0.0000 0.0000 0.0000 30.3804 0.0000 0.0000
# 5 0.0000 0.0000 0.0000 0.0000 0.1862 0.0000
# 6 0.0000 0.0000 0.0000 0.0000 0.0000 50.0581
#
#
#
# Elastic Compliance Matrix: (Units=1/GPa)
#
#
# Indices 1 2 3 4 5 6 
#
# 1 0.008045 -0.003130 -0.001411 0.000000 0.000000 0.000000
# 2 -0.003130 0.009203 -0.001596 0.000000 0.000000 0.000000
# 3 -0.001411 -0.001596 0.005569 0.000000 0.000000 0.000000
# 4 0.000000 0.000000 0.000000 0.032916 0.000000 0.000000
# 5 0.000000 0.000000 0.000000 0.000000 5.369437 0.000000
# 6 0.000000 0.000000 0.000000 0.000000 0.000000 0.019977
#
#
# Mechanical properties :
#
#
# Convention : Reuss Voigt Hill
#
# Bulk Modulus (GPa) = 94.84202 96.79630 95.81916
# Shear Modulus (GPa) = 0.91559 38.17640 19.54600
#
# Velocity S-wave (km/s) = 0.62794 4.05475 2.90132
# Velocity P-wave (km/s) = 6.43197 7.97543 7.24492
#
# Compressibility (1/GPa) = 0.01054385
#
# Stress axis : x y z
#
# Youngs Moduli (GPa) = 124.29908 108.65811 179.55553
#
# Poissons Ratio (x) = 0.34010 0.25328
# Poissons Ratio (y) = 0.38905 0.28663
# Poissons Ratio (z) = 0.17533 0.17345
#
# Static dielectric constant tensor:
#      x y z
#    x 4.604930 0.000000 0.000000 
#    y 0.000000 4.394260 0.000000 
#    z 0.000000 0.000000 4.009150 
# 
# 
# High freq. dielectric constant tensor:
#      x y z
#    x 1.949160 0.000000 0.000000 
#    y 0.000000 1.921610 0.000000 
#    z 0.000000 0.000000 1.903290 
# 
# From -- ./inp_files/10415.got.cif
#   From: 2010.03.12/outbox.cif.g09.slc.cpg/sg54_6_cif.got.tgz:10415.got - 2010.04.16 15:00:50.
