data_PCOD8223093
_publ_section_title
;
Structure prediction by ZEFSAII (Michael W. Deem and Ramdas Pophale) SiO2 
 PCOD8223093
Probable space group: P C C A
;
_chemical_formula_sum "Si O2"
_cell_formula_units_Z 40
_cell_length_a 15.203393
_cell_length_b 12.644229
_cell_length_c 9.645004
_cell_angle_alpha 90.000000
_cell_angle_beta 90.000000
_cell_angle_gamma 90.000000
_cell_volume 1854.109106
_symmetry_space_group_name_H-M "P C C A"
_symmetry_group_IT_number 54
_symmetry_cell_setting 'orthorhombic'
loop_
_space_group_symop_operation_xyz
x,y,z
1/2-x,-y,z
1/2+x,-y,1/2-z
-x,y,1/2-z
-x,-y,-z
1/2+x,y,-z
1/2-x,y,1/2+z
x,-y,1/2+z
loop_
_atom_site_type_symbol
_atom_site_label
_atom_site_fract_x
_atom_site_fract_y
_atom_site_fract_z
Si Si1 0.921707 0.570016 0.947033
Si Si2 0.296700 0.888887 0.139509
Si Si3 0.333149 0.448529 0.831008
Si Si4 0.977290 0.797692 0.907835
Si Si5 0.328724 0.208676 0.929940
O O1 0.909675 0.551074 0.783316
O O2 0.939539 0.692705 0.979690
O O3 0.841925 0.530892 0.041752
O O4 0.000000 0.500000 0.000000
O O5 0.398869 0.885882 0.083856
O O6 0.295112 0.862676 0.302023
O O7 0.250000 0.000000 0.111141
O O8 0.237654 0.803413 0.058192
O O9 0.250000 0.500000 0.752401
O O10 0.326063 0.330101 0.886828
O O11 0.000000 0.770922 0.750000
O O12 0.071717 0.828637 0.976290
#
# Coordination Sequence:
#
# PCOD8223093 Si02
#       5
#     8   8   8   8   8
#     4  12  21  40  63  94 132 181 218 255 332 411
#     4  11  24  44  71  98 127 172 236 287 344 412
#     4  12  25  37  64  98 135 176 219 271 326 405
#     4  10  20  43  66  91 136 184 212 273 349 399
#     4  11  24  45  69  95 138 179 220 289 349 401
#
# _framework density 21.573702999999998
#
# number of rings (size 3 to 8) (size 9 to 14) (size 15 to 20)
#    0.000    0.800    6.000    3.000    2.800    0.800 
#    0.000    3.000    0.000    0.000    0.000    0.000 
#    0.000    0.000    0.000    0.000    0.000    0.000 
#
# Total GULP energy -495643.889689 kJ/mol
# GULP energy per Si atom -12391.097242 kJ/mol
# Density = 2.152460 g / cm^3
# Si number density = 21.573703 Si / 1000 Ang^3
#
#
#
# Elastic Constant Matrix: (Units=GPa)
#
#
# Indices 1 2 3 4 5 6 
#
# 1 157.3331 57.0337 32.4672 0.0000 0.0000 0.0000
# 2 57.0337 108.4263 41.2328 0.0000 0.0000 0.0000
# 3 32.4672 41.2328 66.9031 0.0000 0.0000 0.0000
# 4 0.0000 0.0000 0.0000 30.4125 0.0000 0.0000
# 5 0.0000 0.0000 0.0000 0.0000 34.0204 0.0000
# 6 0.0000 0.0000 0.0000 0.0000 0.0000 41.2288
#
#
#
# Elastic Compliance Matrix: (Units=1/GPa)
#
#
# Indices 1 2 3 4 5 6 
#
# 1 0.007996 -0.003566 -0.001682 0.000000 0.000000 0.000000
# 2 -0.003566 0.013637 -0.006674 0.000000 0.000000 0.000000
# 3 -0.001682 -0.006674 0.019877 0.000000 0.000000 0.000000
# 4 0.000000 0.000000 0.000000 0.032881 0.000000 0.000000
# 5 0.000000 0.000000 0.000000 0.000000 0.029394 0.000000
# 6 0.000000 0.000000 0.000000 0.000000 0.000000 0.024255
#
#
# Mechanical properties :
#
#
# Convention : Reuss Voigt Hill
#
# Bulk Modulus (GPa) = 56.61114 66.01443 61.31278
# Shear Modulus (GPa) = 31.69131 34.59427 33.14279
#
# Velocity S-wave (km/s) = 3.83688 4.00877 3.92377
# Velocity P-wave (km/s) = 6.77692 7.21754 7.00070
#
# Compressibility (1/GPa) = 0.01766437
#
# Stress axis : x y z
#
# Youngs Moduli (GPa) = 125.06465 73.33207 50.31057
#
# Poissons Ratio (x) = 0.26151 0.08465
# Poissons Ratio (y) = 0.44600 0.33576
# Poissons Ratio (z) = 0.21042 0.48940
#
# Static dielectric constant tensor:
#      x y z
#    x 4.630500 0.000000 0.000000 
#    y 0.000000 3.578490 0.000000 
#    z 0.000000 0.000000 3.240540 
# 
# 
# High freq. dielectric constant tensor:
#      x y z
#    x 1.874970 0.000000 0.000000 
#    y 0.000000 1.834250 0.000000 
#    z 0.000000 0.000000 1.830200 
# 
# From -- ./inp_files/3973.got.cif
#   From: 2010.03.12/outbox.cif.g09.slc.cpg/sg54_2_cif.got.tgz:3973.got - 2010.04.16 15:00:50.
