data_PCOD8223469
_publ_section_title
;
Structure prediction by ZEFSAII (Michael W. Deem and Ramdas Pophale) SiO2 
 PCOD8223469
Probable space group: P C C A
;
_chemical_formula_sum "Si O2"
_cell_formula_units_Z 48
_cell_length_a 9.247369
_cell_length_b 8.391268
_cell_length_c 29.844164
_cell_angle_alpha 90.000000
_cell_angle_beta 90.000000
_cell_angle_gamma 90.000000
_cell_volume 2315.822118
_symmetry_space_group_name_H-M "P C C A"
_symmetry_group_IT_number 54
_symmetry_cell_setting 'orthorhombic'
loop_
_space_group_symop_operation_xyz
x,y,z
1/2-x,-y,z
1/2+x,-y,1/2-z
-x,y,1/2-z
-x,-y,-z
1/2+x,y,-z
1/2-x,y,1/2+z
x,-y,1/2+z
loop_
_atom_site_type_symbol
_atom_site_label
_atom_site_fract_x
_atom_site_fract_y
_atom_site_fract_z
Si Si1 0.098851 0.290251 0.708876
Si Si2 0.920508 0.666162 0.793043
Si Si3 0.937812 0.852061 0.127507
Si Si4 0.673786 0.670970 0.033351
Si Si5 0.881521 0.220323 0.128348
Si Si6 0.964930 0.836373 0.025946
O O1 0.267659 0.241338 0.709477
O O2 0.095831 0.478697 0.710479
O O3 0.000000 0.222185 0.750000
O O4 0.049701 0.218085 0.662221
O O5 0.000000 0.737542 0.750000
O O6 0.016040 0.688905 0.837325
O O7 0.790236 0.751432 0.135246
O O8 0.006689 0.836887 0.078189
O O9 0.913130 0.036548 0.135293
O O10 0.750000 0.500000 0.034573
O O11 0.586483 0.711284 0.078908
O O12 0.793429 0.806210 0.023316
O O13 0.553731 0.687361 0.994639
O O14 0.000000 0.000000 0.000000
#
# Coordination Sequence:
#
# PCOD8223469 Si02
#       6
#     8   8   8   8   8   8
#     4  10  22  41  64  94 128 164 209 261 315 377
#     4  10  22  40  63  94 126 165 209 258 320 377
#     4  10  22  40  62  91 122 169 212 256 315 380
#     4  11  24  41  64  95 126 170 218 273 323 383
#     4  10  22  39  63  90 124 164 214 257 317 381
#     4  11  22  43  64  90 130 171 216 262 326 386
#
# _framework density 20.726979
#
# number of rings (size 3 to 8) (size 9 to 14) (size 15 to 20)
#    0.000    1.667    1.667    2.000    4.667    4.000 
#    6.000    0.000    0.000    0.000    0.000    0.000 
#    0.000    0.000    0.000    0.000    0.000    0.000 
#
# Total GULP energy -595002.476514 kJ/mol
# GULP energy per Si atom -12395.884927 kJ/mol
# Density = 2.067980 g / cm^3
# Si number density = 20.726979 Si / 1000 Ang^3
#
#
#
# Elastic Constant Matrix: (Units=GPa)
#
#
# Indices 1 2 3 4 5 6 
#
# 1 128.8145 20.8133 93.8325 0.0000 0.0000 0.0000
# 2 20.8133 21.6710 8.1378 0.0000 0.0000 0.0000
# 3 93.8325 8.1378 155.2246 0.0000 0.0000 0.0000
# 4 0.0000 0.0000 0.0000 35.6850 0.0000 0.0000
# 5 0.0000 0.0000 0.0000 0.0000 45.6161 0.0000
# 6 0.0000 0.0000 0.0000 0.0000 0.0000 28.3006
#
#
#
# Elastic Compliance Matrix: (Units=1/GPa)
#
#
# Indices 1 2 3 4 5 6 
#
# 1 0.016611 -0.012427 -0.009390 0.000000 0.000000 0.000000
# 2 -0.012427 0.056369 0.004557 0.000000 0.000000 0.000000
# 3 -0.009390 0.004557 0.011879 0.000000 0.000000 0.000000
# 4 0.000000 0.000000 0.000000 0.028023 0.000000 0.000000
# 5 0.000000 0.000000 0.000000 0.000000 0.021922 0.000000
# 6 0.000000 0.000000 0.000000 0.000000 0.000000 0.035335
#
#
# Mechanical properties :
#
#
# Convention : Reuss Voigt Hill
#
# Bulk Modulus (GPa) = 19.86521 61.25305 40.55913
# Shear Modulus (GPa) = 22.57963 34.11545 28.34754
#
# Velocity S-wave (km/s) = 3.30416 4.06143 3.70221
# Velocity P-wave (km/s) = 4.91545 7.18401 6.15515
#
# Compressibility (1/GPa) = 0.05033926
#
# Stress axis : x y z
#
# Youngs Moduli (GPa) = 60.20201 17.74025 84.17986
#
# Poissons Ratio (x) = 0.22047 0.79041
# Poissons Ratio (y) = 0.74816 -0.38362
# Poissons Ratio (z) = 0.56527 -0.08084
#
# Static dielectric constant tensor:
#      x y z
#    x 4.282110 0.000000 0.000000 
#    y 0.000000 3.559490 0.000000 
#    z 0.000000 0.000000 3.942770 
# 
# 
# High freq. dielectric constant tensor:
#      x y z
#    x 1.816950 0.000000 0.000000 
#    y 0.000000 1.803890 0.000000 
#    z 0.000000 0.000000 1.819480 
# 
# From -- ./inp_files/27763.got.cif
#   From: 2010.03.12/outbox.cif.g09.slc.cpg/sg54_14_cif.got.tgz:27763.got - 2010.04.16 15:00:50.
