data_PCOD8223280
_publ_section_title
;
Structure prediction by ZEFSAII (Michael W. Deem and Ramdas Pophale) SiO2 
 PCOD8223280
Probable space group: P C C A
;
_chemical_formula_sum "Si O2"
_cell_formula_units_Z 60
_cell_length_a 19.514542
_cell_length_b 16.083418
_cell_length_c 8.864390
_cell_angle_alpha 90.000000
_cell_angle_beta 90.000000
_cell_angle_gamma 90.000000
_cell_volume 2782.182197
_symmetry_space_group_name_H-M "P C C A"
_symmetry_group_IT_number 54
_symmetry_cell_setting 'orthorhombic'
loop_
_space_group_symop_operation_xyz
x,y,z
1/2-x,-y,z
1/2+x,-y,1/2-z
-x,y,1/2-z
-x,-y,-z
1/2+x,y,-z
1/2-x,y,1/2+z
x,-y,1/2+z
loop_
_atom_site_type_symbol
_atom_site_label
_atom_site_fract_x
_atom_site_fract_y
_atom_site_fract_z
Si Si1 0.824213 0.959154 0.071782
Si Si2 0.000000 0.816837 0.250000
Si Si3 0.091728 0.386291 0.456489
Si Si4 0.055835 0.310854 0.979105
Si Si5 0.920527 0.452776 0.725457
Si Si6 0.195377 0.240859 0.435205
Si Si7 0.825778 0.212453 0.399859
Si Si8 0.376651 0.097759 0.111824
O O1 0.836396 0.937937 0.244849
O O2 0.750000 0.000000 0.048193
O O3 0.835128 0.878447 0.969274
O O4 0.879719 0.027020 0.016433
O O5 0.952508 0.758529 0.149135
O O6 0.954056 0.876629 0.352358
O O7 0.112785 0.430288 0.614080
O O8 0.095797 0.453510 0.322571
O O9 0.151287 0.323140 0.420321
O O10 0.017131 0.341606 0.454280
O O11 0.098523 0.387787 0.907113
O O12 0.103618 0.266658 0.104474
O O13 0.000000 0.440462 0.750000
O O14 0.200577 0.199529 0.270390
O O15 0.270882 0.262463 0.497508
O O16 0.162699 0.178419 0.554233
#
# Coordination Sequence:
#
# PCOD8223280 Si02
#       8
#     8   4   8   8   8   8   8   8
#     4  12  25  43  74 101 136 183 237 290 342 423
#     4  12  22  44  70 102 146 190 220 292 350 418
#     4  11  24  43  75 104 141 182 240 288 352 417
#     4  11  21  43  72 103 139 188 227 290 349 415
#     4  10  21  39  71 105 138 178 233 288 338 417
#     4  12  27  46  72 102 140 187 237 292 353 420
#     4  12  28  45  72 105 141 185 238 293 349 422
#     4  12  25  45  68 103 139 185 234 288 356 411
#
# _framework density 21.565805999999998
#
# number of rings (size 3 to 8) (size 9 to 14) (size 15 to 20)
#    0.000    0.533    6.000    3.600    5.600    0.533 
#    0.000    0.667    0.000    0.000    0.000    0.000 
#    0.000    0.000    0.000    0.000    0.000    0.000 
#
# Total GULP energy -744092.533874 kJ/mol
# GULP energy per Si atom -12401.542231 kJ/mol
# Density = 2.151672 g / cm^3
# Si number density = 21.565806 Si / 1000 Ang^3
#
#
#
# Elastic Constant Matrix: (Units=GPa)
#
#
# Indices 1 2 3 4 5 6 
#
# 1 73.3870 48.3460 4.1424 0.0000 0.0000 0.0000
# 2 48.3460 113.4190 29.8141 0.0000 0.0000 0.0000
# 3 4.1424 29.8141 65.0221 0.0000 0.0000 0.0000
# 4 0.0000 0.0000 0.0000 37.2792 0.0000 0.0000
# 5 0.0000 0.0000 0.0000 0.0000 24.9321 0.0000
# 6 0.0000 0.0000 0.0000 0.0000 0.0000 27.1824
#
#
#
# Elastic Compliance Matrix: (Units=1/GPa)
#
#
# Indices 1 2 3 4 5 6 
#
# 1 0.019419 -0.009042 0.002909 0.000000 0.000000 0.000000
# 2 -0.009042 0.014236 -0.005951 0.000000 0.000000 0.000000
# 3 0.002909 -0.005951 0.017923 0.000000 0.000000 0.000000
# 4 0.000000 0.000000 0.000000 0.026825 0.000000 0.000000
# 5 0.000000 0.000000 0.000000 0.000000 0.040109 0.000000
# 6 0.000000 0.000000 0.000000 0.000000 0.000000 0.036789
#
#
# Mechanical properties :
#
#
# Convention : Reuss Voigt Hill
#
# Bulk Modulus (GPa) = 36.48524 46.27033 41.37779
# Shear Modulus (GPa) = 26.51044 29.18043 27.84543
#
# Velocity S-wave (km/s) = 3.50991 3.68242 3.59720
# Velocity P-wave (km/s) = 5.77761 6.29145 6.04000
#
# Compressibility (1/GPa) = 0.02740834
#
# Stress axis : x y z
#
# Youngs Moduli (GPa) = 51.49583 70.24645 55.79463
#
# Poissons Ratio (x) = 0.63518 -0.16230
# Poissons Ratio (y) = 0.46564 0.33205
# Poissons Ratio (z) = -0.14980 0.41806
#
# Static dielectric constant tensor:
#      x y z
#    x 3.911890 0.000000 0.000000 
#    y 0.000000 4.120150 0.000000 
#    z 0.000000 0.000000 4.350060 
# 
# 
# High freq. dielectric constant tensor:
#      x y z
#    x 1.821390 0.000000 0.000000 
#    y 0.000000 1.860470 0.000000 
#    z 0.000000 0.000000 1.858680 
# 
# From -- ./inp_files/4346.got.cif
#   From: 2010.03.12/outbox.cif.g09.slc.cpg/sg54_3_cif.got.tgz:4346.got - 2010.04.16 15:00:50.
