data_PCOD8223250
_publ_section_title
;
Structure prediction by ZEFSAII (Michael W. Deem and Ramdas Pophale) SiO2 
 PCOD8223250
Probable space group: P C C A
;
_chemical_formula_sum "Si O2"
_cell_formula_units_Z 60
_cell_length_a 25.097100
_cell_length_b 7.387922
_cell_length_c 16.080311
_cell_angle_alpha 90.000000
_cell_angle_beta 90.000000
_cell_angle_gamma 90.000000
_cell_volume 2981.537573
_symmetry_space_group_name_H-M "P C C A"
_symmetry_group_IT_number 54
_symmetry_cell_setting 'orthorhombic'
loop_
_space_group_symop_operation_xyz
x,y,z
1/2-x,-y,z
1/2+x,-y,1/2-z
-x,y,1/2-z
-x,-y,-z
1/2+x,y,-z
1/2-x,y,1/2+z
x,-y,1/2+z
loop_
_atom_site_type_symbol
_atom_site_label
_atom_site_fract_x
_atom_site_fract_y
_atom_site_fract_z
Si Si1 0.442078 0.017121 0.959394
Si Si2 0.250000 0.500000 0.112698
Si Si3 0.565080 0.371925 0.826498
Si Si4 0.713016 0.831577 0.486350
Si Si5 0.875226 0.979367 0.883477
Si Si6 0.450314 0.620900 0.368688
Si Si7 0.621234 0.697912 0.609454
Si Si8 0.351806 0.348118 0.200182
O O1 0.424912 0.847797 0.901981
O O2 0.436178 0.180177 0.896573
O O3 0.400566 0.054348 0.032356
O O4 0.500000 0.000000 0.000000
O O5 0.246665 0.334223 0.048260
O O6 0.296387 0.440582 0.175481
O O7 0.586226 0.169904 0.843326
O O8 0.555617 0.391486 0.729456
O O9 0.513464 0.413115 0.883947
O O10 0.606453 0.528026 0.850210
O O11 0.681487 0.894187 0.404878
O O12 0.672677 0.753504 0.555861
O O13 0.750000 0.000000 0.519741
O O14 0.862312 0.141108 0.822043
O O15 0.411025 0.483634 0.417814
O O16 0.642393 0.656303 0.700973
#
# Coordination Sequence:
#
# PCOD8223250 Si02
#       8
#     8   4   8   8   8   8   8   8
#     4  11  23  38  61  95 130 173 211 252 318 392
#     4  12  24  42  72  92 120 166 226 268 330 384
#     4  10  21  39  62  93 133 166 211 262 316 384
#     4  11  24  45  64  93 126 165 210 275 330 383
#     4  11  22  39  63  91 127 165 209 262 316 385
#     4  10  22  39  62  93 131 174 207 258 320 384
#     4  10  26  44  63  95 134 165 217 269 328 393
#     4  11  24  43  66  95 123 172 218 271 323 391
#
# _framework density 20.123846
#
# number of rings (size 3 to 8) (size 9 to 14) (size 15 to 20)
#    0.000    1.333    4.000    0.800    3.733    1.067 
#    2.400    1.333    0.000    0.000    0.000    0.000 
#    0.000    0.000    0.000    0.000    0.000    0.000 
#
# Total GULP energy -743438.356996 kJ/mol
# GULP energy per Si atom -12390.639283 kJ/mol
# Density = 2.007804 g / cm^3
# Si number density = 20.123846 Si / 1000 Ang^3
#
#
#
# Elastic Constant Matrix: (Units=GPa)
#
#
# Indices 1 2 3 4 5 6 
#
# 1 114.3746 53.8093 32.5617 0.0000 0.0000 0.0000
# 2 53.8093 124.3060 39.4214 0.0000 0.0000 0.0000
# 3 32.5617 39.4214 47.5852 0.0000 0.0000 0.0000
# 4 0.0000 0.0000 0.0000 31.1708 0.0000 0.0000
# 5 0.0000 0.0000 0.0000 0.0000 30.0873 0.0000
# 6 0.0000 0.0000 0.0000 0.0000 0.0000 45.6769
#
#
#
# Elastic Compliance Matrix: (Units=1/GPa)
#
#
# Indices 1 2 3 4 5 6 
#
# 1 0.011871 -0.003476 -0.005244 0.000000 0.000000 0.000000
# 2 -0.003476 0.011929 -0.007504 0.000000 0.000000 0.000000
# 3 -0.005244 -0.007504 0.030820 0.000000 0.000000 0.000000
# 4 0.000000 0.000000 0.000000 0.032081 0.000000 0.000000
# 5 0.000000 0.000000 0.000000 0.000000 0.033237 0.000000
# 6 0.000000 0.000000 0.000000 0.000000 0.000000 0.021893
#
#
# Mechanical properties :
#
#
# Convention : Reuss Voigt Hill
#
# Bulk Modulus (GPa) = 45.10023 59.76115 52.43069
# Shear Modulus (GPa) = 27.52254 32.08523 29.80388
#
# Velocity S-wave (km/s) = 3.70220 3.99731 3.85258
# Velocity P-wave (km/s) = 6.38240 7.14604 6.77498
#
# Compressibility (1/GPa) = 0.02217284
#
# Stress axis : x y z
#
# Youngs Moduli (GPa) = 84.23647 83.82900 32.44667
#
# Poissons Ratio (x) = 0.29138 0.17014
# Poissons Ratio (y) = 0.29279 0.24348
# Poissons Ratio (z) = 0.44172 0.62905
#
# Static dielectric constant tensor:
#      x y z
#    x 4.011360 0.000000 0.000000 
#    y 0.000000 3.958240 0.000000 
#    z 0.000000 0.000000 3.491140 
# 
# 
# High freq. dielectric constant tensor:
#      x y z
#    x 1.797590 0.000000 0.000000 
#    y 0.000000 1.801760 0.000000 
#    z 0.000000 0.000000 1.777430 
# 
# From -- ./inp_files/19266.got.cif
#   From: 2010.03.12/outbox.cif.g09.slc.cpg/sg54_10_cif.got.tgz:19266.got - 2010.04.16 15:00:50.
