data_PCOD8223211
_publ_section_title
;
Structure prediction by ZEFSAII (Michael W. Deem and Ramdas Pophale) SiO2 
 PCOD8223211
Probable space group: P C C A
;
_chemical_formula_sum "Si O2"
_cell_formula_units_Z 40
_cell_length_a 24.177583
_cell_length_b 5.021316
_cell_length_c 15.871747
_cell_angle_alpha 90.000000
_cell_angle_beta 90.000000
_cell_angle_gamma 90.000000
_cell_volume 1926.882214
_symmetry_space_group_name_H-M "P C C A"
_symmetry_group_IT_number 54
_symmetry_cell_setting 'orthorhombic'
loop_
_space_group_symop_operation_xyz
x,y,z
1/2-x,-y,z
1/2+x,-y,1/2-z
-x,y,1/2-z
-x,-y,-z
1/2+x,y,-z
1/2-x,y,1/2+z
x,-y,1/2+z
loop_
_atom_site_type_symbol
_atom_site_label
_atom_site_fract_x
_atom_site_fract_y
_atom_site_fract_z
Si Si1 0.028926 0.149717 0.924634
Si Si2 0.087078 0.879659 0.132819
Si Si3 0.612486 0.606606 0.471804
Si Si4 0.626447 0.949384 0.185064
Si Si5 0.685907 0.442083 0.123224
O O1 0.978299 0.197506 0.860149
O O2 0.075256 0.972757 0.878752
O O3 0.059607 0.416108 0.962525
O O4 0.000000 0.000000 0.000000
O O5 0.114667 0.602873 0.104044
O O6 0.106103 0.094878 0.063602
O O7 0.106925 0.987184 0.221376
O O8 0.668352 0.562659 0.524963
O O9 0.650730 0.653606 0.177842
O O10 0.675171 0.153102 0.162233
O O11 0.750000 0.500000 0.129371
#
# Coordination Sequence:
#
# PCOD8223211 Si02
#       5
#     8   8   8   8   8
#     4   9  19  36  60  87 121 158 189 226 281 352
#     4  11  21  37  58  91 125 149 184 241 296 348
#     4  10  21  38  61  86 116 155 200 237 283 353
#     4  11  23  38  61  90 119 152 194 240 295 350
#     4  11  23  43  62  80 110 156 202 244 288 343
#
# _framework density 20.758924
#
# number of rings (size 3 to 8) (size 9 to 14) (size 15 to 20)
#    0.000    1.600    0.000    6.600    0.000    4.800 
#    0.000   14.000    0.000    0.000    0.000    0.000 
#    0.000    0.000    0.000    0.000    0.000    0.000 
#
# Total GULP energy -495679.528740 kJ/mol
# GULP energy per Si atom -12391.988219 kJ/mol
# Density = 2.071168 g / cm^3
# Si number density = 20.758924 Si / 1000 Ang^3
#
#
#
# Elastic Constant Matrix: (Units=GPa)
#
#
# Indices 1 2 3 4 5 6 
#
# 1 86.6913 -7.1287 43.3137 0.0000 0.0000 0.0000
# 2 -7.1287 69.5608 12.3319 0.0000 0.0000 0.0000
# 3 43.3137 12.3319 101.5592 0.0000 0.0000 0.0000
# 4 0.0000 0.0000 0.0000 35.5687 0.0000 0.0000
# 5 0.0000 0.0000 0.0000 0.0000 17.4078 0.0000
# 6 0.0000 0.0000 0.0000 0.0000 0.0000 22.8262
#
#
#
# Elastic Compliance Matrix: (Units=1/GPa)
#
#
# Indices 1 2 3 4 5 6 
#
# 1 0.015160 0.002759 -0.006801 0.000000 0.000000 0.000000
# 2 0.002759 0.015194 -0.003022 0.000000 0.000000 0.000000
# 3 -0.006801 -0.003022 0.013114 0.000000 0.000000 0.000000
# 4 0.000000 0.000000 0.000000 0.028115 0.000000 0.000000
# 5 0.000000 0.000000 0.000000 0.000000 0.057445 0.000000
# 6 0.000000 0.000000 0.000000 0.000000 0.000000 0.043809
#
#
# Mechanical properties :
#
#
# Convention : Reuss Voigt Hill
#
# Bulk Modulus (GPa) = 34.08107 39.42725 36.75416
# Shear Modulus (GPa) = 25.41373 29.11349 27.26361
#
# Velocity S-wave (km/s) = 3.50270 3.74900 3.62794
# Velocity P-wave (km/s) = 5.72815 6.14607 5.94079
#
# Compressibility (1/GPa) = 0.02934180
#
# Stress axis : x y z
#
# Youngs Moduli (GPa) = 65.96380 65.81384 76.25597
#
# Poissons Ratio (x) = -0.18159 0.51858
# Poissons Ratio (y) = -0.18201 0.23043
# Poissons Ratio (z) = 0.44859 0.19887
#
# Static dielectric constant tensor:
#      x y z
#    x 3.994010 0.000000 0.000000 
#    y 0.000000 3.797500 0.000000 
#    z 0.000000 0.000000 3.806190 
# 
# 
# High freq. dielectric constant tensor:
#      x y z
#    x 1.801390 0.000000 0.000000 
#    y 0.000000 1.815480 0.000000 
#    z 0.000000 0.000000 1.812830 
# 
# From -- ./inp_files/14825.got.cif
#   From: 2010.03.12/outbox.cif.g09.slc.cpg/sg54_8_cif.got.tgz:14825.got - 2010.04.16 15:00:50.
