data_PCOD8223616
_publ_section_title
;
Structure prediction by ZEFSAII (Michael W. Deem and Ramdas Pophale) SiO2 
 PCOD8223616
Probable space group: P C C A
;
_chemical_formula_sum "Si O2"
_cell_formula_units_Z 48
_cell_length_a 27.028958
_cell_length_b 6.370503
_cell_length_c 13.687996
_cell_angle_alpha 90.000000
_cell_angle_beta 90.000000
_cell_angle_gamma 90.000000
_cell_volume 2356.909450
_symmetry_space_group_name_H-M "P C C A"
_symmetry_group_IT_number 54
_symmetry_cell_setting 'orthorhombic'
loop_
_space_group_symop_operation_xyz
x,y,z
1/2-x,-y,z
1/2+x,-y,1/2-z
-x,y,1/2-z
-x,-y,-z
1/2+x,y,-z
1/2-x,y,1/2+z
x,-y,1/2+z
loop_
_atom_site_type_symbol
_atom_site_label
_atom_site_fract_x
_atom_site_fract_y
_atom_site_fract_z
Si Si1 0.701565 0.122664 0.198443
Si Si2 0.340577 0.230447 0.671230
Si Si3 0.376244 0.239973 0.453733
Si Si4 0.081194 0.584463 0.822266
Si Si5 0.969182 0.983890 0.595749
Si Si6 0.500000 0.711850 0.750000
Si Si7 0.750000 0.500000 0.795561
O O1 0.672406 0.154798 0.098598
O O2 0.714664 0.354999 0.231783
O O3 0.750000 0.000000 0.165897
O O4 0.673124 0.000330 0.286484
O O5 0.370556 0.227564 0.570429
O O6 0.375000 0.330396 0.754589
O O7 0.289549 0.356649 0.645805
O O8 0.393571 0.470245 0.416154
O O9 0.415302 0.070467 0.420954
O O10 0.040564 0.752746 0.859939
O O11 0.050166 0.422893 0.755959
O O12 0.000000 0.000000 0.500000
O O13 0.004157 0.130787 0.660167
#
# Coordination Sequence:
#
# PCOD8223616 Si02
#       7
#     8   8   8   8   8   4   4
#     4  10  22  43  65  96 136 169 220 274 329 398
#     4  11  24  42  69  95 135 173 220 278 335 395
#     4  11  25  41  68 100 129 180 222 271 339 400
#     4  11  24  45  67  98 134 175 225 280 329 402
#     4  11  26  43  66  98 134 175 224 275 334 404
#     4  10  26  42  68  94 132 174 216 276 334 380
#     4  10  22  44  66  96 136 172 220 276 328 406
#
# _framework density 20.365652000000001
#
# number of rings (size 3 to 8) (size 9 to 14) (size 15 to 20)
#    0.000    1.333    3.333    0.500    7.000    5.333 
#    0.000    0.000    0.000    0.000    0.000    0.000 
#    0.000    0.000    0.000    0.000    0.000    0.000 
#
# Total GULP energy -594819.184034 kJ/mol
# GULP energy per Si atom -12392.066334 kJ/mol
# Density = 2.031930 g / cm^3
# Si number density = 20.365652 Si / 1000 Ang^3
#
#
#
# Elastic Constant Matrix: (Units=GPa)
#
#
# Indices 1 2 3 4 5 6 
#
# 1 78.6278 42.0360 41.6778 0.0000 0.0000 0.0000
# 2 42.0360 124.4807 53.4826 0.0000 0.0000 0.0000
# 3 41.6778 53.4826 118.2727 0.0000 0.0000 0.0000
# 4 0.0000 0.0000 0.0000 23.1934 0.0000 0.0000
# 5 0.0000 0.0000 0.0000 0.0000 39.1252 0.0000
# 6 0.0000 0.0000 0.0000 0.0000 0.0000 -0.2478
#
#
#
# Elastic Compliance Matrix: (Units=1/GPa)
#
#
# Indices 1 2 3 4 5 6 
#
# 1 0.017071 -0.003947 -0.004231 0.000000 0.000000 0.000000
# 2 -0.003947 0.010883 -0.003530 0.000000 0.000000 0.000000
# 3 -0.004231 -0.003530 0.011542 0.000000 0.000000 0.000000
# 4 0.000000 0.000000 0.000000 0.043116 0.000000 0.000000
# 5 0.000000 0.000000 0.000000 0.000000 0.025559 0.000000
# 6 0.000000 0.000000 0.000000 0.000000 0.000000 -4.036231
#
#
# Mechanical properties :
#
#
# Convention : Reuss Voigt Hill
#
# Bulk Modulus (GPa) = 62.18907 66.19709 64.19308
# Shear Modulus (GPa) = -1.28229 24.69318 11.70544
#
# Velocity S-wave (km/s) = -0.79435 3.48586 2.40002
# Velocity P-wave (km/s) = 5.45538 6.98402 6.26649
#
# Compressibility (1/GPa) = 0.01608000
#
# Stress axis : x y z
#
# Youngs Moduli (GPa) = 58.57947 91.88602 86.63749
#
# Poissons Ratio (x) = 0.36267 0.36654
# Poissons Ratio (y) = 0.23121 0.30587
# Poissons Ratio (z) = 0.24783 0.32440
#
# Static dielectric constant tensor:
#      x y z
#    x 3.760620 0.000000 0.000000 
#    y 0.000000 4.071420 0.000000 
#    z 0.000000 0.000000 3.421170 
# 
# 
# High freq. dielectric constant tensor:
#      x y z
#    x 1.815200 0.000000 0.000000 
#    y 0.000000 1.810480 0.000000 
#    z 0.000000 0.000000 1.782110 
# 
# From -- ./inp_files/15183.got.cif
#   From: 2010.03.12/outbox.cif.g09.slc.cpg/sg54_8_cif.got.tgz:15183.got - 2010.04.16 15:00:50.
