data_PCOD8223708
_publ_section_title
;
Structure prediction by ZEFSAII (Michael W. Deem and Ramdas Pophale) SiO2 
 PCOD8223708
Probable space group: P C C A
;
_chemical_formula_sum "Si O2"
_cell_formula_units_Z 60
_cell_length_a 25.130131
_cell_length_b 12.594313
_cell_length_c 8.994254
_cell_angle_alpha 90.000000
_cell_angle_beta 90.000000
_cell_angle_gamma 90.000000
_cell_volume 2846.652030
_symmetry_space_group_name_H-M "P C C A"
_symmetry_group_IT_number 54
_symmetry_cell_setting 'orthorhombic'
loop_
_space_group_symop_operation_xyz
x,y,z
1/2-x,-y,z
1/2+x,-y,1/2-z
-x,y,1/2-z
-x,-y,-z
1/2+x,y,-z
1/2-x,y,1/2+z
x,-y,1/2+z
loop_
_atom_site_type_symbol
_atom_site_label
_atom_site_fract_x
_atom_site_fract_y
_atom_site_fract_z
Si Si1 0.633408 0.019778 0.451113
Si Si2 0.720729 0.682950 0.314706
Si Si3 0.052969 0.558039 0.049931
Si Si4 0.703480 0.085603 0.708447
Si Si5 0.403192 0.144747 0.316233
Si Si6 0.875905 0.541094 0.710294
Si Si7 0.000000 0.728166 0.250000
Si Si8 0.179747 0.330478 0.858476
O O1 0.663283 0.941918 0.339275
O O2 0.598485 0.947937 0.561484
O O3 0.674843 0.088216 0.548289
O O4 0.597167 0.098326 0.352065
O O5 0.725275 0.798817 0.242304
O O6 0.674101 0.615851 0.238794
O O7 0.713501 0.682560 0.490798
O O8 0.779148 0.637938 0.274195
O O9 0.085872 0.599338 0.908094
O O10 0.089907 0.477009 0.141682
O O11 0.037687 0.660024 0.144407
O O12 0.000000 0.500000 0.000000
O O13 0.750000 0.000000 0.701370
O O14 0.459371 0.201409 0.346177
O O15 0.352604 0.222311 0.332419
O O16 0.860325 0.428882 0.636052
#
# Coordination Sequence:
#
# PCOD8223708 Si02
#       8
#     8   8   8   8   8   8   4   8
#     4  10  23  42  66  92 136 175 226 293 351 405
#     4  12  28  41  70 102 139 192 229 282 348 418
#     4  12  23  45  70 103 132 184 234 295 348 418
#     4  11  23  39  65  99 134 180 232 281 335 417
#     4  11  24  47  69  99 137 180 234 298 357 425
#     4  12  26  45  70  97 147 177 235 286 348 425
#     4  12  26  42  78  96 136 184 236 296 370 416
#     4  12  26  45  65 104 145 182 231 283 350 420
#
# _framework density 21.077392
#
# number of rings (size 3 to 8) (size 9 to 14) (size 15 to 20)
#    0.000    0.533    5.333    2.400    7.467    1.600 
#    0.000    0.000    0.000    0.000    0.000    0.000 
#    0.000    0.000    0.000    0.000    0.000    0.000 
#
# Total GULP energy -744158.405447 kJ/mol
# GULP energy per Si atom -12402.640091 kJ/mol
# Density = 2.102942 g / cm^3
# Si number density = 21.077392 Si / 1000 Ang^3
#
#
#
# Elastic Constant Matrix: (Units=GPa)
#
#
# Indices 1 2 3 4 5 6 
#
# 1 99.0984 24.7435 32.4131 0.0000 0.0000 0.0000
# 2 24.7435 79.6096 27.8710 0.0000 0.0000 0.0000
# 3 32.4131 27.8710 113.9780 0.0000 0.0000 0.0000
# 4 0.0000 0.0000 0.0000 13.0718 0.0000 0.0000
# 5 0.0000 0.0000 0.0000 0.0000 38.6848 0.0000
# 6 0.0000 0.0000 0.0000 0.0000 0.0000 32.5010
#
#
#
# Elastic Compliance Matrix: (Units=1/GPa)
#
#
# Indices 1 2 3 4 5 6 
#
# 1 0.011629 -0.002687 -0.002650 0.000000 0.000000 0.000000
# 2 -0.002687 0.014358 -0.002747 0.000000 0.000000 0.000000
# 3 -0.002650 -0.002747 0.010199 0.000000 0.000000 0.000000
# 4 0.000000 0.000000 0.000000 0.076500 0.000000 0.000000
# 5 0.000000 0.000000 0.000000 0.000000 0.025850 0.000000
# 6 0.000000 0.000000 0.000000 0.000000 0.000000 0.030768
#
#
# Mechanical properties :
#
#
# Convention : Reuss Voigt Hill
#
# Bulk Modulus (GPa) = 49.95372 51.41567 50.68470
# Shear Modulus (GPa) = 26.02218 30.69543 28.35880
#
# Velocity S-wave (km/s) = 3.51750 3.82032 3.67203
# Velocity P-wave (km/s) = 6.34419 6.62620 6.48672
#
# Compressibility (1/GPa) = 0.02001853
#
# Stress axis : x y z
#
# Youngs Moduli (GPa) = 85.99548 69.64759 98.04942
#
# Poissons Ratio (x) = 0.18711 0.25983
# Poissons Ratio (y) = 0.23103 0.26934
# Poissons Ratio (z) = 0.22789 0.19132
#
# Static dielectric constant tensor:
#      x y z
#    x 3.821520 0.000000 0.000000 
#    y 0.000000 3.910920 0.000000 
#    z 0.000000 0.000000 3.995150 
# 
# 
# High freq. dielectric constant tensor:
#      x y z
#    x 1.829890 0.000000 0.000000 
#    y 0.000000 1.825290 0.000000 
#    z 0.000000 0.000000 1.838720 
# 
# From -- ./inp_files/5594.got.cif
#   From: 2010.03.12/outbox.cif.g09.slc.cpg/sg54_3_cif.got.tgz:5594.got - 2010.04.16 15:00:50.
