data_PCOD8223570
_publ_section_title
;
Structure prediction by ZEFSAII (Michael W. Deem and Ramdas Pophale) SiO2 
 PCOD8223570
Probable space group: P C C A
;
_chemical_formula_sum "Si O2"
_cell_formula_units_Z 32
_cell_length_a 4.996969
_cell_length_b 22.015732
_cell_length_c 12.454115
_cell_angle_alpha 90.000000
_cell_angle_beta 90.000000
_cell_angle_gamma 90.000000
_cell_volume 1370.101232
_symmetry_space_group_name_H-M "P C C A"
_symmetry_group_IT_number 54
_symmetry_cell_setting 'orthorhombic'
loop_
_space_group_symop_operation_xyz
x,y,z
1/2-x,-y,z
1/2+x,-y,1/2-z
-x,y,1/2-z
-x,-y,-z
1/2+x,y,-z
1/2-x,y,1/2+z
x,-y,1/2+z
loop_
_atom_site_type_symbol
_atom_site_label
_atom_site_fract_x
_atom_site_fract_y
_atom_site_fract_z
Si Si1 0.318488 0.370327 0.068654
Si Si2 0.500000 0.460651 0.250000
Si Si3 0.244882 0.928939 0.929834
Si Si4 0.128956 0.233392 0.571781
Si Si5 0.500000 0.853561 0.750000
O O1 0.383954 0.419738 0.156293
O O2 0.351789 0.302370 0.115147
O O3 0.512174 0.379703 0.966570
O O4 0.750000 0.500000 0.206436
O O5 0.295554 0.895165 0.817580
O O6 0.250000 0.000000 0.903936
O O7 0.461240 0.910034 0.020286
O O8 0.336358 0.220413 0.476508
O O9 0.176976 0.188966 0.671986
#
# Coordination Sequence:
#
# PCOD8223570 Si02
#       5
#     8   4   8   8   4
#     4  10  22  42  63  86 125 167 201 250 315 368
#     4  12  25  38  60  94 123 158 214 260 298 362
#     4  10  24  43  61  88 125 161 202 247 295 363
#     4  10  23  41  63  94 125 158 205 256 307 372
#     4  12  23  40  70  94 123 162 206 256 316 360
#
# _framework density 23.35594
#
# number of rings (size 3 to 8) (size 9 to 14) (size 15 to 20)
#    0.000    1.500    0.000    3.750    0.000   10.000 
#    0.000    7.500    0.000    0.000    0.000    0.000 
#    0.000    0.000    0.000    0.000    0.000    0.000 
#
# Total GULP energy -396989.068424 kJ/mol
# GULP energy per Si atom -12405.908388 kJ/mol
# Density = 2.330278 g / cm^3
# Si number density = 23.355940 Si / 1000 Ang^3
#
#
#
# Elastic Constant Matrix: (Units=GPa)
#
#
# Indices 1 2 3 4 5 6 
#
# 1 83.1917 31.4835 5.4326 0.0000 0.0000 0.0000
# 2 31.4835 126.5367 77.2569 0.0000 0.0000 0.0000
# 3 5.4326 77.2569 97.0612 0.0000 0.0000 0.0000
# 4 0.0000 0.0000 0.0000 41.2050 0.0000 0.0000
# 5 0.0000 0.0000 0.0000 0.0000 22.2193 0.0000
# 6 0.0000 0.0000 0.0000 0.0000 0.0000 30.2796
#
#
#
# Elastic Compliance Matrix: (Units=1/GPa)
#
#
# Indices 1 2 3 4 5 6 
#
# 1 0.013977 -0.005836 0.003863 0.000000 0.000000 0.000000
# 2 -0.005836 0.017811 -0.013850 0.000000 0.000000 0.000000
# 3 0.003863 -0.013850 0.021111 0.000000 0.000000 0.000000
# 4 0.000000 0.000000 0.000000 0.024269 0.000000 0.000000
# 5 0.000000 0.000000 0.000000 0.000000 0.045006 0.000000
# 6 0.000000 0.000000 0.000000 0.000000 0.000000 0.033026
#
#
# Mechanical properties :
#
#
# Convention : Reuss Voigt Hill
#
# Bulk Modulus (GPa) = 47.05436 59.45952 53.25694
# Shear Modulus (GPa) = 25.78242 31.58188 28.68215
#
# Velocity S-wave (km/s) = 3.32609 3.68122 3.50815
# Velocity P-wave (km/s) = 5.91108 6.60164 6.26588
#
# Compressibility (1/GPa) = 0.02125201
#
# Stress axis : x y z
#
# Youngs Moduli (GPa) = 71.54699 56.14411 47.36873
#
# Poissons Ratio (x) = 0.32766 -0.18299
# Poissons Ratio (y) = 0.41756 0.65608
# Poissons Ratio (z) = -0.27639 0.77762
#
# Static dielectric constant tensor:
#      x y z
#    x 4.282480 0.000000 0.000000 
#    y 0.000000 4.625430 0.000000 
#    z 0.000000 0.000000 3.877130 
# 
# 
# High freq. dielectric constant tensor:
#      x y z
#    x 1.928540 0.000000 0.000000 
#    y 0.000000 1.951520 0.000000 
#    z 0.000000 0.000000 1.908640 
# 
# From -- ./inp_files/6288.got.cif
#   From: 2010.03.12/outbox.cif.g09.slc.cpg/sg54_4_cif.got.tgz:6288.got - 2010.04.16 15:00:50.
