data_PCOD8223105
_publ_section_title
;
Structure prediction by ZEFSAII (Michael W. Deem and Ramdas Pophale) SiO2 
 PCOD8223105
Probable space group: P C C A
;
_chemical_formula_sum "Si O2"
_cell_formula_units_Z 60
_cell_length_a 25.316829
_cell_length_b 14.447904
_cell_length_c 8.049907
_cell_angle_alpha 90.000000
_cell_angle_beta 90.000000
_cell_angle_gamma 90.000000
_cell_volume 2944.455658
_symmetry_space_group_name_H-M "P C C A"
_symmetry_group_IT_number 54
_symmetry_cell_setting 'orthorhombic'
loop_
_space_group_symop_operation_xyz
x,y,z
1/2-x,-y,z
1/2+x,-y,1/2-z
-x,y,1/2-z
-x,-y,-z
1/2+x,y,-z
1/2-x,y,1/2+z
x,-y,1/2+z
loop_
_atom_site_type_symbol
_atom_site_label
_atom_site_fract_x
_atom_site_fract_y
_atom_site_fract_z
Si Si1 0.893695 0.901193 0.695715
Si Si2 0.948122 0.938792 0.029553
Si Si3 0.802777 0.554058 0.304081
Si Si4 0.500000 0.210435 0.250000
Si Si5 0.810698 0.754086 0.210463
Si Si6 0.408072 0.742130 0.548442
Si Si7 0.801453 0.208813 0.332856
Si Si8 0.841945 0.611845 0.645863
O O1 0.929296 0.895879 0.858313
O O2 0.918985 0.828377 0.569863
O O3 0.832972 0.873719 0.738327
O O4 0.900018 0.002137 0.612023
O O5 0.960077 0.853354 0.147677
O O6 0.000000 0.000000 0.000000
O O7 0.750000 0.500000 0.262472
O O8 0.804153 0.643757 0.186530
O O9 0.802971 0.585832 0.494432
O O10 0.850267 0.481467 0.255788
O O11 0.536861 0.277696 0.359015
O O12 0.861771 0.771498 0.323952
O O13 0.761174 0.802421 0.304544
O O14 0.816329 0.797165 0.027215
O O15 0.395255 0.650143 0.440922
O O16 0.817207 0.307887 0.257899
#
# Coordination Sequence:
#
# PCOD8223105 Si02
#       8
#     8   8   8   4   8   8   8   8
#     4  11  22  39  62  95 127 154 201 257 325 374
#     4  12  21  37  65  97 119 155 204 268 320 374
#     4  11  19  30  56  86 122 161 208 261 293 358
#     4  12  22  40  66  88 124 156 212 274 316 372
#     4  11  22  39  59  90 127 173 213 246 318 365
#     4  10  23  38  59  91 125 165 208 263 320 378
#     4  11  22  37  59  86 130 167 198 256 304 387
#     4  10  21  33  52  89 124 159 208 255 312 361
#
# _framework density 20.377281
#
# number of rings (size 3 to 8) (size 9 to 14) (size 15 to 20)
#    0.000    1.067    4.000    4.400    0.000    0.000 
#    0.000    0.000    0.000   20.000    0.000    0.000 
#    0.000    0.000    0.000    0.000    0.000    0.000 
#
# Total GULP energy -743809.919595 kJ/mol
# GULP energy per Si atom -12396.831993 kJ/mol
# Density = 2.033090 g / cm^3
# Si number density = 20.377281 Si / 1000 Ang^3
#
#
#
# Elastic Constant Matrix: (Units=GPa)
#
#
# Indices 1 2 3 4 5 6 
#
# 1 96.9546 44.3740 39.4889 0.0000 0.0000 0.0000
# 2 44.3740 60.2280 28.6202 0.0000 0.0000 0.0000
# 3 39.4889 28.6202 121.4527 0.0000 0.0000 0.0000
# 4 0.0000 0.0000 0.0000 33.1209 0.0000 0.0000
# 5 0.0000 0.0000 0.0000 0.0000 34.8775 0.0000
# 6 0.0000 0.0000 0.0000 0.0000 0.0000 30.9903
#
#
#
# Elastic Compliance Matrix: (Units=1/GPa)
#
#
# Indices 1 2 3 4 5 6 
#
# 1 0.016361 -0.010728 -0.002792 0.000000 0.000000 0.000000
# 2 -0.010728 0.025731 -0.002576 0.000000 0.000000 0.000000
# 3 -0.002792 -0.002576 0.009748 0.000000 0.000000 0.000000
# 4 0.000000 0.000000 0.000000 0.030192 0.000000 0.000000
# 5 0.000000 0.000000 0.000000 0.000000 0.028672 0.000000
# 6 0.000000 0.000000 0.000000 0.000000 0.000000 0.032268
#
#
# Mechanical properties :
#
#
# Convention : Reuss Voigt Hill
#
# Bulk Modulus (GPa) = 50.88854 55.95572 53.42213
# Shear Modulus (GPa) = 27.51599 30.87457 29.19528
#
# Velocity S-wave (km/s) = 3.67867 3.89671 3.78926
# Velocity P-wave (km/s) = 6.56284 6.91124 6.73929
#
# Compressibility (1/GPa) = 0.01965079
#
# Stress axis : x y z
#
# Youngs Moduli (GPa) = 61.12129 38.86327 102.58262
#
# Poissons Ratio (x) = 0.41691 0.28637
# Poissons Ratio (y) = 0.65569 0.26421
# Poissons Ratio (z) = 0.17063 0.10010
#
# Static dielectric constant tensor:
#      x y z
#    x 3.682320 0.000000 0.000000 
#    y 0.000000 3.840770 0.000000 
#    z 0.000000 0.000000 3.937330 
# 
# 
# High freq. dielectric constant tensor:
#      x y z
#    x 1.771890 0.000000 0.000000 
#    y 0.000000 1.777780 0.000000 
#    z 0.000000 0.000000 1.820460 
# 
# From -- ./inp_files/5272.got.cif
#   From: 2010.03.12/outbox.cif.g09.slc.cpg/sg54_3_cif.got.tgz:5272.got - 2010.04.16 15:00:50.
