data_PCOD8223345
_publ_section_title
;
Structure prediction by ZEFSAII (Michael W. Deem and Ramdas Pophale) SiO2 
 PCOD8223345
Probable space group: P C C A
;
_chemical_formula_sum "Si O2"
_cell_formula_units_Z 48
_cell_length_a 14.376614
_cell_length_b 8.569436
_cell_length_c 17.597302
_cell_angle_alpha 90.000000
_cell_angle_beta 90.000000
_cell_angle_gamma 90.000000
_cell_volume 2167.978343
_symmetry_space_group_name_H-M "P C C A"
_symmetry_group_IT_number 54
_symmetry_cell_setting 'orthorhombic'
loop_
_space_group_symop_operation_xyz
x,y,z
1/2-x,-y,z
1/2+x,-y,1/2-z
-x,y,1/2-z
-x,-y,-z
1/2+x,y,-z
1/2-x,y,1/2+z
x,-y,1/2+z
loop_
_atom_site_type_symbol
_atom_site_label
_atom_site_fract_x
_atom_site_fract_y
_atom_site_fract_z
Si Si1 0.314017 0.643651 0.154533
Si Si2 0.752817 0.815580 0.215177
Si Si3 0.681197 0.366982 0.577449
Si Si4 0.308963 0.853318 0.554298
Si Si5 0.569235 0.823874 0.807949
Si Si6 0.497944 0.494034 0.836976
O O1 0.250000 0.500000 0.181712
O O2 0.328352 0.759102 0.227226
O O3 0.265451 0.734129 0.087005
O O4 0.413025 0.585398 0.122772
O O5 0.743979 0.731799 0.135241
O O6 0.848049 0.759717 0.255137
O O7 0.750000 0.000000 0.204582
O O8 0.750000 0.500000 0.543548
O O9 0.643890 0.243931 0.514261
O O10 0.593513 0.444048 0.618371
O O11 0.385664 0.910222 0.618052
O O12 0.250000 0.000000 0.523869
O O13 0.500000 0.922148 0.750000
O O14 0.508836 0.680764 0.840501
O O15 0.500000 0.436615 0.750000
#
# Coordination Sequence:
#
# PCOD8223345 Si02
#       6
#     8   8   8   8   8   8
#     4  11  19  41  68  95 128 177 230 282 331 401
#     4  11  22  41  66  96 141 180 220 280 350 408
#     4  12  25  43  69  98 136 183 232 283 341 408
#     4  11  25  46  65  95 141 185 219 280 358 410
#     4  10  21  41  69 100 130 172 230 284 335 403
#     4  11  21  38  70 104 128 166 234 289 327 393
#
# _framework density 22.140443000000001
#
# number of rings (size 3 to 8) (size 9 to 14) (size 15 to 20)
#    0.000    1.000    5.000    5.500    0.000    0.667 
#    9.000    0.833    0.000    0.000    0.000    0.000 
#    0.000    0.000    0.000    0.000    0.000    0.000 
#
# Total GULP energy -594797.284603 kJ/mol
# GULP energy per Si atom -12391.610096 kJ/mol
# Density = 2.209005 g / cm^3
# Si number density = 22.140443 Si / 1000 Ang^3
#
#
#
# Elastic Constant Matrix: (Units=GPa)
#
#
# Indices 1 2 3 4 5 6 
#
# 1 104.5754 25.8006 28.6503 0.0000 0.0000 0.0000
# 2 25.8006 93.8485 17.9487 0.0000 0.0000 0.0000
# 3 28.6503 17.9487 91.6244 0.0000 0.0000 0.0000
# 4 0.0000 0.0000 0.0000 27.6284 0.0000 0.0000
# 5 0.0000 0.0000 0.0000 0.0000 30.6779 0.0000
# 6 0.0000 0.0000 0.0000 0.0000 0.0000 25.5491
#
#
#
# Elastic Compliance Matrix: (Units=1/GPa)
#
#
# Indices 1 2 3 4 5 6 
#
# 1 0.010976 -0.002453 -0.002952 0.000000 0.000000 0.000000
# 2 -0.002453 0.011618 -0.001509 0.000000 0.000000 0.000000
# 3 -0.002952 -0.001509 0.012133 0.000000 0.000000 0.000000
# 4 0.000000 0.000000 0.000000 0.036195 0.000000 0.000000
# 5 0.000000 0.000000 0.000000 0.000000 0.032597 0.000000
# 6 0.000000 0.000000 0.000000 0.000000 0.000000 0.039140
#
#
# Mechanical properties :
#
#
# Convention : Reuss Voigt Hill
#
# Bulk Modulus (GPa) = 47.84663 48.31639 48.08151
# Shear Modulus (GPa) = 30.58978 31.28100 30.93539
#
# Velocity S-wave (km/s) = 3.72105 3.76286 3.74202
# Velocity P-wave (km/s) = 6.33396 6.38348 6.35877
#
# Compressibility (1/GPa) = 0.02090011
#
# Stress axis : x y z
#
# Youngs Moduli (GPa) = 91.10489 86.06998 82.42202
#
# Poissons Ratio (x) = 0.21114 0.24328
# Poissons Ratio (y) = 0.22349 0.12437
# Poissons Ratio (z) = 0.26891 0.12987
#
# Static dielectric constant tensor:
#      x y z
#    x 4.114590 0.000000 0.000000 
#    y 0.000000 4.140980 0.000000 
#    z 0.000000 0.000000 4.003380 
# 
# 
# High freq. dielectric constant tensor:
#      x y z
#    x 1.865860 0.000000 0.000000 
#    y 0.000000 1.860950 0.000000 
#    z 0.000000 0.000000 1.863330 
# 
# From -- ./inp_files/18046.got.cif
#   From: 2010.03.12/outbox.cif.g09.slc.cpg/sg54_10_cif.got.tgz:18046.got - 2010.04.16 15:00:50.
