data_PCOD8223003
_publ_section_title
;
Structure prediction by ZEFSAII (Michael W. Deem and Ramdas Pophale) SiO2 
 PCOD8223003
Probable space group: P C C A
;
_chemical_formula_sum "Si O2"
_cell_formula_units_Z 56
_cell_length_a 14.003169
_cell_length_b 10.348873
_cell_length_c 19.443751
_cell_angle_alpha 90.000000
_cell_angle_beta 90.000000
_cell_angle_gamma 90.000000
_cell_volume 2817.730405
_symmetry_space_group_name_H-M "P C C A"
_symmetry_group_IT_number 54
_symmetry_cell_setting 'orthorhombic'
loop_
_space_group_symop_operation_xyz
x,y,z
1/2-x,-y,z
1/2+x,-y,1/2-z
-x,y,1/2-z
-x,-y,-z
1/2+x,y,-z
1/2-x,y,1/2+z
x,-y,1/2+z
loop_
_atom_site_type_symbol
_atom_site_label
_atom_site_fract_x
_atom_site_fract_y
_atom_site_fract_z
Si Si1 0.250000 0.000000 0.320076
Si Si2 0.991402 0.297383 0.004312
Si Si3 0.639849 0.484221 0.294721
Si Si4 0.364033 0.492094 0.551802
Si Si5 0.940334 0.118484 0.124204
Si Si6 0.517660 0.856778 0.866654
Si Si7 0.365829 0.206502 0.251497
Si Si8 0.000000 0.701323 0.750000
O O1 0.337872 0.951696 0.366722
O O2 0.228696 0.872928 0.272940
O O3 0.939859 0.197544 0.054348
O O4 0.093419 0.349341 0.033607
O O5 0.913757 0.411198 0.001211
O O6 0.008747 0.232889 0.930498
O O7 0.750000 0.500000 0.306272
O O8 0.599422 0.466920 0.372008
O O9 0.630679 0.362355 0.243496
O O10 0.591557 0.609936 0.261729
O O11 0.250000 0.500000 0.541960
O O12 0.973423 0.208145 0.186686
O O13 0.018878 0.006784 0.112602
O O14 0.618232 0.824567 0.829837
O O15 0.443976 0.840783 0.804621
#
# Coordination Sequence:
#
# PCOD8223003 Si02
#       8
#     4   8   8   8   8   8   8   4
#     4  10  22  40  60  88 130 162 212 274 312 380
#     4  11  22  42  64  89 125 167 204 257 322 376
#     4  11  22  37  63  94 123 161 211 264 313 381
#     4  10  23  41  62  90 125 163 206 262 315 380
#     4  11  23  39  61  90 123 164 211 261 319 378
#     4  10  21  38  62  85 117 160 205 250 309 380
#     4  10  20  39  61  89 120 158 205 256 313 368
#     4  12  22  40  64  94 126 166 210 270 334 378
#
# _framework density 19.874151999999999
#
# number of rings (size 3 to 8) (size 9 to 14) (size 15 to 20)
#    0.000    1.429    2.857    3.857    0.000    2.286 
#    0.000    2.143    0.000    0.000    0.000    0.000 
#    0.000    0.000    0.000    0.000    0.000    0.000 
#
# Total GULP energy -693912.721406 kJ/mol
# GULP energy per Si atom -12391.298597 kJ/mol
# Density = 1.982892 g / cm^3
# Si number density = 19.874152 Si / 1000 Ang^3
#
#
#
# Elastic Constant Matrix: (Units=GPa)
#
#
# Indices 1 2 3 4 5 6 
#
# 1 71.4772 33.6266 24.4044 0.0000 0.0000 0.0000
# 2 33.6266 125.8405 35.3697 0.0000 0.0000 0.0000
# 3 24.4044 35.3697 90.6768 0.0000 0.0000 0.0000
# 4 0.0000 0.0000 0.0000 46.1851 0.0000 0.0000
# 5 0.0000 0.0000 0.0000 0.0000 -61.8644 0.0000
# 6 0.0000 0.0000 0.0000 0.0000 0.0000 32.4509
#
#
#
# Elastic Compliance Matrix: (Units=1/GPa)
#
#
# Indices 1 2 3 4 5 6 
#
# 1 0.016744 -0.003603 -0.003101 0.000000 0.000000 0.000000
# 2 -0.003603 0.009700 -0.002814 0.000000 0.000000 0.000000
# 3 -0.003101 -0.002814 0.012960 0.000000 0.000000 0.000000
# 4 0.000000 0.000000 0.000000 0.021652 0.000000 0.000000
# 5 0.000000 0.000000 0.000000 0.000000 -0.016164 0.000000
# 6 0.000000 0.000000 0.000000 0.000000 0.000000 0.030816
#
#
# Mechanical properties :
#
#
# Convention : Reuss Voigt Hill
#
# Bulk Modulus (GPa) = 49.09425 52.75511 50.92468
# Shear Modulus (GPa) = 49.24465 16.32724 32.78594
#
# Velocity S-wave (km/s) = 4.98317 2.86935 4.06603
# Velocity P-wave (km/s) = 7.60694 6.13023 6.90816
#
# Compressibility (1/GPa) = 0.02036899
#
# Stress axis : x y z
#
# Youngs Moduli (GPa) = 59.72217 103.09060 77.15760
#
# Poissons Ratio (x) = 0.37140 0.23928
# Poissons Ratio (y) = 0.21516 0.21713
# Poissons Ratio (z) = 0.18521 0.29011
#
# Static dielectric constant tensor:
#      x y z
#    x 3.751200 0.000000 0.000000 
#    y 0.000000 2.923560 0.000000 
#    z 0.000000 0.000000 3.867650 
# 
# 
# High freq. dielectric constant tensor:
#      x y z
#    x 1.760890 0.000000 0.000000 
#    y 0.000000 1.794020 0.000000 
#    z 0.000000 0.000000 1.774480 
# 
# From -- ./inp_files/21677.got.cif
#   From: 2010.03.12/outbox.cif.g09.slc.cpg/sg54_11_cif.got.tgz:21677.got - 2010.04.16 15:00:50.
