data_PCOD8223231
_publ_section_title
;
Structure prediction by ZEFSAII (Michael W. Deem and Ramdas Pophale) SiO2 
 PCOD8223231
Probable space group: P C C A
;
_chemical_formula_sum "Si O2"
_cell_formula_units_Z 56
_cell_length_a 23.130517
_cell_length_b 5.271996
_cell_length_c 22.999603
_cell_angle_alpha 90.000000
_cell_angle_beta 90.000000
_cell_angle_gamma 90.000000
_cell_volume 2804.663430
_symmetry_space_group_name_H-M "P C C A"
_symmetry_group_IT_number 54
_symmetry_cell_setting 'orthorhombic'
loop_
_space_group_symop_operation_xyz
x,y,z
1/2-x,-y,z
1/2+x,-y,1/2-z
-x,y,1/2-z
-x,-y,-z
1/2+x,y,-z
1/2-x,y,1/2+z
x,-y,1/2+z
loop_
_atom_site_type_symbol
_atom_site_label
_atom_site_fract_x
_atom_site_fract_y
_atom_site_fract_z
Si Si1 0.484481 0.907898 0.092072
Si Si2 0.405247 0.429100 0.882704
Si Si3 0.784964 0.747979 0.655839
Si Si4 0.935364 0.361120 0.737217
Si Si5 0.547278 0.691777 0.521071
Si Si6 0.594275 0.124505 0.800055
Si Si7 0.217161 0.250184 0.206483
O O1 0.533521 0.710113 0.110698
O O2 0.445370 0.960951 0.147138
O O3 0.518147 0.155631 0.073489
O O4 0.439885 0.843459 0.038364
O O5 0.349017 0.252495 0.872907
O O6 0.414102 0.624720 0.829372
O O7 0.397071 0.569177 0.946031
O O8 0.750000 0.500000 0.634491
O O9 0.793517 0.736714 0.724671
O O10 0.750000 0.000000 0.636666
O O11 0.932302 0.642759 0.763903
O O12 0.000000 0.260674 0.750000
O O13 0.895223 0.134742 0.762975
O O14 0.500000 0.500000 0.500000
O O15 0.655023 0.230087 0.824091
O O16 0.250000 0.500000 0.183892
O O17 0.250000 0.000000 0.187185
#
# Coordination Sequence:
#
# PCOD8223231 Si02
#       7
#     8   8   8   8   8   8   8
#     4  10  22  40  62  94 123 163 215 261 320 380
#     4  11  22  37  63  88 129 164 203 265 317 379
#     4  10  23  36  56  86 124 165 208 246 303 376
#     4  12  24  35  55  97 135 158 193 250 335 391
#     4   9  21  40  62  90 119 165 212 254 314 373
#     4  12  24  38  61  92 128 165 203 259 317 384
#     4  10  21  39  56  82 121 167 213 249 300 378
#
# _framework density 19.966746000000001
#
# number of rings (size 3 to 8) (size 9 to 14) (size 15 to 20)
#    0.000    1.429    2.857    2.143   10.000    0.000 
#    0.000    0.000    0.000    0.857    0.000    0.000 
#    0.000    0.000    0.000    0.000    0.000    0.000 
#
# Total GULP energy -693755.962594 kJ/mol
# GULP energy per Si atom -12388.499332 kJ/mol
# Density = 1.992130 g / cm^3
# Si number density = 19.966746 Si / 1000 Ang^3
#
#
#
# Elastic Constant Matrix: (Units=GPa)
#
#
# Indices 1 2 3 4 5 6 
#
# 1 91.0085 19.3453 26.2862 0.0000 0.0000 0.0000
# 2 19.3453 118.9108 34.9494 0.0000 0.0000 0.0000
# 3 26.2862 34.9494 83.0006 0.0000 0.0000 0.0000
# 4 0.0000 0.0000 0.0000 22.9794 0.0000 0.0000
# 5 0.0000 0.0000 0.0000 0.0000 5.0365 0.0000
# 6 0.0000 0.0000 0.0000 0.0000 0.0000 25.9071
#
#
#
# Elastic Compliance Matrix: (Units=1/GPa)
#
#
# Indices 1 2 3 4 5 6 
#
# 1 0.012191 -0.000968 -0.003453 0.000000 0.000000 0.000000
# 2 -0.000968 0.009674 -0.003767 0.000000 0.000000 0.000000
# 3 -0.003453 -0.003767 0.014728 0.000000 0.000000 0.000000
# 4 0.000000 0.000000 0.000000 0.043517 0.000000 0.000000
# 5 0.000000 0.000000 0.000000 0.000000 0.198552 0.000000
# 6 0.000000 0.000000 0.000000 0.000000 0.000000 0.038599
#
#
# Mechanical properties :
#
#
# Convention : Reuss Voigt Hill
#
# Bulk Modulus (GPa) = 49.46474 50.45352 49.95913
# Shear Modulus (GPa) = 14.68956 24.94052 19.81504
#
# Velocity S-wave (km/s) = 2.71532 3.53810 3.15366
# Velocity P-wave (km/s) = 5.88710 6.48186 6.19163
#
# Compressibility (1/GPa) = 0.02021642
#
# Stress axis : x y z
#
# Youngs Moduli (GPa) = 82.02618 103.36593 67.89849
#
# Poissons Ratio (x) = 0.10010 0.23446
# Poissons Ratio (y) = 0.07944 0.25577
# Poissons Ratio (z) = 0.28325 0.38937
#
# Static dielectric constant tensor:
#      x y z
#    x 3.641100 0.000000 0.000000 
#    y 0.000000 3.907840 0.000000 
#    z 0.000000 0.000000 4.007030 
# 
# 
# High freq. dielectric constant tensor:
#      x y z
#    x 1.762170 0.000000 0.000000 
#    y 0.000000 1.797860 0.000000 
#    z 0.000000 0.000000 1.753550 
# 
# From -- ./inp_files/22297.got.cif
#   From: 2010.03.12/outbox.cif.g09.slc.cpg/sg54_12_cif.got.tgz:22297.got - 2010.04.16 15:00:50.
