data_PCOD8223170
_publ_section_title
;
Structure prediction by ZEFSAII (Michael W. Deem and Ramdas Pophale) SiO2 
 PCOD8223170
Probable space group: P C C A
;
_chemical_formula_sum "Si O2"
_cell_formula_units_Z 56
_cell_length_a 14.067317
_cell_length_b 32.845582
_cell_length_c 5.230546
_cell_angle_alpha 90.000000
_cell_angle_beta 90.000000
_cell_angle_gamma 90.000000
_cell_volume 2416.769668
_symmetry_space_group_name_H-M "P C C A"
_symmetry_group_IT_number 54
_symmetry_cell_setting 'orthorhombic'
loop_
_space_group_symop_operation_xyz
x,y,z
1/2-x,-y,z
1/2+x,-y,1/2-z
-x,y,1/2-z
-x,-y,-z
1/2+x,y,-z
1/2-x,y,1/2+z
x,-y,1/2+z
loop_
_atom_site_type_symbol
_atom_site_label
_atom_site_fract_x
_atom_site_fract_y
_atom_site_fract_z
Si Si1 0.811226 0.109018 0.853663
Si Si2 0.811905 0.690233 0.965268
Si Si3 0.893959 0.482469 0.488015
Si Si4 0.393106 0.191615 0.027161
Si Si5 0.888366 0.021134 0.780831
Si Si6 0.688619 0.600518 0.414460
Si Si7 0.105249 0.773566 0.524955
O O1 0.769858 0.113338 0.568648
O O2 0.890004 0.143526 0.913756
O O3 0.864929 0.066422 0.870064
O O4 0.765781 0.695494 0.243704
O O5 0.858920 0.645299 0.942479
O O6 0.893104 0.724748 0.934915
O O7 0.840750 0.496154 0.748059
O O8 0.892433 0.433567 0.457153
O O9 0.000000 0.500000 0.500000
O O10 0.340758 0.214821 0.261858
O O11 0.341579 0.203524 0.760778
O O12 0.499526 0.208729 0.999738
O O13 0.000000 0.015567 0.750000
O O14 0.845549 0.008560 0.503623
O O15 0.769651 0.595288 0.629892
#
# Coordination Sequence:
#
# PCOD8223170 Si02
#       7
#     8   8   8   8   8   8   8
#     4  12  26  42  65  98 129 167 209 264 318 360
#     4  10  21  37  61  90 121 155 198 254 308 368
#     4  10  21  37  55  82 118 157 197 244 300 354
#     4  10  23  40  59  91 123 162 207 249 305 372
#     4  10  23  44  68  96 127 171 212 252 310 374
#     4  10  21  37  58  87 119 154 197 250 309 366
#     4  10  21  40  62  86 118 169 203 250 305 369
#
# _framework density 23.171426
#
# number of rings (size 3 to 8) (size 9 to 14) (size 15 to 20)
#    0.000    1.714    0.000    3.429    2.000    6.857 
#    5.143    5.714    0.000    0.000    0.000    0.000 
#    0.000    0.000    0.000    0.000    0.000    0.000 
#
# Total GULP energy -693902.287293 kJ/mol
# GULP energy per Si atom -12391.112273 kJ/mol
# Density = 2.311869 g / cm^3
# Si number density = 23.171426 Si / 1000 Ang^3
#
#
#
# Elastic Constant Matrix: (Units=GPa)
#
#
# Indices 1 2 3 4 5 6 
#
# 1 44.9072 43.5720 4.8098 0.0000 0.0000 0.0000
# 2 43.5720 229.9122 54.6203 0.0000 0.0000 0.0000
# 3 4.8098 54.6203 201.8630 0.0000 0.0000 0.0000
# 4 0.0000 0.0000 0.0000 33.1921 0.0000 0.0000
# 5 0.0000 0.0000 0.0000 0.0000 2.8292 0.0000
# 6 0.0000 0.0000 0.0000 0.0000 0.0000 45.0460
#
#
#
# Elastic Compliance Matrix: (Units=1/GPa)
#
#
# Indices 1 2 3 4 5 6 
#
# 1 0.027407 -0.005385 0.000804 0.000000 0.000000 0.000000
# 2 -0.005385 0.005706 -0.001416 0.000000 0.000000 0.000000
# 3 0.000804 -0.001416 0.005318 0.000000 0.000000 0.000000
# 4 0.000000 0.000000 0.000000 0.030128 0.000000 0.000000
# 5 0.000000 0.000000 0.000000 0.000000 0.353454 0.000000
# 6 0.000000 0.000000 0.000000 0.000000 0.000000 0.022200
#
#
# Mechanical properties :
#
#
# Convention : Reuss Voigt Hill
#
# Bulk Modulus (GPa) = 37.82479 75.85407 56.83943
# Shear Modulus (GPa) = 10.75227 41.12550 25.93888
#
# Velocity S-wave (km/s) = 2.15648 4.21745 3.34942
# Velocity P-wave (km/s) = 4.74972 7.51818 6.28820
#
# Compressibility (1/GPa) = 0.02643769
#
# Stress axis : x y z
#
# Youngs Moduli (GPa) = 36.48698 175.24241 188.04897
#
# Poissons Ratio (x) = 0.94370 -0.15121
# Poissons Ratio (y) = 0.19649 0.26623
# Poissons Ratio (z) = -0.02934 0.24810
#
# Static dielectric constant tensor:
#      x y z
#    x 6.189200 0.000000 0.000000 
#    y 0.000000 4.456440 0.000000 
#    z 0.000000 0.000000 12.108960 
# 
# 
# High freq. dielectric constant tensor:
#      x y z
#    x 1.873300 0.000000 0.000000 
#    y 0.000000 1.927580 0.000000 
#    z 0.000000 0.000000 1.959010 
# 
# From -- ./inp_files/762.got.cif
#   From: 2010.03.12/outbox.cif.g09.slc.cpg/sg54_1_cif.got.tgz:762.got - 2010.04.16 15:00:50.
