data_PCOD8223129
_publ_section_title
;
Structure prediction by ZEFSAII (Michael W. Deem and Ramdas Pophale) SiO2 
 PCOD8223129
Probable space group: P C C A
;
_chemical_formula_sum "Si O2"
_cell_formula_units_Z 48
_cell_length_a 27.872667
_cell_length_b 5.052402
_cell_length_c 17.451559
_cell_angle_alpha 90.000000
_cell_angle_beta 90.000000
_cell_angle_gamma 90.000000
_cell_volume 2457.596922
_symmetry_space_group_name_H-M "P C C A"
_symmetry_group_IT_number 54
_symmetry_cell_setting 'orthorhombic'
loop_
_space_group_symop_operation_xyz
x,y,z
1/2-x,-y,z
1/2+x,-y,1/2-z
-x,y,1/2-z
-x,-y,-z
1/2+x,y,-z
1/2-x,y,1/2+z
x,-y,1/2+z
loop_
_atom_site_type_symbol
_atom_site_label
_atom_site_fract_x
_atom_site_fract_y
_atom_site_fract_z
Si Si1 0.527449 0.108479 0.328412
Si Si2 0.280816 0.251564 0.458191
Si Si3 0.638606 0.119888 0.333859
Si Si4 0.972678 0.610046 0.926322
Si Si5 0.280699 0.246972 0.278805
Si Si6 0.361665 0.373494 0.571494
O O1 0.500000 0.054329 0.250000
O O2 0.583594 0.094348 0.309047
O O3 0.517339 0.401390 0.358970
O O4 0.510291 0.894017 0.392714
O O5 0.250000 0.500000 0.483627
O O6 0.291342 0.243193 0.368481
O O7 0.332389 0.282853 0.497125
O O8 0.250000 0.000000 0.485699
O O9 0.667958 0.227596 0.261538
O O10 0.648033 0.325452 0.403255
O O11 0.654202 0.827581 0.360843
O O12 0.917431 0.648214 0.949839
O O13 0.000000 0.500000 0.000000
O O14 0.250000 0.500000 0.253423
O O15 0.250000 0.000000 0.251391
#
# Coordination Sequence:
#
# PCOD8223129 Si02
#       6
#     8   8   8   8   8   8
#     4  10  21  38  58  83 113 145 185 230 277 332
#     4  10  21  36  53  77 109 142 179 223 270 324
#     4  10  21  36  55  80 108 139 179 224 267 320
#     4  10  21  38  58  83 113 145 185 231 278 331
#     4  10  21  36  53  77 108 140 177 220 266 319
#     4  10  21  36  55  80 108 139 180 224 267 322
#
# _framework density 19.531272999999999
#
# number of rings (size 3 to 8) (size 9 to 14) (size 15 to 20)
#    0.000    2.000    0.000    3.000    0.000    5.333 
#    0.000    5.000    0.000    0.000    0.000    0.000 
#    0.000    0.000    0.000    0.000    0.000    0.000 
#
# Total GULP energy -595107.362248 kJ/mol
# GULP energy per Si atom -12398.070047 kJ/mol
# Density = 1.948682 g / cm^3
# Si number density = 19.531273 Si / 1000 Ang^3
#
#
#
# Elastic Constant Matrix: (Units=GPa)
#
#
# Indices 1 2 3 4 5 6 
#
# 1 94.4023 44.0763 65.5367 0.0000 0.0000 0.0000
# 2 44.0763 128.5665 27.6023 0.0000 0.0000 0.0000
# 3 65.5367 27.6023 78.2887 0.0000 0.0000 0.0000
# 4 0.0000 0.0000 0.0000 101.9280 0.0000 0.0000
# 5 0.0000 0.0000 0.0000 0.0000 32.3901 0.0000
# 6 0.0000 0.0000 0.0000 0.0000 0.0000 23.0314
#
#
#
# Elastic Compliance Matrix: (Units=1/GPa)
#
#
# Indices 1 2 3 4 5 6 
#
# 1 0.027902 -0.004924 -0.021621 0.000000 0.000000 0.000000
# 2 -0.004924 0.009284 0.000848 0.000000 0.000000 0.000000
# 3 -0.021621 0.000848 0.030573 0.000000 0.000000 0.000000
# 4 0.000000 0.000000 0.000000 0.009811 0.000000 0.000000
# 5 0.000000 0.000000 0.000000 0.000000 0.030874 0.000000
# 6 0.000000 0.000000 0.000000 0.000000 0.000000 0.043419
#
#
# Mechanical properties :
#
#
# Convention : Reuss Voigt Hill
#
# Bulk Modulus (GPa) = 61.10031 63.96536 62.53283
# Shear Modulus (GPa) = 23.95660 42.40603 33.18132
#
# Velocity S-wave (km/s) = 3.50605 4.66465 4.12622
# Velocity P-wave (km/s) = 6.90949 7.86342 7.40184
#
# Compressibility (1/GPa) = 0.01636653
#
# Stress axis : x y z
#
# Youngs Moduli (GPa) = 35.84004 107.71342 32.70809
#
# Poissons Ratio (x) = 0.53034 0.70718
# Poissons Ratio (y) = 0.17646 -0.02775
# Poissons Ratio (z) = 0.77490 -0.09139
#
# Static dielectric constant tensor:
#      x y z
#    x 3.443880 0.000000 0.000000 
#    y 0.000000 3.957500 0.000000 
#    z 0.000000 0.000000 3.271370 
# 
# 
# High freq. dielectric constant tensor:
#      x y z
#    x 1.756020 0.000000 0.000000 
#    y 0.000000 1.785880 0.000000 
#    z 0.000000 0.000000 1.748090 
# 
# From -- ./inp_files/15120.got.cif
#   From: 2010.03.12/outbox.cif.g09.slc.cpg/sg54_8_cif.got.tgz:15120.got - 2010.04.16 15:00:50.
