data_PCOD8223281
_publ_section_title
;
Structure prediction by ZEFSAII (Michael W. Deem and Ramdas Pophale) SiO2 
 PCOD8223281
Probable space group: P C C A
;
_chemical_formula_sum "Si O2"
_cell_formula_units_Z 48
_cell_length_a 12.710780
_cell_length_b 11.416514
_cell_length_c 16.638126
_cell_angle_alpha 90.000000
_cell_angle_beta 90.000000
_cell_angle_gamma 90.000000
_cell_volume 2414.405014
_symmetry_space_group_name_H-M "P C C A"
_symmetry_group_IT_number 54
_symmetry_cell_setting 'orthorhombic'
loop_
_space_group_symop_operation_xyz
x,y,z
1/2-x,-y,z
1/2+x,-y,1/2-z
-x,y,1/2-z
-x,-y,-z
1/2+x,y,-z
1/2-x,y,1/2+z
x,-y,1/2+z
loop_
_atom_site_type_symbol
_atom_site_label
_atom_site_fract_x
_atom_site_fract_y
_atom_site_fract_z
Si Si1 0.610106 0.806964 0.618852
Si Si2 0.083129 0.236987 0.316516
Si Si3 0.631125 0.775504 0.930960
Si Si4 0.287294 0.631524 0.437807
Si Si5 0.910508 0.047885 0.056659
Si Si6 0.220094 0.135908 0.730169
O O1 0.491411 0.774629 0.593770
O O2 0.685888 0.709450 0.583132
O O3 0.619166 0.828022 0.715131
O O4 0.651310 0.933367 0.586375
O O5 0.115342 0.342736 0.376654
O O6 0.043312 0.123673 0.367864
O O7 0.184641 0.204633 0.267260
O O8 0.000000 0.279751 0.250000
O O9 0.702863 0.812076 0.857480
O O10 0.670309 0.653054 0.970500
O O11 0.659883 0.866441 0.002728
O O12 0.250000 0.500000 0.428994
O O13 0.000000 0.000000 0.000000
O O14 0.250000 0.000000 0.725365
#
# Coordination Sequence:
#
# PCOD8223281 Si02
#       6
#     8   8   8   8   8   8
#     4  10  21  40  58  88 132 159 205 258 324 377
#     4  10  22  39  61  91 125 162 209 257 321 383
#     4  10  23  36  61  92 119 168 210 252 325 385
#     4  10  24  45  64  87 123 170 224 274 310 361
#     4   9  19  33  57  89 123 156 194 249 316 394
#     4  11  22  33  59  92 131 164 195 250 316 395
#
# _framework density 19.880673000000002
#
# number of rings (size 3 to 8) (size 9 to 14) (size 15 to 20)
#    0.000    2.000    1.667    0.500    7.000    3.333 
#    0.000    6.667    0.000    0.000    0.000    0.000 
#    0.000    0.000    0.000    0.000    0.000    0.000 
#
# Total GULP energy -594693.320812 kJ/mol
# GULP energy per Si atom -12389.444184 kJ/mol
# Density = 1.983542 g / cm^3
# Si number density = 19.880673 Si / 1000 Ang^3
#
#
#
# Elastic Constant Matrix: (Units=GPa)
#
#
# Indices 1 2 3 4 5 6 
#
# 1 62.6870 45.9950 50.2865 0.0000 0.0000 0.0000
# 2 45.9950 129.1870 54.5622 0.0000 0.0000 0.0000
# 3 50.2865 54.5622 145.8160 0.0000 0.0000 0.0000
# 4 0.0000 0.0000 0.0000 18.0771 0.0000 0.0000
# 5 0.0000 0.0000 0.0000 0.0000 33.6633 0.0000
# 6 0.0000 0.0000 0.0000 0.0000 0.0000 22.2742
#
#
#
# Elastic Compliance Matrix: (Units=1/GPa)
#
#
# Indices 1 2 3 4 5 6 
#
# 1 0.025938 -0.006481 -0.006520 0.000000 0.000000 0.000000
# 2 -0.006481 0.010813 -0.001811 0.000000 0.000000 0.000000
# 3 -0.006520 -0.001811 0.009784 0.000000 0.000000 0.000000
# 4 0.000000 0.000000 0.000000 0.055319 0.000000 0.000000
# 5 0.000000 0.000000 0.000000 0.000000 0.029706 0.000000
# 6 0.000000 0.000000 0.000000 0.000000 0.000000 0.044895
#
#
# Mechanical properties :
#
#
# Convention : Reuss Voigt Hill
#
# Bulk Modulus (GPa) = 59.13301 71.04192 65.08747
# Shear Modulus (GPa) = 23.61662 27.25933 25.43798
#
# Velocity S-wave (km/s) = 3.45036 3.70692 3.58094
# Velocity P-wave (km/s) = 6.75883 7.35754 7.06453
#
# Compressibility (1/GPa) = 0.01691103
#
# Stress axis : x y z
#
# Youngs Moduli (GPa) = 38.55390 92.48057 102.20700
#
# Poissons Ratio (x) = 0.59937 0.66637
# Poissons Ratio (y) = 0.24987 0.18510
# Poissons Ratio (z) = 0.25137 0.16748
#
# Static dielectric constant tensor:
#      x y z
#    x 3.264420 0.000000 0.000000 
#    y 0.000000 3.812250 0.000000 
#    z 0.000000 0.000000 4.394290 
# 
# 
# High freq. dielectric constant tensor:
#      x y z
#    x 1.770150 0.000000 0.000000 
#    y 0.000000 1.748220 0.000000 
#    z 0.000000 0.000000 1.795460 
# 
# From -- ./inp_files/13413.got.cif
#   From: 2010.03.12/outbox.cif.g09.slc.cpg/sg54_7_cif.got.tgz:13413.got - 2010.04.16 15:00:50.
