data_PCOD8223731
_publ_section_title
;
Structure prediction by ZEFSAII (Michael W. Deem and Ramdas Pophale) SiO2 
 PCOD8223731
Probable space group: P C C A
;
_chemical_formula_sum "Si O2"
_cell_formula_units_Z 24
_cell_length_a 5.371764
_cell_length_b 14.431380
_cell_length_c 12.008628
_cell_angle_alpha 90.000000
_cell_angle_beta 90.000000
_cell_angle_gamma 90.000000
_cell_volume 930.932470
_symmetry_space_group_name_H-M "P C C A"
_symmetry_group_IT_number 54
_symmetry_cell_setting 'orthorhombic'
loop_
_space_group_symop_operation_xyz
x,y,z
1/2-x,-y,z
1/2+x,-y,1/2-z
-x,y,1/2-z
-x,-y,-z
1/2+x,y,-z
1/2-x,y,1/2+z
x,-y,1/2+z
loop_
_atom_site_type_symbol
_atom_site_label
_atom_site_fract_x
_atom_site_fract_y
_atom_site_fract_z
Si Si1 0.630987 0.773760 0.128934
Si Si2 0.250000 0.500000 0.180038
Si Si3 0.634443 0.697121 0.882390
Si Si4 0.000000 0.946139 0.750000
O O1 0.367324 0.741091 0.184824
O O2 0.624138 0.884330 0.150141
O O3 0.870820 0.717704 0.179021
O O4 0.600283 0.748886 0.999701
O O5 0.500000 0.522150 0.250000
O O6 0.315879 0.412374 0.101738
O O7 0.250000 0.000000 0.706588
#
# Coordination Sequence:
#
# PCOD8223731 Si02
#       4
#     8   4   8   4
#     4  10  23  43  72  97 138 191 222 287 367 419
#     4  12  26  40  68 112 146 188 246 288 326 408
#     4  10  23  44  66 104 142 189 229 279 352 421
#     4  12  26  46  72 108 136 174 242 308 354 428
#
# _framework density 25.780602999999999
#
# number of rings (size 3 to 8) (size 9 to 14) (size 15 to 20)
#    0.000    1.333    0.000    4.000    7.000    5.333 
#    0.000   20.000    0.000    0.000    0.000    0.000 
#    0.000    0.000    0.000    0.000    0.000    0.000 
#
# Total GULP energy -297391.144769 kJ/mol
# GULP energy per Si atom -12391.297699 kJ/mol
# Density = 2.572193 g / cm^3
# Si number density = 25.780603 Si / 1000 Ang^3
#
#
#
# Elastic Constant Matrix: (Units=GPa)
#
#
# Indices 1 2 3 4 5 6 
#
# 1 272.4389 72.6518 55.2846 0.0000 0.0000 0.0000
# 2 72.6518 193.6737 40.9908 0.0000 0.0000 0.0000
# 3 55.2846 40.9908 102.1323 0.0000 0.0000 0.0000
# 4 0.0000 0.0000 0.0000 -343.2745 0.0000 0.0000
# 5 0.0000 0.0000 0.0000 0.0000 35.5205 0.0000
# 6 0.0000 0.0000 0.0000 0.0000 0.0000 65.1235
#
#
#
# Elastic Compliance Matrix: (Units=1/GPa)
#
#
# Indices 1 2 3 4 5 6 
#
# 1 0.004383 -0.001248 -0.001872 0.000000 0.000000 0.000000
# 2 -0.001248 0.005998 -0.001732 0.000000 0.000000 0.000000
# 3 -0.001872 -0.001732 0.011499 0.000000 0.000000 0.000000
# 4 0.000000 0.000000 0.000000 -0.002913 0.000000 0.000000
# 5 0.000000 0.000000 0.000000 0.000000 0.028153 0.000000
# 6 0.000000 0.000000 0.000000 0.000000 0.000000 0.015355
#
#
# Mechanical properties :
#
#
# Convention : Reuss Voigt Hill
#
# Bulk Modulus (GPa) = 82.11803 100.67768 91.39785
# Shear Modulus (GPa) = 65.58409 -21.90493 21.83958
#
# Velocity S-wave (km/s) = 5.04921 -2.91807 2.91371
# Velocity P-wave (km/s) = 8.11878 5.27096 6.84462
#
# Compressibility (1/GPa) = 0.01217759
#
# Stress axis : x y z
#
# Youngs Moduli (GPa) = 228.14389 166.72144 86.96097
#
# Poissons Ratio (x) = 0.20809 0.16277
# Poissons Ratio (y) = 0.28475 0.15059
# Poissons Ratio (z) = 0.42702 0.28871
#
# Static dielectric constant tensor:
#      x y z
#    x 6.884810 0.000000 0.000000 
#    y 0.000000 4.536070 0.000000 
#    z 0.000000 0.000000 4.583330 
# 
# 
# High freq. dielectric constant tensor:
#      x y z
#    x 2.102540 0.000000 0.000000 
#    y 0.000000 2.008970 0.000000 
#    z 0.000000 0.000000 2.065260 
# 
# From -- ./inp_files/10649.got.cif
#   From: 2010.03.12/outbox.cif.g09.slc.cpg/sg54_6_cif.got.tgz:10649.got - 2010.04.16 15:00:50.
