data_PCOD8223977
_publ_section_title
;
Structure prediction by ZEFSAII (Michael W. Deem and Ramdas Pophale) SiO2 
 PCOD8223977
Probable space group: P C C A
;
_chemical_formula_sum "Si O2"
_cell_formula_units_Z 48
_cell_length_a 14.184409
_cell_length_b 10.899231
_cell_length_c 14.127596
_cell_angle_alpha 90.000000
_cell_angle_beta 90.000000
_cell_angle_gamma 90.000000
_cell_volume 2184.114337
_symmetry_space_group_name_H-M "P C C A"
_symmetry_group_IT_number 54
_symmetry_cell_setting 'orthorhombic'
loop_
_space_group_symop_operation_xyz
x,y,z
1/2-x,-y,z
1/2+x,-y,1/2-z
-x,y,1/2-z
-x,-y,-z
1/2+x,y,-z
1/2-x,y,1/2+z
x,-y,1/2+z
loop_
_atom_site_type_symbol
_atom_site_label
_atom_site_fract_x
_atom_site_fract_y
_atom_site_fract_z
Si Si1 0.534298 0.951241 0.350948
Si Si2 0.723201 0.133681 0.795674
Si Si3 0.883869 0.797904 0.417242
Si Si4 0.640013 0.466977 0.731986
Si Si5 0.859930 0.787091 0.622797
Si Si6 0.012262 0.554427 0.104620
O O1 0.500000 0.005555 0.250000
O O2 0.617264 0.849821 0.335611
O O3 0.451690 0.871472 0.396186
O O4 0.567178 0.067635 0.413802
O O5 0.801413 0.223864 0.839198
O O6 0.721758 0.142398 0.681133
O O7 0.750000 0.000000 0.829954
O O8 0.828440 0.765653 0.515251
O O9 0.962898 0.697072 0.400793
O O10 0.750000 0.500000 0.738703
O O11 0.621726 0.332879 0.686969
O O12 0.591081 0.477431 0.835712
O O13 0.587653 0.557544 0.659078
O O14 0.000000 0.500000 0.000000
#
# Coordination Sequence:
#
# PCOD8223977 Si02
#       6
#     8   8   8   8   8   8
#     4   9  21  38  68  98 137 178 216 282 349 409
#     4   9  21  39  63  98 136 172 219 280 341 410
#     4  11  22  43  66 103 135 175 233 279 341 413
#     4  11  26  47  69  96 140 183 229 282 348 410
#     4  11  22  43  67  96 132 179 227 277 352 410
#     4  11  25  45  70 102 136 179 237 287 340 410
#
# _framework density 21.976872
#
# number of rings (size 3 to 8) (size 9 to 14) (size 15 to 20)
#    0.000    1.667    1.667    1.500    9.333    2.667 
#    9.000    0.000    0.000    0.000    0.000    0.000 
#    0.000    0.000    0.000    0.000    0.000    0.000 
#
# Total GULP energy -594656.988482 kJ/mol
# GULP energy per Si atom -12388.687260 kJ/mol
# Density = 2.192685 g / cm^3
# Si number density = 21.976872 Si / 1000 Ang^3
#
#
#
# Elastic Constant Matrix: (Units=GPa)
#
#
# Indices 1 2 3 4 5 6 
#
# 1 139.1374 39.9133 67.2505 0.0000 0.0000 0.0000
# 2 39.9133 99.5019 38.1224 0.0000 0.0000 0.0000
# 3 67.2505 38.1224 151.4112 0.0000 0.0000 0.0000
# 4 0.0000 0.0000 0.0000 30.5497 0.0000 0.0000
# 5 0.0000 0.0000 0.0000 0.0000 31.5832 0.0000
# 6 0.0000 0.0000 0.0000 0.0000 0.0000 18.8334
#
#
#
# Elastic Compliance Matrix: (Units=1/GPa)
#
#
# Indices 1 2 3 4 5 6 
#
# 1 0.009672 -0.002472 -0.003673 0.000000 0.000000 0.000000
# 2 -0.002472 0.011755 -0.001862 0.000000 0.000000 0.000000
# 3 -0.003673 -0.001862 0.008705 0.000000 0.000000 0.000000
# 4 0.000000 0.000000 0.000000 0.032734 0.000000 0.000000
# 5 0.000000 0.000000 0.000000 0.000000 0.031662 0.000000
# 6 0.000000 0.000000 0.000000 0.000000 0.000000 0.053097
#
#
# Mechanical properties :
#
#
# Convention : Reuss Voigt Hill
#
# Bulk Modulus (GPa) = 70.83578 75.62478 73.23028
# Shear Modulus (GPa) = 29.70091 32.51087 31.10589
#
# Velocity S-wave (km/s) = 3.68021 3.85037 3.76625
# Velocity P-wave (km/s) = 7.09652 7.36566 7.23234
#
# Compressibility (1/GPa) = 0.01411716
#
# Stress axis : x y z
#
# Youngs Moduli (GPa) = 103.39323 85.07016 114.87936
#
# Poissons Ratio (x) = 0.21032 0.42199
# Poissons Ratio (y) = 0.25562 0.21386
# Poissons Ratio (z) = 0.37980 0.15837
#
# Static dielectric constant tensor:
#      x y z
#    x 4.347430 0.000000 0.000000 
#    y 0.000000 3.924910 0.000000 
#    z 0.000000 0.000000 4.167810 
# 
# 
# High freq. dielectric constant tensor:
#      x y z
#    x 1.861150 0.000000 0.000000 
#    y 0.000000 1.860240 0.000000 
#    z 0.000000 0.000000 1.871310 
# 
# From -- ./inp_files/13405.got.cif
#   From: 2010.03.12/outbox.cif.g09.slc.cpg/sg54_7_cif.got.tgz:13405.got - 2010.04.16 15:00:50.
