data_PCOD8223643
_publ_section_title
;
Structure prediction by ZEFSAII (Michael W. Deem and Ramdas Pophale) SiO2 
 PCOD8223643
Probable space group: P C C A
;
_chemical_formula_sum "Si O2"
_cell_formula_units_Z 32
_cell_length_a 12.684979
_cell_length_b 5.034521
_cell_length_c 24.724230
_cell_angle_alpha 90.000000
_cell_angle_beta 90.000000
_cell_angle_gamma 90.000000
_cell_volume 1578.958387
_symmetry_space_group_name_H-M "P C C A"
_symmetry_group_IT_number 54
_symmetry_cell_setting 'orthorhombic'
loop_
_space_group_symop_operation_xyz
x,y,z
1/2-x,-y,z
1/2+x,-y,1/2-z
-x,y,1/2-z
-x,-y,-z
1/2+x,y,-z
1/2-x,y,1/2+z
x,-y,1/2+z
loop_
_atom_site_type_symbol
_atom_site_label
_atom_site_fract_x
_atom_site_fract_y
_atom_site_fract_z
Si Si1 0.250000 0.000000 0.477437
Si Si2 0.250000 0.500000 0.047970
Si Si3 0.938821 0.590531 0.373776
Si Si4 0.354644 0.330282 0.891176
Si Si5 0.505466 0.888907 0.313238
O O1 0.208550 0.749645 0.512461
O O2 0.342759 0.882767 0.439515
O O3 0.345703 0.393390 0.083412
O O4 0.048876 0.530195 0.405485
O O5 0.919658 0.360836 0.328623
O O6 0.941625 0.863447 0.342062
O O7 0.250000 0.500000 0.880657
O O8 0.387120 0.166858 0.836764
O O9 0.500000 0.938737 0.250000
#
# Coordination Sequence:
#
# PCOD8223643 Si02
#       5
#     4   4   8   8   8
#     4  12  24  42  68  92 134 178 224 256 342 370
#     4  12  26  44  64  98 132 184 210 276 326 382
#     4  10  24  43  67  94 139 159 231 263 324 392
#     4  10  23  45  64 101 128 171 220 276 307 409
#     4  10  22  44  71  96 131 172 210 278 333 386
#
# _framework density 20.266525999999999
#
# number of rings (size 3 to 8) (size 9 to 14) (size 15 to 20)
#    1.500    0.000    1.250    3.750    0.000    2.000 
#    2.250    2.500    0.000    0.000    0.000    0.000 
#    0.000    0.000    0.000    0.000    0.000    0.000 
#
# Total GULP energy -396496.284088 kJ/mol
# GULP energy per Si atom -12390.508878 kJ/mol
# Density = 2.022040 g / cm^3
# Si number density = 20.266526 Si / 1000 Ang^3
#
#
#
# Elastic Constant Matrix: (Units=GPa)
#
#
# Indices 1 2 3 4 5 6 
#
# 1 108.5768 43.1833 65.5648 0.0000 0.0000 0.0000
# 2 43.1833 150.0665 57.7302 0.0000 0.0000 0.0000
# 3 65.5648 57.7302 142.5778 0.0000 0.0000 0.0000
# 4 0.0000 0.0000 0.0000 10.5827 0.0000 0.0000
# 5 0.0000 0.0000 0.0000 0.0000 21.5654 0.0000
# 6 0.0000 0.0000 0.0000 0.0000 0.0000 11.3253
#
#
#
# Elastic Compliance Matrix: (Units=1/GPa)
#
#
# Indices 1 2 3 4 5 6 
#
# 1 0.013116 -0.001722 -0.005334 0.000000 0.000000 0.000000
# 2 -0.001722 0.008119 -0.002496 0.000000 0.000000 0.000000
# 3 -0.005334 -0.002496 0.010477 0.000000 0.000000 0.000000
# 4 0.000000 0.000000 0.000000 0.094494 0.000000 0.000000
# 5 0.000000 0.000000 0.000000 0.000000 0.046371 0.000000
# 6 0.000000 0.000000 0.000000 0.000000 0.000000 0.088298
#
#
# Mechanical properties :
#
#
# Convention : Reuss Voigt Hill
#
# Bulk Modulus (GPa) = 79.31080 81.57531 80.44306
# Shear Modulus (GPa) = 17.59441 24.34421 20.96931
#
# Velocity S-wave (km/s) = 2.94964 3.46960 3.22013
# Velocity P-wave (km/s) = 7.12877 7.50929 7.32150
#
# Compressibility (1/GPa) = 0.01260862
#
# Stress axis : x y z
#
# Youngs Moduli (GPa) = 76.24215 123.16256 95.44646
#
# Poissons Ratio (x) = 0.21212 0.50912
# Poissons Ratio (y) = 0.13131 0.23819
# Poissons Ratio (z) = 0.40668 0.30736
#
# Static dielectric constant tensor:
#      x y z
#    x 3.362220 0.000000 0.000000 
#    y 0.000000 3.920350 0.000000 
#    z 0.000000 0.000000 3.675070 
# 
# 
# High freq. dielectric constant tensor:
#      x y z
#    x 1.765010 0.000000 0.000000 
#    y 0.000000 1.817750 0.000000 
#    z 0.000000 0.000000 1.782510 
# 
# From -- ./inp_files/26010.got.cif
#   From: 2010.03.12/outbox.cif.g09.slc.cpg/sg54_14_cif.got.tgz:26010.got - 2010.04.16 15:00:50.
