data_PCOD8223019
_publ_section_title
;
Structure prediction by ZEFSAII (Michael W. Deem and Ramdas Pophale) SiO2 
 PCOD8223019
Probable space group: P C C A
;
_chemical_formula_sum "Si O2"
_cell_formula_units_Z 48
_cell_length_a 18.731679
_cell_length_b 7.675733
_cell_length_c 16.676570
_cell_angle_alpha 90.000000
_cell_angle_beta 90.000000
_cell_angle_gamma 90.000000
_cell_volume 2397.746672
_symmetry_space_group_name_H-M "P C C A"
_symmetry_group_IT_number 54
_symmetry_cell_setting 'orthorhombic'
loop_
_space_group_symop_operation_xyz
x,y,z
1/2-x,-y,z
1/2+x,-y,1/2-z
-x,y,1/2-z
-x,-y,-z
1/2+x,y,-z
1/2-x,y,1/2+z
x,-y,1/2+z
loop_
_atom_site_type_symbol
_atom_site_label
_atom_site_fract_x
_atom_site_fract_y
_atom_site_fract_z
Si Si1 0.959732 0.338965 0.034778
Si Si2 0.540557 0.165118 0.825633
Si Si3 0.680695 0.590772 0.133859
Si Si4 0.610597 0.713970 0.715421
Si Si5 0.177245 0.926511 0.760128
Si Si6 0.527318 0.781802 0.865543
O O1 0.882288 0.381027 0.070112
O O2 0.019040 0.270899 0.096442
O O3 0.948722 0.211914 0.958273
O O4 0.000000 0.500000 0.000000
O O5 0.500000 0.252549 0.750000
O O6 0.625816 0.155208 0.808768
O O7 0.508538 0.974322 0.836233
O O8 0.750000 0.500000 0.091093
O O9 0.663253 0.447529 0.202235
O O10 0.695805 0.778271 0.174344
O O11 0.589541 0.703003 0.809350
O O12 0.545291 0.676272 0.653462
O O13 0.641947 0.906282 0.695896
O O14 0.250000 0.000000 0.719706
#
# Coordination Sequence:
#
# PCOD8223019 Si02
#       6
#     8   8   8   8   8   8
#     4  12  25  38  62 100 138 171 219 273 332 399
#     4  11  21  40  68  96 125 174 229 274 329 403
#     4  12  24  40  65  96 133 180 218 270 343 404
#     4  10  20  39  67  93 121 169 223 272 328 394
#     4  11  22  40  65  98 125 168 232 279 327 392
#     4  10  20  40  65  95 126 164 220 282 329 386
#
# _framework density 20.018795000000001
#
# number of rings (size 3 to 8) (size 9 to 14) (size 15 to 20)
#    0.000    1.000    8.333    0.500    2.333    0.000 
#    0.000    4.167    0.000    1.000    0.000    0.000 
#    0.000    0.000    0.000    0.000    0.000    0.000 
#
# Total GULP energy -594759.338293 kJ/mol
# GULP energy per Si atom -12390.819548 kJ/mol
# Density = 1.997323 g / cm^3
# Si number density = 20.018795 Si / 1000 Ang^3
#
#
#
# Elastic Constant Matrix: (Units=GPa)
#
#
# Indices 1 2 3 4 5 6 
#
# 1 150.8583 37.1327 56.2948 0.0000 0.0000 0.0000
# 2 37.1327 77.6629 35.8099 0.0000 0.0000 0.0000
# 3 56.2948 35.8099 136.7363 0.0000 0.0000 0.0000
# 4 0.0000 0.0000 0.0000 29.1306 0.0000 0.0000
# 5 0.0000 0.0000 0.0000 0.0000 25.1019 0.0000
# 6 0.0000 0.0000 0.0000 0.0000 0.0000 30.3180
#
#
#
# Elastic Compliance Matrix: (Units=1/GPa)
#
#
# Indices 1 2 3 4 5 6 
#
# 1 0.008310 -0.002725 -0.002708 0.000000 0.000000 0.000000
# 2 -0.002725 0.015538 -0.002947 0.000000 0.000000 0.000000
# 3 -0.002708 -0.002947 0.009200 0.000000 0.000000 0.000000
# 4 0.000000 0.000000 0.000000 0.034328 0.000000 0.000000
# 5 0.000000 0.000000 0.000000 0.000000 0.039838 0.000000
# 6 0.000000 0.000000 0.000000 0.000000 0.000000 0.032984
#
#
# Mechanical properties :
#
#
# Convention : Reuss Voigt Hill
#
# Bulk Modulus (GPa) = 61.39404 69.30359 65.34882
# Shear Modulus (GPa) = 30.79082 32.64478 31.71780
#
# Velocity S-wave (km/s) = 3.92611 4.04258 3.98477
# Velocity P-wave (km/s) = 7.16151 7.51561 7.34070
#
# Compressibility (1/GPa) = 0.01628823
#
# Stress axis : x y z
#
# Youngs Moduli (GPa) = 120.34031 64.35849 108.69577
#
# Poissons Ratio (x) = 0.17536 0.29430
# Poissons Ratio (y) = 0.32789 0.32038
# Poissons Ratio (z) = 0.32583 0.18970
#
# Static dielectric constant tensor:
#      x y z
#    x 3.888940 0.000000 0.000000 
#    y 0.000000 3.842840 0.000000 
#    z 0.000000 0.000000 2.915230 
# 
# 
# High freq. dielectric constant tensor:
#      x y z
#    x 1.782530 0.000000 0.000000 
#    y 0.000000 1.797820 0.000000 
#    z 0.000000 0.000000 1.752240 
# 
# From -- ./inp_files/14146.got.cif
#   From: 2010.03.12/outbox.cif.g09.slc.cpg/sg54_8_cif.got.tgz:14146.got - 2010.04.16 15:00:50.
