data_PCOD8223695
_publ_section_title
;
Structure prediction by ZEFSAII (Michael W. Deem and Ramdas Pophale) SiO2 
 PCOD8223695
Probable space group: P C C A
;
_chemical_formula_sum "Si O2"
_cell_formula_units_Z 56
_cell_length_a 14.559074
_cell_length_b 9.233011
_cell_length_c 20.234540
_cell_angle_alpha 90.000000
_cell_angle_beta 90.000000
_cell_angle_gamma 90.000000
_cell_volume 2720.009634
_symmetry_space_group_name_H-M "P C C A"
_symmetry_group_IT_number 54
_symmetry_cell_setting 'orthorhombic'
loop_
_space_group_symop_operation_xyz
x,y,z
1/2-x,-y,z
1/2+x,-y,1/2-z
-x,y,1/2-z
-x,-y,-z
1/2+x,y,-z
1/2-x,y,1/2+z
x,-y,1/2+z
loop_
_atom_site_type_symbol
_atom_site_label
_atom_site_fract_x
_atom_site_fract_y
_atom_site_fract_z
Si Si1 0.213130 0.837938 0.461447
Si Si2 0.099892 0.713837 0.223581
Si Si3 0.853194 0.041525 0.867008
Si Si4 0.666098 0.607364 0.642162
Si Si5 0.398874 0.762255 0.513485
Si Si6 0.062827 0.205700 0.072845
Si Si7 0.035682 0.471633 0.604572
O O1 0.176195 0.760596 0.395431
O O2 0.295751 0.738612 0.488631
O O3 0.133106 0.840439 0.515190
O O4 0.250000 0.000000 0.446141
O O5 0.145292 0.865350 0.200031
O O6 0.162774 0.644147 0.280163
O O7 0.093351 0.600371 0.163786
O O8 0.000000 0.754020 0.250000
O O9 0.901950 0.130777 0.924932
O O10 0.750000 0.000000 0.886670
O O11 0.914546 0.895130 0.863371
O O12 0.750000 0.500000 0.627924
O O13 0.573039 0.527555 0.618997
O O14 0.460230 0.824171 0.453489
O O15 0.443388 0.609712 0.535606
O O16 0.075312 0.368295 0.097605
#
# Coordination Sequence:
#
# PCOD8223695 Si02
#       7
#     8   8   8   8   8   8   8
#     4  12  25  39  61  99 133 166 212 264 330 395
#     4   9  23  46  66  84 122 174 218 261 321 370
#     4  11  22  41  63  94 130 168 217 260 317 390
#     4  11  24  45  64  93 130 169 222 270 322 391
#     4  11  21  39  61  95 136 170 201 262 328 385
#     4  12  22  38  63  99 133 157 214 265 322 390
#     4  10  23  41  66  93 126 173 213 262 323 387
#
# _framework density 20.588160999999999
#
# number of rings (size 3 to 8) (size 9 to 14) (size 15 to 20)
#    0.000    1.143    4.286    1.714    2.000    1.714 
#    0.000    3.571    0.000    0.000    0.000    0.000 
#    0.000    0.000    0.000    0.000    0.000    0.000 
#
# Total GULP energy -694516.375367 kJ/mol
# GULP energy per Si atom -12402.078132 kJ/mol
# Density = 2.054130 g / cm^3
# Si number density = 20.588161 Si / 1000 Ang^3
#
#
#
# Elastic Constant Matrix: (Units=GPa)
#
#
# Indices 1 2 3 4 5 6 
#
# 1 55.5673 21.9341 9.1029 0.0000 0.0000 0.0000
# 2 21.9341 131.1004 25.1441 0.0000 0.0000 0.0000
# 3 9.1029 25.1441 55.0445 0.0000 0.0000 0.0000
# 4 0.0000 0.0000 0.0000 25.9483 0.0000 0.0000
# 5 0.0000 0.0000 0.0000 0.0000 26.4838 0.0000
# 6 0.0000 0.0000 0.0000 0.0000 0.0000 34.8655
#
#
#
# Elastic Compliance Matrix: (Units=1/GPa)
#
#
# Indices 1 2 3 4 5 6 
#
# 1 0.019448 -0.002890 -0.001896 0.000000 0.000000 0.000000
# 2 -0.002890 0.008790 -0.003537 0.000000 0.000000 0.000000
# 3 -0.001896 -0.003537 0.020096 0.000000 0.000000 0.000000
# 4 0.000000 0.000000 0.000000 0.038538 0.000000 0.000000
# 5 0.000000 0.000000 0.000000 0.000000 0.037759 0.000000
# 6 0.000000 0.000000 0.000000 0.000000 0.000000 0.028682
#
#
# Mechanical properties :
#
#
# Convention : Reuss Voigt Hill
#
# Bulk Modulus (GPa) = 31.55833 39.34158 35.44996
# Shear Modulus (GPa) = 27.69758 29.82826 28.76292
#
# Velocity S-wave (km/s) = 3.67183 3.81045 3.74178
# Velocity P-wave (km/s) = 5.77392 6.20562 5.99366
#
# Compressibility (1/GPa) = 0.03168735
#
# Stress axis : x y z
#
# Youngs Moduli (GPa) = 51.42023 113.76980 49.76016
#
# Poissons Ratio (x) = 0.32881 0.09434
# Poissons Ratio (y) = 0.14861 0.17601
# Poissons Ratio (z) = 0.09749 0.40242
#
# Static dielectric constant tensor:
#      x y z
#    x 3.739160 0.000000 0.000000 
#    y 0.000000 3.898350 0.000000 
#    z 0.000000 0.000000 3.758240 
# 
# 
# High freq. dielectric constant tensor:
#      x y z
#    x 1.810830 0.000000 0.000000 
#    y 0.000000 1.812250 0.000000 
#    z 0.000000 0.000000 1.791310 
# 
# From -- ./inp_files/21626.got.cif
#   From: 2010.03.12/outbox.cif.g09.slc.cpg/sg54_11_cif.got.tgz:21626.got - 2010.04.16 15:00:50.
