data_PCOD8223226
_publ_section_title
;
Structure prediction by ZEFSAII (Michael W. Deem and Ramdas Pophale) SiO2 
 PCOD8223226
Probable space group: P C C A
;
_chemical_formula_sum "Si O2"
_cell_formula_units_Z 60
_cell_length_a 18.299298
_cell_length_b 16.381414
_cell_length_c 8.798740
_cell_angle_alpha 90.000000
_cell_angle_beta 90.000000
_cell_angle_gamma 90.000000
_cell_volume 2637.584005
_symmetry_space_group_name_H-M "P C C A"
_symmetry_group_IT_number 54
_symmetry_cell_setting 'orthorhombic'
loop_
_space_group_symop_operation_xyz
x,y,z
1/2-x,-y,z
1/2+x,-y,1/2-z
-x,y,1/2-z
-x,-y,-z
1/2+x,y,-z
1/2-x,y,1/2+z
x,-y,1/2+z
loop_
_atom_site_type_symbol
_atom_site_label
_atom_site_fract_x
_atom_site_fract_y
_atom_site_fract_z
Si Si1 0.854307 0.215143 0.356437
Si Si2 0.380958 0.615498 0.507858
Si Si3 0.585651 0.051740 0.749813
Si Si4 0.920177 0.475217 0.695554
Si Si5 0.459300 0.324016 0.488654
Si Si6 0.215794 0.235878 0.468931
Si Si7 0.000000 0.794570 0.250000
Si Si8 0.883752 0.895925 0.415005
O O1 0.894794 0.127786 0.359911
O O2 0.916513 0.286330 0.365968
O O3 0.805757 0.222147 0.205556
O O4 0.802598 0.227997 0.504171
O O5 0.378481 0.566800 0.666084
O O6 0.375225 0.552379 0.367074
O O7 0.453500 0.670795 0.484679
O O8 0.310787 0.673526 0.512397
O O9 0.500000 0.033434 0.750000
O O10 0.609510 0.067709 0.580873
O O11 0.630623 0.971845 0.803088
O O12 0.929122 0.413109 0.553751
O O13 0.000000 0.505325 0.750000
O O14 0.445338 0.262940 0.346515
O O15 0.182103 0.168449 0.583500
O O16 0.042489 0.850156 0.130653
#
# Coordination Sequence:
#
# PCOD8223226 Si02
#       8
#     8   8   8   8   8   8   4   8
#     4  11  29  44  71  98 143 187 242 291 355 434
#     4  11  23  42  71 102 140 172 239 284 363 420
#     4  11  24  43  67 108 137 176 233 295 360 408
#     4  10  21  38  66 105 135 170 225 289 359 414
#     4  11  21  40  70 102 131 189 224 298 347 421
#     4  11  27  48  67  99 139 193 234 289 357 439
#     4  12  20  38  70 104 144 182 226 294 350 430
#     4  11  24  41  68 102 138 178 230 283 350 420
#
# _framework density 22.748090000000001
#
# number of rings (size 3 to 8) (size 9 to 14) (size 15 to 20)
#    0.000    1.067    4.000    2.800   11.200    0.533 
#    0.000    3.333    0.000    0.000    0.000    0.000 
#    0.000    0.000    0.000    0.000    0.000    0.000 
#
# Total GULP energy -744082.227946 kJ/mol
# GULP energy per Si atom -12401.370466 kJ/mol
# Density = 2.269631 g / cm^3
# Si number density = 22.748090 Si / 1000 Ang^3
#
#
#
# Elastic Constant Matrix: (Units=GPa)
#
#
# Indices 1 2 3 4 5 6 
#
# 1 62.0824 31.3611 20.1575 0.0000 0.0000 0.0000
# 2 31.3611 139.5677 37.4589 0.0000 0.0000 0.0000
# 3 20.1575 37.4589 73.2490 0.0000 0.0000 0.0000
# 4 0.0000 0.0000 0.0000 36.4631 0.0000 0.0000
# 5 0.0000 0.0000 0.0000 0.0000 35.1268 0.0000
# 6 0.0000 0.0000 0.0000 0.0000 0.0000 15.8540
#
#
#
# Elastic Compliance Matrix: (Units=1/GPa)
#
#
# Indices 1 2 3 4 5 6 
#
# 1 0.018920 -0.003308 -0.003515 0.000000 0.000000 0.000000
# 2 -0.003308 0.008883 -0.003632 0.000000 0.000000 0.000000
# 3 -0.003515 -0.003632 0.016477 0.000000 0.000000 0.000000
# 4 0.000000 0.000000 0.000000 0.027425 0.000000 0.000000
# 5 0.000000 0.000000 0.000000 0.000000 0.028468 0.000000
# 6 0.000000 0.000000 0.000000 0.000000 0.000000 0.063075
#
#
# Mechanical properties :
#
#
# Convention : Reuss Voigt Hill
#
# Bulk Modulus (GPa) = 42.79108 50.31711 46.55409
# Shear Modulus (GPa) = 26.04854 29.88357 27.96605
#
# Velocity S-wave (km/s) = 3.38758 3.62840 3.51006
# Velocity P-wave (km/s) = 5.84403 6.30246 6.07757
#
# Compressibility (1/GPa) = 0.02336936
#
# Stress axis : x y z
#
# Youngs Moduli (GPa) = 52.85437 112.57185 60.69085
#
# Poissons Ratio (x) = 0.37238 0.21332
# Poissons Ratio (y) = 0.17484 0.22046
# Poissons Ratio (z) = 0.18578 0.40891
#
# Static dielectric constant tensor:
#      x y z
#    x 3.963150 0.000000 0.000000 
#    y 0.000000 4.398800 0.000000 
#    z 0.000000 0.000000 4.145840 
# 
# 
# High freq. dielectric constant tensor:
#      x y z
#    x 1.858890 0.000000 0.000000 
#    y 0.000000 1.916030 0.000000 
#    z 0.000000 0.000000 1.903600 
# 
# From -- ./inp_files/4369.got.cif
#   From: 2010.03.12/outbox.cif.g09.slc.cpg/sg54_3_cif.got.tgz:4369.got - 2010.04.16 15:00:50.
