data_PCOD8223934
_publ_section_title
;
Structure prediction by ZEFSAII (Michael W. Deem and Ramdas Pophale) SiO2 
 PCOD8223934
Probable space group: P C C A
;
_chemical_formula_sum "Si O2"
_cell_formula_units_Z 48
_cell_length_a 8.755091
_cell_length_b 9.309326
_cell_length_c 28.255033
_cell_angle_alpha 90.000000
_cell_angle_beta 90.000000
_cell_angle_gamma 90.000000
_cell_volume 2302.898104
_symmetry_space_group_name_H-M "P C C A"
_symmetry_group_IT_number 54
_symmetry_cell_setting 'orthorhombic'
loop_
_space_group_symop_operation_xyz
x,y,z
1/2-x,-y,z
1/2+x,-y,1/2-z
-x,y,1/2-z
-x,-y,-z
1/2+x,y,-z
1/2-x,y,1/2+z
x,-y,1/2+z
loop_
_atom_site_type_symbol
_atom_site_label
_atom_site_fract_x
_atom_site_fract_y
_atom_site_fract_z
Si Si1 0.588392 0.574532 0.958482
Si Si2 0.429021 0.480824 0.142983
Si Si3 0.431064 0.009510 0.860072
Si Si4 0.575822 0.782987 0.798616
Si Si5 0.436261 0.245025 0.698213
Si Si6 0.587277 0.922648 0.957180
O O1 0.750000 0.500000 0.959965
O O2 0.502158 0.522898 0.910174
O O3 0.600311 0.749382 0.964004
O O4 0.500000 0.500000 0.000000
O O5 0.250000 0.500000 0.136721
O O6 0.479182 0.328285 0.162407
O O7 0.481459 0.594494 0.182400
O O8 0.503140 0.931700 0.814455
O O9 0.495250 0.952831 0.909365
O O10 0.250000 0.000000 0.861149
O O11 0.485647 0.168453 0.847052
O O12 0.500000 0.735069 0.750000
O O13 0.758100 0.790068 0.797397
O O14 0.500000 0.210010 0.750000
O O15 0.750000 0.000000 0.952638
O O16 0.500000 0.000000 0.000000
#
# Coordination Sequence:
#
# PCOD8223934 Si02
#       6
#     8   8   8   8   8   8
#     4  11  24  45  71 102 137 180 225 277 343 412
#     4   9  21  40  66  94 131 172 222 269 341 406
#     4  12  26  43  65  97 134 175 230 277 338 403
#     4  11  21  41  67  93 132 174 220 280 335 405
#     4  11  23  41  65  98 132 179 224 280 341 403
#     4  12  26  46  74 104 139 181 227 283 345 410
#
# _framework density 20.843302000000001
#
# number of rings (size 3 to 8) (size 9 to 14) (size 15 to 20)
#    0.000    1.000    1.667    5.000    7.000    0.000 
#    0.000    2.500    0.000    0.000    0.000    0.000 
#    0.000    0.000    0.000    0.000    0.000    0.000 
#
# Total GULP energy -594682.392921 kJ/mol
# GULP energy per Si atom -12389.216519 kJ/mol
# Density = 2.079586 g / cm^3
# Si number density = 20.843302 Si / 1000 Ang^3
#
#
#
# Elastic Constant Matrix: (Units=GPa)
#
#
# Indices 1 2 3 4 5 6 
#
# 1 128.3480 45.6683 58.1177 0.0000 0.0000 0.0000
# 2 45.6683 108.2000 47.4552 0.0000 0.0000 0.0000
# 3 58.1177 47.4552 166.4552 0.0000 0.0000 0.0000
# 4 0.0000 0.0000 0.0000 -29.5871 0.0000 0.0000
# 5 0.0000 0.0000 0.0000 0.0000 -26.6033 0.0000
# 6 0.0000 0.0000 0.0000 0.0000 0.0000 25.0756
#
#
#
# Elastic Compliance Matrix: (Units=1/GPa)
#
#
# Indices 1 2 3 4 5 6 
#
# 1 0.010090 -0.003101 -0.002639 0.000000 0.000000 0.000000
# 2 -0.003101 0.011516 -0.002200 0.000000 0.000000 0.000000
# 3 -0.002639 -0.002200 0.007556 0.000000 0.000000 0.000000
# 4 0.000000 0.000000 0.000000 -0.033799 0.000000 0.000000
# 5 0.000000 0.000000 0.000000 0.000000 -0.037589 0.000000
# 6 0.000000 0.000000 0.000000 0.000000 0.000000 0.039879
#
#
# Mechanical properties :
#
#
# Convention : Reuss Voigt Hill
#
# Bulk Modulus (GPa) = 75.29308 78.38727 76.84018
# Shear Modulus (GPa) = 278.37775 10.56118 144.46946
#
# Velocity S-wave (km/s) = 11.56924 2.25343 8.33443
# Velocity P-wave (km/s) = 14.65145 6.66784 11.38255
#
# Compressibility (1/GPa) = 0.01328143
#
# Stress axis : x y z
#
# Youngs Moduli (GPa) = 99.11184 86.83451 132.34152
#
# Poissons Ratio (x) = 0.26930 0.34920
# Poissons Ratio (y) = 0.30737 0.29120
# Poissons Ratio (z) = 0.26152 0.19107
#
# Static dielectric constant tensor:
#      x y z
#    x 3.550170 0.000000 0.000000 
#    y 0.000000 3.936960 0.000000 
#    z 0.000000 0.000000 4.514020 
# 
# 
# High freq. dielectric constant tensor:
#      x y z
#    x 1.804600 0.000000 0.000000 
#    y 0.000000 1.834890 0.000000 
#    z 0.000000 0.000000 1.840950 
# 
# From -- ./inp_files/27695.got.cif
#   From: 2010.03.12/outbox.cif.g09.slc.cpg/sg54_14_cif.got.tgz:27695.got - 2010.04.16 15:00:50.
