data_PCOD8223442
_publ_section_title
;
Structure prediction by ZEFSAII (Michael W. Deem and Ramdas Pophale) SiO2 
 PCOD8223442
Probable space group: P C C A
;
_chemical_formula_sum "Si O2"
_cell_formula_units_Z 32
_cell_length_a 8.213143
_cell_length_b 12.250789
_cell_length_c 14.227223
_cell_angle_alpha 90.000000
_cell_angle_beta 90.000000
_cell_angle_gamma 90.000000
_cell_volume 1431.507353
_symmetry_space_group_name_H-M "P C C A"
_symmetry_group_IT_number 54
_symmetry_cell_setting 'orthorhombic'
loop_
_space_group_symop_operation_xyz
x,y,z
1/2-x,-y,z
1/2+x,-y,1/2-z
-x,y,1/2-z
-x,-y,-z
1/2+x,y,-z
1/2-x,y,1/2+z
x,-y,1/2+z
loop_
_atom_site_type_symbol
_atom_site_label
_atom_site_fract_x
_atom_site_fract_y
_atom_site_fract_z
Si Si1 0.704047 0.738790 0.052048
Si Si2 0.821068 0.885820 0.207086
Si Si3 0.000000 0.433398 0.250000
Si Si4 0.250000 0.500000 0.386295
Si Si5 0.144742 0.244522 0.139173
O O1 0.831557 0.802662 0.118639
O O2 0.736478 0.608922 0.052980
O O3 0.527978 0.775464 0.088902
O O4 0.719633 0.764200 0.941986
O O5 0.691033 0.846820 0.285398
O O6 0.000000 0.896614 0.250000
O O7 0.750000 0.000000 0.169638
O O8 0.910626 0.511897 0.177299
O O9 0.865293 0.358608 0.303650
#
# Coordination Sequence:
#
# PCOD8223442 Si02
#       5
#     8   8   4   4   8
#     4  11  24  41  66 102 133 180 224 274 333 398
#     4  12  25  45  71  97 133 177 223 282 339 396
#     4  10  22  40  66  90 146 176 216 278 322 410
#     4  10  22  38  64  98 136 178 222 268 332 394
#     4  11  22  45  65  98 139 174 224 274 329 397
#
# _framework density 22.354058999999999
#
# number of rings (size 3 to 8) (size 9 to 14) (size 15 to 20)
#    0.000    1.000    5.000    3.000    1.750    8.000 
#    0.000    5.000    0.000    0.000    0.000    0.000 
#    0.000    0.000    0.000    0.000    0.000    0.000 
#
# Total GULP energy -396702.291884 kJ/mol
# GULP energy per Si atom -12396.946621 kJ/mol
# Density = 2.230318 g / cm^3
# Si number density = 22.354059 Si / 1000 Ang^3
#
#
#
# Elastic Constant Matrix: (Units=GPa)
#
#
# Indices 1 2 3 4 5 6 
#
# 1 69.7716 22.7930 3.6599 0.0000 0.0000 0.0000
# 2 22.7930 95.5866 30.9115 0.0000 0.0000 0.0000
# 3 3.6599 30.9115 116.1389 0.0000 0.0000 0.0000
# 4 0.0000 0.0000 0.0000 -36.9563 0.0000 0.0000
# 5 0.0000 0.0000 0.0000 0.0000 38.4452 0.0000
# 6 0.0000 0.0000 0.0000 0.0000 0.0000 29.4902
#
#
#
# Elastic Compliance Matrix: (Units=1/GPa)
#
#
# Indices 1 2 3 4 5 6 
#
# 1 0.015575 -0.003890 0.000545 0.000000 0.000000 0.000000
# 2 -0.003890 0.012419 -0.003183 0.000000 0.000000 0.000000
# 3 0.000545 -0.003183 0.009440 0.000000 0.000000 0.000000
# 4 0.000000 0.000000 0.000000 -0.027059 0.000000 0.000000
# 5 0.000000 0.000000 0.000000 0.000000 0.026011 0.000000
# 6 0.000000 0.000000 0.000000 0.000000 0.000000 0.033910
#
#
# Mechanical properties :
#
#
# Convention : Reuss Voigt Hill
#
# Bulk Modulus (GPa) = 41.02179 44.02510 42.52345
# Shear Modulus (GPa) = 54.65845 21.13802 37.89824
#
# Velocity S-wave (km/s) = 4.95018 3.07840 4.12195
# Velocity P-wave (km/s) = 7.14585 5.68969 6.45894
#
# Compressibility (1/GPa) = 0.02437729
#
# Stress axis : x y z
#
# Youngs Moduli (GPa) = 64.20677 80.52479 105.92846
#
# Poissons Ratio (x) = 0.31324 -0.05768
# Poissons Ratio (y) = 0.24976 0.33714
# Poissons Ratio (z) = -0.03496 0.25629
#
# Static dielectric constant tensor:
#      x y z
#    x 4.195380 0.000000 0.000000 
#    y 0.000000 3.886420 0.000000 
#    z 0.000000 0.000000 4.189160 
# 
# 
# High freq. dielectric constant tensor:
#      x y z
#    x 1.882510 0.000000 0.000000 
#    y 0.000000 1.865790 0.000000 
#    z 0.000000 0.000000 1.889370 
# 
# From -- ./inp_files/11247.got.cif
#   From: 2010.03.12/outbox.cif.g09.slc.cpg/sg54_6_cif.got.tgz:11247.got - 2010.04.16 15:00:50.
