data_PCOD8223121
_publ_section_title
;
Structure prediction by ZEFSAII (Michael W. Deem and Ramdas Pophale) SiO2 
 PCOD8223121
Probable space group: P C C A
;
_chemical_formula_sum "Si O2"
_cell_formula_units_Z 64
_cell_length_a 14.187224
_cell_length_b 9.785051
_cell_length_c 22.017039
_cell_angle_alpha 90.000000
_cell_angle_beta 90.000000
_cell_angle_gamma 90.000000
_cell_volume 3056.465029
_symmetry_space_group_name_H-M "P C C A"
_symmetry_group_IT_number 54
_symmetry_cell_setting 'orthorhombic'
loop_
_space_group_symop_operation_xyz
x,y,z
1/2-x,-y,z
1/2+x,-y,1/2-z
-x,y,1/2-z
-x,-y,-z
1/2+x,y,-z
1/2-x,y,1/2+z
x,-y,1/2+z
loop_
_atom_site_type_symbol
_atom_site_label
_atom_site_fract_x
_atom_site_fract_y
_atom_site_fract_z
Si Si1 0.340272 0.810997 0.846168
Si Si2 0.645298 0.978657 0.537767
Si Si3 0.011138 0.604790 0.619007
Si Si4 0.396540 0.097675 0.222200
Si Si5 0.404671 0.795136 0.213287
Si Si6 0.314366 0.371601 0.815680
Si Si7 0.991133 0.786878 0.508522
Si Si8 0.538646 0.700668 0.874877
O O1 0.327522 0.862455 0.777048
O O2 0.246702 0.723933 0.861119
O O3 0.431535 0.715348 0.852397
O O4 0.346744 0.937554 0.891673
O O5 0.584927 0.116357 0.540642
O O6 0.750000 0.000000 0.510145
O O7 0.592102 0.862832 0.498292
O O8 0.075590 0.719110 0.650220
O O9 0.002396 0.649904 0.548604
O O10 0.064128 0.459819 0.626214
O O11 0.909370 0.588425 0.649997
O O12 0.500000 0.092525 0.250000
O O13 0.391935 0.209895 0.168004
O O14 0.366216 0.947455 0.197616
O O15 0.500000 0.812289 0.250000
O O16 0.332589 0.706124 0.252512
O O17 0.250000 0.500000 0.798277
O O18 0.948941 0.751879 0.443199
#
# Coordination Sequence:
#
# PCOD8223121 Si02
#       8
#     8   8   8   8   8   8   8   8
#     4  10  21  35  61  90 123 157 203 267 327 379
#     4  10  22  39  65  93 124 161 218 278 329 379
#     4  11  22  39  64  89 127 171 215 259 318 398
#     4   9  20  35  59  86 122 155 205 248 313 376
#     4   9  22  35  57  87 121 159 198 253 308 377
#     4  11  22  37  60  96 128 158 210 268 334 385
#     4  10  23  39  67  92 126 172 224 266 318 388
#     4  10  21  39  61  89 122 172 208 257 317 384
#
# _framework density 20.939222999999998
#
# number of rings (size 3 to 8) (size 9 to 14) (size 15 to 20)
#    0.000    2.000    1.250    1.125   14.000    1.500 
#    0.000    1.250    0.000    0.000    0.000    0.000 
#    0.000    0.000    0.000    0.000    0.000    0.000 
#
# Total GULP energy -793523.314582 kJ/mol
# GULP energy per Si atom -12398.801790 kJ/mol
# Density = 2.089156 g / cm^3
# Si number density = 20.939223 Si / 1000 Ang^3
#
#
#
# Elastic Constant Matrix: (Units=GPa)
#
#
# Indices 1 2 3 4 5 6 
#
# 1 70.3933 32.9261 27.0618 0.0000 0.0000 0.0000
# 2 32.9261 170.2316 72.3041 0.0000 0.0000 0.0000
# 3 27.0618 72.3041 121.8796 0.0000 0.0000 0.0000
# 4 0.0000 0.0000 0.0000 25.9128 0.0000 0.0000
# 5 0.0000 0.0000 0.0000 0.0000 19.6629 0.0000
# 6 0.0000 0.0000 0.0000 0.0000 0.0000 27.3156
#
#
#
# Elastic Compliance Matrix: (Units=1/GPa)
#
#
# Indices 1 2 3 4 5 6 
#
# 1 0.016090 -0.002132 -0.002308 0.000000 0.000000 0.000000
# 2 -0.002132 0.008136 -0.004353 0.000000 0.000000 0.000000
# 3 -0.002308 -0.004353 0.011300 0.000000 0.000000 0.000000
# 4 0.000000 0.000000 0.000000 0.038591 0.000000 0.000000
# 5 0.000000 0.000000 0.000000 0.000000 0.050857 0.000000
# 6 0.000000 0.000000 0.000000 0.000000 0.000000 0.036609
#
#
# Mechanical properties :
#
#
# Convention : Reuss Voigt Hill
#
# Bulk Modulus (GPa) = 55.74167 69.67650 62.70909
# Shear Modulus (GPa) = 27.00533 29.92575 28.46554
#
# Velocity S-wave (km/s) = 3.59514 3.78454 3.69105
# Velocity P-wave (km/s) = 6.62660 7.24188 6.94106
#
# Compressibility (1/GPa) = 0.01793990
#
# Stress axis : x y z
#
# Youngs Moduli (GPa) = 62.14914 122.91650 88.49828
#
# Poissons Ratio (x) = 0.26205 0.20425
# Poissons Ratio (y) = 0.13250 0.38523
# Poissons Ratio (z) = 0.14343 0.53506
#
# Static dielectric constant tensor:
#      x y z
#    x 3.672890 0.000000 0.000000 
#    y 0.000000 3.937260 0.000000 
#    z 0.000000 0.000000 3.638110 
# 
# 
# High freq. dielectric constant tensor:
#      x y z
#    x 1.801660 0.000000 0.000000 
#    y 0.000000 1.831510 0.000000 
#    z 0.000000 0.000000 1.807010 
# 
# From -- ./inp_files/24535.got.cif
#   From: 2010.03.12/outbox.cif.g09.slc.cpg/sg54_13_cif.got.tgz:24535.got - 2010.04.16 15:00:50.
