data_PCOD8223945
_publ_section_title
;
Structure prediction by ZEFSAII (Michael W. Deem and Ramdas Pophale) SiO2 
 PCOD8223945
Probable space group: P C C A
;
_chemical_formula_sum "Si O2"
_cell_formula_units_Z 44
_cell_length_a 15.617661
_cell_length_b 5.347965
_cell_length_c 25.176180
_cell_angle_alpha 90.000000
_cell_angle_beta 90.000000
_cell_angle_gamma 90.000000
_cell_volume 2102.782640
_symmetry_space_group_name_H-M "P C C A"
_symmetry_group_IT_number 54
_symmetry_cell_setting 'orthorhombic'
loop_
_space_group_symop_operation_xyz
x,y,z
1/2-x,-y,z
1/2+x,-y,1/2-z
-x,y,1/2-z
-x,-y,-z
1/2+x,y,-z
1/2-x,y,1/2+z
x,-y,1/2+z
loop_
_atom_site_type_symbol
_atom_site_label
_atom_site_fract_x
_atom_site_fract_y
_atom_site_fract_z
Si Si1 0.201943 0.752560 0.201409
Si Si2 0.451087 0.508188 0.445144
Si Si3 0.654767 0.992191 0.576857
Si Si4 0.533314 0.568600 0.839302
Si Si5 0.127531 0.868287 0.307292
Si Si6 0.000000 0.785113 0.750000
O O1 0.250000 0.500000 0.183092
O O2 0.109671 0.765540 0.171017
O O3 0.196367 0.751614 0.266236
O O4 0.250000 0.000000 0.180970
O O5 0.500000 0.500000 0.500000
O O6 0.393183 0.259230 0.441515
O O7 0.526170 0.517490 0.400405
O O8 0.395023 0.759711 0.441389
O O9 0.667805 0.994336 0.640664
O O10 0.750000 0.000000 0.551543
O O11 0.438632 0.660218 0.825468
O O12 0.550756 0.354179 0.796745
O O13 0.078834 0.070114 0.273241
#
# Coordination Sequence:
#
# PCOD8223945 Si02
#       6
#     8   8   8   8   8   4
#     4  12  25  37  56  93 136 168 207 258 322 390
#     4  11  25  46  70  93 125 175 225 263 314 394
#     4  11  24  42  68 103 130 161 215 284 331 363
#     4  11  23  38  64  89 124 173 216 258 311 388
#     4  11  22  36  63  92 130 174 209 258 318 394
#     4  12  16  38  64  90 130 156 226 238 322 376
#
# _framework density 20.924655000000001
#
# number of rings (size 3 to 8) (size 9 to 14) (size 15 to 20)
#    0.000    0.727    5.455    2.727    0.000    2.909 
#    0.000    2.727    0.000    0.000    0.000    0.000 
#    0.000    0.000    0.000    0.000    0.000    0.000 
#
# Total GULP energy -545378.336487 kJ/mol
# GULP energy per Si atom -12394.962193 kJ/mol
# Density = 2.087703 g / cm^3
# Si number density = 20.924655 Si / 1000 Ang^3
#
#
#
# Elastic Constant Matrix: (Units=GPa)
#
#
# Indices 1 2 3 4 5 6 
#
# 1 86.5953 45.6798 40.3579 0.0000 0.0000 0.0000
# 2 45.6798 143.3179 42.0536 0.0000 0.0000 0.0000
# 3 40.3579 42.0536 135.2031 0.0000 0.0000 0.0000
# 4 0.0000 0.0000 0.0000 28.5233 0.0000 0.0000
# 5 0.0000 0.0000 0.0000 0.0000 16.6134 0.0000
# 6 0.0000 0.0000 0.0000 0.0000 0.0000 37.9062
#
#
#
# Elastic Compliance Matrix: (Units=1/GPa)
#
#
# Indices 1 2 3 4 5 6 
#
# 1 0.015123 -0.003847 -0.003318 0.000000 0.000000 0.000000
# 2 -0.003847 0.008657 -0.001544 0.000000 0.000000 0.000000
# 3 -0.003318 -0.001544 0.008867 0.000000 0.000000 0.000000
# 4 0.000000 0.000000 0.000000 0.035059 0.000000 0.000000
# 5 0.000000 0.000000 0.000000 0.000000 0.060193 0.000000
# 6 0.000000 0.000000 0.000000 0.000000 0.000000 0.026381
#
#
# Mechanical properties :
#
#
# Convention : Reuss Voigt Hill
#
# Bulk Modulus (GPa) = 65.66280 69.03321 67.34801
# Shear Modulus (GPa) = 28.28470 32.41022 30.34746
#
# Velocity S-wave (km/s) = 3.68059 3.93988 3.81244
# Velocity P-wave (km/s) = 7.03641 7.33211 7.18578
#
# Compressibility (1/GPa) = 0.01522932
#
# Stress axis : x y z
#
# Youngs Moduli (GPa) = 66.12247 115.51704 112.77767
#
# Poissons Ratio (x) = 0.44437 0.37418
# Poissons Ratio (y) = 0.25436 0.17417
# Poissons Ratio (z) = 0.21938 0.17840
#
# Static dielectric constant tensor:
#      x y z
#    x 4.133850 0.000000 0.000000 
#    y 0.000000 3.945150 0.000000 
#    z 0.000000 0.000000 4.049820 
# 
# 
# High freq. dielectric constant tensor:
#      x y z
#    x 1.826120 0.000000 0.000000 
#    y 0.000000 1.829980 0.000000 
#    z 0.000000 0.000000 1.797070 
# 
# From -- ./inp_files/26384.got.cif
#   From: 2010.03.12/outbox.cif.g09.slc.cpg/sg54_14_cif.got.tgz:26384.got - 2010.04.16 15:00:50.
