data_PCOD8223514
_publ_section_title
;
Structure prediction by ZEFSAII (Michael W. Deem and Ramdas Pophale) SiO2 
 PCOD8223514
Probable space group: P C C A
;
_chemical_formula_sum "Si O2"
_cell_formula_units_Z 40
_cell_length_a 11.356857
_cell_length_b 7.621824
_cell_length_c 23.800179
_cell_angle_alpha 90.000000
_cell_angle_beta 90.000000
_cell_angle_gamma 90.000000
_cell_volume 2060.142667
_symmetry_space_group_name_H-M "P C C A"
_symmetry_group_IT_number 54
_symmetry_cell_setting 'orthorhombic'
loop_
_space_group_symop_operation_xyz
x,y,z
1/2-x,-y,z
1/2+x,-y,1/2-z
-x,y,1/2-z
-x,-y,-z
1/2+x,y,-z
1/2-x,y,1/2+z
x,-y,1/2+z
loop_
_atom_site_type_symbol
_atom_site_label
_atom_site_fract_x
_atom_site_fract_y
_atom_site_fract_z
Si Si1 0.750000 0.000000 0.918691
Si Si2 0.666684 0.162590 0.220565
Si Si3 0.463755 0.456779 0.414177
Si Si4 0.566053 0.169636 0.340194
Si Si5 0.655283 0.344906 0.977244
Si Si6 0.750000 0.500000 0.159746
O O1 0.862159 0.032276 0.878345
O O2 0.717292 0.163833 0.958749
O O3 0.631427 0.219904 0.283039
O O4 0.561964 0.099469 0.178940
O O5 0.732851 0.330277 0.197284
O O6 0.750000 0.000000 0.225678
O O7 0.552404 0.344126 0.376678
O O8 0.397703 0.332393 0.459895
O O9 0.541529 0.613509 0.439293
O O10 0.363543 0.546688 0.377155
O O11 0.750000 0.500000 0.973556
#
# Coordination Sequence:
#
# PCOD8223514 Si02
#       6
#     4   8   8   8   8   4
#     4  12  24  40  66  94 126 170 204 260 322 370
#     4  10  22  41  62  91 129 161 211 259 303 380
#     4  10  22  44  65  89 129 166 210 262 312 370
#     4  10  22  42  61  94 125 163 213 254 311 377
#     4  11  23  42  64  92 127 164 215 258 310 378
#     4  10  22  40  66  94 122 170 204 256 320 362
#
# _framework density 19.416131
#
# number of rings (size 3 to 8) (size 9 to 14) (size 15 to 20)
#    0.000    1.600    4.000    0.000    2.800    2.400 
#    7.200    2.000    0.000    0.000    0.000    0.000 
#    0.000    0.000    0.000    0.000    0.000    0.000 
#
# Total GULP energy -495872.962772 kJ/mol
# GULP energy per Si atom -12396.824069 kJ/mol
# Density = 1.937194 g / cm^3
# Si number density = 19.416131 Si / 1000 Ang^3
#
#
#
# Elastic Constant Matrix: (Units=GPa)
#
#
# Indices 1 2 3 4 5 6 
#
# 1 89.0971 52.8946 47.9676 0.0000 0.0000 0.0000
# 2 52.8946 107.2088 62.3160 0.0000 0.0000 0.0000
# 3 47.9676 62.3160 118.9995 0.0000 0.0000 0.0000
# 4 0.0000 0.0000 0.0000 21.2538 0.0000 0.0000
# 5 0.0000 0.0000 0.0000 0.0000 33.7270 0.0000
# 6 0.0000 0.0000 0.0000 0.0000 0.0000 35.1050
#
#
#
# Elastic Compliance Matrix: (Units=1/GPa)
#
#
# Indices 1 2 3 4 5 6 
#
# 1 0.016830 -0.006268 -0.003502 0.000000 0.000000 0.000000
# 2 -0.006268 0.015744 -0.005718 0.000000 0.000000 0.000000
# 3 -0.003502 -0.005718 0.012809 0.000000 0.000000 0.000000
# 4 0.000000 0.000000 0.000000 0.047050 0.000000 0.000000
# 5 0.000000 0.000000 0.000000 0.000000 0.029650 0.000000
# 6 0.000000 0.000000 0.000000 0.000000 0.000000 0.028486
#
#
# Mechanical properties :
#
#
# Convention : Reuss Voigt Hill
#
# Bulk Modulus (GPa) = 69.40762 71.29576 70.35169
# Shear Modulus (GPa) = 26.83162 28.15896 27.49529
#
# Velocity S-wave (km/s) = 3.72146 3.81239 3.76720
# Velocity P-wave (km/s) = 7.36822 7.49525 7.43200
#
# Compressibility (1/GPa) = 0.01440764
#
# Stress axis : x y z
#
# Youngs Moduli (GPa) = 59.41684 63.51722 78.06983
#
# Poissons Ratio (x) = 0.39815 0.27337
# Poissons Ratio (y) = 0.37245 0.44638
# Poissons Ratio (z) = 0.20805 0.36318
#
# Static dielectric constant tensor:
#      x y z
#    x 3.808220 0.000000 0.000000 
#    y 0.000000 3.063440 0.000000 
#    z 0.000000 0.000000 3.836630 
# 
# 
# High freq. dielectric constant tensor:
#      x y z
#    x 1.776010 0.000000 0.000000 
#    y 0.000000 1.730340 0.000000 
#    z 0.000000 0.000000 1.775200 
# 
# From -- ./inp_files/21067.got.cif
#   From: 2010.03.12/outbox.cif.g09.slc.cpg/sg54_11_cif.got.tgz:21067.got - 2010.04.16 15:00:50.
