data_PCOD8223207
_publ_section_title
;
Structure prediction by ZEFSAII (Michael W. Deem and Ramdas Pophale) SiO2 
 PCOD8223207
Probable space group: P C C A
;
_chemical_formula_sum "Si O2"
_cell_formula_units_Z 32
_cell_length_a 5.002495
_cell_length_b 8.222684
_cell_length_c 36.007040
_cell_angle_alpha 90.000000
_cell_angle_beta 90.000000
_cell_angle_gamma 90.000000
_cell_volume 1481.111264
_symmetry_space_group_name_H-M "P C C A"
_symmetry_group_IT_number 54
_symmetry_cell_setting 'orthorhombic'
loop_
_space_group_symop_operation_xyz
x,y,z
1/2-x,-y,z
1/2+x,-y,1/2-z
-x,y,1/2-z
-x,-y,-z
1/2+x,y,-z
1/2-x,y,1/2+z
x,-y,1/2+z
loop_
_atom_site_type_symbol
_atom_site_label
_atom_site_fract_x
_atom_site_fract_y
_atom_site_fract_z
Si Si1 0.745198 0.689146 0.476669
Si Si2 0.497628 0.887346 0.791825
Si Si3 0.666457 0.182201 0.898264
Si Si4 0.349047 0.318188 0.359691
O O1 0.750000 0.500000 0.465537
O O2 0.544400 0.732137 0.510429
O O3 0.639662 0.796271 0.442377
O O4 0.500000 0.815894 0.750000
O O5 0.462901 0.738282 0.819849
O O6 0.750000 0.000000 0.801054
O O7 0.250000 0.000000 0.797780
O O8 0.390248 0.211039 0.876586
O O9 0.897746 0.309170 0.886887
O O10 0.750000 0.000000 0.887759
O O11 0.250000 0.500000 0.355354
#
# Coordination Sequence:
#
# PCOD8223207 Si02
#       4
#     8   8   8   8
#     4  10  21  38  60  87 121 159 199 248 307 365
#     4  10  21  40  65  91 123 162 202 248 305 366
#     4  12  25  41  64  92 125 163 207 256 306 364
#     4  12  24  41  64  92 126 163 207 255 305 363
#
# _framework density 21.605399999999999
#
# number of rings (size 3 to 8) (size 9 to 14) (size 15 to 20)
#    0.000    1.000    0.000    8.250    0.000    3.000 
#    0.000    6.250    0.000    0.000    0.000    0.000 
#    0.000    0.000    0.000    0.000    0.000    0.000 
#
# Total GULP energy -396842.893428 kJ/mol
# GULP energy per Si atom -12401.340420 kJ/mol
# Density = 2.155623 g / cm^3
# Si number density = 21.605400 Si / 1000 Ang^3
#
#
#
# Elastic Constant Matrix: (Units=GPa)
#
#
# Indices 1 2 3 4 5 6 
#
# 1 131.8741 13.9666 35.0590 0.0000 0.0000 0.0000
# 2 13.9666 70.6544 42.4605 0.0000 0.0000 0.0000
# 3 35.0590 42.4605 124.6435 0.0000 0.0000 0.0000
# 4 0.0000 0.0000 0.0000 24.3346 0.0000 0.0000
# 5 0.0000 0.0000 0.0000 0.0000 35.6933 0.0000
# 6 0.0000 0.0000 0.0000 0.0000 0.0000 37.4395
#
#
#
# Elastic Compliance Matrix: (Units=1/GPa)
#
#
# Indices 1 2 3 4 5 6 
#
# 1 0.008201 -0.000295 -0.002206 0.000000 0.000000 0.000000
# 2 -0.000295 0.017807 -0.005983 0.000000 0.000000 0.000000
# 3 -0.002206 -0.005983 0.010682 0.000000 0.000000 0.000000
# 4 0.000000 0.000000 0.000000 0.041094 0.000000 0.000000
# 5 0.000000 0.000000 0.000000 0.000000 0.028016 0.000000
# 6 0.000000 0.000000 0.000000 0.000000 0.000000 0.026710
#
#
# Mechanical properties :
#
#
# Convention : Reuss Voigt Hill
#
# Bulk Modulus (GPa) = 50.70808 56.68267 53.69537
# Shear Modulus (GPa) = 32.04055 35.20588 33.62321
#
# Velocity S-wave (km/s) = 3.85514 4.04108 3.94920
# Velocity P-wave (km/s) = 6.58310 6.93297 6.76030
#
# Compressibility (1/GPa) = 0.01972072
#
# Stress axis : x y z
#
# Youngs Moduli (GPa) = 121.94000 56.15640 93.61914
#
# Poissons Ratio (x) = 0.01658 0.20653
# Poissons Ratio (y) = 0.03601 0.56014
# Poissons Ratio (z) = 0.26901 0.33599
#
# Static dielectric constant tensor:
#      x y z
#    x 4.161540 0.000000 0.000000 
#    y 0.000000 3.613900 0.000000 
#    z 0.000000 0.000000 3.626690 
# 
# 
# High freq. dielectric constant tensor:
#      x y z
#    x 1.871550 0.000000 0.000000 
#    y 0.000000 1.828780 0.000000 
#    z 0.000000 0.000000 1.860900 
# 
# From -- ./inp_files/26941.got.cif
#   From: 2010.03.12/outbox.cif.g09.slc.cpg/sg54_14_cif.got.tgz:26941.got - 2010.04.16 15:00:50.
