data_PCOD8223504
_publ_section_title
;
Structure prediction by ZEFSAII (Michael W. Deem and Ramdas Pophale) SiO2 
 PCOD8223504
Probable space group: P C C A
;
_chemical_formula_sum "Si O2"
_cell_formula_units_Z 48
_cell_length_a 12.162164
_cell_length_b 9.487159
_cell_length_c 20.864283
_cell_angle_alpha 90.000000
_cell_angle_beta 90.000000
_cell_angle_gamma 90.000000
_cell_volume 2407.412434
_symmetry_space_group_name_H-M "P C C A"
_symmetry_group_IT_number 54
_symmetry_cell_setting 'orthorhombic'
loop_
_space_group_symop_operation_xyz
x,y,z
1/2-x,-y,z
1/2+x,-y,1/2-z
-x,y,1/2-z
-x,-y,-z
1/2+x,y,-z
1/2-x,y,1/2+z
x,-y,1/2+z
loop_
_atom_site_type_symbol
_atom_site_label
_atom_site_fract_x
_atom_site_fract_y
_atom_site_fract_z
Si Si1 0.425938 0.328322 0.847265
Si Si2 0.750000 0.000000 0.830414
Si Si3 0.431501 0.121650 0.076653
Si Si4 0.842618 0.726619 0.786745
Si Si5 0.975753 0.554545 0.429438
Si Si6 0.865157 0.926323 0.566767
Si Si7 0.250000 0.500000 0.630241
O O1 0.544705 0.273537 0.826131
O O2 0.351065 0.339500 0.784060
O O3 0.438038 0.482111 0.880124
O O4 0.370350 0.223060 0.897702
O O5 0.837288 0.087537 0.872327
O O6 0.692376 0.110591 0.783009
O O7 0.481782 0.278401 0.080002
O O8 0.534051 0.021114 0.090563
O O9 0.374504 0.098746 0.008587
O O10 0.751106 0.637550 0.824686
O O11 0.853786 0.501292 0.415655
O O12 0.000000 0.500000 0.500000
O O13 0.750000 0.000000 0.583099
#
# Coordination Sequence:
#
# PCOD8223504 Si02
#       7
#     8   4   8   8   8   8   4
#     4  10  22  42  60  88 128 170 212 262 328 381
#     4  12  20  40  68  94 124 172 222 264 318 410
#     4  11  23  39  64  98 125 170 214 264 334 391
#     4  10  22  40  64  86 125 172 215 262 312 396
#     4  11  22  40  65  97 130 164 216 270 327 400
#     4  11  23  39  61  93 135 163 207 276 332 382
#     4  10  22  40  66  90 126 176 214 256 332 384
#
# _framework density 19.938420000000001
#
# number of rings (size 3 to 8) (size 9 to 14) (size 15 to 20)
#    0.000    1.333    5.833    0.000    1.167    1.333 
#    3.000    0.000    3.667    0.000    0.000    0.000 
#    0.000    0.000    0.000    0.000    0.000    0.000 
#
# Total GULP energy -595208.342942 kJ/mol
# GULP energy per Si atom -12400.173811 kJ/mol
# Density = 1.989304 g / cm^3
# Si number density = 19.938420 Si / 1000 Ang^3
#
#
#
# Elastic Constant Matrix: (Units=GPa)
#
#
# Indices 1 2 3 4 5 6 
#
# 1 69.6207 28.2907 42.1484 0.0000 0.0000 0.0000
# 2 28.2907 128.9278 35.0570 0.0000 0.0000 0.0000
# 3 42.1484 35.0570 91.7573 0.0000 0.0000 0.0000
# 4 0.0000 0.0000 0.0000 34.0147 0.0000 0.0000
# 5 0.0000 0.0000 0.0000 0.0000 20.8550 0.0000
# 6 0.0000 0.0000 0.0000 0.0000 0.0000 33.6303
#
#
#
# Elastic Compliance Matrix: (Units=1/GPa)
#
#
# Indices 1 2 3 4 5 6 
#
# 1 0.020419 -0.002154 -0.008556 0.000000 0.000000 0.000000
# 2 -0.002154 0.008883 -0.002404 0.000000 0.000000 0.000000
# 3 -0.008556 -0.002404 0.015747 0.000000 0.000000 0.000000
# 4 0.000000 0.000000 0.000000 0.029399 0.000000 0.000000
# 5 0.000000 0.000000 0.000000 0.000000 0.047950 0.000000
# 6 0.000000 0.000000 0.000000 0.000000 0.000000 0.029735
#
#
# Mechanical properties :
#
#
# Convention : Reuss Voigt Hill
#
# Bulk Modulus (GPa) = 53.13644 55.69977 54.41810
# Shear Modulus (GPa) = 27.08038 30.02065 28.55052
#
# Velocity S-wave (km/s) = 3.68938 3.88450 3.78820
# Velocity P-wave (km/s) = 6.69752 6.93655 6.81808
#
# Compressibility (1/GPa) = 0.01881948
#
# Stress axis : x y z
#
# Youngs Moduli (GPa) = 48.97441 112.57851 63.50311
#
# Poissons Ratio (x) = 0.24249 0.54336
# Poissons Ratio (y) = 0.10549 0.15268
# Poissons Ratio (z) = 0.41904 0.27068
#
# Static dielectric constant tensor:
#      x y z
#    x 3.544850 0.000000 0.000000 
#    y 0.000000 3.891970 0.000000 
#    z 0.000000 0.000000 3.605480 
# 
# 
# High freq. dielectric constant tensor:
#      x y z
#    x 1.772770 0.000000 0.000000 
#    y 0.000000 1.788150 0.000000 
#    z 0.000000 0.000000 1.777710 
# 
# From -- ./inp_files/24093.got.cif
#   From: 2010.03.12/outbox.cif.g09.slc.cpg/sg54_13_cif.got.tgz:24093.got - 2010.04.16 15:00:50.
