data_PCOD8223722
_publ_section_title
;
Structure prediction by ZEFSAII (Michael W. Deem and Ramdas Pophale) SiO2 
 PCOD8223722
Probable space group: P C C A
;
_chemical_formula_sum "Si O2"
_cell_formula_units_Z 24
_cell_length_a 4.957444
_cell_length_b 7.794591
_cell_length_c 28.651734
_cell_angle_alpha 90.000000
_cell_angle_beta 90.000000
_cell_angle_gamma 90.000000
_cell_volume 1107.138770
_symmetry_space_group_name_H-M "P C C A"
_symmetry_group_IT_number 54
_symmetry_cell_setting 'orthorhombic'
loop_
_space_group_symop_operation_xyz
x,y,z
1/2-x,-y,z
1/2+x,-y,1/2-z
-x,y,1/2-z
-x,-y,-z
1/2+x,y,-z
1/2-x,y,1/2+z
x,-y,1/2+z
loop_
_atom_site_type_symbol
_atom_site_label
_atom_site_fract_x
_atom_site_fract_y
_atom_site_fract_z
Si Si1 0.250000 0.500000 0.033384
Si Si2 0.267031 0.198327 0.605685
Si Si3 0.238303 0.194520 0.833096
Si Si4 0.500000 0.401039 0.750000
O O1 0.279286 0.327356 0.063486
O O2 0.500000 0.500000 0.000000
O O3 0.566946 0.233026 0.623711
O O4 0.061153 0.237552 0.648407
O O5 0.250000 0.000000 0.588540
O O6 0.327803 0.300276 0.788403
O O7 0.250000 0.000000 0.816156
O O8 0.250000 0.500000 0.724843
#
# Coordination Sequence:
#
# PCOD8223722 Si02
#       4
#     4   8   8   4
#     4  12  26  42  68 100 128 166 210 274 342 400
#     4  10  23  43  68  94 128 174 216 265 326 393
#     4  10  23  43  65  90 131 179 217 262 320 383
#     4  12  26  38  62 104 134 172 224 278 322 376
#
# _framework density 21.677500999999999
#
# number of rings (size 3 to 8) (size 9 to 14) (size 15 to 20)
#    0.000    1.333    0.000    4.000    7.000    6.667 
#    0.000    0.000    0.000    0.000    0.000    0.000 
#    0.000    0.000    0.000    0.000    0.000    0.000 
#
# Total GULP energy -297482.598331 kJ/mol
# GULP energy per Si atom -12395.108264 kJ/mol
# Density = 2.162816 g / cm^3
# Si number density = 21.677501 Si / 1000 Ang^3
#
#
#
# Elastic Constant Matrix: (Units=GPa)
#
#
# Indices 1 2 3 4 5 6 
#
# 1 121.8216 48.9870 26.7776 0.0000 0.0000 0.0000
# 2 48.9870 134.3849 84.2944 0.0000 0.0000 0.0000
# 3 26.7776 84.2944 106.4941 0.0000 0.0000 0.0000
# 4 0.0000 0.0000 0.0000 55.0087 0.0000 0.0000
# 5 0.0000 0.0000 0.0000 0.0000 24.0297 0.0000
# 6 0.0000 0.0000 0.0000 0.0000 0.0000 33.6349
#
#
#
# Elastic Compliance Matrix: (Units=1/GPa)
#
#
# Indices 1 2 3 4 5 6 
#
# 1 0.009646 -0.003962 0.000711 0.000000 0.000000 0.000000
# 2 -0.003962 0.016406 -0.011990 0.000000 0.000000 0.000000
# 3 0.000711 -0.011990 0.018702 0.000000 0.000000 0.000000
# 4 0.000000 0.000000 0.000000 0.018179 0.000000 0.000000
# 5 0.000000 0.000000 0.000000 0.000000 0.041615 0.000000
# 6 0.000000 0.000000 0.000000 0.000000 0.000000 0.029731
#
#
# Mechanical properties :
#
#
# Convention : Reuss Voigt Hill
#
# Bulk Modulus (GPa) = 70.06975 75.86871 72.96923
# Shear Modulus (GPa) = 29.49509 36.04409 32.76959
#
# Velocity S-wave (km/s) = 3.69268 4.08210 3.89226
# Velocity P-wave (km/s) = 7.11161 7.56920 7.34397
#
# Compressibility (1/GPa) = 0.01427149
#
# Stress axis : x y z
#
# Youngs Moduli (GPa) = 103.67346 60.95146 53.46944
#
# Poissons Ratio (x) = 0.24148 -0.03799
# Poissons Ratio (y) = 0.41074 0.64111
# Poissons Ratio (z) = -0.07367 0.73082
#
# Static dielectric constant tensor:
#      x y z
#    x 4.393320 0.000000 0.000000 
#    y 0.000000 4.297510 0.000000 
#    z 0.000000 0.000000 3.597660 
# 
# 
# High freq. dielectric constant tensor:
#      x y z
#    x 1.882190 0.000000 0.000000 
#    y 0.000000 1.863450 0.000000 
#    z 0.000000 0.000000 1.835550 
# 
# From -- ./inp_files/24997.got.cif
#   From: 2010.03.12/outbox.cif.g09.slc.cpg/sg54_13_cif.got.tgz:24997.got - 2010.04.16 15:00:50.
