data_PCOD8223412
_publ_section_title
;
Structure prediction by ZEFSAII (Michael W. Deem and Ramdas Pophale) SiO2 
 PCOD8223412
Probable space group: P C C A
;
_chemical_formula_sum "Si O2"
_cell_formula_units_Z 36
_cell_length_a 9.128087
_cell_length_b 10.971341
_cell_length_c 17.839288
_cell_angle_alpha 90.000000
_cell_angle_beta 90.000000
_cell_angle_gamma 90.000000
_cell_volume 1786.557511
_symmetry_space_group_name_H-M "P C C A"
_symmetry_group_IT_number 54
_symmetry_cell_setting 'orthorhombic'
loop_
_space_group_symop_operation_xyz
x,y,z
1/2-x,-y,z
1/2+x,-y,1/2-z
-x,y,1/2-z
-x,-y,-z
1/2+x,y,-z
1/2-x,y,1/2+z
x,-y,1/2+z
loop_
_atom_site_type_symbol
_atom_site_label
_atom_site_fract_x
_atom_site_fract_y
_atom_site_fract_z
Si Si1 0.254910 0.358021 0.938114
Si Si2 0.649039 0.704766 0.222298
Si Si3 0.643822 0.889171 0.792463
Si Si4 0.750000 0.500000 0.827194
Si Si5 0.419725 0.300662 0.082741
O O1 0.250000 0.500000 0.957516
O O2 0.351353 0.334567 0.864081
O O3 0.091886 0.308155 0.930531
O O4 0.335613 0.285564 0.004357
O O5 0.500000 0.771394 0.250000
O O6 0.784202 0.794715 0.234475
O O7 0.654675 0.585902 0.274369
O O8 0.500000 0.938396 0.750000
O O9 0.610366 0.820733 0.869852
O O10 0.750000 0.000000 0.811962
O O11 0.636194 0.576809 0.876794
#
# Coordination Sequence:
#
# PCOD8223412 Si02
#       5
#     8   8   8   4   8
#     4  12  23  40  64  99 146 180 212 268 347 414
#     4  11  23  38  67  96 129 173 227 274 334 395
#     4  11  24  48  70  93 126 171 231 291 332 386
#     4  10  22  36  62  96 136 174 224 272 330 388
#     4  11  25  41  62 101 139 176 222 275 327 422
#
# _framework density 20.150485
#
# number of rings (size 3 to 8) (size 9 to 14) (size 15 to 20)
#    0.000    0.889    4.444    2.667    6.222    0.000 
#    0.000    2.222    0.000    0.000    0.000    0.000 
#    0.000    0.000    0.000    0.000    0.000    0.000 
#
# Total GULP energy -446550.136859 kJ/mol
# GULP energy per Si atom -12404.170468 kJ/mol
# Density = 2.010462 g / cm^3
# Si number density = 20.150485 Si / 1000 Ang^3
#
#
#
# Elastic Constant Matrix: (Units=GPa)
#
#
# Indices 1 2 3 4 5 6 
#
# 1 144.3342 45.3642 68.0747 0.0000 0.0000 0.0000
# 2 45.3642 91.5513 43.5405 0.0000 0.0000 0.0000
# 3 68.0747 43.5405 159.5505 0.0000 0.0000 0.0000
# 4 0.0000 0.0000 0.0000 -2.6723 0.0000 0.0000
# 5 0.0000 0.0000 0.0000 0.0000 27.2837 0.0000
# 6 0.0000 0.0000 0.0000 0.0000 0.0000 32.3959
#
#
#
# Elastic Compliance Matrix: (Units=1/GPa)
#
#
# Indices 1 2 3 4 5 6 
#
# 1 0.009409 -0.003164 -0.003151 0.000000 0.000000 0.000000
# 2 -0.003164 0.013616 -0.002366 0.000000 0.000000 0.000000
# 3 -0.003151 -0.002366 0.008258 0.000000 0.000000 0.000000
# 4 0.000000 0.000000 0.000000 -0.374208 0.000000 0.000000
# 5 0.000000 0.000000 0.000000 0.000000 0.036652 0.000000
# 6 0.000000 0.000000 0.000000 0.000000 0.000000 0.030868
#
#
# Mechanical properties :
#
#
# Convention : Reuss Voigt Hill
#
# Bulk Modulus (GPa) = 71.83324 78.82166 75.32745
# Shear Modulus (GPa) = -19.73131 27.29855 3.78362
#
# Velocity S-wave (km/s) = -3.13261 3.68466 1.37177
# Velocity P-wave (km/s) = 4.75831 7.56992 6.32239
#
# Compressibility (1/GPa) = 0.01392113
#
# Stress axis : x y z
#
# Youngs Moduli (GPa) = 106.28255 73.44547 121.09890
#
# Poissons Ratio (x) = 0.23235 0.38160
# Poissons Ratio (y) = 0.33623 0.28650
# Poissons Ratio (z) = 0.33491 0.17376
#
# Static dielectric constant tensor:
#      x y z
#    x 3.512520 0.000000 0.000000 
#    y 0.000000 3.465470 0.000000 
#    z 0.000000 0.000000 3.747520 
# 
# 
# High freq. dielectric constant tensor:
#      x y z
#    x 1.805270 0.000000 0.000000 
#    y 0.000000 1.764930 0.000000 
#    z 0.000000 0.000000 1.795920 
# 
# From -- ./inp_files/16298.got.cif
#   From: 2010.03.12/outbox.cif.g09.slc.cpg/sg54_9_cif.got.tgz:16298.got - 2010.04.16 15:00:50.
