data_PCOD8223829
_publ_section_title
;
Structure prediction by ZEFSAII (Michael W. Deem and Ramdas Pophale) SiO2 
 PCOD8223829
Probable space group: P C C A
;
_chemical_formula_sum "Si O2"
_cell_formula_units_Z 28
_cell_length_a 10.140089
_cell_length_b 7.919552
_cell_length_c 16.413849
_cell_angle_alpha 90.000000
_cell_angle_beta 90.000000
_cell_angle_gamma 90.000000
_cell_volume 1318.113522
_symmetry_space_group_name_H-M "P C C A"
_symmetry_group_IT_number 54
_symmetry_cell_setting 'orthorhombic'
loop_
_space_group_symop_operation_xyz
x,y,z
1/2-x,-y,z
1/2+x,-y,1/2-z
-x,y,1/2-z
-x,-y,-z
1/2+x,y,-z
1/2-x,y,1/2+z
x,-y,1/2+z
loop_
_atom_site_type_symbol
_atom_site_label
_atom_site_fract_x
_atom_site_fract_y
_atom_site_fract_z
Si Si1 0.996752 0.315886 0.838012
Si Si2 0.623366 0.886471 0.520918
Si Si3 0.000000 0.363016 0.250000
Si Si4 0.215007 0.195962 0.145693
O O1 0.095161 0.230978 0.901644
O O2 0.040912 0.512249 0.825246
O O3 0.000000 0.219572 0.750000
O O4 0.844328 0.310557 0.863990
O O5 0.643199 0.773492 0.440535
O O6 0.750000 0.000000 0.541961
O O7 0.500000 0.000000 0.500000
O O8 0.876628 0.249289 0.278081
O O9 0.250000 0.000000 0.157111
#
# Coordination Sequence:
#
# PCOD8223829 Si02
#       4
#     8   8   4   8
#     4  10  24  45  66 107 148 184 244 304 363 434
#     4  11  22  44  72 108 142 196 251 297 361 431
#     4  10  26  44  68 104 144 192 232 304 382 420
#     4  11  23  44  71 102 145 185 253 301 353 447
#
# _framework density 21.242477999999998
#
# number of rings (size 3 to 8) (size 9 to 14) (size 15 to 20)
#    0.857    0.571    5.714    0.857    2.000    4.571 
#    0.000    0.000    0.000    0.000    0.000    0.000 
#    0.000    0.000    0.000    0.000    0.000    0.000 
#
# Total GULP energy -346962.086433 kJ/mol
# GULP energy per Si atom -12391.503087 kJ/mol
# Density = 2.119413 g / cm^3
# Si number density = 21.242478 Si / 1000 Ang^3
#
#
#
# Elastic Constant Matrix: (Units=GPa)
#
#
# Indices 1 2 3 4 5 6 
#
# 1 144.5894 43.4154 76.1950 0.0000 0.0000 0.0000
# 2 43.4154 94.8354 72.9292 0.0000 0.0000 0.0000
# 3 76.1950 72.9292 143.7012 0.0000 0.0000 0.0000
# 4 0.0000 0.0000 0.0000 40.8349 0.0000 0.0000
# 5 0.0000 0.0000 0.0000 0.0000 49.2056 0.0000
# 6 0.0000 0.0000 0.0000 0.0000 0.0000 32.5271
#
#
#
# Elastic Compliance Matrix: (Units=1/GPa)
#
#
# Indices 1 2 3 4 5 6 
#
# 1 0.009634 -0.000791 -0.004707 0.000000 0.000000 0.000000
# 2 -0.000791 0.017359 -0.008390 0.000000 0.000000 0.000000
# 3 -0.004707 -0.008390 0.013713 0.000000 0.000000 0.000000
# 4 0.000000 0.000000 0.000000 0.024489 0.000000 0.000000
# 5 0.000000 0.000000 0.000000 0.000000 0.020323 0.000000
# 6 0.000000 0.000000 0.000000 0.000000 0.000000 0.030744
#
#
# Mechanical properties :
#
#
# Convention : Reuss Voigt Hill
#
# Bulk Modulus (GPa) = 77.34267 85.35612 81.34939
# Shear Modulus (GPa) = 33.70467 37.21929 35.46198
#
# Velocity S-wave (km/s) = 3.98762 4.19037 4.09025
# Velocity P-wave (km/s) = 7.59539 7.98006 7.79010
#
# Compressibility (1/GPa) = 0.01292947
#
# Stress axis : x y z
#
# Youngs Moduli (GPa) = 103.79873 57.60726 72.92406
#
# Poissons Ratio (x) = 0.04555 0.34325
# Poissons Ratio (y) = 0.08208 0.61187
# Poissons Ratio (z) = 0.48858 0.48335
#
# Static dielectric constant tensor:
#      x y z
#    x 4.018560 0.000000 0.000000 
#    y 0.000000 3.623400 0.000000 
#    z 0.000000 0.000000 6.314990 
# 
# 
# High freq. dielectric constant tensor:
#      x y z
#    x 1.839680 0.000000 0.000000 
#    y 0.000000 1.819270 0.000000 
#    z 0.000000 0.000000 1.835520 
# 
# From -- ./inp_files/16162.got.cif
#   From: 2010.03.12/outbox.cif.g09.slc.cpg/sg54_9_cif.got.tgz:16162.got - 2010.04.16 15:00:50.
