data_PCOD8223032
_publ_section_title
;
Structure prediction by ZEFSAII (Michael W. Deem and Ramdas Pophale) SiO2 
 PCOD8223032
Probable space group: P C C A
;
_chemical_formula_sum "Si O2"
_cell_formula_units_Z 44
_cell_length_a 15.391248
_cell_length_b 14.279411
_cell_length_c 9.373714
_cell_angle_alpha 90.000000
_cell_angle_beta 90.000000
_cell_angle_gamma 90.000000
_cell_volume 2060.135703
_symmetry_space_group_name_H-M "P C C A"
_symmetry_group_IT_number 54
_symmetry_cell_setting 'orthorhombic'
loop_
_space_group_symop_operation_xyz
x,y,z
1/2-x,-y,z
1/2+x,-y,1/2-z
-x,y,1/2-z
-x,-y,-z
1/2+x,y,-z
1/2-x,y,1/2+z
x,-y,1/2+z
loop_
_atom_site_type_symbol
_atom_site_label
_atom_site_fract_x
_atom_site_fract_y
_atom_site_fract_z
Si Si1 0.500000 0.010084 0.250000
Si Si2 0.092674 0.406180 0.807929
Si Si3 0.886011 0.957972 0.003569
Si Si4 0.710622 0.146739 0.540506
Si Si5 0.335321 0.555276 0.097694
Si Si6 0.762896 0.271660 0.790999
O O1 0.560344 0.947510 0.356064
O O2 0.558420 0.073850 0.143260
O O3 0.120246 0.497986 0.722853
O O4 0.162704 0.323499 0.797512
O O5 0.000000 0.370668 0.750000
O O6 0.092649 0.434152 0.974111
O O7 0.802802 0.894207 0.990990
O O8 0.862191 0.066778 0.034879
O O9 0.716748 0.191340 0.697026
O O10 0.688272 0.226735 0.426560
O O11 0.250000 0.500000 0.039593
O O12 0.310949 0.656815 0.158170
#
# Coordination Sequence:
#
# PCOD8223032 Si02
#       6
#     4   8   8   8   8   8
#     4  10  20  40  62  92 118 154 210 260 312 364
#     4  11  23  41  63  92 125 160 201 256 320 370
#     4  10  22  40  65  88 124 170 208 248 315 362
#     4  11  22  41  63  89 122 170 215 252 292 381
#     4  10  21  40  66  88 120 165 206 247 309 382
#     4  11  22  39  64  92 124 161 215 256 298 364
#
# _framework density 21.357817000000001
#
# number of rings (size 3 to 8) (size 9 to 14) (size 15 to 20)
#    0.000    1.455    1.818    4.364    2.545    2.909 
#    9.818    0.000    2.000    0.000    0.000    0.000 
#    0.000    0.000    0.000    0.000    0.000    0.000 
#
# Total GULP energy -545614.762018 kJ/mol
# GULP energy per Si atom -12400.335500 kJ/mol
# Density = 2.130921 g / cm^3
# Si number density = 21.357817 Si / 1000 Ang^3
#
#
#
# Elastic Constant Matrix: (Units=GPa)
#
#
# Indices 1 2 3 4 5 6 
#
# 1 84.5393 20.1888 37.7665 0.0000 0.0000 0.0000
# 2 20.1888 83.6884 24.9819 0.0000 0.0000 0.0000
# 3 37.7665 24.9819 127.4953 0.0000 0.0000 0.0000
# 4 0.0000 0.0000 0.0000 23.0637 0.0000 0.0000
# 5 0.0000 0.0000 0.0000 0.0000 33.6364 0.0000
# 6 0.0000 0.0000 0.0000 0.0000 0.0000 13.3983
#
#
#
# Elastic Compliance Matrix: (Units=1/GPa)
#
#
# Indices 1 2 3 4 5 6 
#
# 1 0.014030 -0.002277 -0.003710 0.000000 0.000000 0.000000
# 2 -0.002277 0.013061 -0.001885 0.000000 0.000000 0.000000
# 3 -0.003710 -0.001885 0.009312 0.000000 0.000000 0.000000
# 4 0.000000 0.000000 0.000000 0.043358 0.000000 0.000000
# 5 0.000000 0.000000 0.000000 0.000000 0.029730 0.000000
# 6 0.000000 0.000000 0.000000 0.000000 0.000000 0.074637
#
#
# Mechanical properties :
#
#
# Convention : Reuss Voigt Hill
#
# Bulk Modulus (GPa) = 48.40412 51.28858 49.84635
# Shear Modulus (GPa) = 24.18304 28.20540 26.19422
#
# Velocity S-wave (km/s) = 3.36859 3.63797 3.50587
# Velocity P-wave (km/s) = 6.15162 6.45852 6.30694
#
# Compressibility (1/GPa) = 0.02065940
#
# Stress axis : x y z
#
# Youngs Moduli (GPa) = 71.27649 76.56374 107.39285
#
# Poissons Ratio (x) = 0.17435 0.39840
# Poissons Ratio (y) = 0.16231 0.20240
# Poissons Ratio (z) = 0.26442 0.14430
#
# Static dielectric constant tensor:
#      x y z
#    x 3.863120 0.000000 0.000000 
#    y 0.000000 3.709870 0.000000 
#    z 0.000000 0.000000 3.895760 
# 
# 
# High freq. dielectric constant tensor:
#      x y z
#    x 1.827510 0.000000 0.000000 
#    y 0.000000 1.822940 0.000000 
#    z 0.000000 0.000000 1.857620 
# 
# From -- ./inp_files/4131.got.cif
#   From: 2010.03.12/outbox.cif.g09.slc.cpg/sg54_3_cif.got.tgz:4131.got - 2010.04.16 15:00:50.
