data_PCOD8223259
_publ_section_title
;
Structure prediction by ZEFSAII (Michael W. Deem and Ramdas Pophale) SiO2 
 PCOD8223259
Probable space group: P C C A
;
_chemical_formula_sum "Si O2"
_cell_formula_units_Z 36
_cell_length_a 7.670157
_cell_length_b 14.447604
_cell_length_c 15.539338
_cell_angle_alpha 90.000000
_cell_angle_beta 90.000000
_cell_angle_gamma 90.000000
_cell_volume 1721.997816
_symmetry_space_group_name_H-M "P C C A"
_symmetry_group_IT_number 54
_symmetry_cell_setting 'orthorhombic'
loop_
_space_group_symop_operation_xyz
x,y,z
1/2-x,-y,z
1/2+x,-y,1/2-z
-x,y,1/2-z
-x,-y,-z
1/2+x,y,-z
1/2-x,y,1/2+z
x,-y,1/2+z
loop_
_atom_site_type_symbol
_atom_site_label
_atom_site_fract_x
_atom_site_fract_y
_atom_site_fract_z
Si Si1 0.500000 0.126016 0.250000
Si Si2 0.672749 0.597431 0.692960
Si Si3 0.634984 0.812108 0.410167
Si Si4 0.520765 0.247368 0.096203
Si Si5 0.750000 0.000000 0.855084
Si Si6 0.500000 0.712242 0.250000
O O1 0.596110 0.187919 0.176959
O O2 0.638954 0.061721 0.292710
O O3 0.750000 0.500000 0.661464
O O4 0.500000 0.584270 0.750000
O O5 0.607403 0.651578 0.607246
O O6 0.826194 0.649779 0.744509
O O7 0.561872 0.791482 0.503457
O O8 0.505963 0.777017 0.335165
O O9 0.812921 0.756335 0.393950
O O10 0.646807 0.924659 0.412206
#
# Coordination Sequence:
#
# PCOD8223259 Si02
#       6
#     4   8   8   8   4   4
#     4  10  21  39  64  88 138 174 230 287 333 400
#     4  12  23  44  72 103 134 176 230 277 345 423
#     4  11  24  41  67  97 141 187 229 285 340 400
#     4  11  23  42  63  97 139 180 225 286 344 402
#     4  10  22  38  62  98 130 186 244 272 330 400
#     4  12  23  43  72  98 140 186 222 283 357 400
#
# _framework density 20.905949
#
# number of rings (size 3 to 8) (size 9 to 14) (size 15 to 20)
#    0.000    0.889    4.444    3.333    0.000    6.222 
#    0.000    5.556    0.000    0.000    0.000    0.000 
#    0.000    0.000    0.000    0.000    0.000    0.000 
#
# Total GULP energy -446184.361349 kJ/mol
# GULP energy per Si atom -12394.010037 kJ/mol
# Density = 2.085837 g / cm^3
# Si number density = 20.905949 Si / 1000 Ang^3
#
#
#
# Elastic Constant Matrix: (Units=GPa)
#
#
# Indices 1 2 3 4 5 6 
#
# 1 96.0717 51.0357 32.0869 0.0000 0.0000 0.0000
# 2 51.0357 151.6656 78.8171 0.0000 0.0000 0.0000
# 3 32.0869 78.8171 174.5146 0.0000 0.0000 0.0000
# 4 0.0000 0.0000 0.0000 15.5139 0.0000 0.0000
# 5 0.0000 0.0000 0.0000 0.0000 111.8172 0.0000
# 6 0.0000 0.0000 0.0000 0.0000 0.0000 45.5036
#
#
#
# Elastic Compliance Matrix: (Units=1/GPa)
#
#
# Indices 1 2 3 4 5 6 
#
# 1 0.012712 -0.004002 -0.000530 0.000000 0.000000 0.000000
# 2 -0.004002 0.009876 -0.003724 0.000000 0.000000 0.000000
# 3 -0.000530 -0.003724 0.007510 0.000000 0.000000 0.000000
# 4 0.000000 0.000000 0.000000 0.064458 0.000000 0.000000
# 5 0.000000 0.000000 0.000000 0.000000 0.008943 0.000000
# 6 0.000000 0.000000 0.000000 0.000000 0.000000 0.021976
#
#
# Mechanical properties :
#
#
# Convention : Reuss Voigt Hill
#
# Bulk Modulus (GPa) = 73.61294 82.90349 78.25821
# Shear Modulus (GPa) = 34.12599 51.92107 43.02353
#
# Velocity S-wave (km/s) = 4.04463 4.98893 4.54139
# Velocity P-wave (km/s) = 7.55645 8.53976 8.06311
#
# Compressibility (1/GPa) = 0.01358457
#
# Stress axis : x y z
#
# Youngs Moduli (GPa) = 78.66629 101.25876 133.16272
#
# Poissons Ratio (x) = 0.40527 0.07053
# Poissons Ratio (y) = 0.31485 0.49594
# Poissons Ratio (z) = 0.04167 0.37712
#
# Static dielectric constant tensor:
#      x y z
#    x 5.685190 0.000000 0.000000 
#    y 0.000000 2.707090 0.000000 
#    z 0.000000 0.000000 3.701740 
# 
# 
# High freq. dielectric constant tensor:
#      x y z
#    x 1.830100 0.000000 0.000000 
#    y 0.000000 1.822570 0.000000 
#    z 0.000000 0.000000 1.815230 
# 
# From -- ./inp_files/11427.got.cif
#   From: 2010.03.12/outbox.cif.g09.slc.cpg/sg54_6_cif.got.tgz:11427.got - 2010.04.16 15:00:50.
