data_PCOD8223216
_publ_section_title
;
Structure prediction by ZEFSAII (Michael W. Deem and Ramdas Pophale) SiO2 
 PCOD8223216
Probable space group: P C C A
;
_chemical_formula_sum "Si O2"
_cell_formula_units_Z 64
_cell_length_a 17.670129
_cell_length_b 11.109798
_cell_length_c 15.107120
_cell_angle_alpha 90.000000
_cell_angle_beta 90.000000
_cell_angle_gamma 90.000000
_cell_volume 2965.702352
_symmetry_space_group_name_H-M "P C C A"
_symmetry_group_IT_number 54
_symmetry_cell_setting 'orthorhombic'
loop_
_space_group_symop_operation_xyz
x,y,z
1/2-x,-y,z
1/2+x,-y,1/2-z
-x,y,1/2-z
-x,-y,-z
1/2+x,y,-z
1/2-x,y,1/2+z
x,-y,1/2+z
loop_
_atom_site_type_symbol
_atom_site_label
_atom_site_fract_x
_atom_site_fract_y
_atom_site_fract_z
Si Si1 0.944450 0.350414 0.576832
Si Si2 0.172398 0.927448 0.640429
Si Si3 0.287198 0.377151 0.994096
Si Si4 0.200557 0.660365 0.670567
Si Si5 0.206315 0.684738 0.333436
Si Si6 0.569767 0.921461 0.530300
Si Si7 0.833947 0.049592 0.690657
Si Si8 0.917163 0.495035 0.914252
O O1 0.865767 0.386945 0.625192
O O2 0.956969 0.207430 0.567968
O O3 0.946612 0.397893 0.476206
O O4 0.013740 0.417951 0.628409
O O5 0.177473 0.797506 0.689088
O O6 0.126334 0.908566 0.551471
O O7 0.250000 0.000000 0.618859
O O8 0.129588 0.004003 0.716646
O O9 0.250000 0.500000 0.960527
O O10 0.271250 0.290956 0.909461
O O11 0.243472 0.327828 0.078376
O O12 0.373345 0.397836 0.023249
O O13 0.255549 0.616524 0.750139
O O14 0.134444 0.558863 0.661461
O O15 0.170515 0.807933 0.300640
O O16 0.613325 0.990724 0.609012
O O17 0.500000 0.000000 0.500000
O O18 0.750000 0.000000 0.677245
#
# Coordination Sequence:
#
# PCOD8223216 Si02
#       8
#     8   8   8   8   8   8   8   8
#     4  10  21  42  67  95 134 178 224 280 345 408
#     4  11  21  41  65  99 135 171 228 289 334 406
#     4  10  21  38  62  95 126 169 224 280 331 401
#     4  11  20  39  69 100 130 177 223 284 343 407
#     4  11  20  39  70  96 131 171 229 282 343 407
#     4  11  24  40  68  94 136 187 224 272 354 415
#     4  10  21  40  63 100 127 171 226 285 335 409
#     4  10  21  42  68  92 135 173 222 286 343 405
#
# _framework density 21.580047
#
# number of rings (size 3 to 8) (size 9 to 14) (size 15 to 20)
#    0.000    1.500    6.250    1.125    0.000    4.000 
#    0.000    0.625    2.750    0.000    0.000    0.000 
#    0.000    0.000    0.000    0.000    0.000    0.000 
#
# Total GULP energy -792970.567787 kJ/mol
# GULP energy per Si atom -12390.165122 kJ/mol
# Density = 2.153093 g / cm^3
# Si number density = 21.580047 Si / 1000 Ang^3
#
#
#
# Elastic Constant Matrix: (Units=GPa)
#
#
# Indices 1 2 3 4 5 6 
#
# 1 110.4639 44.3971 35.7403 0.0000 0.0000 0.0000
# 2 44.3971 84.1469 30.9531 0.0000 0.0000 0.0000
# 3 35.7403 30.9531 114.7954 0.0000 0.0000 0.0000
# 4 0.0000 0.0000 0.0000 11.3705 0.0000 0.0000
# 5 0.0000 0.0000 0.0000 0.0000 27.6664 0.0000
# 6 0.0000 0.0000 0.0000 0.0000 0.0000 36.6793
#
#
#
# Elastic Compliance Matrix: (Units=1/GPa)
#
#
# Indices 1 2 3 4 5 6 
#
# 1 0.011991 -0.005499 -0.002251 0.000000 0.000000 0.000000
# 2 -0.005499 0.015714 -0.002525 0.000000 0.000000 0.000000
# 3 -0.002251 -0.002525 0.010093 0.000000 0.000000 0.000000
# 4 0.000000 0.000000 0.000000 0.087947 0.000000 0.000000
# 5 0.000000 0.000000 0.000000 0.000000 0.036145 0.000000
# 6 0.000000 0.000000 0.000000 0.000000 0.000000 0.027263
#
#
# Mechanical properties :
#
#
# Convention : Reuss Voigt Hill
#
# Bulk Modulus (GPa) = 57.97494 59.06522 58.52008
# Shear Modulus (GPa) = 23.20709 28.36429 25.78569
#
# Velocity S-wave (km/s) = 3.28288 3.62937 3.46046
# Velocity P-wave (km/s) = 6.42597 6.70766 6.56833
#
# Compressibility (1/GPa) = 0.01724883
#
# Stress axis : x y z
#
# Youngs Moduli (GPa) = 83.39648 63.63742 99.08142
#
# Poissons Ratio (x) = 0.34992 0.22299
# Poissons Ratio (y) = 0.45857 0.25019
# Poissons Ratio (z) = 0.18769 0.16069
#
# Static dielectric constant tensor:
#      x y z
#    x 4.135930 0.000000 0.000000 
#    y 0.000000 4.077950 0.000000 
#    z 0.000000 0.000000 4.093500 
# 
# 
# High freq. dielectric constant tensor:
#      x y z
#    x 1.830900 0.000000 0.000000 
#    y 0.000000 1.847240 0.000000 
#    z 0.000000 0.000000 1.846790 
# 
# From -- ./inp_files/14327.got.cif
#   From: 2010.03.12/outbox.cif.g09.slc.cpg/sg54_8_cif.got.tgz:14327.got - 2010.04.16 15:00:50.
