data_PCOD8223311
_publ_section_title
;
Structure prediction by ZEFSAII (Michael W. Deem and Ramdas Pophale) SiO2 
 PCOD8223311
Probable space group: P C C A
;
_chemical_formula_sum "Si O2"
_cell_formula_units_Z 40
_cell_length_a 12.539983
_cell_length_b 7.206307
_cell_length_c 21.364303
_cell_angle_alpha 90.000000
_cell_angle_beta 90.000000
_cell_angle_gamma 90.000000
_cell_volume 1930.627270
_symmetry_space_group_name_H-M "P C C A"
_symmetry_group_IT_number 54
_symmetry_cell_setting 'orthorhombic'
loop_
_space_group_symop_operation_xyz
x,y,z
1/2-x,-y,z
1/2+x,-y,1/2-z
-x,y,1/2-z
-x,-y,-z
1/2+x,y,-z
1/2-x,y,1/2+z
x,-y,1/2+z
loop_
_atom_site_type_symbol
_atom_site_label
_atom_site_fract_x
_atom_site_fract_y
_atom_site_fract_z
Si Si1 0.403567 0.631400 0.846996
Si Si2 0.558930 0.691428 0.313038
Si Si3 0.750000 0.500000 0.547418
Si Si4 0.750000 0.500000 0.756504
Si Si5 0.494396 0.985987 0.898016
Si Si6 0.154875 0.863254 0.999084
O O1 0.497909 0.482976 0.842686
O O2 0.338650 0.599701 0.910569
O O3 0.327908 0.622870 0.786511
O O4 0.451252 0.837535 0.848092
O O5 0.500000 0.757227 0.250000
O O6 0.681358 0.637438 0.299755
O O7 0.562270 0.859580 0.361818
O O8 0.696344 0.347508 0.502728
O O9 0.394502 0.084530 0.931728
O O10 0.565971 0.876101 0.947653
O O11 0.250000 0.000000 0.016407
#
# Coordination Sequence:
#
# PCOD8223311 Si02
#       6
#     8   8   4   4   8   8
#     4  10  21  40  67  95 127 167 220 269 318 386
#     4  10  22  42  65  97 129 170 217 270 326 386
#     4  11  20  40  67  92 128 175 209 266 326 384
#     4   9  22  42  69  94 130 175 221 260 332 392
#     4  11  24  41  66  96 132 167 218 277 321 383
#     4  11  24  40  64  98 128 171 223 264 328 391
#
# _framework density 20.718654000000001
#
# number of rings (size 3 to 8) (size 9 to 14) (size 15 to 20)
#    0.000    1.600    4.000    0.000    0.000    6.400 
#    0.000    4.000    0.000    0.000    0.000    0.000 
#    0.000    0.000    0.000    0.000    0.000    0.000 
#
# Total GULP energy -496269.427950 kJ/mol
# GULP energy per Si atom -12406.735699 kJ/mol
# Density = 2.067150 g / cm^3
# Si number density = 20.718654 Si / 1000 Ang^3
#
#
#
# Elastic Constant Matrix: (Units=GPa)
#
#
# Indices 1 2 3 4 5 6 
#
# 1 106.9264 65.2529 33.8306 0.0000 0.0000 0.0000
# 2 65.2529 155.8885 54.0709 0.0000 0.0000 0.0000
# 3 33.8306 54.0709 70.4505 0.0000 0.0000 0.0000
# 4 0.0000 0.0000 0.0000 31.8509 0.0000 0.0000
# 5 0.0000 0.0000 0.0000 0.0000 21.9055 0.0000
# 6 0.0000 0.0000 0.0000 0.0000 0.0000 33.7977
#
#
#
# Elastic Compliance Matrix: (Units=1/GPa)
#
#
# Indices 1 2 3 4 5 6 
#
# 1 0.012956 -0.004450 -0.002806 0.000000 0.000000 0.000000
# 2 -0.004450 0.010270 -0.005746 0.000000 0.000000 0.000000
# 3 -0.002806 -0.005746 0.019952 0.000000 0.000000 0.000000
# 4 0.000000 0.000000 0.000000 0.031396 0.000000 0.000000
# 5 0.000000 0.000000 0.000000 0.000000 0.045651 0.000000
# 6 0.000000 0.000000 0.000000 0.000000 0.000000 0.029588
#
#
# Mechanical properties :
#
#
# Convention : Reuss Voigt Hill
#
# Bulk Modulus (GPa) = 58.22599 71.06381 64.64490
# Shear Modulus (GPa) = 27.54206 29.51822 28.53014
#
# Velocity S-wave (km/s) = 3.64996 3.77864 3.71486
# Velocity P-wave (km/s) = 6.77696 7.30831 7.04764
#
# Compressibility (1/GPa) = 0.01717446
#
# Stress axis : x y z
#
# Youngs Moduli (GPa) = 77.18710 97.36726 50.12084
#
# Poissons Ratio (x) = 0.43325 0.14065
# Poissons Ratio (y) = 0.34346 0.28798
# Poissons Ratio (z) = 0.21660 0.55945
#
# Static dielectric constant tensor:
#      x y z
#    x 3.873850 0.000000 0.000000 
#    y 0.000000 3.627730 0.000000 
#    z 0.000000 0.000000 3.627900 
# 
# 
# High freq. dielectric constant tensor:
#      x y z
#    x 1.819100 0.000000 0.000000 
#    y 0.000000 1.810090 0.000000 
#    z 0.000000 0.000000 1.803130 
# 
# From -- ./inp_files/26089.got.cif
#   From: 2010.03.12/outbox.cif.g09.slc.cpg/sg54_14_cif.got.tgz:26089.got - 2010.04.16 15:00:50.
