data_PCOD8223495
_publ_section_title
;
Structure prediction by ZEFSAII (Michael W. Deem and Ramdas Pophale) SiO2 
 PCOD8223495
Probable space group: P C C A
;
_chemical_formula_sum "Si O2"
_cell_formula_units_Z 32
_cell_length_a 4.834347
_cell_length_b 8.353601
_cell_length_c 35.349130
_cell_angle_alpha 90.000000
_cell_angle_beta 90.000000
_cell_angle_gamma 90.000000
_cell_volume 1427.546545
_symmetry_space_group_name_H-M "P C C A"
_symmetry_group_IT_number 54
_symmetry_cell_setting 'orthorhombic'
loop_
_space_group_symop_operation_xyz
x,y,z
1/2-x,-y,z
1/2+x,-y,1/2-z
-x,y,1/2-z
-x,-y,-z
1/2+x,y,-z
1/2-x,y,1/2+z
x,-y,1/2+z
loop_
_atom_site_type_symbol
_atom_site_label
_atom_site_fract_x
_atom_site_fract_y
_atom_site_fract_z
Si Si1 0.842196 0.182263 0.328201
Si Si2 0.244185 0.314778 0.475432
Si Si3 0.355511 0.320229 0.288608
Si Si4 0.995021 0.108871 0.092451
O O1 0.591064 0.304525 0.320453
O O2 0.094942 0.210763 0.299427
O O3 0.916424 0.217833 0.372003
O O4 0.750000 0.000000 0.322753
O O5 0.250000 0.500000 0.463765
O O6 0.555631 0.273243 0.487901
O O7 0.136053 0.214361 0.440471
O O8 0.250000 0.500000 0.284561
O O9 0.500000 0.260064 0.250000
O O10 0.750000 0.000000 0.108714
O O11 0.250000 0.000000 0.077442
#
# Coordination Sequence:
#
# PCOD8223495 Si02
#       4
#     8   8   8   8
#     4  11  24  44  67  95 131 169 214 264 318 381
#     4  10  22  40  62  91 127 166 211 261 313 375
#     4  12  25  45  68  95 130 167 212 266 320 380
#     4  11  23  41  64  93 129 166 212 265 314 375
#
# _framework density 22.416080000000001
#
# number of rings (size 3 to 8) (size 9 to 14) (size 15 to 20)
#    0.000    1.000    0.000    8.250    0.000    6.000 
#    0.000   12.500    0.000    0.000    0.000    0.000 
#    0.000    0.000    0.000    0.000    0.000    0.000 
#
# Total GULP energy -396773.097910 kJ/mol
# GULP energy per Si atom -12399.159310 kJ/mol
# Density = 2.236506 g / cm^3
# Si number density = 22.416080 Si / 1000 Ang^3
#
#
#
# Elastic Constant Matrix: (Units=GPa)
#
#
# Indices 1 2 3 4 5 6 
#
# 1 132.5920 33.3230 28.1637 0.0000 0.0000 0.0000
# 2 33.3230 61.5105 52.2316 0.0000 0.0000 0.0000
# 3 28.1637 52.2316 98.6474 0.0000 0.0000 0.0000
# 4 0.0000 0.0000 0.0000 37.9041 0.0000 0.0000
# 5 0.0000 0.0000 0.0000 0.0000 208.0430 0.0000
# 6 0.0000 0.0000 0.0000 0.0000 0.0000 50.6641
#
#
#
# Elastic Compliance Matrix: (Units=1/GPa)
#
#
# Indices 1 2 3 4 5 6 
#
# 1 0.008731 -0.004748 0.000021 0.000000 0.000000 0.000000
# 2 -0.004748 0.032120 -0.015651 0.000000 0.000000 0.000000
# 3 0.000021 -0.015651 0.018418 0.000000 0.000000 0.000000
# 4 0.000000 0.000000 0.000000 0.026382 0.000000 0.000000
# 5 0.000000 0.000000 0.000000 0.000000 0.004807 0.000000
# 6 0.000000 0.000000 0.000000 0.000000 0.000000 0.019738
#
#
# Mechanical properties :
#
#
# Convention : Reuss Voigt Hill
#
# Bulk Modulus (GPa) = 54.01651 57.79853 55.90752
# Shear Modulus (GPa) = 31.82249 71.25768 51.54008
#
# Velocity S-wave (km/s) = 3.77188 5.64426 4.80025
# Velocity P-wave (km/s) = 6.56650 8.26542 7.46446
#
# Compressibility (1/GPa) = 0.01851286
#
# Stress axis : x y z
#
# Youngs Moduli (GPa) = 114.53909 31.13355 54.29483
#
# Poissons Ratio (x) = 0.14782 -0.00116
# Poissons Ratio (y) = 0.54382 0.84978
# Poissons Ratio (z) = -0.00244 0.48728
#
# Static dielectric constant tensor:
#      x y z
#    x 4.782630 0.000000 0.000000 
#    y 0.000000 4.018890 0.000000 
#    z 0.000000 0.000000 3.942980 
# 
# 
# High freq. dielectric constant tensor:
#      x y z
#    x 1.918330 0.000000 0.000000 
#    y 0.000000 1.866650 0.000000 
#    z 0.000000 0.000000 1.882540 
# 
# From -- ./inp_files/26840.got.cif
#   From: 2010.03.12/outbox.cif.g09.slc.cpg/sg54_14_cif.got.tgz:26840.got - 2010.04.16 15:00:50.
