data_PCOD8223375
_publ_section_title
;
Structure prediction by ZEFSAII (Michael W. Deem and Ramdas Pophale) SiO2 
 PCOD8223375
Probable space group: P C C A
;
_chemical_formula_sum "Si O2"
_cell_formula_units_Z 48
_cell_length_a 8.753434
_cell_length_b 8.342522
_cell_length_c 31.084126
_cell_angle_alpha 90.000000
_cell_angle_beta 90.000000
_cell_angle_gamma 90.000000
_cell_volume 2269.940549
_symmetry_space_group_name_H-M "P C C A"
_symmetry_group_IT_number 54
_symmetry_cell_setting 'orthorhombic'
loop_
_space_group_symop_operation_xyz
x,y,z
1/2-x,-y,z
1/2+x,-y,1/2-z
-x,y,1/2-z
-x,-y,-z
1/2+x,y,-z
1/2-x,y,1/2+z
x,-y,1/2+z
loop_
_atom_site_type_symbol
_atom_site_label
_atom_site_fract_x
_atom_site_fract_y
_atom_site_fract_z
Si Si1 0.750000 0.000000 0.829152
Si Si2 0.538608 0.164016 0.522960
Si Si3 0.481616 0.809114 0.117537
Si Si4 0.992527 0.217986 0.702176
Si Si5 0.162592 0.660961 0.461051
Si Si6 0.750000 0.000000 0.162669
Si Si7 0.916425 0.456393 0.631534
O O1 0.832277 0.867262 0.857996
O O2 0.629603 0.908977 0.799477
O O3 0.448689 0.158745 0.567686
O O4 0.478469 0.309611 0.493003
O O5 0.717834 0.191889 0.533318
O O6 0.500000 0.000000 0.500000
O O7 0.493216 0.618753 0.122882
O O8 0.632106 0.904098 0.132680
O O9 0.833679 0.127116 0.693345
O O10 0.011334 0.357648 0.666914
O O11 0.000000 0.293179 0.750000
O O12 0.250000 0.500000 0.473841
O O13 0.102222 0.649668 0.411916
O O14 0.750000 0.500000 0.650264
#
# Coordination Sequence:
#
# PCOD8223375 Si02
#       7
#     4   8   8   8   8   4   8
#     4  10  27  44  65 104 134 174 210 279 343 376
#     4  12  26  38  63  97 128 170 224 275 314 384
#     4  11  24  44  66  95 135 176 221 267 331 396
#     4  11  23  44  71 102 132 170 220 274 332 399
#     4  11  24  43  63  91 131 173 219 269 333 384
#     4  10  21  42  73  90 134 180 214 265 325 420
#     4  11  22  45  70  95 127 182 222 260 336 407
#
# _framework density 21.145927
#
# number of rings (size 3 to 8) (size 9 to 14) (size 15 to 20)
#    0.000    1.000    5.000    1.500    9.333    0.667 
#    3.000    0.833    0.000    0.000    0.000    0.000 
#    0.000    0.000    0.000    0.000    0.000    0.000 
#
# Total GULP energy -595290.917188 kJ/mol
# GULP energy per Si atom -12401.894108 kJ/mol
# Density = 2.109780 g / cm^3
# Si number density = 21.145927 Si / 1000 Ang^3
#
#
#
# Elastic Constant Matrix: (Units=GPa)
#
#
# Indices 1 2 3 4 5 6 
#
# 1 69.9389 27.3523 37.1480 0.0000 0.0000 0.0000
# 2 27.3523 119.9728 67.2078 0.0000 0.0000 0.0000
# 3 37.1480 67.2078 157.8736 0.0000 0.0000 0.0000
# 4 0.0000 0.0000 0.0000 27.7905 0.0000 0.0000
# 5 0.0000 0.0000 0.0000 0.0000 21.6791 0.0000
# 6 0.0000 0.0000 0.0000 0.0000 0.0000 42.9951
#
#
#
# Elastic Compliance Matrix: (Units=1/GPa)
#
#
# Indices 1 2 3 4 5 6 
#
# 1 0.016739 -0.002114 -0.003039 0.000000 0.000000 0.000000
# 2 -0.002114 0.011212 -0.004276 0.000000 0.000000 0.000000
# 3 -0.003039 -0.004276 0.008869 0.000000 0.000000 0.000000
# 4 0.000000 0.000000 0.000000 0.035983 0.000000 0.000000
# 5 0.000000 0.000000 0.000000 0.000000 0.046127 0.000000
# 6 0.000000 0.000000 0.000000 0.000000 0.000000 0.023258
#
#
# Mechanical properties :
#
#
# Convention : Reuss Voigt Hill
#
# Bulk Modulus (GPa) = 55.66757 67.91127 61.78942
# Shear Modulus (GPa) = 29.93381 32.89810 31.41595
#
# Velocity S-wave (km/s) = 3.76650 3.94860 3.85863
# Velocity P-wave (km/s) = 6.73038 7.27831 7.00970
#
# Compressibility (1/GPa) = 0.01796378
#
# Stress axis : x y z
#
# Youngs Moduli (GPa) = 59.74073 89.18663 112.74668
#
# Poissons Ratio (x) = 0.18854 0.34261
# Poissons Ratio (y) = 0.12629 0.48208
# Poissons Ratio (z) = 0.18154 0.38134
#
# Static dielectric constant tensor:
#      x y z
#    x 3.839860 0.000000 0.000000 
#    y 0.000000 3.854500 0.000000 
#    z 0.000000 0.000000 3.775130 
# 
# 
# High freq. dielectric constant tensor:
#      x y z
#    x 1.823580 0.000000 0.000000 
#    y 0.000000 1.837550 0.000000 
#    z 0.000000 0.000000 1.826180 
# 
# From -- ./inp_files/27816.got.cif
#   From: 2010.03.12/outbox.cif.g09.slc.cpg/sg54_14_cif.got.tgz:27816.got - 2010.04.16 15:00:50.
