data_PCOD8223408
_publ_section_title
;
Structure prediction by ZEFSAII (Michael W. Deem and Ramdas Pophale) SiO2 
 PCOD8223408
Probable space group: P C C A
;
_chemical_formula_sum "Si O2"
_cell_formula_units_Z 48
_cell_length_a 9.644402
_cell_length_b 15.531808
_cell_length_c 15.066640
_cell_angle_alpha 90.000000
_cell_angle_beta 90.000000
_cell_angle_gamma 90.000000
_cell_volume 2256.907341
_symmetry_space_group_name_H-M "P C C A"
_symmetry_group_IT_number 54
_symmetry_cell_setting 'orthorhombic'
loop_
_space_group_symop_operation_xyz
x,y,z
1/2-x,-y,z
1/2+x,-y,1/2-z
-x,y,1/2-z
-x,-y,-z
1/2+x,y,-z
1/2-x,y,1/2+z
x,-y,1/2+z
loop_
_atom_site_type_symbol
_atom_site_label
_atom_site_fract_x
_atom_site_fract_y
_atom_site_fract_z
Si Si1 0.744727 0.221435 0.399011
Si Si2 0.989862 0.325461 0.355882
Si Si3 0.164386 0.915670 0.748297
Si Si4 0.529094 0.688163 0.648064
Si Si5 0.719634 0.200116 0.595644
Si Si6 0.086515 0.503850 0.339590
O O1 0.832942 0.309420 0.388756
O O2 0.793557 0.155915 0.323456
O O3 0.586114 0.251562 0.395321
O O4 0.763674 0.176752 0.495164
O O5 0.000000 0.316767 0.250000
O O6 0.072956 0.248293 0.402391
O O7 0.042212 0.417662 0.393232
O O8 0.211676 0.886696 0.846547
O O9 0.000000 0.933979 0.750000
O O10 0.250000 0.000000 0.722363
O O11 0.500000 0.672959 0.750000
O O12 0.673999 0.735285 0.640957
O O13 0.545222 0.591316 0.606914
O O14 0.250000 0.500000 0.318369
O O15 0.000000 0.498219 0.250000
#
# Coordination Sequence:
#
# PCOD8223408 Si02
#       6
#     8   8   8   8   8   8
#     4  12  25  43  71 103 132 179 223 271 338 402
#     4  11  20  43  68  92 141 187 226 275 332 387
#     4  12  28  51  74 100 134 172 213 277 344 411
#     4  11  22  39  67 101 137 178 233 275 321 392
#     4  12  23  45  71 100 136 177 221 273 333 400
#     4  10  22  35  62  98 136 183 235 280 325 379
#
# _framework density 21.268042000000001
#
# number of rings (size 3 to 8) (size 9 to 14) (size 15 to 20)
#    0.000    0.667    6.667    1.000    9.333    0.667 
#    0.000    6.667    0.000    0.000    0.000    0.000 
#    0.000    0.000    0.000    0.000    0.000    0.000 
#
# Total GULP energy -595080.849864 kJ/mol
# GULP energy per Si atom -12397.517705 kJ/mol
# Density = 2.121963 g / cm^3
# Si number density = 21.268042 Si / 1000 Ang^3
#
#
#
# Elastic Constant Matrix: (Units=GPa)
#
#
# Indices 1 2 3 4 5 6 
#
# 1 90.2949 52.5985 31.9216 0.0000 0.0000 0.0000
# 2 52.5985 115.1859 24.1024 0.0000 0.0000 0.0000
# 3 31.9216 24.1024 99.1210 0.0000 0.0000 0.0000
# 4 0.0000 0.0000 0.0000 10.9964 0.0000 0.0000
# 5 0.0000 0.0000 0.0000 0.0000 23.1641 0.0000
# 6 0.0000 0.0000 0.0000 0.0000 0.0000 45.0296
#
#
#
# Elastic Compliance Matrix: (Units=1/GPa)
#
#
# Indices 1 2 3 4 5 6 
#
# 1 0.016227 -0.006655 -0.003608 0.000000 0.000000 0.000000
# 2 -0.006655 0.011876 -0.000745 0.000000 0.000000 0.000000
# 3 -0.003608 -0.000745 0.011432 0.000000 0.000000 0.000000
# 4 0.000000 0.000000 0.000000 0.090939 0.000000 0.000000
# 5 0.000000 0.000000 0.000000 0.000000 0.043170 0.000000
# 6 0.000000 0.000000 0.000000 0.000000 0.000000 0.022208
#
#
# Mechanical properties :
#
#
# Convention : Reuss Voigt Hill
#
# Bulk Modulus (GPa) = 57.07640 57.98297 57.52968
# Shear Modulus (GPa) = 22.35073 28.90329 25.62701
#
# Velocity S-wave (km/s) = 3.24529 3.69046 3.47501
# Velocity P-wave (km/s) = 6.39824 6.74400 6.57339
#
# Compressibility (1/GPa) = 0.01752038
#
# Stress axis : x y z
#
# Youngs Moduli (GPa) = 61.62628 84.20088 87.47706
#
# Poissons Ratio (x) = 0.56035 0.31558
# Poissons Ratio (y) = 0.41012 0.06514
# Poissons Ratio (z) = 0.22232 0.06270
#
# Static dielectric constant tensor:
#      x y z
#    x 3.805220 0.000000 0.000000 
#    y 0.000000 4.015710 0.000000 
#    z 0.000000 0.000000 3.746390 
# 
# 
# High freq. dielectric constant tensor:
#      x y z
#    x 1.852070 0.000000 0.000000 
#    y 0.000000 1.827290 0.000000 
#    z 0.000000 0.000000 1.818730 
# 
# From -- ./inp_files/16624.got.cif
#   From: 2010.03.12/outbox.cif.g09.slc.cpg/sg54_9_cif.got.tgz:16624.got - 2010.04.16 15:00:50.
