data_PCOD8223119
_publ_section_title
;
Structure prediction by ZEFSAII (Michael W. Deem and Ramdas Pophale) SiO2 
 PCOD8223119
Probable space group: P C C A
;
_chemical_formula_sum "Si O2"
_cell_formula_units_Z 60
_cell_length_a 10.883403
_cell_length_b 9.281678
_cell_length_c 27.341550
_cell_angle_alpha 90.000000
_cell_angle_beta 90.000000
_cell_angle_gamma 90.000000
_cell_volume 2761.940637
_symmetry_space_group_name_H-M "P C C A"
_symmetry_group_IT_number 54
_symmetry_cell_setting 'orthorhombic'
loop_
_space_group_symop_operation_xyz
x,y,z
1/2-x,-y,z
1/2+x,-y,1/2-z
-x,y,1/2-z
-x,-y,-z
1/2+x,y,-z
1/2-x,y,1/2+z
x,-y,1/2+z
loop_
_atom_site_type_symbol
_atom_site_label
_atom_site_fract_x
_atom_site_fract_y
_atom_site_fract_z
Si Si1 0.036655 0.717586 0.023601
Si Si2 0.402029 0.865633 0.897541
Si Si3 0.750000 0.000000 0.840629
Si Si4 0.047379 0.797398 0.195247
Si Si5 0.356251 0.190186 0.926249
Si Si6 0.361650 0.577130 0.037113
Si Si7 0.898109 0.735817 0.873745
Si Si8 0.110021 0.514933 0.711429
O O1 0.043208 0.553976 0.043886
O O2 0.020834 0.818603 0.070435
O O3 0.138979 0.774623 0.984892
O O4 0.910061 0.714634 0.992732
O O5 0.441003 0.854690 0.840964
O O6 0.280035 0.767224 0.906540
O O7 0.373186 0.023549 0.915504
O O8 0.667791 0.896555 0.807248
O O9 0.842238 0.897781 0.872051
O O10 0.082834 0.632793 0.181706
O O11 0.000000 0.808038 0.250000
O O12 0.463141 0.271519 0.895884
O O13 0.250000 0.500000 0.009086
O O14 0.315007 0.640916 0.089134
O O15 0.896445 0.657522 0.821681
O O16 0.250000 0.500000 0.733770
O O17 0.000000 0.535808 0.750000
#
# Coordination Sequence:
#
# PCOD8223119 Si02
#       8
#     8   8   4   8   8   8   8   8
#     4  10  21  38  59  92 129 175 225 268 340 404
#     4  11  22  42  64  93 137 178 221 291 340 409
#     4  12  24  44  68 100 134 172 228 282 338 416
#     4  11  26  46  69 102 132 181 233 280 350 407
#     4  10  23  40  62  99 132 177 228 272 351 412
#     4  10  21  35  59  89 125 170 216 270 323 399
#     4  11  23  41  65  96 129 175 225 279 345 412
#     4  11  24  44  68  96 134 173 231 286 352 415
#
# _framework density 21.723856999999999
#
# number of rings (size 3 to 8) (size 9 to 14) (size 15 to 20)
#    0.000    1.333    2.667    2.400    1.867    3.733 
#    0.000    4.000    0.000    0.000    0.000    0.000 
#    0.000    0.000    0.000    0.000    0.000    0.000 
#
# Total GULP energy -743305.533526 kJ/mol
# GULP energy per Si atom -12388.425559 kJ/mol
# Density = 2.167441 g / cm^3
# Si number density = 21.723857 Si / 1000 Ang^3
#
#
#
# Elastic Constant Matrix: (Units=GPa)
#
#
# Indices 1 2 3 4 5 6 
#
# 1 86.0644 7.7163 25.4175 0.0000 0.0000 0.0000
# 2 7.7163 99.5380 34.0359 0.0000 0.0000 0.0000
# 3 25.4175 34.0359 104.2885 0.0000 0.0000 0.0000
# 4 0.0000 0.0000 0.0000 29.6090 0.0000 0.0000
# 5 0.0000 0.0000 0.0000 0.0000 16.3802 0.0000
# 6 0.0000 0.0000 0.0000 0.0000 0.0000 36.5855
#
#
#
# Elastic Compliance Matrix: (Units=1/GPa)
#
#
# Indices 1 2 3 4 5 6 
#
# 1 0.012521 0.000082 -0.003078 0.000000 0.000000 0.000000
# 2 0.000082 0.011309 -0.003711 0.000000 0.000000 0.000000
# 3 -0.003078 -0.003711 0.011550 0.000000 0.000000 0.000000
# 4 0.000000 0.000000 0.000000 0.033773 0.000000 0.000000
# 5 0.000000 0.000000 0.000000 0.000000 0.061049 0.000000
# 6 0.000000 0.000000 0.000000 0.000000 0.000000 0.027333
#
#
# Mechanical properties :
#
#
# Convention : Reuss Voigt Hill
#
# Bulk Modulus (GPa) = 45.52572 47.13671 46.33122
# Shear Modulus (GPa) = 28.04699 31.36305 29.70502
#
# Velocity S-wave (km/s) = 3.59704 3.80375 3.70184
# Velocity P-wave (km/s) = 6.18496 6.40598 6.29644
#
# Compressibility (1/GPa) = 0.02196561
#
# Stress axis : x y z
#
# Youngs Moduli (GPa) = 79.86583 88.42577 86.57916
#
# Poissons Ratio (x) = -0.00725 0.26653
# Poissons Ratio (y) = -0.00655 0.32128
# Poissons Ratio (z) = 0.24586 0.32813
#
# Static dielectric constant tensor:
#      x y z
#    x 4.454800 0.000000 0.000000 
#    y 0.000000 4.101360 0.000000 
#    z 0.000000 0.000000 3.717530 
# 
# 
# High freq. dielectric constant tensor:
#      x y z
#    x 1.866690 0.000000 0.000000 
#    y 0.000000 1.861140 0.000000 
#    z 0.000000 0.000000 1.833180 
# 
# From -- ./inp_files/26300.got.cif
#   From: 2010.03.12/outbox.cif.g09.slc.cpg/sg54_14_cif.got.tgz:26300.got - 2010.04.16 15:00:50.
