data_PCOD8223302
_publ_section_title
;
Structure prediction by ZEFSAII (Michael W. Deem and Ramdas Pophale) SiO2 
 PCOD8223302
Probable space group: P C C A
;
_chemical_formula_sum "Si O2"
_cell_formula_units_Z 48
_cell_length_a 14.869576
_cell_length_b 8.874907
_cell_length_c 17.669268
_cell_angle_alpha 90.000000
_cell_angle_beta 90.000000
_cell_angle_gamma 90.000000
_cell_volume 2331.744461
_symmetry_space_group_name_H-M "P C C A"
_symmetry_group_IT_number 54
_symmetry_cell_setting 'orthorhombic'
loop_
_space_group_symop_operation_xyz
x,y,z
1/2-x,-y,z
1/2+x,-y,1/2-z
-x,y,1/2-z
-x,-y,-z
1/2+x,y,-z
1/2-x,y,1/2+z
x,-y,1/2+z
loop_
_atom_site_type_symbol
_atom_site_label
_atom_site_fract_x
_atom_site_fract_y
_atom_site_fract_z
Si Si1 0.639687 0.184470 0.055938
Si Si2 0.338250 0.159892 0.914684
Si Si3 0.511167 0.355813 0.949230
Si Si4 0.233424 0.164550 0.244472
Si Si5 0.918334 0.636735 0.790577
Si Si6 0.406351 0.323600 0.284543
O O1 0.746838 0.206606 0.040541
O O2 0.603900 0.283463 0.126997
O O3 0.624159 0.006540 0.068031
O O4 0.582255 0.237345 0.983926
O O5 0.414946 0.277940 0.935817
O O6 0.310252 0.161702 0.827244
O O7 0.549370 0.424110 0.871356
O O8 0.500000 0.500000 0.000000
O O9 0.164700 0.254694 0.191868
O O10 0.328452 0.244037 0.238142
O O11 0.250000 0.000000 0.210988
O O12 0.895226 0.501650 0.732038
O O13 0.000000 0.728858 0.750000
O O14 0.500000 0.263671 0.250000
#
# Coordination Sequence:
#
# PCOD8223302 Si02
#       6
#     8   8   8   8   8   8
#     4  10  22  44  68  95 124 173 214 261 328 389
#     4  10  21  44  69  90 128 171 217 261 325 401
#     4  12  25  43  65  98 132 173 217 267 330 388
#     4  11  21  41  67  94 124 169 218 267 323 386
#     4  11  23  41  64  96 131 165 215 271 321 385
#     4  10  21  40  64  94 128 163 212 263 323 384
#
# _framework density 20.585446000000001
#
# number of rings (size 3 to 8) (size 9 to 14) (size 15 to 20)
#    0.000    1.333    5.000    3.000    0.000    2.667 
#   12.000    0.000    0.000    0.000    0.000    0.000 
#    0.000    0.000    0.000    0.000    0.000    0.000 
#
# Total GULP energy -594982.047238 kJ/mol
# GULP energy per Si atom -12395.459317 kJ/mol
# Density = 2.053859 g / cm^3
# Si number density = 20.585446 Si / 1000 Ang^3
#
#
#
# Elastic Constant Matrix: (Units=GPa)
#
#
# Indices 1 2 3 4 5 6 
#
# 1 142.8242 72.8337 35.1679 0.0000 0.0000 0.0000
# 2 72.8337 123.0827 35.9142 0.0000 0.0000 0.0000
# 3 35.1679 35.9142 75.1664 0.0000 0.0000 0.0000
# 4 0.0000 0.0000 0.0000 22.9641 0.0000 0.0000
# 5 0.0000 0.0000 0.0000 0.0000 31.6852 0.0000
# 6 0.0000 0.0000 0.0000 0.0000 0.0000 32.7007
#
#
#
# Elastic Compliance Matrix: (Units=1/GPa)
#
#
# Indices 1 2 3 4 5 6 
#
# 1 0.010338 -0.005468 -0.002224 0.000000 0.000000 0.000000
# 2 -0.005468 0.012334 -0.003334 0.000000 0.000000 0.000000
# 3 -0.002224 -0.003334 0.015937 0.000000 0.000000 0.000000
# 4 0.000000 0.000000 0.000000 0.043546 0.000000 0.000000
# 5 0.000000 0.000000 0.000000 0.000000 0.031560 0.000000
# 6 0.000000 0.000000 0.000000 0.000000 0.000000 0.030580
#
#
# Mechanical properties :
#
#
# Convention : Reuss Voigt Hill
#
# Bulk Modulus (GPa) = 60.40373 69.87833 65.14103
# Shear Modulus (GPa) = 29.09210 30.61383 29.85296
#
# Velocity S-wave (km/s) = 3.76338 3.86055 3.81228
# Velocity P-wave (km/s) = 6.94915 7.34105 7.14779
#
# Compressibility (1/GPa) = 0.01655527
#
# Stress axis : x y z
#
# Youngs Moduli (GPa) = 96.73140 81.07989 62.74524
#
# Poissons Ratio (x) = 0.44339 0.13954
# Poissons Ratio (y) = 0.52898 0.20922
# Poissons Ratio (z) = 0.21513 0.27035
#
# Static dielectric constant tensor:
#      x y z
#    x 4.330290 0.000000 0.000000 
#    y 0.000000 3.767960 0.000000 
#    z 0.000000 0.000000 3.586620 
# 
# 
# High freq. dielectric constant tensor:
#      x y z
#    x 1.825830 0.000000 0.000000 
#    y 0.000000 1.806040 0.000000 
#    z 0.000000 0.000000 1.786900 
# 
# From -- ./inp_files/18029.got.cif
#   From: 2010.03.12/outbox.cif.g09.slc.cpg/sg54_10_cif.got.tgz:18029.got - 2010.04.16 15:00:50.
