data_PCOD8223666
_publ_section_title
;
Structure prediction by ZEFSAII (Michael W. Deem and Ramdas Pophale) SiO2 
 PCOD8223666
Probable space group: P C C A
;
_chemical_formula_sum "Si O2"
_cell_formula_units_Z 40
_cell_length_a 9.480691
_cell_length_b 15.603086
_cell_length_c 12.855662
_cell_angle_alpha 90.000000
_cell_angle_beta 90.000000
_cell_angle_gamma 90.000000
_cell_volume 1901.712844
_symmetry_space_group_name_H-M "P C C A"
_symmetry_group_IT_number 54
_symmetry_cell_setting 'orthorhombic'
loop_
_space_group_symop_operation_xyz
x,y,z
1/2-x,-y,z
1/2+x,-y,1/2-z
-x,y,1/2-z
-x,-y,-z
1/2+x,y,-z
1/2-x,y,1/2+z
x,-y,1/2+z
loop_
_atom_site_type_symbol
_atom_site_label
_atom_site_fract_x
_atom_site_fract_y
_atom_site_fract_z
Si Si1 0.587576 0.776619 0.344848
Si Si2 0.250000 0.500000 0.495158
Si Si3 0.131073 0.152136 0.689183
Si Si4 0.497633 0.585435 0.128188
Si Si5 0.750000 0.000000 0.687635
Si Si6 0.557191 0.090372 0.530921
O O1 0.500000 0.813131 0.250000
O O2 0.747876 0.775434 0.303496
O O3 0.524015 0.686841 0.382524
O O4 0.571136 0.849577 0.431901
O O5 0.350351 0.560481 0.422795
O O6 0.138984 0.548186 0.569311
O O7 0.151937 0.057820 0.739218
O O8 0.117022 0.140136 0.566942
O O9 0.000000 0.194594 0.750000
O O10 0.500000 0.557401 0.250000
O O11 0.826766 0.927524 0.618866
O O12 0.500000 0.000000 0.500000
#
# Coordination Sequence:
#
# PCOD8223666 Si02
#       6
#     8   4   8   8   4   8
#     4  11  25  45  66  96 138 174 226 287 338 401
#     4  10  22  46  78 106 138 176 220 270 350 442
#     4  12  26  41  62  92 129 180 237 287 347 398
#     4  10  23  45  74 108 140 177 219 279 346 421
#     4  12  22  42  62  90 126 180 238 290 350 398
#     4  12  24  41  63  89 129 184 234 288 336 394
#
# _framework density 21.033670999999998
#
# number of rings (size 3 to 8) (size 9 to 14) (size 15 to 20)
#    0.000    0.800    4.000    3.600    2.800    0.000 
#    3.600    1.000    0.000    0.000    0.000    0.000 
#    0.000    0.000    0.000    0.000    0.000    0.000 
#
# Total GULP energy -495585.116313 kJ/mol
# GULP energy per Si atom -12389.627908 kJ/mol
# Density = 2.098580 g / cm^3
# Si number density = 21.033671 Si / 1000 Ang^3
#
#
#
# Elastic Constant Matrix: (Units=GPa)
#
#
# Indices 1 2 3 4 5 6 
#
# 1 167.9077 61.6281 63.8288 0.0000 0.0000 0.0000
# 2 61.6281 102.2226 52.4717 0.0000 0.0000 0.0000
# 3 63.8288 52.4717 119.4697 0.0000 0.0000 0.0000
# 4 0.0000 0.0000 0.0000 12.8211 0.0000 0.0000
# 5 0.0000 0.0000 0.0000 0.0000 40.6111 0.0000
# 6 0.0000 0.0000 0.0000 0.0000 0.0000 30.8147
#
#
#
# Elastic Compliance Matrix: (Units=1/GPa)
#
#
# Indices 1 2 3 4 5 6 
#
# 1 0.008365 -0.003549 -0.002910 0.000000 0.000000 0.000000
# 2 -0.003549 0.014136 -0.004312 0.000000 0.000000 0.000000
# 3 -0.002910 -0.004312 0.011819 0.000000 0.000000 0.000000
# 4 0.000000 0.000000 0.000000 0.077997 0.000000 0.000000
# 5 0.000000 0.000000 0.000000 0.000000 0.024624 0.000000
# 6 0.000000 0.000000 0.000000 0.000000 0.000000 0.032452
#
#
# Mechanical properties :
#
#
# Convention : Reuss Voigt Hill
#
# Bulk Modulus (GPa) = 78.26959 82.82859 80.54909
# Shear Modulus (GPa) = 25.61555 30.96079 28.28817
#
# Velocity S-wave (km/s) = 3.49354 3.84078 3.67127
# Velocity P-wave (km/s) = 7.31884 7.68982 7.50662
#
# Compressibility (1/GPa) = 0.01277635
#
# Stress axis : x y z
#
# Youngs Moduli (GPa) = 119.55222 70.74239 84.60843
#
# Poissons Ratio (x) = 0.25107 0.24622
# Poissons Ratio (y) = 0.42429 0.36486
# Poissons Ratio (z) = 0.34792 0.30507
#
# Static dielectric constant tensor:
#      x y z
#    x 3.977470 0.000000 0.000000 
#    y 0.000000 3.601600 0.000000 
#    z 0.000000 0.000000 4.172450 
# 
# 
# High freq. dielectric constant tensor:
#      x y z
#    x 1.839380 0.000000 0.000000 
#    y 0.000000 1.800060 0.000000 
#    z 0.000000 0.000000 1.846090 
# 
# From -- ./inp_files/6898.got.cif
#   From: 2010.03.12/outbox.cif.g09.slc.cpg/sg54_4_cif.got.tgz:6898.got - 2010.04.16 15:00:50.
