data_PCOD8223698
_publ_section_title
;
Structure prediction by ZEFSAII (Michael W. Deem and Ramdas Pophale) SiO2 
 PCOD8223698
Probable space group: P C C A
;
_chemical_formula_sum "Si O2"
_cell_formula_units_Z 56
_cell_length_a 10.681652
_cell_length_b 15.192526
_cell_length_c 15.629157
_cell_angle_alpha 90.000000
_cell_angle_beta 90.000000
_cell_angle_gamma 90.000000
_cell_volume 2536.319537
_symmetry_space_group_name_H-M "P C C A"
_symmetry_group_IT_number 54
_symmetry_cell_setting 'orthorhombic'
loop_
_space_group_symop_operation_xyz
x,y,z
1/2-x,-y,z
1/2+x,-y,1/2-z
-x,y,1/2-z
-x,-y,-z
1/2+x,y,-z
1/2-x,y,1/2+z
x,-y,1/2+z
loop_
_atom_site_type_symbol
_atom_site_label
_atom_site_fract_x
_atom_site_fract_y
_atom_site_fract_z
Si Si1 0.145238 0.613601 0.843298
Si Si2 0.865301 0.886614 0.830455
Si Si3 0.279970 0.797594 0.009656
Si Si4 0.464595 0.687256 0.513158
Si Si5 0.500000 0.044281 0.250000
Si Si6 0.000000 0.253086 0.250000
Si Si7 0.929316 0.414963 0.665500
Si Si8 0.778554 0.101751 0.661871
O O1 0.293390 0.626269 0.854047
O O2 0.096223 0.517615 0.819063
O O3 0.116014 0.682923 0.768664
O O4 0.067411 0.636328 0.927372
O O5 0.794261 0.876745 0.920460
O O6 0.973810 0.811609 0.831477
O O7 0.788424 0.860016 0.745707
O O8 0.914482 0.985417 0.814421
O O9 0.158842 0.742804 0.039911
O O10 0.408603 0.743483 0.999757
O O11 0.244446 0.840085 0.919055
O O12 0.484863 0.612228 0.585274
O O13 0.425077 0.106765 0.314460
O O14 0.000000 0.378462 0.750000
O O15 0.750000 0.000000 0.642711
#
# Coordination Sequence:
#
# PCOD8223698 Si02
#       8
#     8   8   8   8   4   4   8   8
#     4  11  23  46  69 100 136 186 229 297 345 419
#     4  10  23  41  68  98 131 182 227 279 356 411
#     4  12  27  43  72 101 138 187 233 279 357 418
#     4  12  26  47  66 105 143 183 230 292 345 420
#     4   9  22  44  68  93 136 178 228 291 350 410
#     4  11  20  40  70  93 134 172 232 281 338 414
#     4  11  26  45  70 103 138 182 243 288 357 412
#     4  10  24  44  65 101 138 175 231 295 342 420
#
# _framework density 22.079236999999999
#
# number of rings (size 3 to 8) (size 9 to 14) (size 15 to 20)
#    0.000    1.143    3.571    1.286    8.000    2.286 
#    0.000    0.000    0.000    0.000    0.000    0.000 
#    0.000    0.000    0.000    0.000    0.000    0.000 
#
# Total GULP energy -693918.865322 kJ/mol
# GULP energy per Si atom -12391.408309 kJ/mol
# Density = 2.202898 g / cm^3
# Si number density = 22.079237 Si / 1000 Ang^3
#
#
#
# Elastic Constant Matrix: (Units=GPa)
#
#
# Indices 1 2 3 4 5 6 
#
# 1 123.0373 18.7103 31.3752 0.0000 0.0000 0.0000
# 2 18.7103 46.0186 6.1123 0.0000 0.0000 0.0000
# 3 31.3752 6.1123 101.0156 0.0000 0.0000 0.0000
# 4 0.0000 0.0000 0.0000 31.4729 0.0000 0.0000
# 5 0.0000 0.0000 0.0000 0.0000 38.8531 0.0000
# 6 0.0000 0.0000 0.0000 0.0000 0.0000 28.6093
#
#
#
# Elastic Compliance Matrix: (Units=1/GPa)
#
#
# Indices 1 2 3 4 5 6 
#
# 1 0.009337 -0.003439 -0.002692 0.000000 0.000000 0.000000
# 2 -0.003439 0.023173 -0.000334 0.000000 0.000000 0.000000
# 3 -0.002692 -0.000334 0.010756 0.000000 0.000000 0.000000
# 4 0.000000 0.000000 0.000000 0.031773 0.000000 0.000000
# 5 0.000000 0.000000 0.000000 0.000000 0.025738 0.000000
# 6 0.000000 0.000000 0.000000 0.000000 0.000000 0.034954
#
#
# Mechanical properties :
#
#
# Convention : Reuss Voigt Hill
#
# Bulk Modulus (GPa) = 32.96406 42.49635 37.73020
# Shear Modulus (GPa) = 31.49165 34.04531 32.76848
#
# Velocity S-wave (km/s) = 3.78074 3.93104 3.85662
# Velocity P-wave (km/s) = 5.83275 6.31610 6.07923
#
# Compressibility (1/GPa) = 0.03033607
#
# Stress axis : x y z
#
# Youngs Moduli (GPa) = 107.10067 43.15400 92.97313
#
# Poissons Ratio (x) = 0.14839 0.25028
# Poissons Ratio (y) = 0.36829 0.03106
# Poissons Ratio (z) = 0.28831 0.01442
#
# Static dielectric constant tensor:
#      x y z
#    x 4.384510 0.000000 0.000000 
#    y 0.000000 3.972600 0.000000 
#    z 0.000000 0.000000 3.940070 
# 
# 
# High freq. dielectric constant tensor:
#      x y z
#    x 1.882460 0.000000 0.000000 
#    y 0.000000 1.868600 0.000000 
#    z 0.000000 0.000000 1.864910 
# 
# From -- ./inp_files/12752.got.cif
#   From: 2010.03.12/outbox.cif.g09.slc.cpg/sg54_7_cif.got.tgz:12752.got - 2010.04.16 15:00:50.
