data_PCOD8223057
_publ_section_title
;
Structure prediction by ZEFSAII (Michael W. Deem and Ramdas Pophale) SiO2 
 PCOD8223057
Probable space group: P C C A
;
_chemical_formula_sum "Si O2"
_cell_formula_units_Z 64
_cell_length_a 19.070768
_cell_length_b 9.162819
_cell_length_c 17.483229
_cell_angle_alpha 90.000000
_cell_angle_beta 90.000000
_cell_angle_gamma 90.000000
_cell_volume 3055.054321
_symmetry_space_group_name_H-M "P C C A"
_symmetry_group_IT_number 54
_symmetry_cell_setting 'orthorhombic'
loop_
_space_group_symop_operation_xyz
x,y,z
1/2-x,-y,z
1/2+x,-y,1/2-z
-x,y,1/2-z
-x,-y,-z
1/2+x,y,-z
1/2-x,y,1/2+z
x,-y,1/2+z
loop_
_atom_site_type_symbol
_atom_site_label
_atom_site_fract_x
_atom_site_fract_y
_atom_site_fract_z
Si Si1 0.102139 0.558856 0.653077
Si Si2 0.285179 0.735183 0.794655
Si Si3 0.569720 0.912323 0.988767
Si Si4 0.351707 0.240578 0.133486
Si Si5 0.029065 0.613324 0.938550
Si Si6 0.224024 0.348832 0.044902
Si Si7 0.314199 0.902373 0.939438
Si Si8 0.854584 0.424347 0.184379
O O1 0.098866 0.383110 0.642887
O O2 0.175771 0.614418 0.618037
O O3 0.097079 0.600702 0.741659
O O4 0.036564 0.643017 0.616587
O O5 0.309202 0.795485 0.711433
O O6 0.311832 0.862297 0.850291
O O7 0.202303 0.708142 0.812150
O O8 0.319545 0.580404 0.808722
O O9 0.555730 0.751396 0.016873
O O10 0.619098 0.999734 0.045744
O O11 0.600616 0.893376 0.901283
O O12 0.500000 0.000000 0.000000
O O13 0.292961 0.263105 0.069484
O O14 0.097507 0.565188 0.890943
O O15 0.000000 0.500000 0.000000
O O16 0.250000 0.500000 0.004982
O O17 0.181729 0.250792 0.985127
O O18 0.250000 0.000000 0.966730
#
# Coordination Sequence:
#
# PCOD8223057 Si02
#       8
#     8   8   8   8   8   8   8   8
#     4  10  20  40  70 102 130 169 226 290 348 411
#     4  10  23  41  69  99 135 175 223 289 356 413
#     4  12  27  46  64  96 141 181 234 284 337 429
#     4  10  20  44  67  98 133 174 226 283 349 424
#     4  12  25  42  68  97 133 181 227 281 351 414
#     4  10  21  38  72 100 128 171 234 286 348 410
#     4  12  25  42  62  99 137 180 224 285 345 415
#     4  10  22  40  68 105 134 164 229 298 343 408
#
# _framework density 20.948889999999999
#
# number of rings (size 3 to 8) (size 9 to 14) (size 15 to 20)
#    0.000    1.250    3.750    1.875    5.250    0.000 
#    2.250    3.125    0.000    0.000    0.000    0.000 
#    0.000    0.000    0.000    0.000    0.000    0.000 
#
# Total GULP energy -793173.457133 kJ/mol
# GULP energy per Si atom -12393.335268 kJ/mol
# Density = 2.090121 g / cm^3
# Si number density = 20.948890 Si / 1000 Ang^3
#
#
#
# Elastic Constant Matrix: (Units=GPa)
#
#
# Indices 1 2 3 4 5 6 
#
# 1 126.6020 40.6311 57.7928 0.0000 0.0000 0.0000
# 2 40.6311 92.3753 57.0425 0.0000 0.0000 0.0000
# 3 57.7928 57.0425 127.8471 0.0000 0.0000 0.0000
# 4 0.0000 0.0000 0.0000 34.6828 0.0000 0.0000
# 5 0.0000 0.0000 0.0000 0.0000 38.0621 0.0000
# 6 0.0000 0.0000 0.0000 0.0000 0.0000 41.5602
#
#
#
# Elastic Compliance Matrix: (Units=1/GPa)
#
#
# Indices 1 2 3 4 5 6 
#
# 1 0.010290 -0.002282 -0.003633 0.000000 0.000000 0.000000
# 2 -0.002282 0.015449 -0.005861 0.000000 0.000000 0.000000
# 3 -0.003633 -0.005861 0.012079 0.000000 0.000000 0.000000
# 4 0.000000 0.000000 0.000000 0.028833 0.000000 0.000000
# 5 0.000000 0.000000 0.000000 0.000000 0.026273 0.000000
# 6 0.000000 0.000000 0.000000 0.000000 0.000000 0.024061
#
#
# Mechanical properties :
#
#
# Convention : Reuss Voigt Hill
#
# Bulk Modulus (GPa) = 70.10447 73.08413 71.59430
# Shear Modulus (GPa) = 34.41333 35.61823 35.01578
#
# Velocity S-wave (km/s) = 4.05746 4.12787 4.09282
# Velocity P-wave (km/s) = 7.44901 7.59485 7.52228
#
# Compressibility (1/GPa) = 0.01426443
#
# Stress axis : x y z
#
# Youngs Moduli (GPa) = 97.18397 64.73086 82.78683
#
# Poissons Ratio (x) = 0.14775 0.30077
# Poissons Ratio (y) = 0.22182 0.48522
# Poissons Ratio (z) = 0.35308 0.37939
#
# Static dielectric constant tensor:
#      x y z
#    x 1.207660 0.000000 0.000000 
#    y 0.000000 3.733080 0.000000 
#    z 0.000000 0.000000 3.930790 
# 
# 
# High freq. dielectric constant tensor:
#      x y z
#    x 1.825860 0.000000 0.000000 
#    y 0.000000 1.805340 0.000000 
#    z 0.000000 0.000000 1.824940 
# 
# From -- ./inp_files/18930.got.cif
#   From: 2010.03.12/outbox.cif.g09.slc.cpg/sg54_10_cif.got.tgz:18930.got - 2010.04.16 15:00:50.
