data_PCOD8223045
_publ_section_title
;
Structure prediction by ZEFSAII (Michael W. Deem and Ramdas Pophale) SiO2 
 PCOD8223045
Probable space group: P C C A
;
_chemical_formula_sum "Si O2"
_cell_formula_units_Z 56
_cell_length_a 15.770698
_cell_length_b 14.435142
_cell_length_c 11.366509
_cell_angle_alpha 90.000000
_cell_angle_beta 90.000000
_cell_angle_gamma 90.000000
_cell_volume 2587.611520
_symmetry_space_group_name_H-M "P C C A"
_symmetry_group_IT_number 54
_symmetry_cell_setting 'orthorhombic'
loop_
_space_group_symop_operation_xyz
x,y,z
1/2-x,-y,z
1/2+x,-y,1/2-z
-x,y,1/2-z
-x,-y,-z
1/2+x,y,-z
1/2-x,y,1/2+z
x,-y,1/2+z
loop_
_atom_site_type_symbol
_atom_site_label
_atom_site_fract_x
_atom_site_fract_y
_atom_site_fract_z
Si Si1 0.952160 0.521261 0.874310
Si Si2 0.158730 0.647052 0.169614
Si Si3 0.100374 0.066424 0.740133
Si Si4 0.416779 0.196040 0.036784
Si Si5 0.608789 0.235820 0.111524
Si Si6 0.658651 0.696270 0.376056
Si Si7 0.902237 0.863255 0.723901
O O1 0.870982 0.455085 0.864969
O O2 0.921761 0.627463 0.875007
O O3 0.000000 0.505202 0.750000
O O4 0.000000 0.500000 0.000000
O O5 0.137219 0.712612 0.060465
O O6 0.111033 0.686649 0.285694
O O7 0.260484 0.644930 0.180227
O O8 0.118184 0.110340 0.613326
O O9 0.139033 0.136239 0.838379
O O10 0.000000 0.060544 0.750000
O O11 0.140696 0.964173 0.753143
O O12 0.514621 0.222752 0.059418
O O13 0.392847 0.166300 0.908386
O O14 0.672403 0.270344 0.010375
O O15 0.643463 0.788679 0.303346
O O16 0.000000 0.870009 0.750000
#
# Coordination Sequence:
#
# PCOD8223045 Si02
#       7
#     8   8   8   8   8   8   8
#     4  12  27  47  74 101 128 170 224 278 332 399
#     4  11  25  44  66  93 136 177 210 264 342 401
#     4   8  19  35  64  94 126 173 222 270 320 378
#     4  10  20  40  66  91 127 176 226 268 321 388
#     4  10  21  43  66  93 131 180 222 262 324 396
#     4  12  26  40  67 100 135 169 217 277 330 391
#     4  11  22  36  64 100 131 167 224 284 319 373
#
# _framework density 21.641579
#
# number of rings (size 3 to 8) (size 9 to 14) (size 15 to 20)
#    0.000    1.429    1.429    4.714    6.000    1.714 
#    0.000    5.714    0.000    0.000    0.000    0.000 
#    0.000    0.000    0.000    0.000    0.000    0.000 
#
# Total GULP energy -694066.883000 kJ/mol
# GULP energy per Si atom -12394.051482 kJ/mol
# Density = 2.159232 g / cm^3
# Si number density = 21.641579 Si / 1000 Ang^3
#
#
#
# Elastic Constant Matrix: (Units=GPa)
#
#
# Indices 1 2 3 4 5 6 
#
# 1 37.1545 17.2756 8.2751 0.0000 0.0000 0.0000
# 2 17.2756 129.4688 50.9732 0.0000 0.0000 0.0000
# 3 8.2751 50.9732 130.7332 0.0000 0.0000 0.0000
# 4 0.0000 0.0000 0.0000 12.1477 0.0000 0.0000
# 5 0.0000 0.0000 0.0000 0.0000 14.2582 0.0000
# 6 0.0000 0.0000 0.0000 0.0000 0.0000 23.4231
#
#
#
# Elastic Compliance Matrix: (Units=1/GPa)
#
#
# Indices 1 2 3 4 5 6 
#
# 1 0.028711 -0.003681 -0.000382 0.000000 0.000000 0.000000
# 2 -0.003681 0.009596 -0.003509 0.000000 0.000000 0.000000
# 3 -0.000382 -0.003509 0.009041 0.000000 0.000000 0.000000
# 4 0.000000 0.000000 0.000000 0.082320 0.000000 0.000000
# 5 0.000000 0.000000 0.000000 0.000000 0.070135 0.000000
# 6 0.000000 0.000000 0.000000 0.000000 0.000000 0.042693
#
#
# Mechanical properties :
#
#
# Convention : Reuss Voigt Hill
#
# Bulk Modulus (GPa) = 31.05024 50.04490 40.54757
# Shear Modulus (GPa) = 18.63060 24.68796 21.65928
#
# Velocity S-wave (km/s) = 2.93724 3.38119 3.16700
# Velocity P-wave (km/s) = 5.08742 6.19821 5.67008
#
# Compressibility (1/GPa) = 0.03220587
#
# Stress axis : x y z
#
# Youngs Moduli (GPa) = 34.82976 104.20590 110.60221
#
# Poissons Ratio (x) = 0.38353 0.04228
# Poissons Ratio (y) = 0.12819 0.38807
# Poissons Ratio (z) = 0.01331 0.36563
#
# Static dielectric constant tensor:
#      x y z
#    x 3.330950 0.000000 0.000000 
#    y 0.000000 4.333750 0.000000 
#    z 0.000000 0.000000 4.473780 
# 
# 
# High freq. dielectric constant tensor:
#      x y z
#    x 1.823120 0.000000 0.000000 
#    y 0.000000 1.865470 0.000000 
#    z 0.000000 0.000000 1.859260 
# 
# From -- ./inp_files/8446.got.cif
#   From: 2010.03.12/outbox.cif.g09.slc.cpg/sg54_5_cif.got.tgz:8446.got - 2010.04.16 15:00:50.
