data_PCOD8223684
_publ_section_title
;
Structure prediction by ZEFSAII (Michael W. Deem and Ramdas Pophale) SiO2 
 PCOD8223684
Probable space group: P C C A
;
_chemical_formula_sum "Si O2"
_cell_formula_units_Z 48
_cell_length_a 8.882960
_cell_length_b 15.561229
_cell_length_c 16.553790
_cell_angle_alpha 90.000000
_cell_angle_beta 90.000000
_cell_angle_gamma 90.000000
_cell_volume 2288.226663
_symmetry_space_group_name_H-M "P C C A"
_symmetry_group_IT_number 54
_symmetry_cell_setting 'orthorhombic'
loop_
_space_group_symop_operation_xyz
x,y,z
1/2-x,-y,z
1/2+x,-y,1/2-z
-x,y,1/2-z
-x,-y,-z
1/2+x,y,-z
1/2-x,y,1/2+z
x,-y,1/2+z
loop_
_atom_site_type_symbol
_atom_site_label
_atom_site_fract_x
_atom_site_fract_y
_atom_site_fract_z
Si Si1 0.032615 0.285613 0.374486
Si Si2 0.080944 0.470122 0.418649
Si Si3 0.253461 0.701373 0.726865
Si Si4 0.872856 0.114895 0.043255
Si Si5 0.000000 0.557861 0.250000
Si Si6 0.062340 0.931285 0.404580
Si Si7 0.500000 0.164796 0.250000
O O1 0.079862 0.367627 0.426319
O O2 0.151234 0.275135 0.302755
O O3 0.044137 0.200868 0.428336
O O4 0.859351 0.302998 0.348731
O O5 0.250000 0.500000 0.422351
O O6 0.000000 0.500000 0.500000
O O7 0.008807 0.500461 0.332067
O O8 0.346796 0.613545 0.741792
O O9 0.371497 0.776955 0.709880
O O10 0.693325 0.118159 0.046262
O O11 0.925488 0.034361 0.098435
O O12 0.910298 0.096327 0.949782
O O13 0.071701 0.898053 0.314553
#
# Coordination Sequence:
#
# PCOD8223684 Si02
#       7
#     8   8   8   8   4   8   4
#     4  11  23  43  67  99 134 171 233 274 328 401
#     4  12  29  46  72 105 134 181 230 277 344 402
#     4  10  23  40  71  99 131 181 222 275 338 390
#     4  10  23  44  66  95 133 176 220 271 333 393
#     4  11  24  50  69  92 148 180 221 282 340 401
#     4  10  23  44  66  95 136 176 217 268 335 394
#     4  11  22  42  65 102 134 170 225 274 324 385
#
# _framework density 20.976942999999999
#
# number of rings (size 3 to 8) (size 9 to 14) (size 15 to 20)
#    0.000    1.333    3.333    1.000    4.667    5.333 
#    0.000    0.000    0.000    0.000    0.000    0.000 
#    0.000    0.000    0.000    0.000    0.000    0.000 
#
# Total GULP energy -595081.664380 kJ/mol
# GULP energy per Si atom -12397.534675 kJ/mol
# Density = 2.092920 g / cm^3
# Si number density = 20.976943 Si / 1000 Ang^3
#
#
#
# Elastic Constant Matrix: (Units=GPa)
#
#
# Indices 1 2 3 4 5 6 
#
# 1 109.6070 33.4669 28.4813 0.0000 0.0000 0.0000
# 2 33.4669 148.3587 41.3052 0.0000 0.0000 0.0000
# 3 28.4813 41.3052 91.6576 0.0000 0.0000 0.0000
# 4 0.0000 0.0000 0.0000 -131.5914 0.0000 0.0000
# 5 0.0000 0.0000 0.0000 0.0000 25.9262 0.0000
# 6 0.0000 0.0000 0.0000 0.0000 0.0000 22.7403
#
#
#
# Elastic Compliance Matrix: (Units=1/GPa)
#
#
# Indices 1 2 3 4 5 6 
#
# 1 0.010259 -0.001631 -0.002453 0.000000 0.000000 0.000000
# 2 -0.001631 0.007967 -0.003083 0.000000 0.000000 0.000000
# 3 -0.002453 -0.003083 0.013062 0.000000 0.000000 0.000000
# 4 0.000000 0.000000 0.000000 -0.007599 0.000000 0.000000
# 5 0.000000 0.000000 0.000000 0.000000 0.038571 0.000000
# 6 0.000000 0.000000 0.000000 0.000000 0.000000 0.043975
#
#
# Mechanical properties :
#
#
# Convention : Reuss Voigt Hill
#
# Bulk Modulus (GPa) = 58.98688 61.79223 60.38955
# Shear Modulus (GPa) = 39.61346 -0.16030 19.72658
#
# Velocity S-wave (km/s) = 4.35032 -0.27674 3.06991
# Velocity P-wave (km/s) = 7.30853 5.42393 6.43559
#
# Compressibility (1/GPa) = 0.01695292
#
# Stress axis : x y z
#
# Youngs Moduli (GPa) = 97.47603 125.51991 76.55924
#
# Poissons Ratio (x) = 0.20477 0.18777
# Poissons Ratio (y) = 0.15902 0.23606
# Poissons Ratio (z) = 0.23907 0.38702
#
# Static dielectric constant tensor:
#      x y z
#    x 3.990100 0.000000 0.000000 
#    y 0.000000 3.872340 0.000000 
#    z 0.000000 0.000000 3.536180 
# 
# 
# High freq. dielectric constant tensor:
#      x y z
#    x 1.837070 0.000000 0.000000 
#    y 0.000000 1.832850 0.000000 
#    z 0.000000 0.000000 1.807140 
# 
# From -- ./inp_files/16697.got.cif
#   From: 2010.03.12/outbox.cif.g09.slc.cpg/sg54_9_cif.got.tgz:16697.got - 2010.04.16 15:00:50.
