data_PCOD8223467
_publ_section_title
;
Structure prediction by ZEFSAII (Michael W. Deem and Ramdas Pophale) SiO2 
 PCOD8223467
Probable space group: P C C A
;
_chemical_formula_sum "Si O2"
_cell_formula_units_Z 56
_cell_length_a 8.762434
_cell_length_b 19.942178
_cell_length_c 15.099812
_cell_angle_alpha 90.000000
_cell_angle_beta 90.000000
_cell_angle_gamma 90.000000
_cell_volume 2638.571628
_symmetry_space_group_name_H-M "P C C A"
_symmetry_group_IT_number 54
_symmetry_cell_setting 'orthorhombic'
loop_
_space_group_symop_operation_xyz
x,y,z
1/2-x,-y,z
1/2+x,-y,1/2-z
-x,y,1/2-z
-x,-y,-z
1/2+x,y,-z
1/2-x,y,1/2+z
x,-y,1/2+z
loop_
_atom_site_type_symbol
_atom_site_label
_atom_site_fract_x
_atom_site_fract_y
_atom_site_fract_z
Si Si1 0.720004 0.664283 0.881321
Si Si2 0.503892 0.872871 0.495486
Si Si3 0.251255 0.207559 0.906736
Si Si4 0.380759 0.649996 0.947095
Si Si5 0.169673 0.795374 0.218010
Si Si6 0.672535 0.570945 0.722168
Si Si7 0.265744 0.073841 0.116188
O O1 0.559477 0.651538 0.929109
O O2 0.729428 0.744033 0.857713
O O3 0.744953 0.624916 0.789572
O O4 0.848887 0.635430 0.948715
O O5 0.614274 0.844031 0.571335
O O6 0.406748 0.811123 0.456381
O O7 0.597769 0.906582 0.416796
O O8 0.388062 0.928232 0.535733
O O9 0.205576 0.280673 0.935668
O O10 0.281745 0.206659 0.801846
O O11 0.307628 0.596386 0.878922
O O12 0.171378 0.871425 0.184219
O O13 0.000000 0.773096 0.250000
O O14 0.750000 0.500000 0.732901
O O15 0.500000 0.561516 0.750000
O O16 0.250000 0.000000 0.159609
#
# Coordination Sequence:
#
# PCOD8223467 Si02
#       7
#     8   8   8   8   8   8   8
#     4  11  22  41  67  94 125 166 215 258 318 377
#     4  10  22  39  62  89 120 159 209 261 316 380
#     4  11  20  39  64  92 122 160 204 267 314 373
#     4  11  21  38  66  93 124 165 210 258 314 376
#     4  12  21  40  64  88 125 164 206 263 323 371
#     4  10  23  43  64  91 132 170 208 255 313 377
#     4  11  23  41  60  87 121 164 210 259 321 382
#
# _framework density 21.223603000000001
#
# number of rings (size 3 to 8) (size 9 to 14) (size 15 to 20)
#    0.000    1.143    4.286    3.429    0.000    2.286 
#    2.571    3.571    0.000    0.000    0.000    0.000 
#    0.000    0.000    0.000    0.000    0.000    0.000 
#
# Total GULP energy -694354.584510 kJ/mol
# GULP energy per Si atom -12399.189009 kJ/mol
# Density = 2.117530 g / cm^3
# Si number density = 21.223603 Si / 1000 Ang^3
#
#
#
# Elastic Constant Matrix: (Units=GPa)
#
#
# Indices 1 2 3 4 5 6 
#
# 1 54.3481 12.3415 19.9698 0.0000 0.0000 0.0000
# 2 12.3415 108.3201 21.2926 0.0000 0.0000 0.0000
# 3 19.9698 21.2926 110.2704 0.0000 0.0000 0.0000
# 4 0.0000 0.0000 0.0000 31.5846 0.0000 0.0000
# 5 0.0000 0.0000 0.0000 0.0000 41.1046 0.0000
# 6 0.0000 0.0000 0.0000 0.0000 0.0000 26.0313
#
#
#
# Elastic Compliance Matrix: (Units=1/GPa)
#
#
# Indices 1 2 3 4 5 6 
#
# 1 0.019984 -0.001627 -0.003305 0.000000 0.000000 0.000000
# 2 -0.001627 0.009729 -0.001584 0.000000 0.000000 0.000000
# 3 -0.003305 -0.001584 0.009973 0.000000 0.000000 0.000000
# 4 0.000000 0.000000 0.000000 0.031661 0.000000 0.000000
# 5 0.000000 0.000000 0.000000 0.000000 0.024328 0.000000
# 6 0.000000 0.000000 0.000000 0.000000 0.000000 0.038415
#
#
# Mechanical properties :
#
#
# Convention : Reuss Voigt Hill
#
# Bulk Modulus (GPa) = 37.51847 42.23848 39.87848
# Shear Modulus (GPa) = 32.05003 34.36641 33.20822
#
# Velocity S-wave (km/s) = 3.89023 4.02836 3.95990
# Velocity P-wave (km/s) = 6.15586 6.44839 6.30382
#
# Compressibility (1/GPa) = 0.02665354
#
# Stress axis : x y z
#
# Youngs Moduli (GPa) = 50.04067 102.78930 100.27132
#
# Poissons Ratio (x) = 0.16726 0.33138
# Poissons Ratio (y) = 0.08143 0.15882
# Poissons Ratio (z) = 0.16538 0.16280
#
# Static dielectric constant tensor:
#      x y z
#    x 3.904110 0.000000 0.000000 
#    y 0.000000 3.678280 0.000000 
#    z 0.000000 0.000000 4.298630 
# 
# 
# High freq. dielectric constant tensor:
#      x y z
#    x 1.825560 0.000000 0.000000 
#    y 0.000000 1.820810 0.000000 
#    z 0.000000 0.000000 1.837920 
# 
# From -- ./inp_files/11866.got.cif
#   From: 2010.03.12/outbox.cif.g09.slc.cpg/sg54_6_cif.got.tgz:11866.got - 2010.04.16 15:00:50.
