data_PCOD8223662
_publ_section_title
;
Structure prediction by ZEFSAII (Michael W. Deem and Ramdas Pophale) SiO2 
 PCOD8223662
Probable space group: P C C A
;
_chemical_formula_sum "Si O2"
_cell_formula_units_Z 32
_cell_length_a 12.805448
_cell_length_b 13.279246
_cell_length_c 9.215866
_cell_angle_alpha 90.000000
_cell_angle_beta 90.000000
_cell_angle_gamma 90.000000
_cell_volume 1567.127547
_symmetry_space_group_name_H-M "P C C A"
_symmetry_group_IT_number 54
_symmetry_cell_setting 'orthorhombic'
loop_
_space_group_symop_operation_xyz
x,y,z
1/2-x,-y,z
1/2+x,-y,1/2-z
-x,y,1/2-z
-x,-y,-z
1/2+x,y,-z
1/2-x,y,1/2+z
x,-y,1/2+z
loop_
_atom_site_type_symbol
_atom_site_label
_atom_site_fract_x
_atom_site_fract_y
_atom_site_fract_z
Si Si1 0.898926 0.669772 0.332069
Si Si2 0.750000 0.500000 0.739263
Si Si3 0.750000 0.000000 0.508379
Si Si4 0.445111 0.583049 0.399386
Si Si5 0.622032 0.105535 0.257954
O O1 0.806519 0.587016 0.333050
O O2 0.934607 0.683605 0.500448
O O3 0.864483 0.774123 0.261121
O O4 0.000000 0.623068 0.250000
O O5 0.670764 0.449563 0.631165
O O6 0.827695 0.937696 0.404995
O O7 0.680557 0.929079 0.611987
O O8 0.500000 0.612245 0.250000
O O9 0.500000 0.500000 0.500000
O O10 0.500000 0.074680 0.250000
#
# Coordination Sequence:
#
# PCOD8223662 Si02
#       5
#     8   4   4   8   8
#     4  11  24  43  61  96 131 172 222 265 315 388
#     4  12  22  38  66  84 138 172 212 258 316 360
#     4  10  22  46  72  98 122 174 216 272 358 396
#     4  12  23  41  59  89 129 174 218 263 309 375
#     4  10  23  44  70  98 134 164 219 282 331 400
#
# _framework density 20.419525
#
# number of rings (size 3 to 8) (size 9 to 14) (size 15 to 20)
#    0.000    1.000    5.000    1.500    3.500    0.000 
#    4.500    1.250    0.000    0.000    0.000    0.000 
#    0.000    0.000    0.000    0.000    0.000    0.000 
#
# Total GULP energy -396503.660897 kJ/mol
# GULP energy per Si atom -12390.739403 kJ/mol
# Density = 2.037305 g / cm^3
# Si number density = 20.419525 Si / 1000 Ang^3
#
#
#
# Elastic Constant Matrix: (Units=GPa)
#
#
# Indices 1 2 3 4 5 6 
#
# 1 158.5992 61.4849 78.2028 0.0000 0.0000 0.0000
# 2 61.4849 91.6469 53.5509 0.0000 0.0000 0.0000
# 3 78.2028 53.5509 175.4778 0.0000 0.0000 0.0000
# 4 0.0000 0.0000 0.0000 29.2752 0.0000 0.0000
# 5 0.0000 0.0000 0.0000 0.0000 38.0182 0.0000
# 6 0.0000 0.0000 0.0000 0.0000 0.0000 30.0090
#
#
#
# Elastic Compliance Matrix: (Units=1/GPa)
#
#
# Indices 1 2 3 4 5 6 
#
# 1 0.009528 -0.004760 -0.002794 0.000000 0.000000 0.000000
# 2 -0.004760 0.015657 -0.002657 0.000000 0.000000 0.000000
# 3 -0.002794 -0.002657 0.007755 0.000000 0.000000 0.000000
# 4 0.000000 0.000000 0.000000 0.034159 0.000000 0.000000
# 5 0.000000 0.000000 0.000000 0.000000 0.026303 0.000000
# 6 0.000000 0.000000 0.000000 0.000000 0.000000 0.033323
#
#
# Mechanical properties :
#
#
# Convention : Reuss Voigt Hill
#
# Bulk Modulus (GPa) = 79.87853 90.24457 85.06155
# Shear Modulus (GPa) = 33.04286 34.95950 34.00118
#
# Velocity S-wave (km/s) = 4.02705 4.14220 4.08503
# Velocity P-wave (km/s) = 7.79913 8.19562 7.99983
#
# Compressibility (1/GPa) = 0.01251901
#
# Stress axis : x y z
#
# Youngs Moduli (GPa) = 104.95418 63.86823 128.95685
#
# Poissons Ratio (x) = 0.30400 0.36026
# Poissons Ratio (y) = 0.49957 0.34262
# Poissons Ratio (z) = 0.29320 0.16969
#
# Static dielectric constant tensor:
#      x y z
#    x 3.989340 0.000000 0.000000 
#    y 0.000000 3.504600 0.000000 
#    z 0.000000 0.000000 3.750720 
# 
# 
# High freq. dielectric constant tensor:
#      x y z
#    x 1.815640 0.000000 0.000000 
#    y 0.000000 1.772820 0.000000 
#    z 0.000000 0.000000 1.823480 
# 
# From -- ./inp_files/2805.got.cif
#   From: 2010.03.12/outbox.cif.g09.slc.cpg/sg54_2_cif.got.tgz:2805.got - 2010.04.16 15:00:50.
