data_PCOD8223447
_publ_section_title
;
Structure prediction by ZEFSAII (Michael W. Deem and Ramdas Pophale) SiO2 
 PCOD8223447
Probable space group: P C C A
;
_chemical_formula_sum "Si O2"
_cell_formula_units_Z 60
_cell_length_a 18.230631
_cell_length_b 17.291368
_cell_length_c 8.766877
_cell_angle_alpha 90.000000
_cell_angle_beta 90.000000
_cell_angle_gamma 90.000000
_cell_volume 2763.604988
_symmetry_space_group_name_H-M "P C C A"
_symmetry_group_IT_number 54
_symmetry_cell_setting 'orthorhombic'
loop_
_space_group_symop_operation_xyz
x,y,z
1/2-x,-y,z
1/2+x,-y,1/2-z
-x,y,1/2-z
-x,-y,-z
1/2+x,y,-z
1/2-x,y,1/2+z
x,-y,1/2+z
loop_
_atom_site_type_symbol
_atom_site_label
_atom_site_fract_x
_atom_site_fract_y
_atom_site_fract_z
Si Si1 0.180820 0.557219 0.765890
Si Si2 0.302989 0.267568 0.763850
Si Si3 0.072540 0.342738 0.827850
Si Si4 0.449003 0.233554 0.608391
Si Si5 0.837231 0.764661 0.397888
Si Si6 0.000000 0.009118 0.250000
Si Si7 0.948263 0.893406 0.497027
Si Si8 0.412337 0.510212 0.992622
O O1 0.250000 0.500000 0.771383
O O2 0.204972 0.642906 0.711957
O O3 0.116398 0.525266 0.659753
O O4 0.135816 0.561618 0.926730
O O5 0.369205 0.222417 0.681845
O O6 0.232120 0.218588 0.710979
O O7 0.308986 0.272545 0.945848
O O8 0.112310 0.291654 0.701039
O O9 0.000000 0.374808 0.750000
O O10 0.051371 0.298814 0.981984
O O11 0.115015 0.418849 0.882734
O O12 0.500000 0.258791 0.750000
O O13 0.477791 0.157296 0.520559
O O14 0.878996 0.842424 0.448394
O O15 0.059883 0.062140 0.340545
O O16 0.955566 0.956220 0.365734
O O17 0.500000 0.500000 0.000000
#
# Coordination Sequence:
#
# PCOD8223447 Si02
#       8
#     8   8   8   8   8   4   8   8
#     4  12  28  46  66  91 137 187 236 301 376 451
#     4  12  27  43  71  99 136 187 240 301 363 417
#     4  12  23  41  66  98 133 182 237 291 364 413
#     4  12  22  43  72 104 139 179 234 295 349 411
#     4  12  26  45  69 103 142 181 233 298 347 427
#     4  10  22  38  76 110 146 184 224 258 348 426
#     4  11  21  43  71 110 143 181 224 277 333 422
#     4  12  28  44  65  95 132 181 244 308 363 431
#
# _framework density 21.710773
#
# number of rings (size 3 to 8) (size 9 to 14) (size 15 to 20)
#    0.000    0.267    4.667    4.000    9.333    0.000 
#    0.000    0.000    0.000   13.600    0.000    0.000 
#    0.000    0.000    0.000    0.000    0.000    0.000 
#
# Total GULP energy -743561.300754 kJ/mol
# GULP energy per Si atom -12392.688346 kJ/mol
# Density = 2.166136 g / cm^3
# Si number density = 21.710773 Si / 1000 Ang^3
#
#
#
# Elastic Constant Matrix: (Units=GPa)
#
#
# Indices 1 2 3 4 5 6 
#
# 1 135.5783 50.4820 38.9246 0.0000 0.0000 0.0000
# 2 50.4820 100.2411 49.0148 0.0000 0.0000 0.0000
# 3 38.9246 49.0148 124.2366 0.0000 0.0000 0.0000
# 4 0.0000 0.0000 0.0000 36.2572 0.0000 0.0000
# 5 0.0000 0.0000 0.0000 0.0000 44.1501 0.0000
# 6 0.0000 0.0000 0.0000 0.0000 0.0000 20.9331
#
#
#
# Elastic Compliance Matrix: (Units=1/GPa)
#
#
# Indices 1 2 3 4 5 6 
#
# 1 0.009248 -0.004015 -0.001313 0.000000 0.000000 0.000000
# 2 -0.004015 0.014104 -0.004306 0.000000 0.000000 0.000000
# 3 -0.001313 -0.004306 0.010160 0.000000 0.000000 0.000000
# 4 0.000000 0.000000 0.000000 0.027581 0.000000 0.000000
# 5 0.000000 0.000000 0.000000 0.000000 0.022650 0.000000
# 6 0.000000 0.000000 0.000000 0.000000 0.000000 0.047771
#
#
# Mechanical properties :
#
#
# Convention : Reuss Voigt Hill
#
# Bulk Modulus (GPa) = 70.21704 70.76654 70.49179
# Shear Modulus (GPa) = 32.14819 35.04372 33.59596
#
# Velocity S-wave (km/s) = 3.85222 4.02197 3.93801
# Velocity P-wave (km/s) = 7.22485 7.36439 7.29495
#
# Compressibility (1/GPa) = 0.01424156
#
# Stress axis : x y z
#
# Youngs Moduli (GPa) = 108.13278 70.90385 98.42890
#
# Poissons Ratio (x) = 0.28468 0.12928
# Poissons Ratio (y) = 0.43416 0.42386
# Poissons Ratio (z) = 0.14202 0.30533
#
# Static dielectric constant tensor:
#      x y z
#    x 3.829840 0.000000 0.000000 
#    y 0.000000 4.004600 0.000000 
#    z 0.000000 0.000000 4.415840 
# 
# 
# High freq. dielectric constant tensor:
#      x y z
#    x 1.843560 0.000000 0.000000 
#    y 0.000000 1.841230 0.000000 
#    z 0.000000 0.000000 1.886120 
# 
# From -- ./inp_files/4373.got.cif
#   From: 2010.03.12/outbox.cif.g09.slc.cpg/sg54_3_cif.got.tgz:4373.got - 2010.04.16 15:00:50.
