data_PCOD8223538
_publ_section_title
;
Structure prediction by ZEFSAII (Michael W. Deem and Ramdas Pophale) SiO2 
 PCOD8223538
Probable space group: P C C A
;
_chemical_formula_sum "Si O2"
_cell_formula_units_Z 56
_cell_length_a 22.280948
_cell_length_b 13.358649
_cell_length_c 9.029627
_cell_angle_alpha 90.000000
_cell_angle_beta 90.000000
_cell_angle_gamma 90.000000
_cell_volume 2687.608553
_symmetry_space_group_name_H-M "P C C A"
_symmetry_group_IT_number 54
_symmetry_cell_setting 'orthorhombic'
loop_
_space_group_symop_operation_xyz
x,y,z
1/2-x,-y,z
1/2+x,-y,1/2-z
-x,y,1/2-z
-x,-y,-z
1/2+x,y,-z
1/2-x,y,1/2+z
x,-y,1/2+z
loop_
_atom_site_type_symbol
_atom_site_label
_atom_site_fract_x
_atom_site_fract_y
_atom_site_fract_z
Si Si1 0.113678 0.293746 0.434351
Si Si2 0.069090 0.109016 0.284145
Si Si3 0.283566 0.192882 0.069238
Si Si4 0.932536 0.300457 0.741700
Si Si5 0.136297 0.996969 0.020190
Si Si6 0.543894 0.480487 0.635221
Si Si7 0.172238 0.189069 0.885401
O O1 0.083464 0.227278 0.304280
O O2 0.183906 0.267780 0.451832
O O3 0.090529 0.268736 0.598479
O O4 0.100626 0.410265 0.401085
O O5 0.081568 0.063334 0.446663
O O6 0.000000 0.091231 0.250000
O O7 0.112267 0.059773 0.160658
O O8 0.290722 0.222623 0.240498
O O9 0.309167 0.079340 0.055253
O O10 0.213333 0.206981 0.030791
O O11 0.930511 0.418358 0.707288
O O12 0.891744 0.247682 0.614622
O O13 0.000000 0.258875 0.750000
O O14 0.158471 0.071323 0.890348
O O15 0.500000 0.424304 0.750000
O O16 0.500000 0.500000 0.500000
#
# Coordination Sequence:
#
# PCOD8223538 Si02
#       7
#     8   8   8   8   8   8   8
#     4  10  22  41  62  97 133 169 222 277 327 404
#     4  11  24  39  61  95 133 174 219 274 336 398
#     4  10  24  43  61  91 128 170 226 274 324 396
#     4  10  22  41  66 100 134 172 216 282 348 396
#     4  11  23  41  62  92 125 177 221 274 325 397
#     4  11  20  39  68  97 130 171 220 275 338 410
#     4  11  24  41  67  90 131 177 223 275 337 396
#
# _framework density 20.836366999999999
#
# number of rings (size 3 to 8) (size 9 to 14) (size 15 to 20)
#    0.000    1.429    4.286    1.286    6.000    2.857 
#    0.000    0.714    0.000    3.429    0.000    0.000 
#    0.000    0.000    0.000    0.000    0.000    0.000 
#
# Total GULP energy -693781.986185 kJ/mol
# GULP energy per Si atom -12388.964039 kJ/mol
# Density = 2.078894 g / cm^3
# Si number density = 20.836367 Si / 1000 Ang^3
#
#
#
# Elastic Constant Matrix: (Units=GPa)
#
#
# Indices 1 2 3 4 5 6 
#
# 1 107.3473 35.6555 21.6544 0.0000 0.0000 0.0000
# 2 35.6555 84.5984 24.9867 0.0000 0.0000 0.0000
# 3 21.6544 24.9867 74.2701 0.0000 0.0000 0.0000
# 4 0.0000 0.0000 0.0000 37.9152 0.0000 0.0000
# 5 0.0000 0.0000 0.0000 0.0000 34.6490 0.0000
# 6 0.0000 0.0000 0.0000 0.0000 0.0000 21.7547
#
#
#
# Elastic Compliance Matrix: (Units=1/GPa)
#
#
# Indices 1 2 3 4 5 6 
#
# 1 0.011053 -0.004116 -0.001838 0.000000 0.000000 0.000000
# 2 -0.004116 0.014657 -0.003731 0.000000 0.000000 0.000000
# 3 -0.001838 -0.003731 0.015256 0.000000 0.000000 0.000000
# 4 0.000000 0.000000 0.000000 0.026375 0.000000 0.000000
# 5 0.000000 0.000000 0.000000 0.000000 0.028861 0.000000
# 6 0.000000 0.000000 0.000000 0.000000 0.000000 0.045967
#
#
# Mechanical properties :
#
#
# Convention : Reuss Voigt Hill
#
# Bulk Modulus (GPa) = 46.30442 47.86768 47.08605
# Shear Modulus (GPa) = 29.63184 31.12507 30.37846
#
# Velocity S-wave (km/s) = 3.77519 3.86915 3.82246
# Velocity P-wave (km/s) = 6.42448 6.55617 6.49066
#
# Compressibility (1/GPa) = 0.02159621
#
# Stress axis : x y z
#
# Youngs Moduli (GPa) = 90.46991 68.22577 65.54993
#
# Poissons Ratio (x) = 0.28080 0.12049
# Poissons Ratio (y) = 0.37235 0.24457
# Poissons Ratio (z) = 0.16629 0.25456
#
# Static dielectric constant tensor:
#      x y z
#    x 3.888780 0.000000 0.000000 
#    y 0.000000 3.898840 0.000000 
#    z 0.000000 0.000000 3.873300 
# 
# 
# High freq. dielectric constant tensor:
#      x y z
#    x 1.808570 0.000000 0.000000 
#    y 0.000000 1.800550 0.000000 
#    z 0.000000 0.000000 1.825850 
# 
# From -- ./inp_files/4795.got.cif
#   From: 2010.03.12/outbox.cif.g09.slc.cpg/sg54_3_cif.got.tgz:4795.got - 2010.04.16 15:00:50.
