data_PCOD8223397
_publ_section_title
;
Structure prediction by ZEFSAII (Michael W. Deem and Ramdas Pophale) SiO2 
 PCOD8223397
Probable space group: P C C A
;
_chemical_formula_sum "Si O2"
_cell_formula_units_Z 48
_cell_length_a 9.627311
_cell_length_b 16.804180
_cell_length_c 15.441751
_cell_angle_alpha 90.000000
_cell_angle_beta 90.000000
_cell_angle_gamma 90.000000
_cell_volume 2498.152069
_symmetry_space_group_name_H-M "P C C A"
_symmetry_group_IT_number 54
_symmetry_cell_setting 'orthorhombic'
loop_
_space_group_symop_operation_xyz
x,y,z
1/2-x,-y,z
1/2+x,-y,1/2-z
-x,y,1/2-z
-x,-y,-z
1/2+x,y,-z
1/2-x,y,1/2+z
x,-y,1/2+z
loop_
_atom_site_type_symbol
_atom_site_label
_atom_site_fract_x
_atom_site_fract_y
_atom_site_fract_z
Si Si1 0.500000 0.444123 0.250000
Si Si2 0.880950 0.341828 0.899958
Si Si3 0.671080 0.644826 0.538245
Si Si4 0.313170 0.825529 0.915335
Si Si5 0.250000 0.500000 0.350282
Si Si6 0.123501 0.159094 0.574626
Si Si7 0.664041 0.078618 0.253192
O O1 0.407337 0.386507 0.189664
O O2 0.391953 0.502462 0.295823
O O3 0.875568 0.247897 0.886581
O O4 0.005191 0.367495 0.966034
O O5 0.733140 0.365156 0.941956
O O6 0.699360 0.730010 0.582944
O O7 0.750191 0.580052 0.594844
O O8 0.462535 0.860566 0.944047
O O9 0.284990 0.856355 0.817877
O O10 0.202707 0.857773 0.985089
O O11 0.197004 0.107606 0.649537
O O12 0.500000 0.061989 0.250000
O O13 0.750000 0.000000 0.232878
#
# Coordination Sequence:
#
# PCOD8223397 Si02
#       7
#     4   8   8   8   4   8   8
#     4  10  22  34  52  82 110 140 186 228 276 318
#     4   9  19  34  57  78 105 142 185 225 268 323
#     4   9  19  35  54  78 106 143 185 222 273 322
#     4   9  19  37  58  80 111 145 186 227 269 329
#     4  10  22  34  52  78 112 146 184 228 270 322
#     4   9  19  35  59  82 106 146 185 222 275 324
#     4  10  22  37  58  83 113 147 181 225 278 334
#
# _framework density 19.214203999999999
#
# number of rings (size 3 to 8) (size 9 to 14) (size 15 to 20)
#    0.000    2.667    0.000    0.000    8.167    6.667 
#    0.000    3.333    1.833    0.000    0.000    0.000 
#    0.000    0.000    0.000    0.000    0.000    0.000 
#
# Total GULP energy -594886.126841 kJ/mol
# GULP energy per Si atom -12393.460976 kJ/mol
# Density = 1.917047 g / cm^3
# Si number density = 19.214204 Si / 1000 Ang^3
#
#
#
# Elastic Constant Matrix: (Units=GPa)
#
#
# Indices 1 2 3 4 5 6 
#
# 1 50.5687 27.5332 36.5955 0.0000 0.0000 0.0000
# 2 27.5332 64.2477 38.0931 0.0000 0.0000 0.0000
# 3 36.5955 38.0931 94.3890 0.0000 0.0000 0.0000
# 4 0.0000 0.0000 0.0000 23.2843 0.0000 0.0000
# 5 0.0000 0.0000 0.0000 0.0000 34.0367 0.0000
# 6 0.0000 0.0000 0.0000 0.0000 0.0000 23.3834
#
#
#
# Elastic Compliance Matrix: (Units=1/GPa)
#
#
# Indices 1 2 3 4 5 6 
#
# 1 0.030260 -0.007903 -0.008543 0.000000 0.000000 0.000000
# 2 -0.007903 0.022525 -0.006026 0.000000 0.000000 0.000000
# 3 -0.008543 -0.006026 0.016339 0.000000 0.000000 0.000000
# 4 0.000000 0.000000 0.000000 0.042947 0.000000 0.000000
# 5 0.000000 0.000000 0.000000 0.000000 0.029380 0.000000
# 6 0.000000 0.000000 0.000000 0.000000 0.000000 0.042765
#
#
# Mechanical properties :
#
#
# Convention : Reuss Voigt Hill
#
# Bulk Modulus (GPa) = 41.35739 45.96101 43.65920
# Shear Modulus (GPa) = 21.07747 23.27311 22.17529
#
# Velocity S-wave (km/s) = 3.31565 3.48407 3.40090
# Velocity P-wave (km/s) = 6.01907 6.33697 6.18007
#
# Compressibility (1/GPa) = 0.02417948
#
# Stress axis : x y z
#
# Youngs Moduli (GPa) = 33.04671 44.39590 61.20450
#
# Poissons Ratio (x) = 0.35085 0.52286
# Poissons Ratio (y) = 0.26116 0.36884
# Poissons Ratio (z) = 0.28231 0.26755
#
# Static dielectric constant tensor:
#      x y z
#    x 3.711290 0.000000 0.000000 
#    y 0.000000 3.376020 0.000000 
#    z 0.000000 0.000000 3.464750 
# 
# 
# High freq. dielectric constant tensor:
#      x y z
#    x 1.747260 0.000000 0.000000 
#    y 0.000000 1.740240 0.000000 
#    z 0.000000 0.000000 1.743250 
# 
# From -- ./inp_files/12670.got.cif
#   From: 2010.03.12/outbox.cif.g09.slc.cpg/sg54_7_cif.got.tgz:12670.got - 2010.04.16 15:00:50.
