data_PCOD8223329
_publ_section_title
;
Structure prediction by ZEFSAII (Michael W. Deem and Ramdas Pophale) SiO2 
 PCOD8223329
Probable space group: P C C A
;
_chemical_formula_sum "Si O2"
_cell_formula_units_Z 56
_cell_length_a 8.403678
_cell_length_b 17.051215
_cell_length_c 19.279447
_cell_angle_alpha 90.000000
_cell_angle_beta 90.000000
_cell_angle_gamma 90.000000
_cell_volume 2762.608264
_symmetry_space_group_name_H-M "P C C A"
_symmetry_group_IT_number 54
_symmetry_cell_setting 'orthorhombic'
loop_
_space_group_symop_operation_xyz
x,y,z
1/2-x,-y,z
1/2+x,-y,1/2-z
-x,y,1/2-z
-x,-y,-z
1/2+x,y,-z
1/2-x,y,1/2+z
x,-y,1/2+z
loop_
_atom_site_type_symbol
_atom_site_label
_atom_site_fract_x
_atom_site_fract_y
_atom_site_fract_z
Si Si1 0.821847 0.801930 0.773107
Si Si2 0.931405 0.318781 0.051919
Si Si3 0.589440 0.326475 0.318628
Si Si4 0.745967 0.590960 0.435925
Si Si5 0.022279 0.158471 0.983672
Si Si6 0.307365 0.224041 0.366588
Si Si7 0.777937 0.090361 0.403894
O O1 0.749890 0.720724 0.800968
O O2 0.724592 0.825123 0.703547
O O3 0.807298 0.869951 0.829710
O O4 0.000000 0.786820 0.750000
O O5 0.835221 0.285438 0.118367
O O6 0.068090 0.377594 0.078685
O O7 0.810238 0.364199 0.002792
O O8 0.007764 0.246231 0.011754
O O9 0.500000 0.359496 0.250000
O O10 0.641691 0.397154 0.368592
O O11 0.473829 0.269317 0.360577
O O12 0.750000 0.500000 0.453841
O O13 0.171098 0.162112 0.929462
O O14 0.868217 0.129080 0.943782
O O15 0.067037 0.100903 0.047200
O O16 0.750000 0.000000 0.388674
#
# Coordination Sequence:
#
# PCOD8223329 Si02
#       7
#     8   8   8   8   8   8   8
#     4  11  23  42  66  93 125 170 226 272 317 403
#     4  12  21  39  68  95 121 172 224 271 319 394
#     4  10  21  41  63  89 122 170 225 270 318 390
#     4  12  23  38  60 100 140 169 206 278 346 394
#     4  12  21  41  70  91 123 166 227 265 321 392
#     4  11  21  38  69  94 120 165 231 277 313 372
#     4  12  26  43  63  98 135 168 210 280 349 401
#
# _framework density 20.270699
#
# number of rings (size 3 to 8) (size 9 to 14) (size 15 to 20)
#    0.000    0.571    5.714    3.429    0.000    0.000 
#    2.571    3.571    0.000    0.000    0.000    0.000 
#    0.000    0.000    0.000    0.000    0.000    0.000 
#
# Total GULP energy -694460.349018 kJ/mol
# GULP energy per Si atom -12401.077661 kJ/mol
# Density = 2.022456 g / cm^3
# Si number density = 20.270699 Si / 1000 Ang^3
#
#
#
# Elastic Constant Matrix: (Units=GPa)
#
#
# Indices 1 2 3 4 5 6 
#
# 1 109.7311 27.9170 38.8038 0.0000 0.0000 0.0000
# 2 27.9170 68.2996 38.3196 0.0000 0.0000 0.0000
# 3 38.8038 38.3196 131.3094 0.0000 0.0000 0.0000
# 4 0.0000 0.0000 0.0000 21.9578 0.0000 0.0000
# 5 0.0000 0.0000 0.0000 0.0000 39.6041 0.0000
# 6 0.0000 0.0000 0.0000 0.0000 0.0000 18.3148
#
#
#
# Elastic Compliance Matrix: (Units=1/GPa)
#
#
# Indices 1 2 3 4 5 6 
#
# 1 0.010702 -0.003109 -0.002255 0.000000 0.000000 0.000000
# 2 -0.003109 0.018411 -0.004454 0.000000 0.000000 0.000000
# 3 -0.002255 -0.004454 0.009582 0.000000 0.000000 0.000000
# 4 0.000000 0.000000 0.000000 0.045542 0.000000 0.000000
# 5 0.000000 0.000000 0.000000 0.000000 0.025250 0.000000
# 6 0.000000 0.000000 0.000000 0.000000 0.000000 0.054601
#
#
# Mechanical properties :
#
#
# Convention : Reuss Voigt Hill
#
# Bulk Modulus (GPa) = 52.47112 57.71342 55.09227
# Shear Modulus (GPa) = 26.30519 29.59531 27.95025
#
# Velocity S-wave (km/s) = 3.60626 3.82515 3.71732
# Velocity P-wave (km/s) = 6.57887 6.93124 6.75736
#
# Compressibility (1/GPa) = 0.01905810
#
# Stress axis : x y z
#
# Youngs Moduli (GPa) = 93.44365 54.31503 104.36366
#
# Poissons Ratio (x) = 0.16886 0.23536
# Poissons Ratio (y) = 0.29051 0.46485
# Poissons Ratio (z) = 0.21074 0.24193
#
# Static dielectric constant tensor:
#      x y z
#    x 3.904170 0.000000 0.000000 
#    y 0.000000 3.370410 0.000000 
#    z 0.000000 0.000000 4.098460 
# 
# 
# High freq. dielectric constant tensor:
#      x y z
#    x 1.810520 0.000000 0.000000 
#    y 0.000000 1.752460 0.000000 
#    z 0.000000 0.000000 1.811710 
# 
# From -- ./inp_files/20565.got.cif
#   From: 2010.03.12/outbox.cif.g09.slc.cpg/sg54_11_cif.got.tgz:20565.got - 2010.04.16 15:00:50.
