data_PCOD8223757
_publ_section_title
;
Structure prediction by ZEFSAII (Michael W. Deem and Ramdas Pophale) SiO2 
 PCOD8223757
Probable space group: P C C A
;
_chemical_formula_sum "Si O2"
_cell_formula_units_Z 56
_cell_length_a 29.257658
_cell_length_b 5.300501
_cell_length_c 14.782726
_cell_angle_alpha 90.000000
_cell_angle_beta 90.000000
_cell_angle_gamma 90.000000
_cell_volume 2292.508777
_symmetry_space_group_name_H-M "P C C A"
_symmetry_group_IT_number 54
_symmetry_cell_setting 'orthorhombic'
loop_
_space_group_symop_operation_xyz
x,y,z
1/2-x,-y,z
1/2+x,-y,1/2-z
-x,y,1/2-z
-x,-y,-z
1/2+x,y,-z
1/2-x,y,1/2+z
x,-y,1/2+z
loop_
_atom_site_type_symbol
_atom_site_label
_atom_site_fract_x
_atom_site_fract_y
_atom_site_fract_z
Si Si1 0.563381 0.933871 0.822814
Si Si2 0.726436 0.752278 0.704947
Si Si3 0.581759 0.515322 0.068824
Si Si4 0.868464 0.565128 0.241017
Si Si5 0.630550 0.708297 0.413047
Si Si6 0.226715 0.246594 0.007453
Si Si7 0.962798 0.996857 0.629011
O O1 0.596429 0.060830 0.895699
O O2 0.554302 0.087194 0.729318
O O3 0.514860 0.905414 0.872576
O O4 0.585339 0.673625 0.787429
O O5 0.750000 0.500000 0.745867
O O6 0.672237 0.765762 0.726394
O O7 0.735098 0.752376 0.598705
O O8 0.750000 0.000000 0.748387
O O9 0.620129 0.571894 0.145873
O O10 0.544222 0.740580 0.069901
O O11 0.564668 0.231817 0.088469
O O12 0.603721 0.512584 0.968569
O O13 0.850242 0.369094 0.315073
O O14 0.673095 0.784934 0.474230
O O15 0.250000 0.500000 0.049220
O O16 0.250000 0.000000 0.051526
#
# Coordination Sequence:
#
# PCOD8223757 Si02
#       7
#     8   8   8   8   8   8   8
#     4  10  25  43  71 101 140 187 234 294 343 428
#     4  10  23  45  74 100 135 184 231 281 354 422
#     4  11  25  45  73 100 141 189 225 294 348 418
#     4  11  25  47  68 106 141 185 239 285 357 418
#     4  12  26  44  73 106 140 182 243 288 352 420
#     4  10  24  46  70 101 140 181 224 287 349 414
#     4  10  24  47  70  98 145 185 235 285 361 408
#
# _framework density 24.427389000000002
#
# number of rings (size 3 to 8) (size 9 to 14) (size 15 to 20)
#    0.000    1.429    2.857    0.000    8.000    2.857 
#    0.000    0.000    0.000    0.000    0.000    0.000 
#    0.000    0.000    0.000    0.000    0.000    0.000 
#
# Total GULP energy -694132.580470 kJ/mol
# GULP energy per Si atom -12395.224651 kJ/mol
# Density = 2.437179 g / cm^3
# Si number density = 24.427389 Si / 1000 Ang^3
#
#
#
# Elastic Constant Matrix: (Units=GPa)
#
#
# Indices 1 2 3 4 5 6 
#
# 1 115.5859 26.9136 -0.9678 0.0000 0.0000 0.0000
# 2 26.9136 122.0373 10.3848 0.0000 0.0000 0.0000
# 3 -0.9678 10.3848 60.5999 0.0000 0.0000 0.0000
# 4 0.0000 0.0000 0.0000 11.4870 0.0000 0.0000
# 5 0.0000 0.0000 0.0000 0.0000 8.0416 0.0000
# 6 0.0000 0.0000 0.0000 0.0000 0.0000 31.2876
#
#
#
# Elastic Compliance Matrix: (Units=1/GPa)
#
#
# Indices 1 2 3 4 5 6 
#
# 1 0.009135 -0.002057 0.000498 0.000000 0.000000 0.000000
# 2 -0.002057 0.008779 -0.001537 0.000000 0.000000 0.000000
# 3 0.000498 -0.001537 0.016773 0.000000 0.000000 0.000000
# 4 0.000000 0.000000 0.000000 0.087055 0.000000 0.000000
# 5 0.000000 0.000000 0.000000 0.000000 0.124354 0.000000
# 6 0.000000 0.000000 0.000000 0.000000 0.000000 0.031962
#
#
# Mechanical properties :
#
#
# Convention : Reuss Voigt Hill
#
# Bulk Modulus (GPa) = 35.09403 41.20934 38.15169
# Shear Modulus (GPa) = 17.02146 27.62273 22.32210
#
# Velocity S-wave (km/s) = 2.64260 3.36640 3.02622
# Velocity P-wave (km/s) = 4.86918 5.65835 5.27854
#
# Compressibility (1/GPa) = 0.02849487
#
# Stress axis : x y z
#
# Youngs Moduli (GPa) = 109.47271 113.91268 59.61938
#
# Poissons Ratio (x) = 0.23431 -0.02971
# Poissons Ratio (y) = 0.22518 0.09165
# Poissons Ratio (z) = -0.05456 0.17511
#
# Static dielectric constant tensor:
#      x y z
#    x 4.303520 0.000000 0.000000 
#    y 0.000000 4.220570 0.000000 
#    z 0.000000 0.000000 4.504410 
# 
# 
# High freq. dielectric constant tensor:
#      x y z
#    x 1.969490 0.000000 0.000000 
#    y 0.000000 1.954290 0.000000 
#    z 0.000000 0.000000 1.979390 
# 
# From -- ./inp_files/15345.got.cif
#   From: 2010.03.12/outbox.cif.g09.slc.cpg/sg54_8_cif.got.tgz:15345.got - 2010.04.16 15:00:50.
