data_PCOD8223246
_publ_section_title
;
Structure prediction by ZEFSAII (Michael W. Deem and Ramdas Pophale) SiO2 
 PCOD8223246
Probable space group: P C C A
;
_chemical_formula_sum "Si O2"
_cell_formula_units_Z 32
_cell_length_a 24.418547
_cell_length_b 6.165219
_cell_length_c 9.516785
_cell_angle_alpha 90.000000
_cell_angle_beta 90.000000
_cell_angle_gamma 90.000000
_cell_volume 1432.710964
_symmetry_space_group_name_H-M "P C C A"
_symmetry_group_IT_number 54
_symmetry_cell_setting 'orthorhombic'
loop_
_space_group_symop_operation_xyz
x,y,z
1/2-x,-y,z
1/2+x,-y,1/2-z
-x,y,1/2-z
-x,-y,-z
1/2+x,y,-z
1/2-x,y,1/2+z
x,-y,1/2+z
loop_
_atom_site_type_symbol
_atom_site_label
_atom_site_fract_x
_atom_site_fract_y
_atom_site_fract_z
Si Si1 0.960280 0.708612 0.500192
Si Si2 0.000000 0.010340 0.250000
Si Si3 0.344630 0.214641 0.067792
Si Si4 0.750000 0.500000 0.516987
Si Si5 0.194087 0.117267 0.847747
O O1 0.896482 0.640714 0.482904
O O2 0.000000 0.500000 0.500000
O O3 0.968660 0.860419 0.362969
O O4 0.963905 0.833152 0.649449
O O5 0.288417 0.349954 0.077670
O O6 0.337155 0.006440 0.970491
O O7 0.351126 0.123096 0.224742
O O8 0.708454 0.638423 0.610371
O O9 0.250000 0.000000 0.799548
#
# Coordination Sequence:
#
# PCOD8223246 Si02
#       5
#     8   4   8   4   8
#     4  11  24  43  67  94 127 170 219 271 330 390
#     4  10  24  44  64  94 126 164 218 274 330 390
#     4  11  23  40  64  91 125 164 207 257 312 380
#     4  10  22  36  62  96 126 162 204 250 308 376
#     4  10  21  39  61  92 128 163 203 252 313 380
#
# _framework density 22.335280999999998
#
# number of rings (size 3 to 8) (size 9 to 14) (size 15 to 20)
#    0.000    1.500    0.000    5.250    0.000   10.000 
#    0.000    0.000    0.000    0.000    0.000    0.000 
#    0.000    0.000    0.000    0.000    0.000    0.000 
#
# Total GULP energy -396530.440614 kJ/mol
# GULP energy per Si atom -12391.576269 kJ/mol
# Density = 2.228445 g / cm^3
# Si number density = 22.335281 Si / 1000 Ang^3
#
#
#
# Elastic Constant Matrix: (Units=GPa)
#
#
# Indices 1 2 3 4 5 6 
#
# 1 82.5843 31.8764 27.3999 0.0000 0.0000 0.0000
# 2 31.8764 114.8538 48.7888 0.0000 0.0000 0.0000
# 3 27.3999 48.7888 143.5523 0.0000 0.0000 0.0000
# 4 0.0000 0.0000 0.0000 23.9276 0.0000 0.0000
# 5 0.0000 0.0000 0.0000 0.0000 -1.4457 0.0000
# 6 0.0000 0.0000 0.0000 0.0000 0.0000 30.9130
#
#
#
# Elastic Compliance Matrix: (Units=1/GPa)
#
#
# Indices 1 2 3 4 5 6 
#
# 1 0.013855 -0.003181 -0.001563 0.000000 0.000000 0.000000
# 2 -0.003181 0.010906 -0.003099 0.000000 0.000000 0.000000
# 3 -0.001563 -0.003099 0.008318 0.000000 0.000000 0.000000
# 4 0.000000 0.000000 0.000000 0.041793 0.000000 0.000000
# 5 0.000000 0.000000 0.000000 0.000000 -0.691724 0.000000
# 6 0.000000 0.000000 0.000000 0.000000 0.000000 0.032349
#
#
# Mechanical properties :
#
#
# Convention : Reuss Voigt Hill
#
# Bulk Modulus (GPa) = 57.49990 61.90229 59.70109
# Shear Modulus (GPa) = -8.88072 26.20735 8.66332
#
# Velocity S-wave (km/s) = -1.99618 3.42915 1.97159
# Velocity P-wave (km/s) = 4.52625 6.59196 5.65424
#
# Compressibility (1/GPa) = 0.01739133
#
# Stress axis : x y z
#
# Youngs Moduli (GPa) = 72.17362 91.69019 120.22242
#
# Poissons Ratio (x) = 0.29170 0.18795
# Poissons Ratio (y) = 0.22961 0.37263
# Poissons Ratio (z) = 0.11283 0.28419
#
# Static dielectric constant tensor:
#      x y z
#    x 1.282320 0.000000 0.000000 
#    y 0.000000 4.092470 0.000000 
#    z 0.000000 0.000000 4.111760 
# 
# 
# High freq. dielectric constant tensor:
#      x y z
#    x 1.873000 0.000000 0.000000 
#    y 0.000000 1.875280 0.000000 
#    z 0.000000 0.000000 1.896160 
# 
# From -- ./inp_files/5667.got.cif
#   From: 2010.03.12/outbox.cif.g09.slc.cpg/sg54_3_cif.got.tgz:5667.got - 2010.04.16 15:00:50.
