data_PCOD8223279
_publ_section_title
;
Structure prediction by ZEFSAII (Michael W. Deem and Ramdas Pophale) SiO2 
 PCOD8223279
Probable space group: P C C A
;
_chemical_formula_sum "Si O2"
_cell_formula_units_Z 32
_cell_length_a 8.911853
_cell_length_b 7.289884
_cell_length_c 20.840235
_cell_angle_alpha 90.000000
_cell_angle_beta 90.000000
_cell_angle_gamma 90.000000
_cell_volume 1353.914514
_symmetry_space_group_name_H-M "P C C A"
_symmetry_group_IT_number 54
_symmetry_cell_setting 'orthorhombic'
loop_
_space_group_symop_operation_xyz
x,y,z
1/2-x,-y,z
1/2+x,-y,1/2-z
-x,y,1/2-z
-x,-y,-z
1/2+x,y,-z
1/2-x,y,1/2+z
x,-y,1/2+z
loop_
_atom_site_type_symbol
_atom_site_label
_atom_site_fract_x
_atom_site_fract_y
_atom_site_fract_z
Si Si1 0.409030 0.905789 0.812988
Si Si2 0.503692 0.182166 0.588262
Si Si3 0.758971 0.251751 0.991608
Si Si4 0.469076 0.600066 0.914004
O O1 0.500000 0.848826 0.750000
O O2 0.505529 0.058213 0.849467
O O3 0.250000 0.000000 0.796425
O O4 0.397894 0.724241 0.857338
O O5 0.358307 0.123788 0.546631
O O6 0.652077 0.137119 0.545859
O O7 0.508651 0.393706 0.610727
O O8 0.869286 0.333350 0.937998
O O9 0.647540 0.403371 0.025925
#
# Coordination Sequence:
#
# PCOD8223279 Si02
#       4
#     8   8   8   8
#     4  12  30  47  63  90 126 175 230 264 302 373
#     4  11  22  42  69  99 134 165 204 264 326 382
#     4  10  21  39  70 107 133 160 203 259 332 401
#     4  11  22  42  69  99 134 165 204 264 326 382
#
# _framework density 23.635169999999999
#
# number of rings (size 3 to 8) (size 9 to 14) (size 15 to 20)
#    0.000    1.000    2.500    6.000    3.500    7.000 
#    0.000    0.000    0.000    0.000    0.000    0.000 
#    0.000    0.000    0.000    0.000    0.000    0.000 
#
# Total GULP energy -396723.716925 kJ/mol
# GULP energy per Si atom -12397.616154 kJ/mol
# Density = 2.358138 g / cm^3
# Si number density = 23.635170 Si / 1000 Ang^3
#
#
#
# Elastic Constant Matrix: (Units=GPa)
#
#
# Indices 1 2 3 4 5 6 
#
# 1 144.4767 9.5302 33.6379 0.0000 0.0000 0.0000
# 2 9.5302 80.7272 36.1263 0.0000 0.0000 0.0000
# 3 33.6379 36.1263 96.1773 0.0000 0.0000 0.0000
# 4 0.0000 0.0000 0.0000 21.6127 0.0000 0.0000
# 5 0.0000 0.0000 0.0000 0.0000 24.0896 0.0000
# 6 0.0000 0.0000 0.0000 0.0000 0.0000 29.6440
#
#
#
# Elastic Compliance Matrix: (Units=1/GPa)
#
#
# Indices 1 2 3 4 5 6 
#
# 1 0.007543 0.000349 -0.002769 0.000000 0.000000 0.000000
# 2 0.000349 0.014907 -0.005721 0.000000 0.000000 0.000000
# 3 -0.002769 -0.005721 0.013515 0.000000 0.000000 0.000000
# 4 0.000000 0.000000 0.000000 0.046269 0.000000 0.000000
# 5 0.000000 0.000000 0.000000 0.000000 0.041512 0.000000
# 6 0.000000 0.000000 0.000000 0.000000 0.000000 0.033734
#
#
# Mechanical properties :
#
#
# Convention : Reuss Voigt Hill
#
# Bulk Modulus (GPa) = 50.80932 53.33001 52.06966
# Shear Modulus (GPa) = 27.72799 31.20838 29.46818
#
# Velocity S-wave (km/s) = 3.42887 3.63770 3.53483
# Velocity P-wave (km/s) = 6.10083 6.34481 6.22402
#
# Compressibility (1/GPa) = 0.01968143
#
# Stress axis : x y z
#
# Youngs Moduli (GPa) = 132.56831 67.08472 73.99178
#
# Poissons Ratio (x) = -0.02340 0.20490
# Poissons Ratio (y) = -0.04623 0.42332
# Poissons Ratio (z) = 0.36712 0.38381
#
# Static dielectric constant tensor:
#      x y z
#    x 4.702850 0.000000 0.000000 
#    y 0.000000 4.132360 0.000000 
#    z 0.000000 0.000000 3.912620 
# 
# 
# High freq. dielectric constant tensor:
#      x y z
#    x 1.966760 0.000000 0.000000 
#    y 0.000000 1.946830 0.000000 
#    z 0.000000 0.000000 1.895030 
# 
# From -- ./inp_files/20034.got.cif
#   From: 2010.03.12/outbox.cif.g09.slc.cpg/sg54_11_cif.got.tgz:20034.got - 2010.04.16 15:00:50.
