data_PCOD8223998
_publ_section_title
;
Structure prediction by ZEFSAII (Michael W. Deem and Ramdas Pophale) SiO2 
 PCOD8223998
Probable space group: P C C A
;
_chemical_formula_sum "Si O2"
_cell_formula_units_Z 48
_cell_length_a 25.057257
_cell_length_b 10.865672
_cell_length_c 8.845386
_cell_angle_alpha 90.000000
_cell_angle_beta 90.000000
_cell_angle_gamma 90.000000
_cell_volume 2408.279606
_symmetry_space_group_name_H-M "P C C A"
_symmetry_group_IT_number 54
_symmetry_cell_setting 'orthorhombic'
loop_
_space_group_symop_operation_xyz
x,y,z
1/2-x,-y,z
1/2+x,-y,1/2-z
-x,y,1/2-z
-x,-y,-z
1/2+x,y,-z
1/2-x,y,1/2+z
x,-y,1/2+z
loop_
_atom_site_type_symbol
_atom_site_label
_atom_site_fract_x
_atom_site_fract_y
_atom_site_fract_z
Si Si1 0.294256 0.143950 0.502463
Si Si2 0.191645 0.552836 0.987985
Si Si3 0.885225 0.958438 0.467284
Si Si4 0.853670 0.344877 0.320877
Si Si5 0.062331 0.845680 0.738420
Si Si6 0.196136 0.797550 0.168169
O O1 0.316402 0.232146 0.632707
O O2 0.286878 0.211317 0.342429
O O3 0.235698 0.113086 0.569892
O O4 0.333498 0.030709 0.471477
O O5 0.250000 0.500000 0.951890
O O6 0.150517 0.451268 0.053468
O O7 0.198598 0.658285 0.112083
O O8 0.165207 0.604905 0.838750
O O9 0.914081 0.889136 0.602616
O O10 0.863264 0.854777 0.350758
O O11 0.926616 0.049440 0.386320
O O12 0.913012 0.286961 0.308623
O O13 0.000000 0.824206 0.750000
#
# Coordination Sequence:
#
# PCOD8223998 Si02
#       6
#     8   8   8   8   8   8
#     4  11  24  37  60  97 131 169 208 247 314 384
#     4  12  23  38  63  92 133 171 208 249 310 380
#     4  11  23  41  67  93 128 166 205 271 323 381
#     4  11  24  41  64  94 126 173 214 262 309 375
#     4  11  24  46  69  93 122 165 221 275 329 376
#     4  12  23  38  61  93 136 172 209 247 310 389
#
# _framework density 19.931239999999999
#
# number of rings (size 3 to 8) (size 9 to 14) (size 15 to 20)
#    0.000    0.667    5.000    3.500    2.333    1.333 
#    0.000    0.833    0.000    0.000    0.000    0.000 
#    0.000    0.000    0.000    0.000    0.000    0.000 
#
# Total GULP energy -595192.443521 kJ/mol
# GULP energy per Si atom -12399.842573 kJ/mol
# Density = 1.988588 g / cm^3
# Si number density = 19.931240 Si / 1000 Ang^3
#
#
#
# Elastic Constant Matrix: (Units=GPa)
#
#
# Indices 1 2 3 4 5 6 
#
# 1 133.1040 62.8054 45.2737 0.0000 0.0000 0.0000
# 2 62.8054 75.0794 26.3348 0.0000 0.0000 0.0000
# 3 45.2737 26.3348 103.6042 0.0000 0.0000 0.0000
# 4 0.0000 0.0000 0.0000 23.8586 0.0000 0.0000
# 5 0.0000 0.0000 0.0000 0.0000 19.4096 0.0000
# 6 0.0000 0.0000 0.0000 0.0000 0.0000 25.7516
#
#
#
# Elastic Compliance Matrix: (Units=1/GPa)
#
#
# Indices 1 2 3 4 5 6 
#
# 1 0.013362 -0.010023 -0.003291 0.000000 0.000000 0.000000
# 2 -0.010023 0.022141 -0.001248 0.000000 0.000000 0.000000
# 3 -0.003291 -0.001248 0.011408 0.000000 0.000000 0.000000
# 4 0.000000 0.000000 0.000000 0.041914 0.000000 0.000000
# 5 0.000000 0.000000 0.000000 0.000000 0.051521 0.000000
# 6 0.000000 0.000000 0.000000 0.000000 0.000000 0.038833
#
#
# Mechanical properties :
#
#
# Convention : Reuss Voigt Hill
#
# Bulk Modulus (GPa) = 56.22354 64.51282 60.36818
# Shear Modulus (GPa) = 23.33926 25.62885 24.48405
#
# Velocity S-wave (km/s) = 3.42568 3.58978 3.50869
# Velocity P-wave (km/s) = 6.62700 7.04415 6.83875
#
# Compressibility (1/GPa) = 0.01778614
#
# Stress axis : x y z
#
# Youngs Moduli (GPa) = 74.84060 45.16417 87.66091
#
# Poissons Ratio (x) = 0.45268 0.28851
# Poissons Ratio (y) = 0.75012 0.10942
# Poissons Ratio (z) = 0.24632 0.05637
#
# Static dielectric constant tensor:
#      x y z
#    x 3.650810 0.000000 0.000000 
#    y 0.000000 3.832340 0.000000 
#    z 0.000000 0.000000 3.641780 
# 
# 
# High freq. dielectric constant tensor:
#      x y z
#    x 1.749980 0.000000 0.000000 
#    y 0.000000 1.788660 0.000000 
#    z 0.000000 0.000000 1.791600 
# 
# From -- ./inp_files/5142.got.cif
#   From: 2010.03.12/outbox.cif.g09.slc.cpg/sg54_3_cif.got.tgz:5142.got - 2010.04.16 15:00:50.
