data_PCOD8223535
_publ_section_title
;
Structure prediction by ZEFSAII (Michael W. Deem and Ramdas Pophale) SiO2 
 PCOD8223535
Probable space group: P C C A
;
_chemical_formula_sum "Si O2"
_cell_formula_units_Z 44
_cell_length_a 17.679138
_cell_length_b 14.519928
_cell_length_c 8.209184
_cell_angle_alpha 90.000000
_cell_angle_beta 90.000000
_cell_angle_gamma 90.000000
_cell_volume 2107.295980
_symmetry_space_group_name_H-M "P C C A"
_symmetry_group_IT_number 54
_symmetry_cell_setting 'orthorhombic'
loop_
_space_group_symop_operation_xyz
x,y,z
1/2-x,-y,z
1/2+x,-y,1/2-z
-x,y,1/2-z
-x,-y,-z
1/2+x,y,-z
1/2-x,y,1/2+z
x,-y,1/2+z
loop_
_atom_site_type_symbol
_atom_site_label
_atom_site_fract_x
_atom_site_fract_y
_atom_site_fract_z
Si Si1 0.805768 0.866171 0.032927
Si Si2 0.698893 0.703352 0.941487
Si Si3 0.043522 0.580222 0.590577
Si Si4 0.750000 0.000000 0.790370
Si Si5 0.306620 0.581455 0.258292
Si Si6 0.575936 0.739784 0.664331
O O1 0.732733 0.799106 0.010665
O O2 0.796008 0.922501 0.197691
O O3 0.885940 0.814687 0.045641
O O4 0.811608 0.943501 0.894590
O O5 0.665512 0.639167 0.084741
O O6 0.769934 0.653021 0.864173
O O7 0.634864 0.714977 0.806253
O O8 0.122341 0.539272 0.660619
O O9 0.055993 0.655175 0.451495
O O10 0.000000 0.619523 0.750000
O O11 0.000000 0.500000 0.500000
O O12 0.250000 0.500000 0.311896
O O13 0.500000 0.777651 0.750000
#
# Coordination Sequence:
#
# PCOD8223535 Si02
#       6
#     8   8   8   4   8   8
#     4  11  21  44  74 109 140 188 230 300 364 434
#     4  12  23  45  72 100 141 188 245 294 362 436
#     4  12  29  47  66  95 143 191 242 303 364 419
#     4  10  22  40  78 114 142 168 250 298 358 446
#     4  12  26  40  67 101 132 187 248 306 347 425
#     4  12  26  47  69 103 145 191 239 298 370 438
#
# _framework density 20.879837999999999
#
# number of rings (size 3 to 8) (size 9 to 14) (size 15 to 20)
#    0.000    0.364    5.455    2.182   10.182    0.000 
#    0.000    0.909    0.000    0.000    0.000    0.000 
#    0.000    0.000    0.000    0.000    0.000    0.000 
#
# Total GULP energy -545482.271814 kJ/mol
# GULP energy per Si atom -12397.324359 kJ/mol
# Density = 2.083231 g / cm^3
# Si number density = 20.879838 Si / 1000 Ang^3
#
#
#
# Elastic Constant Matrix: (Units=GPa)
#
#
# Indices 1 2 3 4 5 6 
#
# 1 134.3350 56.0102 58.7091 0.0000 0.0000 0.0000
# 2 56.0102 138.5167 69.8045 0.0000 0.0000 0.0000
# 3 58.7091 69.8045 133.6430 0.0000 0.0000 0.0000
# 4 0.0000 0.0000 0.0000 32.6390 0.0000 0.0000
# 5 0.0000 0.0000 0.0000 0.0000 43.2143 0.0000
# 6 0.0000 0.0000 0.0000 0.0000 0.0000 33.7943
#
#
#
# Elastic Compliance Matrix: (Units=1/GPa)
#
#
# Indices 1 2 3 4 5 6 
#
# 1 0.009780 -0.002429 -0.003028 0.000000 0.000000 0.000000
# 2 -0.002429 0.010402 -0.004366 0.000000 0.000000 0.000000
# 3 -0.003028 -0.004366 0.011093 0.000000 0.000000 0.000000
# 4 0.000000 0.000000 0.000000 0.030638 0.000000 0.000000
# 5 0.000000 0.000000 0.000000 0.000000 0.023140 0.000000
# 6 0.000000 0.000000 0.000000 0.000000 0.000000 0.029591
#
#
# Mechanical properties :
#
#
# Convention : Reuss Voigt Hill
#
# Bulk Modulus (GPa) = 85.98672 86.17135 86.07904
# Shear Modulus (GPa) = 36.18836 36.72758 36.45797
#
# Velocity S-wave (km/s) = 4.16766 4.19859 4.18315
# Velocity P-wave (km/s) = 8.02684 8.05381 8.04034
#
# Compressibility (1/GPa) = 0.01162970
#
# Stress axis : x y z
#
# Youngs Moduli (GPa) = 102.24989 96.13824 90.14560
#
# Poissons Ratio (x) = 0.23350 0.27293
# Poissons Ratio (y) = 0.24835 0.39358
# Poissons Ratio (z) = 0.30958 0.41974
#
# Static dielectric constant tensor:
#      x y z
#    x 3.986840 0.000000 0.000000 
#    y 0.000000 3.914700 0.000000 
#    z 0.000000 0.000000 4.346030 
# 
# 
# High freq. dielectric constant tensor:
#      x y z
#    x 1.804540 0.000000 0.000000 
#    y 0.000000 1.815130 0.000000 
#    z 0.000000 0.000000 1.847080 
# 
# From -- ./inp_files/4117.got.cif
#   From: 2010.03.12/outbox.cif.g09.slc.cpg/sg54_3_cif.got.tgz:4117.got - 2010.04.16 15:00:50.
