data_PCOD8223555
_publ_section_title
;
Structure prediction by ZEFSAII (Michael W. Deem and Ramdas Pophale) SiO2 
 PCOD8223555
Probable space group: P C C A
;
_chemical_formula_sum "Si O2"
_cell_formula_units_Z 56
_cell_length_a 13.687876
_cell_length_b 14.081190
_cell_length_c 12.838317
_cell_angle_alpha 90.000000
_cell_angle_beta 90.000000
_cell_angle_gamma 90.000000
_cell_volume 2474.477537
_symmetry_space_group_name_H-M "P C C A"
_symmetry_group_IT_number 54
_symmetry_cell_setting 'orthorhombic'
loop_
_space_group_symop_operation_xyz
x,y,z
1/2-x,-y,z
1/2+x,-y,1/2-z
-x,y,1/2-z
-x,-y,-z
1/2+x,y,-z
1/2-x,y,1/2+z
x,-y,1/2+z
loop_
_atom_site_type_symbol
_atom_site_label
_atom_site_fract_x
_atom_site_fract_y
_atom_site_fract_z
Si Si1 0.598047 0.872902 0.684327
Si Si2 0.715273 0.792849 0.275959
Si Si3 0.936741 0.370756 0.059998
Si Si4 0.070244 0.195290 0.039267
Si Si5 0.532500 0.429882 0.139027
Si Si6 0.927921 0.081527 0.155198
Si Si7 0.744293 0.609777 0.663440
O O1 0.500000 0.863895 0.750000
O O2 0.680966 0.845118 0.767335
O O3 0.597416 0.802509 0.583279
O O4 0.620801 0.978271 0.639272
O O5 0.667604 0.812508 0.389283
O O6 0.650097 0.836128 0.181858
O O7 0.734290 0.679982 0.260464
O O8 0.820629 0.356340 0.074588
O O9 0.009056 0.284513 0.084278
O O10 0.964286 0.455993 0.138304
O O11 0.949330 0.398240 0.940188
O O12 0.994102 0.108139 0.055026
O O13 0.500000 0.391550 0.250000
O O14 0.636585 0.380297 0.112452
O O15 0.000000 0.071143 0.250000
O O16 0.750000 0.500000 0.702243
#
# Coordination Sequence:
#
# PCOD8223555 Si02
#       7
#     8   8   8   8   8   8   8
#     4  11  25  45  66 102 145 179 227 293 358 415
#     4  11  23  42  69 100 136 181 232 284 344 423
#     4  10  22  42  67  96 134 177 228 280 341 416
#     4  11  23  41  74 100 133 185 237 282 354 419
#     4  10  23  43  66  96 135 178 225 284 347 402
#     4   9  20  41  70 101 136 181 231 286 343 419
#     4  10  22  41  66 100 135 174 229 284 341 407
#
# _framework density 22.631039000000001
#
# number of rings (size 3 to 8) (size 9 to 14) (size 15 to 20)
#    0.000    1.714    1.429    1.714    4.000    3.429 
#    7.714    7.857    0.000    0.000    0.000    0.000 
#    0.000    0.000    0.000    0.000    0.000    0.000 
#
# Total GULP energy -694031.301603 kJ/mol
# GULP energy per Si atom -12393.416100 kJ/mol
# Density = 2.257953 g / cm^3
# Si number density = 22.631039 Si / 1000 Ang^3
#
#
#
# Elastic Constant Matrix: (Units=GPa)
#
#
# Indices 1 2 3 4 5 6 
#
# 1 143.0926 47.6348 62.3175 0.0000 0.0000 0.0000
# 2 47.6348 124.0504 21.9709 0.0000 0.0000 0.0000
# 3 62.3175 21.9709 105.5439 0.0000 0.0000 0.0000
# 4 0.0000 0.0000 0.0000 20.3650 0.0000 0.0000
# 5 0.0000 0.0000 0.0000 0.0000 33.1665 0.0000
# 6 0.0000 0.0000 0.0000 0.0000 0.0000 32.4956
#
#
#
# Elastic Compliance Matrix: (Units=1/GPa)
#
#
# Indices 1 2 3 4 5 6 
#
# 1 0.010391 -0.003014 -0.005507 0.000000 0.000000 0.000000
# 2 -0.003014 0.009244 -0.000145 0.000000 0.000000 0.000000
# 3 -0.005507 -0.000145 0.012757 0.000000 0.000000 0.000000
# 4 0.000000 0.000000 0.000000 0.049104 0.000000 0.000000
# 5 0.000000 0.000000 0.000000 0.000000 0.030151 0.000000
# 6 0.000000 0.000000 0.000000 0.000000 0.000000 0.030773
#
#
# Mechanical properties :
#
#
# Convention : Reuss Voigt Hill
#
# Bulk Modulus (GPa) = 66.40713 70.72593 68.56653
# Shear Modulus (GPa) = 30.34493 33.25633 31.80063
#
# Velocity S-wave (km/s) = 3.66574 3.83757 3.75264
# Velocity P-wave (km/s) = 6.87924 7.13831 7.00997
#
# Compressibility (1/GPa) = 0.01505862
#
# Stress axis : x y z
#
# Youngs Moduli (GPa) = 96.24173 108.17388 78.39048
#
# Poissons Ratio (x) = 0.32609 0.43173
# Poissons Ratio (y) = 0.29012 0.01133
# Poissons Ratio (z) = 0.53005 0.01563
#
# Static dielectric constant tensor:
#      x y z
#    x 4.352010 0.000000 0.000000 
#    y 0.000000 4.459510 0.000000 
#    z 0.000000 0.000000 3.559670 
# 
# 
# High freq. dielectric constant tensor:
#      x y z
#    x 1.899070 0.000000 0.000000 
#    y 0.000000 1.907900 0.000000 
#    z 0.000000 0.000000 1.860400 
# 
# From -- ./inp_files/12726.got.cif
#   From: 2010.03.12/outbox.cif.g09.slc.cpg/sg54_7_cif.got.tgz:12726.got - 2010.04.16 15:00:50.
