data_PCOD8223710
_publ_section_title
;
Structure prediction by ZEFSAII (Michael W. Deem and Ramdas Pophale) SiO2 
 PCOD8223710
Probable space group: P C C A
;
_chemical_formula_sum "Si O2"
_cell_formula_units_Z 40
_cell_length_a 5.188193
_cell_length_b 23.542794
_cell_length_c 13.400746
_cell_angle_alpha 90.000000
_cell_angle_beta 90.000000
_cell_angle_gamma 90.000000
_cell_volume 1636.828211
_symmetry_space_group_name_H-M "P C C A"
_symmetry_group_IT_number 54
_symmetry_cell_setting 'orthorhombic'
loop_
_space_group_symop_operation_xyz
x,y,z
1/2-x,-y,z
1/2+x,-y,1/2-z
-x,y,1/2-z
-x,-y,-z
1/2+x,y,-z
1/2-x,y,1/2+z
x,-y,1/2+z
loop_
_atom_site_type_symbol
_atom_site_label
_atom_site_fract_x
_atom_site_fract_y
_atom_site_fract_z
Si Si1 0.110575 0.067584 0.961442
Si Si2 0.361804 0.808028 0.044580
Si Si3 0.862056 0.611209 0.433036
Si Si4 0.750000 0.500000 0.814369
Si Si5 0.000000 0.236902 0.250000
Si Si6 0.500000 0.962729 0.750000
Si Si7 0.000000 0.691137 0.250000
O O1 0.038600 0.076957 0.846290
O O2 0.387918 0.035470 0.972815
O O3 0.193154 0.127165 0.012294
O O4 0.421190 0.804804 0.160787
O O5 0.090455 0.777369 0.018583
O O6 0.588344 0.620107 0.486754
O O7 0.862259 0.549031 0.384670
O O8 0.901397 0.654983 0.343432
O O9 0.500000 0.479054 0.750000
O O10 0.750290 0.272909 0.217196
O O11 0.250000 0.000000 0.730198
#
# Coordination Sequence:
#
# PCOD8223710 Si02
#       7
#     8   8   8   4   4   4   4
#     4  10  23  42  67  97 134 174 226 279 334 400
#     4  10  23  42  69  99 130 171 226 287 340 404
#     4  12  26  46  72 103 141 190 235 286 354 418
#     4  12  24  44  76 104 146 184 244 294 346 412
#     4  12  26  44  70 100 134 177 230 283 366 412
#     4  12  26  42  66 100 140 184 224 272 346 418
#     4  12  28  46  68 102 144 183 224 297 350 436
#
# _framework density 24.437505000000002
#
# number of rings (size 3 to 8) (size 9 to 14) (size 15 to 20)
#    0.000    0.800    1.000    5.400    1.400   13.600 
#    0.000    0.000    0.000    0.000    0.000    0.000 
#    0.000    0.000    0.000    0.000    0.000    0.000 
#
# Total GULP energy -495955.885734 kJ/mol
# GULP energy per Si atom -12398.897143 kJ/mol
# Density = 2.438188 g / cm^3
# Si number density = 24.437505 Si / 1000 Ang^3
#
#
#
# Elastic Constant Matrix: (Units=GPa)
#
#
# Indices 1 2 3 4 5 6 
#
# 1 202.0094 26.2284 46.4779 0.0000 0.0000 0.0000
# 2 26.2284 73.4925 39.1793 0.0000 0.0000 0.0000
# 3 46.4779 39.1793 160.5050 0.0000 0.0000 0.0000
# 4 0.0000 0.0000 0.0000 10.9628 0.0000 0.0000
# 5 0.0000 0.0000 0.0000 0.0000 54.7181 0.0000
# 6 0.0000 0.0000 0.0000 0.0000 0.0000 22.2897
#
#
#
# Elastic Compliance Matrix: (Units=1/GPa)
#
#
# Indices 1 2 3 4 5 6 
#
# 1 0.005403 -0.001258 -0.001257 0.000000 0.000000 0.000000
# 2 -0.001258 0.015935 -0.003526 0.000000 0.000000 0.000000
# 3 -0.001257 -0.003526 0.007455 0.000000 0.000000 0.000000
# 4 0.000000 0.000000 0.000000 0.091218 0.000000 0.000000
# 5 0.000000 0.000000 0.000000 0.000000 0.018275 0.000000
# 6 0.000000 0.000000 0.000000 0.000000 0.000000 0.044864
#
#
# Mechanical properties :
#
#
# Convention : Reuss Voigt Hill
#
# Bulk Modulus (GPa) = 59.83935 73.30867 66.57401
# Shear Modulus (GPa) = 24.90012 39.20221 32.05117
#
# Velocity S-wave (km/s) = 3.19553 4.00957 3.62547
# Velocity P-wave (km/s) = 6.17698 7.17629 6.69530
#
# Compressibility (1/GPa) = 0.01671141
#
# Stress axis : x y z
#
# Youngs Moduli (GPa) = 185.08569 62.75409 134.13709
#
# Poissons Ratio (x) = 0.07893 0.16868
# Poissons Ratio (y) = 0.23281 0.47291
# Poissons Ratio (z) = 0.23274 0.22124
#
# Static dielectric constant tensor:
#      x y z
#    x 5.341900 0.000000 0.000000 
#    y 0.000000 4.453230 0.000000 
#    z 0.000000 0.000000 4.473250 
# 
# 
# High freq. dielectric constant tensor:
#      x y z
#    x 2.021900 0.000000 0.000000 
#    y 0.000000 1.961350 0.000000 
#    z 0.000000 0.000000 1.979880 
# 
# From -- ./inp_files/6484.got.cif
#   From: 2010.03.12/outbox.cif.g09.slc.cpg/sg54_4_cif.got.tgz:6484.got - 2010.04.16 15:00:50.
