data_PCOD8223964
_publ_section_title
;
Structure prediction by ZEFSAII (Michael W. Deem and Ramdas Pophale) SiO2 
 PCOD8223964
Probable space group: P C C A
;
_chemical_formula_sum "Si O2"
_cell_formula_units_Z 48
_cell_length_a 18.343260
_cell_length_b 14.386768
_cell_length_c 8.379616
_cell_angle_alpha 90.000000
_cell_angle_beta 90.000000
_cell_angle_gamma 90.000000
_cell_volume 2211.382556
_symmetry_space_group_name_H-M "P C C A"
_symmetry_group_IT_number 54
_symmetry_cell_setting 'orthorhombic'
loop_
_space_group_symop_operation_xyz
x,y,z
1/2-x,-y,z
1/2+x,-y,1/2-z
-x,y,1/2-z
-x,-y,-z
1/2+x,y,-z
1/2-x,y,1/2+z
x,-y,1/2+z
loop_
_atom_site_type_symbol
_atom_site_label
_atom_site_fract_x
_atom_site_fract_y
_atom_site_fract_z
Si Si1 0.422804 0.130281 0.302296
Si Si2 0.576419 0.063158 0.835339
Si Si3 0.084465 0.602869 0.732415
Si Si4 0.816316 0.269411 0.840698
Si Si5 0.831804 0.534844 0.463311
Si Si6 0.661467 0.222942 0.704575
O O1 0.500000 0.173918 0.250000
O O2 0.427266 0.089720 0.479709
O O3 0.364893 0.213544 0.287695
O O4 0.403932 0.045605 0.182050
O O5 0.500000 0.085671 0.750000
O O6 0.641902 0.118009 0.749823
O O7 0.114300 0.549225 0.579020
O O8 0.095246 0.713916 0.724067
O O9 0.000000 0.577588 0.750000
O O10 0.138341 0.571575 0.871460
O O11 0.834246 0.379886 0.835656
O O12 0.733343 0.256196 0.793704
O O13 0.830625 0.228420 0.015207
O O14 0.750000 0.500000 0.488600
#
# Coordination Sequence:
#
# PCOD8223964 Si02
#       6
#     8   8   8   8   8   8
#     4  11  23  41  66  98 132 173 222 268 333 402
#     4  11  22  41  67  94 134 176 214 274 334 396
#     4  11  24  40  65  96 130 171 226 281 335 405
#     4  11  24  40  64  95 127 177 222 277 334 407
#     4  11  23  42  66  93 132 177 222 277 348 412
#     4  11  23  41  62  92 130 171 224 275 340 397
#
# _framework density 21.705878999999999
#
# number of rings (size 3 to 8) (size 9 to 14) (size 15 to 20)
#    0.000    1.000    1.667    6.500    2.333    4.000 
#    0.000    3.333    0.000    0.000    0.000    0.000 
#    0.000    0.000    0.000    0.000    0.000    0.000 
#
# Total GULP energy -595275.578313 kJ/mol
# GULP energy per Si atom -12401.574548 kJ/mol
# Density = 2.165648 g / cm^3
# Si number density = 21.705879 Si / 1000 Ang^3
#
#
#
# Elastic Constant Matrix: (Units=GPa)
#
#
# Indices 1 2 3 4 5 6 
#
# 1 115.1903 33.7810 17.8404 0.0000 0.0000 0.0000
# 2 33.7810 78.1744 16.2104 0.0000 0.0000 0.0000
# 3 17.8404 16.2104 71.1536 0.0000 0.0000 0.0000
# 4 0.0000 0.0000 0.0000 61.6882 0.0000 0.0000
# 5 0.0000 0.0000 0.0000 0.0000 33.0796 0.0000
# 6 0.0000 0.0000 0.0000 0.0000 0.0000 28.6980
#
#
#
# Elastic Compliance Matrix: (Units=1/GPa)
#
#
# Indices 1 2 3 4 5 6 
#
# 1 0.010115 -0.004036 -0.001617 0.000000 0.000000 0.000000
# 2 -0.004036 0.015036 -0.002414 0.000000 0.000000 0.000000
# 3 -0.001617 -0.002414 0.015009 0.000000 0.000000 0.000000
# 4 0.000000 0.000000 0.000000 0.016211 0.000000 0.000000
# 5 0.000000 0.000000 0.000000 0.000000 0.030230 0.000000
# 6 0.000000 0.000000 0.000000 0.000000 0.000000 0.034846
#
#
# Mechanical properties :
#
#
# Convention : Reuss Voigt Hill
#
# Bulk Modulus (GPa) = 41.61736 44.46468 43.04102
# Shear Modulus (GPa) = 34.34319 37.80561 36.07440
#
# Velocity S-wave (km/s) = 3.98201 4.17792 4.08114
# Velocity P-wave (km/s) = 6.35270 6.61838 6.48690
#
# Compressibility (1/GPa) = 0.02402843
#
# Stress axis : x y z
#
# Youngs Moduli (GPa) = 98.86089 66.50540 66.62504
#
# Poissons Ratio (x) = 0.26840 0.10772
# Poissons Ratio (y) = 0.39898 0.16082
# Poissons Ratio (z) = 0.15983 0.16053
#
# Static dielectric constant tensor:
#      x y z
#    x 3.899830 0.000000 0.000000 
#    y 0.000000 4.374150 0.000000 
#    z 0.000000 0.000000 3.891790 
# 
# 
# High freq. dielectric constant tensor:
#      x y z
#    x 1.852880 0.000000 0.000000 
#    y 0.000000 1.864020 0.000000 
#    z 0.000000 0.000000 1.857800 
# 
# From -- ./inp_files/4162.got.cif
#   From: 2010.03.12/outbox.cif.g09.slc.cpg/sg54_3_cif.got.tgz:4162.got - 2010.04.16 15:00:50.
