data_PCOD8223415
_publ_section_title
;
Structure prediction by ZEFSAII (Michael W. Deem and Ramdas Pophale) SiO2 
 PCOD8223415
Probable space group: P C C A
;
_chemical_formula_sum "Si O2"
_cell_formula_units_Z 48
_cell_length_a 23.043511
_cell_length_b 11.222390
_cell_length_c 8.779994
_cell_angle_alpha 90.000000
_cell_angle_beta 90.000000
_cell_angle_gamma 90.000000
_cell_volume 2270.535136
_symmetry_space_group_name_H-M "P C C A"
_symmetry_group_IT_number 54
_symmetry_cell_setting 'orthorhombic'
loop_
_space_group_symop_operation_xyz
x,y,z
1/2-x,-y,z
1/2+x,-y,1/2-z
-x,y,1/2-z
-x,-y,-z
1/2+x,y,-z
1/2-x,y,1/2+z
x,-y,1/2+z
loop_
_atom_site_type_symbol
_atom_site_label
_atom_site_fract_x
_atom_site_fract_y
_atom_site_fract_z
Si Si1 0.318291 0.231739 0.175831
Si Si2 0.638007 0.662121 0.369671
Si Si3 0.434155 0.133640 0.703075
Si Si4 0.874958 0.051620 0.993041
Si Si5 0.183532 0.466919 0.835004
Si Si6 0.213938 0.145290 0.004485
O O1 0.319982 0.375300 0.190091
O O2 0.297012 0.185810 0.335188
O O3 0.378066 0.165542 0.124428
O O4 0.279791 0.180666 0.037791
O O5 0.575500 0.726976 0.348328
O O6 0.646971 0.585584 0.523824
O O7 0.651159 0.585187 0.219921
O O8 0.680270 0.775382 0.371244
O O9 0.500000 0.118254 0.750000
O O10 0.391184 0.095154 0.839348
O O11 0.421278 0.047680 0.559727
O O12 0.809145 0.990927 0.985731
O O13 0.250000 0.500000 0.879316
#
# Coordination Sequence:
#
# PCOD8223415 Si02
#       6
#     8   8   8   8   8   8
#     4  11  23  35  60  94 134 169 202 244 307 388
#     4  10  24  39  64  92 128 166 214 258 304 370
#     4  11  25  47  68  89 121 166 221 276 330 379
#     4  11  23  41  66  92 125 163 208 271 325 381
#     4  11  22  40  64  96 134 175 207 244 306 384
#     4  10  22  37  56  96 131 163 203 241 310 386
#
# _framework density 21.14039
#
# number of rings (size 3 to 8) (size 9 to 14) (size 15 to 20)
#    0.000    1.333    3.333    1.500    9.333    1.333 
#    0.000    0.833    0.000    0.000    0.000    0.000 
#    0.000    0.000    0.000    0.000    0.000    0.000 
#
# Total GULP energy -594638.724678 kJ/mol
# GULP energy per Si atom -12388.306764 kJ/mol
# Density = 2.109227 g / cm^3
# Si number density = 21.140390 Si / 1000 Ang^3
#
#
#
# Elastic Constant Matrix: (Units=GPa)
#
#
# Indices 1 2 3 4 5 6 
#
# 1 41.7703 15.9139 16.1409 0.0000 0.0000 0.0000
# 2 15.9139 108.8670 39.3186 0.0000 0.0000 0.0000
# 3 16.1409 39.3186 89.3418 0.0000 0.0000 0.0000
# 4 0.0000 0.0000 0.0000 34.0245 0.0000 0.0000
# 5 0.0000 0.0000 0.0000 0.0000 21.6893 0.0000
# 6 0.0000 0.0000 0.0000 0.0000 0.0000 50.7741
#
#
#
# Elastic Compliance Matrix: (Units=1/GPa)
#
#
# Indices 1 2 3 4 5 6 
#
# 1 0.026311 -0.002532 -0.003639 0.000000 0.000000 0.000000
# 2 -0.002532 0.011165 -0.004456 0.000000 0.000000 0.000000
# 3 -0.003639 -0.004456 0.013812 0.000000 0.000000 0.000000
# 4 0.000000 0.000000 0.000000 0.029391 0.000000 0.000000
# 5 0.000000 0.000000 0.000000 0.000000 0.046106 0.000000
# 6 0.000000 0.000000 0.000000 0.000000 0.000000 0.019695
#
#
# Mechanical properties :
#
#
# Convention : Reuss Voigt Hill
#
# Bulk Modulus (GPa) = 33.29633 42.52511 37.91072
# Shear Modulus (GPa) = 28.13019 32.53796 30.33407
#
# Velocity S-wave (km/s) = 3.65175 3.92744 3.79210
# Velocity P-wave (km/s) = 5.79350 6.38166 6.09468
#
# Compressibility (1/GPa) = 0.03003334
#
# Stress axis : x y z
#
# Youngs Moduli (GPa) = 38.00650 89.56545 72.40274
#
# Poissons Ratio (x) = 0.22675 0.26350
# Poissons Ratio (y) = 0.09622 0.32264
# Poissons Ratio (z) = 0.13832 0.39913
#
# Static dielectric constant tensor:
#      x y z
#    x 3.542130 0.000000 0.000000 
#    y 0.000000 4.662620 0.000000 
#    z 0.000000 0.000000 3.762030 
# 
# 
# High freq. dielectric constant tensor:
#      x y z
#    x 1.775420 0.000000 0.000000 
#    y 0.000000 1.854150 0.000000 
#    z 0.000000 0.000000 1.838240 
# 
# From -- ./inp_files/5168.got.cif
#   From: 2010.03.12/outbox.cif.g09.slc.cpg/sg54_3_cif.got.tgz:5168.got - 2010.04.16 15:00:50.
