data_PCOD8223949
_publ_section_title
;
Structure prediction by ZEFSAII (Michael W. Deem and Ramdas Pophale) SiO2 
 PCOD8223949
Probable space group: P C C A
;
_chemical_formula_sum "Si O2"
_cell_formula_units_Z 40
_cell_length_a 15.116906
_cell_length_b 13.996694
_cell_length_c 8.565378
_cell_angle_alpha 90.000000
_cell_angle_beta 90.000000
_cell_angle_gamma 90.000000
_cell_volume 1812.320130
_symmetry_space_group_name_H-M "P C C A"
_symmetry_group_IT_number 54
_symmetry_cell_setting 'orthorhombic'
loop_
_space_group_symop_operation_xyz
x,y,z
1/2-x,-y,z
1/2+x,-y,1/2-z
-x,y,1/2-z
-x,-y,-z
1/2+x,y,-z
1/2-x,y,1/2+z
x,-y,1/2+z
loop_
_atom_site_type_symbol
_atom_site_label
_atom_site_fract_x
_atom_site_fract_y
_atom_site_fract_z
Si Si1 0.861720 0.223584 0.418787
Si Si2 0.984607 0.104475 0.933874
Si Si3 0.179046 0.214158 0.445935
Si Si4 0.170047 0.567877 0.969049
Si Si5 0.411418 0.575895 0.156165
O O1 0.842534 0.208070 0.236195
O O2 0.780356 0.183455 0.521793
O O3 0.882049 0.335100 0.452040
O O4 0.949379 0.170224 0.469783
O O5 0.000000 0.107372 0.750000
O O6 0.885278 0.142083 0.963210
O O7 0.000000 0.000000 0.000000
O O8 0.172777 0.321218 0.518999
O O9 0.250000 0.500000 0.027410
O O10 0.165164 0.560238 0.783674
O O11 0.082941 0.520072 0.050771
O O12 0.500000 0.600857 0.250000
#
# Coordination Sequence:
#
# PCOD8223949 Si02
#       5
#     8   8   8   8   8
#     4  11  23  44  68 102 141 182 239 285 358 415
#     4  12  27  49  75 104 137 177 233 299 364 429
#     4  11  24  42  70 101 142 191 231 298 349 426
#     4  11  22  38  61  93 137 184 235 281 343 408
#     4  11  23  38  61  94 138 187 236 293 341 412
#
# _framework density 22.071154
#
# number of rings (size 3 to 8) (size 9 to 14) (size 15 to 20)
#    0.000    0.800    2.000    6.600    2.800    3.200 
#    0.000    4.000    0.000    0.000    0.000    0.000 
#    0.000    0.000    0.000    0.000    0.000    0.000 
#
# Total GULP energy -495954.142108 kJ/mol
# GULP energy per Si atom -12398.853553 kJ/mol
# Density = 2.202092 g / cm^3
# Si number density = 22.071154 Si / 1000 Ang^3
#
#
#
# Elastic Constant Matrix: (Units=GPa)
#
#
# Indices 1 2 3 4 5 6 
#
# 1 102.9807 24.5436 9.6805 0.0000 0.0000 0.0000
# 2 24.5436 111.3270 26.8599 0.0000 0.0000 0.0000
# 3 9.6805 26.8599 80.0484 0.0000 0.0000 0.0000
# 4 0.0000 0.0000 0.0000 34.5505 0.0000 0.0000
# 5 0.0000 0.0000 0.0000 0.0000 42.2115 0.0000
# 6 0.0000 0.0000 0.0000 0.0000 0.0000 30.8498
#
#
#
# Elastic Compliance Matrix: (Units=1/GPa)
#
#
# Indices 1 2 3 4 5 6 
#
# 1 0.010269 -0.002137 -0.000525 0.000000 0.000000 0.000000
# 2 -0.002137 0.010219 -0.003170 0.000000 0.000000 0.000000
# 3 -0.000525 -0.003170 0.013620 0.000000 0.000000 0.000000
# 4 0.000000 0.000000 0.000000 0.028943 0.000000 0.000000
# 5 0.000000 0.000000 0.000000 0.000000 0.023690 0.000000
# 6 0.000000 0.000000 0.000000 0.000000 0.000000 0.032415
#
#
# Mechanical properties :
#
#
# Convention : Reuss Voigt Hill
#
# Bulk Modulus (GPa) = 44.55783 46.28045 45.41914
# Shear Modulus (GPa) = 36.15278 37.07385 36.61332
#
# Velocity S-wave (km/s) = 4.05162 4.10291 4.07735
# Velocity P-wave (km/s) = 6.48996 6.59238 6.54137
#
# Compressibility (1/GPa) = 0.02244274
#
# Stress axis : x y z
#
# Youngs Moduli (GPa) = 97.37767 97.85998 73.42309
#
# Poissons Ratio (x) = 0.20917 0.03852
# Poissons Ratio (y) = 0.20814 0.23278
# Poissons Ratio (z) = 0.05109 0.31025
#
# Static dielectric constant tensor:
#      x y z
#    x 4.180480 0.000000 0.000000 
#    y 0.000000 4.024400 0.000000 
#    z 0.000000 0.000000 4.087710 
# 
# 
# High freq. dielectric constant tensor:
#      x y z
#    x 1.882290 0.000000 0.000000 
#    y 0.000000 1.860920 0.000000 
#    z 0.000000 0.000000 1.873980 
# 
# From -- ./inp_files/3432.got.cif
#   From: 2010.03.12/outbox.cif.g09.slc.cpg/sg54_2_cif.got.tgz:3432.got - 2010.04.16 15:00:50.
