data_PCOD8223632
_publ_section_title
;
Structure prediction by ZEFSAII (Michael W. Deem and Ramdas Pophale) SiO2 
 PCOD8223632
Probable space group: P C C A
;
_chemical_formula_sum "Si O2"
_cell_formula_units_Z 40
_cell_length_a 14.092974
_cell_length_b 11.948951
_cell_length_c 10.665846
_cell_angle_alpha 90.000000
_cell_angle_beta 90.000000
_cell_angle_gamma 90.000000
_cell_volume 1796.088531
_symmetry_space_group_name_H-M "P C C A"
_symmetry_group_IT_number 54
_symmetry_cell_setting 'orthorhombic'
loop_
_space_group_symop_operation_xyz
x,y,z
1/2-x,-y,z
1/2+x,-y,1/2-z
-x,y,1/2-z
-x,-y,-z
1/2+x,y,-z
1/2-x,y,1/2+z
x,-y,1/2+z
loop_
_atom_site_type_symbol
_atom_site_label
_atom_site_fract_x
_atom_site_fract_y
_atom_site_fract_z
Si Si1 0.654630 0.939240 0.721850
Si Si2 0.530522 0.094201 0.596700
Si Si3 0.158824 0.233086 0.566645
Si Si4 0.003180 0.595064 0.105101
Si Si5 0.132346 0.221325 0.000333
O O1 0.627678 0.843332 0.817410
O O2 0.661173 0.885362 0.584187
O O3 0.750000 0.000000 0.764694
O O4 0.570245 0.033261 0.723226
O O5 0.622728 0.165915 0.554492
O O6 0.441872 0.180847 0.608622
O O7 0.500000 0.000000 0.500000
O O8 0.105084 0.349145 0.583890
O O9 0.270456 0.263143 0.563538
O O10 0.000000 0.550309 0.250000
O O11 0.916151 0.681333 0.082582
O O12 0.000000 0.500000 0.000000
#
# Coordination Sequence:
#
# PCOD8223632 Si02
#       5
#     8   8   8   8   8
#     4  11  21  36  63  96 144 190 228 277 365 432
#     4   9  21  35  57  92 137 182 231 272 352 433
#     4  11  23  43  66  99 145 187 242 304 357 457
#     4  11  25  52  79 101 139 191 254 323 385 431
#     4  10  22  44  65 102 139 182 244 301 369 443
#
# _framework density 22.270617000000001
#
# number of rings (size 3 to 8) (size 9 to 14) (size 15 to 20)
#    0.000    1.600    4.000    0.000    5.600    0.800 
#    3.600    2.000    0.000    0.000    0.000    0.000 
#    0.000    0.000    0.000    0.000    0.000    0.000 
#
# Total GULP energy -495730.072304 kJ/mol
# GULP energy per Si atom -12393.251808 kJ/mol
# Density = 2.221993 g / cm^3
# Si number density = 22.270617 Si / 1000 Ang^3
#
#
#
# Elastic Constant Matrix: (Units=GPa)
#
#
# Indices 1 2 3 4 5 6 
#
# 1 187.8482 56.3976 46.3577 0.0000 0.0000 0.0000
# 2 56.3976 106.2836 52.3467 0.0000 0.0000 0.0000
# 3 46.3577 52.3467 106.4106 0.0000 0.0000 0.0000
# 4 0.0000 0.0000 0.0000 50.9033 0.0000 0.0000
# 5 0.0000 0.0000 0.0000 0.0000 26.3766 0.0000
# 6 0.0000 0.0000 0.0000 0.0000 0.0000 31.8729
#
#
#
# Elastic Compliance Matrix: (Units=1/GPa)
#
#
# Indices 1 2 3 4 5 6 
#
# 1 0.006509 -0.002715 -0.001500 0.000000 0.000000 0.000000
# 2 -0.002715 0.013550 -0.005483 0.000000 0.000000 0.000000
# 3 -0.001500 -0.005483 0.012748 0.000000 0.000000 0.000000
# 4 0.000000 0.000000 0.000000 0.019645 0.000000 0.000000
# 5 0.000000 0.000000 0.000000 0.000000 0.037912 0.000000
# 6 0.000000 0.000000 0.000000 0.000000 0.000000 0.031375
#
#
# Mechanical properties :
#
#
# Convention : Reuss Voigt Hill
#
# Bulk Modulus (GPa) = 74.56415 78.97181 76.76798
# Shear Modulus (GPa) = 34.33953 38.19324 36.26638
#
# Velocity S-wave (km/s) = 3.93099 4.14570 4.03977
# Velocity P-wave (km/s) = 7.35916 7.64545 7.50367
#
# Compressibility (1/GPa) = 0.01341127
#
# Stress axis : x y z
#
# Youngs Moduli (GPa) = 153.63977 73.80154 78.44266
#
# Poissons Ratio (x) = 0.20037 0.11766
# Poissons Ratio (y) = 0.41713 0.43009
# Poissons Ratio (z) = 0.23045 0.40464
#
# Static dielectric constant tensor:
#      x y z
#    x 4.291970 0.000000 0.000000 
#    y 0.000000 4.593370 0.000000 
#    z 0.000000 0.000000 3.976660 
# 
# 
# High freq. dielectric constant tensor:
#      x y z
#    x 1.902680 0.000000 0.000000 
#    y 0.000000 1.850240 0.000000 
#    z 0.000000 0.000000 1.871940 
# 
# From -- ./inp_files/8209.got.cif
#   From: 2010.03.12/outbox.cif.g09.slc.cpg/sg54_5_cif.got.tgz:8209.got - 2010.04.16 15:00:50.
