data_PCOD8223144
_publ_section_title
;
Structure prediction by ZEFSAII (Michael W. Deem and Ramdas Pophale) SiO2 
 PCOD8223144
Probable space group: P C C A
;
_chemical_formula_sum "Si O2"
_cell_formula_units_Z 52
_cell_length_a 9.373590
_cell_length_b 17.492958
_cell_length_c 15.339044
_cell_angle_alpha 90.000000
_cell_angle_beta 90.000000
_cell_angle_gamma 90.000000
_cell_volume 2515.170903
_symmetry_space_group_name_H-M "P C C A"
_symmetry_group_IT_number 54
_symmetry_cell_setting 'orthorhombic'
loop_
_space_group_symop_operation_xyz
x,y,z
1/2-x,-y,z
1/2+x,-y,1/2-z
-x,y,1/2-z
-x,-y,-z
1/2+x,y,-z
1/2-x,y,1/2+z
x,-y,1/2+z
loop_
_atom_site_type_symbol
_atom_site_label
_atom_site_fract_x
_atom_site_fract_y
_atom_site_fract_z
Si Si1 0.427699 0.652038 0.595434
Si Si2 0.750000 0.000000 0.010625
Si Si3 0.416459 0.489970 0.664598
Si Si4 0.007944 0.896993 0.478549
Si Si5 0.392697 0.660417 0.066112
Si Si6 0.580825 0.817102 0.340814
Si Si7 0.594067 0.195956 0.327686
O O1 0.477476 0.569218 0.627973
O O2 0.542405 0.681184 0.526557
O O3 0.274680 0.651293 0.549006
O O4 0.415521 0.711589 0.675876
O O5 0.843774 0.934676 0.059287
O O6 0.623070 0.955776 0.959102
O O7 0.250000 0.500000 0.685699
O O8 0.500000 0.466791 0.750000
O O9 0.451111 0.421082 0.598859
O O10 0.977075 0.823720 0.420423
O O11 0.023613 0.871952 0.580627
O O12 0.433440 0.728110 0.133231
O O13 0.500000 0.833672 0.250000
O O14 0.746103 0.836234 0.322303
O O15 0.500000 0.160440 0.250000
#
# Coordination Sequence:
#
# PCOD8223144 Si02
#       7
#     8   4   8   8   8   8   8
#     4  10  21  37  58  88 121 164 211 257 308 363
#     4  10  24  42  74  90 126 168 200 254 310 388
#     4  10  21  36  54  82 124 162 209 259 305 359
#     4  11  22  46  66  95 128 164 206 251 318 374
#     4  10  21  37  58  88 121 164 211 257 308 363
#     4  11  24  40  65  96 128 167 213 258 311 372
#     4  11  24  40  65  96 128 167 213 258 311 372
#
# _framework density 20.674537999999998
#
# number of rings (size 3 to 8) (size 9 to 14) (size 15 to 20)
#    0.000    1.538    3.077    1.385    2.154    2.462 
#    0.000    4.615    0.000    0.000    0.000    0.000 
#    0.000    0.000    0.000    0.000    0.000    0.000 
#
# Total GULP energy -644323.156726 kJ/mol
# GULP energy per Si atom -12390.829937 kJ/mol
# Density = 2.062748 g / cm^3
# Si number density = 20.674538 Si / 1000 Ang^3
#
#
#
# Elastic Constant Matrix: (Units=GPa)
#
#
# Indices 1 2 3 4 5 6 
#
# 1 103.8671 29.9904 41.0576 0.0000 0.0000 0.0000
# 2 29.9904 87.0048 11.8038 0.0000 0.0000 0.0000
# 3 41.0576 11.8038 84.3130 0.0000 0.0000 0.0000
# 4 0.0000 0.0000 0.0000 9.3094 0.0000 0.0000
# 5 0.0000 0.0000 0.0000 0.0000 33.5737 0.0000
# 6 0.0000 0.0000 0.0000 0.0000 0.0000 29.5568
#
#
#
# Elastic Compliance Matrix: (Units=1/GPa)
#
#
# Indices 1 2 3 4 5 6 
#
# 1 0.012989 -0.003689 -0.005809 0.000000 0.000000 0.000000
# 2 -0.003689 0.012764 0.000010 0.000000 0.000000 0.000000
# 3 -0.005809 0.000010 0.014688 0.000000 0.000000 0.000000
# 4 0.000000 0.000000 0.000000 0.107418 0.000000 0.000000
# 5 0.000000 0.000000 0.000000 0.000000 0.029785 0.000000
# 6 0.000000 0.000000 0.000000 0.000000 0.000000 0.033833
#
#
# Mechanical properties :
#
#
# Convention : Reuss Voigt Hill
#
# Bulk Modulus (GPa) = 46.58935 48.98762 47.78848
# Shear Modulus (GPa) = 21.04295 27.31018 24.17657
#
# Velocity S-wave (km/s) = 3.19379 3.63844 3.42334
# Velocity P-wave (km/s) = 6.01531 6.43406 6.22820
#
# Compressibility (1/GPa) = 0.02146413
#
# Stress axis : x y z
#
# Youngs Moduli (GPa) = 76.98789 78.34536 68.08329
#
# Poissons Ratio (x) = 0.28903 0.39548
# Poissons Ratio (y) = 0.28403 -0.00065
# Poissons Ratio (z) = 0.44720 -0.00075
#
# Static dielectric constant tensor:
#      x y z
#    x 3.852420 0.000000 0.000000 
#    y 0.000000 3.987070 0.000000 
#    z 0.000000 0.000000 3.392610 
# 
# 
# High freq. dielectric constant tensor:
#      x y z
#    x 1.816950 0.000000 0.000000 
#    y 0.000000 1.826060 0.000000 
#    z 0.000000 0.000000 1.777690 
# 
# From -- ./inp_files/11841.got.cif
#   From: 2010.03.12/outbox.cif.g09.slc.cpg/sg54_6_cif.got.tgz:11841.got - 2010.04.16 15:00:50.
