data_PCOD8223884
_publ_section_title
;
Structure prediction by ZEFSAII (Michael W. Deem and Ramdas Pophale) SiO2 
 PCOD8223884
Probable space group: P C C A
;
_chemical_formula_sum "Si O2"
_cell_formula_units_Z 56
_cell_length_a 14.710601
_cell_length_b 15.089396
_cell_length_c 10.531004
_cell_angle_alpha 90.000000
_cell_angle_beta 90.000000
_cell_angle_gamma 90.000000
_cell_volume 2337.609965
_symmetry_space_group_name_H-M "P C C A"
_symmetry_group_IT_number 54
_symmetry_cell_setting 'orthorhombic'
loop_
_space_group_symop_operation_xyz
x,y,z
1/2-x,-y,z
1/2+x,-y,1/2-z
-x,y,1/2-z
-x,-y,-z
1/2+x,y,-z
1/2-x,y,1/2+z
x,-y,1/2+z
loop_
_atom_site_type_symbol
_atom_site_label
_atom_site_fract_x
_atom_site_fract_y
_atom_site_fract_z
Si Si1 0.601862 0.371858 0.116778
Si Si2 0.000000 0.309699 0.250000
Si Si3 0.082827 0.383875 0.493881
Si Si4 0.650702 0.246853 0.330526
Si Si5 0.155600 0.245643 0.097746
Si Si6 0.250000 0.500000 0.927838
Si Si7 0.900865 0.943521 0.273631
Si Si8 0.160416 0.948540 0.505522
O O1 0.593024 0.294825 0.220516
O O2 0.682399 0.439938 0.158927
O O3 0.502410 0.416606 0.085488
O O4 0.638665 0.330702 0.987874
O O5 0.049937 0.375594 0.349060
O O6 0.069865 0.239635 0.189948
O O7 0.109737 0.283942 0.537588
O O8 0.173185 0.445401 0.510305
O O9 0.757015 0.268821 0.318102
O O10 0.651600 0.140994 0.327667
O O11 0.167796 0.157654 0.011772
O O12 0.000000 0.906148 0.250000
O O13 0.907592 0.019684 0.381960
O O14 0.862025 0.978383 0.138511
O O15 0.250000 0.000000 0.548143
#
# Coordination Sequence:
#
# PCOD8223884 Si02
#       8
#     8   4   8   8   8   4   8   8
#     4  11  24  46  69 104 146 192 250 305 374 442
#     4  10  26  46  74 106 146 192 244 302 380 442
#     4  11  25  47  72 109 145 192 242 311 372 455
#     4  12  24  46  75 102 145 200 245 302 374 454
#     4  11  24  45  72 101 145 193 244 303 371 450
#     4  12  24  46  74 106 146 192 248 314 370 450
#     4  12  27  45  72 107 149 193 254 311 381 444
#     4  12  26  46  69 107 146 196 248 316 374 450
#
# _framework density 23.956092999999999
#
# number of rings (size 3 to 8) (size 9 to 14) (size 15 to 20)
#    0.000    0.571    4.286    3.429    3.000    1.714 
#    7.714    0.000    0.000    0.000    0.000    0.000 
#    0.000    0.000    0.000    0.000    0.000    0.000 
#
# Total GULP energy -693927.992670 kJ/mol
# GULP energy per Si atom -12391.571298 kJ/mol
# Density = 2.390157 g / cm^3
# Si number density = 23.956093 Si / 1000 Ang^3
#
#
#
# Elastic Constant Matrix: (Units=GPa)
#
#
# Indices 1 2 3 4 5 6 
#
# 1 149.1833 35.1325 26.0713 0.0000 0.0000 0.0000
# 2 35.1325 88.2788 32.7287 0.0000 0.0000 0.0000
# 3 26.0713 32.7287 118.1785 0.0000 0.0000 0.0000
# 4 0.0000 0.0000 0.0000 23.5646 0.0000 0.0000
# 5 0.0000 0.0000 0.0000 0.0000 29.4863 0.0000
# 6 0.0000 0.0000 0.0000 0.0000 0.0000 33.0872
#
#
#
# Elastic Compliance Matrix: (Units=1/GPa)
#
#
# Indices 1 2 3 4 5 6 
#
# 1 0.007485 -0.002638 -0.000921 0.000000 0.000000 0.000000
# 2 -0.002638 0.013553 -0.003172 0.000000 0.000000 0.000000
# 3 -0.000921 -0.003172 0.009543 0.000000 0.000000 0.000000
# 4 0.000000 0.000000 0.000000 0.042437 0.000000 0.000000
# 5 0.000000 0.000000 0.000000 0.000000 0.033914 0.000000
# 6 0.000000 0.000000 0.000000 0.000000 0.000000 0.030223
#
#
# Mechanical properties :
#
#
# Convention : Reuss Voigt Hill
#
# Bulk Modulus (GPa) = 58.40516 60.38950 59.39733
# Shear Modulus (GPa) = 31.98509 34.67482 33.32995
#
# Velocity S-wave (km/s) = 3.65794 3.80864 3.73405
# Velocity P-wave (km/s) = 6.50182 6.67863 6.59082
#
# Compressibility (1/GPa) = 0.01712177
#
# Stress axis : x y z
#
# Youngs Moduli (GPa) = 133.59652 73.78300 104.78575
#
# Poissons Ratio (x) = 0.19460 0.09649
# Poissons Ratio (y) = 0.35236 0.33234
# Poissons Ratio (z) = 0.12303 0.23401
#
# Static dielectric constant tensor:
#      x y z
#    x 4.693310 0.000000 0.000000 
#    y 0.000000 4.057280 0.000000 
#    z 0.000000 0.000000 4.210520 
# 
# 
# High freq. dielectric constant tensor:
#      x y z
#    x 1.971800 0.000000 0.000000 
#    y 0.000000 1.939510 0.000000 
#    z 0.000000 0.000000 1.938900 
# 
# From -- ./inp_files/8498.got.cif
#   From: 2010.03.12/outbox.cif.g09.slc.cpg/sg54_5_cif.got.tgz:8498.got - 2010.04.16 15:00:50.
