data_PCOD8223008
_publ_section_title
;
Structure prediction by ZEFSAII (Michael W. Deem and Ramdas Pophale) SiO2 
 PCOD8223008
Probable space group: P C C A
;
_chemical_formula_sum "Si O2"
_cell_formula_units_Z 40
_cell_length_a 18.579640
_cell_length_b 12.205979
_cell_length_c 8.435651
_cell_angle_alpha 90.000000
_cell_angle_beta 90.000000
_cell_angle_gamma 90.000000
_cell_volume 1913.059673
_symmetry_space_group_name_H-M "P C C A"
_symmetry_group_IT_number 54
_symmetry_cell_setting 'orthorhombic'
loop_
_space_group_symop_operation_xyz
x,y,z
1/2-x,-y,z
1/2+x,-y,1/2-z
-x,y,1/2-z
-x,-y,-z
1/2+x,y,-z
1/2-x,y,1/2+z
x,-y,1/2+z
loop_
_atom_site_type_symbol
_atom_site_label
_atom_site_fract_x
_atom_site_fract_y
_atom_site_fract_z
Si Si1 0.393803 0.661714 0.036966
Si Si2 0.583016 0.534012 0.770123
Si Si3 0.311237 0.870757 0.962779
Si Si4 0.342316 0.093641 0.093186
Si Si5 0.037621 0.261419 0.581257
O O1 0.378715 0.580449 0.184326
O O2 0.382352 0.582722 0.886853
O O3 0.334663 0.755471 0.035478
O O4 0.473361 0.717376 0.043753
O O5 0.500000 0.504267 0.750000
O O6 0.587052 0.629086 0.905970
O O7 0.329326 0.880983 0.777412
O O8 0.225740 0.874966 0.984866
O O9 0.353533 0.964191 0.062929
O O10 0.412311 0.159410 0.030975
O O11 0.000000 0.236307 0.750000
#
# Coordination Sequence:
#
# PCOD8223008 Si02
#       5
#     8   8   8   8   8
#     4  10  20  39  63  92 120 161 198 255 289 368
#     4   9  17  36  62  85 126 156 196 241 307 349
#     4  11  23  42  64  86 123 159 205 243 319 357
#     4  11  22  43  63  88 121 165 196 256 302 374
#     4   9  17  37  65  84 122 156 197 249 298 343
#
# _framework density 20.908912000000001
#
# number of rings (size 3 to 8) (size 9 to 14) (size 15 to 20)
#    0.000    2.400    4.000    4.800    0.000    0.800 
#   14.400    1.000    0.000    0.000    0.000    0.000 
#    0.000    0.000    0.000    0.000    0.000    0.000 
#
# Total GULP energy -495721.273884 kJ/mol
# GULP energy per Si atom -12393.031847 kJ/mol
# Density = 2.086132 g / cm^3
# Si number density = 20.908912 Si / 1000 Ang^3
#
#
#
# Elastic Constant Matrix: (Units=GPa)
#
#
# Indices 1 2 3 4 5 6 
#
# 1 58.8190 54.3244 16.3670 0.0000 0.0000 0.0000
# 2 54.3244 148.4135 37.2216 0.0000 0.0000 0.0000
# 3 16.3670 37.2216 39.7700 0.0000 0.0000 0.0000
# 4 0.0000 0.0000 0.0000 22.9166 0.0000 0.0000
# 5 0.0000 0.0000 0.0000 0.0000 21.4870 0.0000
# 6 0.0000 0.0000 0.0000 0.0000 0.0000 35.2474
#
#
#
# Elastic Compliance Matrix: (Units=1/GPa)
#
#
# Indices 1 2 3 4 5 6 
#
# 1 0.025848 -0.008877 -0.002329 0.000000 0.000000 0.000000
# 2 -0.008877 0.011853 -0.007440 0.000000 0.000000 0.000000
# 3 -0.002329 -0.007440 0.033067 0.000000 0.000000 0.000000
# 4 0.000000 0.000000 0.000000 0.043637 0.000000 0.000000
# 5 0.000000 0.000000 0.000000 0.000000 0.046540 0.000000
# 6 0.000000 0.000000 0.000000 0.000000 0.000000 0.028371
#
#
# Mechanical properties :
#
#
# Convention : Reuss Voigt Hill
#
# Bulk Modulus (GPa) = 29.87339 51.42538 40.64938
# Shear Modulus (GPa) = 21.02893 25.20284 23.11588
#
# Velocity S-wave (km/s) = 3.17478 3.47560 3.32859
# Velocity P-wave (km/s) = 5.26853 6.38394 5.85287
#
# Compressibility (1/GPa) = 0.03347461
#
# Stress axis : x y z
#
# Youngs Moduli (GPa) = 38.68727 84.36464 30.24175
#
# Poissons Ratio (x) = 0.74892 0.07044
# Poissons Ratio (y) = 0.34343 0.22501
# Poissons Ratio (z) = 0.09012 0.62771
#
# Static dielectric constant tensor:
#      x y z
#    x 3.501820 0.000000 0.000000 
#    y 0.000000 4.155280 0.000000 
#    z 0.000000 0.000000 3.555860 
# 
# 
# High freq. dielectric constant tensor:
#      x y z
#    x 1.779660 0.000000 0.000000 
#    y 0.000000 1.834060 0.000000 
#    z 0.000000 0.000000 1.801870 
# 
# From -- ./inp_files/4651.got.cif
#   From: 2010.03.12/outbox.cif.g09.slc.cpg/sg54_3_cif.got.tgz:4651.got - 2010.04.16 15:00:50.
