data_PCOD8223808
_publ_section_title
;
Structure prediction by ZEFSAII (Michael W. Deem and Ramdas Pophale) SiO2 
 PCOD8223808
Probable space group: P C C A
;
_chemical_formula_sum "Si O2"
_cell_formula_units_Z 56
_cell_length_a 14.179828
_cell_length_b 8.571171
_cell_length_c 19.954777
_cell_angle_alpha 90.000000
_cell_angle_beta 90.000000
_cell_angle_gamma 90.000000
_cell_volume 2425.258310
_symmetry_space_group_name_H-M "P C C A"
_symmetry_group_IT_number 54
_symmetry_cell_setting 'orthorhombic'
loop_
_space_group_symop_operation_xyz
x,y,z
1/2-x,-y,z
1/2+x,-y,1/2-z
-x,y,1/2-z
-x,-y,-z
1/2+x,y,-z
1/2-x,y,1/2+z
x,-y,1/2+z
loop_
_atom_site_type_symbol
_atom_site_label
_atom_site_fract_x
_atom_site_fract_y
_atom_site_fract_z
Si Si1 0.208872 0.843993 0.430035
Si Si2 0.151567 0.590211 0.204692
Si Si3 0.838533 0.102891 0.864985
Si Si4 0.646074 0.562704 0.643873
Si Si5 0.378999 0.745351 0.504933
Si Si6 0.064480 0.124869 0.045613
Si Si7 0.036832 0.529124 0.582073
O O1 0.143531 0.744349 0.380119
O O2 0.298769 0.733602 0.448734
O O3 0.150256 0.905580 0.494145
O O4 0.250000 0.000000 0.394482
O O5 0.250000 0.500000 0.191673
O O6 0.150976 0.780208 0.197991
O O7 0.114258 0.553337 0.278975
O O8 0.076759 0.533026 0.151319
O O9 0.820494 0.215526 0.928312
O O10 0.750000 0.000000 0.846584
O O11 0.925396 0.989230 0.888778
O O12 0.750000 0.500000 0.635174
O O13 0.575980 0.464559 0.595939
O O14 0.458396 0.881931 0.488171
O O15 0.437250 0.584272 0.518418
O O16 0.077528 0.300963 0.070732
#
# Coordination Sequence:
#
# PCOD8223808 Si02
#       7
#     8   8   8   8   8   8   8
#     4  12  25  39  62  98 135 170 209 269 339 401
#     4  10  24  43  70  92 125 178 228 277 321 380
#     4  11  21  39  63  96 132 170 215 269 322 392
#     4  11  25  47  64  92 133 173 223 275 330 396
#     4  11  22  38  61  97 135 171 205 266 329 400
#     4  12  22  38  62 102 133 162 214 269 334 397
#     4  11  24  40  68  96 127 172 223 270 320 400
#
# _framework density 23.090323999999999
#
# number of rings (size 3 to 8) (size 9 to 14) (size 15 to 20)
#    0.000    0.857    4.286    3.000    4.000    0.571 
#    0.000    0.000    0.000   10.286    0.000    0.000 
#    0.000    0.000    0.000    0.000    0.000    0.000 
#
# Total GULP energy -694119.788386 kJ/mol
# GULP energy per Si atom -12394.996221 kJ/mol
# Density = 2.303777 g / cm^3
# Si number density = 23.090324 Si / 1000 Ang^3
#
#
#
# Elastic Constant Matrix: (Units=GPa)
#
#
# Indices 1 2 3 4 5 6 
#
# 1 91.2487 17.1186 29.5362 0.0000 0.0000 0.0000
# 2 17.1186 110.2962 17.8177 0.0000 0.0000 0.0000
# 3 29.5362 17.8177 76.9698 0.0000 0.0000 0.0000
# 4 0.0000 0.0000 0.0000 28.1821 0.0000 0.0000
# 5 0.0000 0.0000 0.0000 0.0000 16.3834 0.0000
# 6 0.0000 0.0000 0.0000 0.0000 0.0000 49.0755
#
#
#
# Elastic Compliance Matrix: (Units=1/GPa)
#
#
# Indices 1 2 3 4 5 6 
#
# 1 0.012671 -0.001227 -0.004578 0.000000 0.000000 0.000000
# 2 -0.001227 0.009538 -0.001737 0.000000 0.000000 0.000000
# 3 -0.004578 -0.001737 0.015151 0.000000 0.000000 0.000000
# 4 0.000000 0.000000 0.000000 0.035483 0.000000 0.000000
# 5 0.000000 0.000000 0.000000 0.000000 0.061037 0.000000
# 6 0.000000 0.000000 0.000000 0.000000 0.000000 0.020377
#
#
# Mechanical properties :
#
#
# Convention : Reuss Voigt Hill
#
# Bulk Modulus (GPa) = 44.89324 45.27330 45.08327
# Shear Modulus (GPa) = 28.28578 32.99768 30.64173
#
# Velocity S-wave (km/s) = 3.50381 3.78441 3.64681
# Velocity P-wave (km/s) = 5.98778 6.22457 6.10732
#
# Compressibility (1/GPa) = 0.02227507
#
# Stress axis : x y z
#
# Youngs Moduli (GPa) = 78.91893 104.84881 66.00180
#
# Poissons Ratio (x) = 0.12865 0.30218
# Poissons Ratio (y) = 0.09684 0.11464
# Poissons Ratio (z) = 0.36132 0.18212
#
# Static dielectric constant tensor:
#      x y z
#    x 4.193650 0.000000 0.000000 
#    y 0.000000 4.531400 0.000000 
#    z 0.000000 0.000000 3.941540 
# 
# 
# High freq. dielectric constant tensor:
#      x y z
#    x 1.921750 0.000000 0.000000 
#    y 0.000000 1.937450 0.000000 
#    z 0.000000 0.000000 1.888670 
# 
# From -- ./inp_files/21627.got.cif
#   From: 2010.03.12/outbox.cif.g09.slc.cpg/sg54_11_cif.got.tgz:21627.got - 2010.04.16 15:00:50.
