data_PCOD8223124
_publ_section_title
;
Structure prediction by ZEFSAII (Michael W. Deem and Ramdas Pophale) SiO2 
 PCOD8223124
Probable space group: P C C A
;
_chemical_formula_sum "Si O2"
_cell_formula_units_Z 32
_cell_length_a 5.066412
_cell_length_b 8.709222
_cell_length_c 37.198025
_cell_angle_alpha 90.000000
_cell_angle_beta 90.000000
_cell_angle_gamma 90.000000
_cell_volume 1641.344509
_symmetry_space_group_name_H-M "P C C A"
_symmetry_group_IT_number 54
_symmetry_cell_setting 'orthorhombic'
loop_
_space_group_symop_operation_xyz
x,y,z
1/2-x,-y,z
1/2+x,-y,1/2-z
-x,y,1/2-z
-x,-y,-z
1/2+x,y,-z
1/2-x,y,1/2+z
x,-y,1/2+z
loop_
_atom_site_type_symbol
_atom_site_label
_atom_site_fract_x
_atom_site_fract_y
_atom_site_fract_z
Si Si1 0.494446 0.898078 0.920516
Si Si2 0.009955 0.898849 0.339367
Si Si3 0.291014 0.319384 0.020914
Si Si4 0.000844 0.399683 0.708304
O O1 0.427808 0.843418 0.880089
O O2 0.575769 0.748465 0.943309
O O3 0.750000 0.000000 0.920639
O O4 0.250000 0.000000 0.936010
O O5 0.983625 0.753204 0.314416
O O6 0.250000 0.000000 0.324479
O O7 0.750000 0.000000 0.337205
O O8 0.250000 0.500000 0.026077
O O9 0.495295 0.264939 0.989299
O O10 0.750000 0.500000 0.697568
O O11 0.250000 0.500000 0.697893
O O12 0.000000 0.352835 0.750000
#
# Coordination Sequence:
#
# PCOD8223124 Si02
#       4
#     8   8   8   8
#     4  10  21  36  54  78 106 137 177 221 264 317
#     4  10  21  37  56  81 112 144 182 225 269 322
#     4  10  21  36  53  76 105 136 174 219 266 319
#     4  10  21  37  57  83 113 144 182 225 268 320
#
# _framework density 19.496210000000001
#
# number of rings (size 3 to 8) (size 9 to 14) (size 15 to 20)
#    0.000    2.000    0.000    3.000    0.000    5.000 
#    0.000    3.750    0.000    0.000    0.000    0.000 
#    0.000    0.000    0.000    0.000    0.000    0.000 
#
# Total GULP energy -396595.521051 kJ/mol
# GULP energy per Si atom -12393.610033 kJ/mol
# Density = 1.945184 g / cm^3
# Si number density = 19.496210 Si / 1000 Ang^3
#
#
#
# Elastic Constant Matrix: (Units=GPa)
#
#
# Indices 1 2 3 4 5 6 
#
# 1 146.9996 61.4753 41.3238 0.0000 0.0000 0.0000
# 2 61.4753 114.2367 77.5561 0.0000 0.0000 0.0000
# 3 41.3238 77.5561 88.3501 0.0000 0.0000 0.0000
# 4 0.0000 0.0000 0.0000 89.4661 0.0000 0.0000
# 5 0.0000 0.0000 0.0000 0.0000 37.9730 0.0000
# 6 0.0000 0.0000 0.0000 0.0000 0.0000 -58.7107
#
#
#
# Elastic Compliance Matrix: (Units=1/GPa)
#
#
# Indices 1 2 3 4 5 6 
#
# 1 0.008779 -0.004793 0.000101 0.000000 0.000000 0.000000
# 2 -0.004793 0.024283 -0.019074 0.000000 0.000000 0.000000
# 3 0.000101 -0.019074 0.028015 0.000000 0.000000 0.000000
# 4 0.000000 0.000000 0.000000 0.011177 0.000000 0.000000
# 5 0.000000 0.000000 0.000000 0.000000 0.026334 0.000000
# 6 0.000000 0.000000 0.000000 0.000000 0.000000 -0.017033
#
#
# Mechanical properties :
#
#
# Convention : Reuss Voigt Hill
#
# Bulk Modulus (GPa) = 73.82907 78.92188 76.37547
# Shear Modulus (GPa) = 37.42462 25.02777 31.22620
#
# Velocity S-wave (km/s) = 4.38606 3.58680 4.00641
# Velocity P-wave (km/s) = 7.97500 7.59750 7.78854
#
# Compressibility (1/GPa) = 0.01354480
#
# Stress axis : x y z
#
# Youngs Moduli (GPa) = 113.91247 41.18172 35.69519
#
# Poissons Ratio (x) = 0.19738 -0.00362
# Poissons Ratio (y) = 0.54598 0.68085
# Poissons Ratio (z) = -0.01155 0.78551
#
# Static dielectric constant tensor:
#      x y z
#    x 4.009010 0.000000 0.000000 
#    y 0.000000 3.301040 0.000000 
#    z 0.000000 0.000000 3.726010 
# 
# 
# High freq. dielectric constant tensor:
#      x y z
#    x 1.789050 0.000000 0.000000 
#    y 0.000000 1.751810 0.000000 
#    z 0.000000 0.000000 1.750100 
# 
# From -- ./inp_files/26838.got.cif
#   From: 2010.03.12/outbox.cif.g09.slc.cpg/sg54_14_cif.got.tgz:26838.got - 2010.04.16 15:00:50.
