data_PCOD8223056
_publ_section_title
;
Structure prediction by ZEFSAII (Michael W. Deem and Ramdas Pophale) SiO2 
 PCOD8223056
Probable space group: P C C A
;
_chemical_formula_sum "Si O2"
_cell_formula_units_Z 40
_cell_length_a 13.745955
_cell_length_b 7.948186
_cell_length_c 16.680483
_cell_angle_alpha 90.000000
_cell_angle_beta 90.000000
_cell_angle_gamma 90.000000
_cell_volume 1822.432961
_symmetry_space_group_name_H-M "P C C A"
_symmetry_group_IT_number 54
_symmetry_cell_setting 'orthorhombic'
loop_
_space_group_symop_operation_xyz
x,y,z
1/2-x,-y,z
1/2+x,-y,1/2-z
-x,y,1/2-z
-x,-y,-z
1/2+x,y,-z
1/2-x,y,1/2+z
x,-y,1/2+z
loop_
_atom_site_type_symbol
_atom_site_label
_atom_site_fract_x
_atom_site_fract_y
_atom_site_fract_z
Si Si1 0.750000 0.000000 0.388229
Si Si2 0.137437 0.534675 0.324720
Si Si3 0.178405 0.657328 0.158953
Si Si4 0.993926 0.742358 0.063675
Si Si5 0.047575 0.101974 0.092192
Si Si6 0.500000 0.267636 0.750000
O O1 0.735649 0.167855 0.335513
O O2 0.846526 0.037930 0.440263
O O3 0.250000 0.500000 0.344703
O O4 0.125702 0.644638 0.244384
O O5 0.093399 0.632208 0.400443
O O6 0.078559 0.365942 0.303820
O O7 0.250000 0.500000 0.142522
O O8 0.096428 0.660511 0.089875
O O9 0.978913 0.937067 0.090339
O O10 0.988716 0.746664 0.966093
O O11 0.057480 0.157701 0.184487
#
# Coordination Sequence:
#
# PCOD8223056 Si02
#       6
#     4   8   8   8   8   4
#     4  10  22  40  66  96 126 180 226 272 346 412
#     4  11  23  43  63 102 133 175 229 275 348 411
#     4  10  20  40  69  97 132 179 226 277 339 419
#     4  10  22  45  65  94 139 177 220 293 344 410
#     4  10  24  43  68  98 132 177 233 278 355 410
#     4  12  24  44  68  98 134 174 234 286 338 432
#
# _framework density 21.948681000000001
#
# number of rings (size 3 to 8) (size 9 to 14) (size 15 to 20)
#    0.000    1.600    2.000    2.400    5.600    0.800 
#   10.800    1.000    0.000    0.000    0.000    0.000 
#    0.000    0.000    0.000    0.000    0.000    0.000 
#
# Total GULP energy -495707.093957 kJ/mol
# GULP energy per Si atom -12392.677349 kJ/mol
# Density = 2.189873 g / cm^3
# Si number density = 21.948681 Si / 1000 Ang^3
#
#
#
# Elastic Constant Matrix: (Units=GPa)
#
#
# Indices 1 2 3 4 5 6 
#
# 1 122.7991 44.4846 44.4989 0.0000 0.0000 0.0000
# 2 44.4846 109.2156 49.0938 0.0000 0.0000 0.0000
# 3 44.4989 49.0938 131.6198 0.0000 0.0000 0.0000
# 4 0.0000 0.0000 0.0000 36.5742 0.0000 0.0000
# 5 0.0000 0.0000 0.0000 0.0000 16.3916 0.0000
# 6 0.0000 0.0000 0.0000 0.0000 0.0000 33.8265
#
#
#
# Elastic Compliance Matrix: (Units=1/GPa)
#
#
# Indices 1 2 3 4 5 6 
#
# 1 0.010081 -0.003092 -0.002255 0.000000 0.000000 0.000000
# 2 -0.003092 0.011949 -0.003412 0.000000 0.000000 0.000000
# 3 -0.002255 -0.003412 0.009632 0.000000 0.000000 0.000000
# 4 0.000000 0.000000 0.000000 0.027342 0.000000 0.000000
# 5 0.000000 0.000000 0.000000 0.000000 0.061007 0.000000
# 6 0.000000 0.000000 0.000000 0.000000 0.000000 0.029563
#
#
# Mechanical properties :
#
#
# Convention : Reuss Voigt Hill
#
# Bulk Modulus (GPa) = 70.69600 71.08768 70.89184
# Shear Modulus (GPa) = 29.10263 32.39561 30.74912
#
# Velocity S-wave (km/s) = 3.64530 3.84600 3.74699
# Velocity P-wave (km/s) = 7.07087 7.22363 7.14766
#
# Compressibility (1/GPa) = 0.01414507
#
# Stress axis : x y z
#
# Youngs Moduli (GPa) = 99.19974 83.68673 103.81621
#
# Poissons Ratio (x) = 0.25880 0.23407
# Poissons Ratio (y) = 0.30677 0.35417
# Poissons Ratio (z) = 0.22366 0.28550
#
# Static dielectric constant tensor:
#      x y z
#    x 4.118190 0.000000 0.000000 
#    y 0.000000 4.078720 0.000000 
#    z 0.000000 0.000000 3.793910 
# 
# 
# High freq. dielectric constant tensor:
#      x y z
#    x 1.870490 0.000000 0.000000 
#    y 0.000000 1.873110 0.000000 
#    z 0.000000 0.000000 1.841910 
# 
# From -- ./inp_files/13255.got.cif
#   From: 2010.03.12/outbox.cif.g09.slc.cpg/sg54_7_cif.got.tgz:13255.got - 2010.04.16 15:00:50.
