data_PCOD8223052
_publ_section_title
;
Structure prediction by ZEFSAII (Michael W. Deem and Ramdas Pophale) SiO2 
 PCOD8223052
Probable space group: P C C A
;
_chemical_formula_sum "Si O2"
_cell_formula_units_Z 48
_cell_length_a 17.053799
_cell_length_b 11.634600
_cell_length_c 10.527972
_cell_angle_alpha 90.000000
_cell_angle_beta 90.000000
_cell_angle_gamma 90.000000
_cell_volume 2088.898403
_symmetry_space_group_name_H-M "P C C A"
_symmetry_group_IT_number 54
_symmetry_cell_setting 'orthorhombic'
loop_
_space_group_symop_operation_xyz
x,y,z
1/2-x,-y,z
1/2+x,-y,1/2-z
-x,y,1/2-z
-x,-y,-z
1/2+x,y,-z
1/2-x,y,1/2+z
x,-y,1/2+z
loop_
_atom_site_type_symbol
_atom_site_label
_atom_site_fract_x
_atom_site_fract_y
_atom_site_fract_z
Si Si1 0.049806 0.338303 0.968344
Si Si2 0.437543 0.559318 0.347236
Si Si3 0.217209 0.628368 0.551206
Si Si4 0.925710 0.923987 0.029023
Si Si5 0.093715 0.914334 0.751805
Si Si6 0.797464 0.706097 0.689120
O O1 0.122384 0.368748 0.063679
O O2 0.048390 0.204483 0.933975
O O3 0.965874 0.380321 0.021962
O O4 0.062733 0.419936 0.846216
O O5 0.500000 0.610798 0.250000
O O6 0.348051 0.590139 0.322611
O O7 0.250000 0.500000 0.537708
O O8 0.250088 0.691625 0.678308
O O9 0.238692 0.709338 0.430398
O O10 0.876655 0.929455 0.895451
O O11 0.885543 0.976536 0.156673
O O12 0.000000 0.000000 0.000000
O O13 0.142762 0.812237 0.814462
O O14 0.000000 0.885845 0.750000
#
# Coordination Sequence:
#
# PCOD8223052 Si02
#       6
#     8   8   8   8   8   8
#     4  11  23  41  66 103 131 173 229 280 343 414
#     4  11  21  38  68 100 137 167 220 287 343 404
#     4  12  25  44  68  98 141 182 220 272 348 424
#     4  10  20  40  68  98 132 170 221 282 338 392
#     4  10  21  41  71  97 127 173 227 282 334 394
#     4  12  24  44  69  99 136 183 225 276 347 409
#
# _framework density 22.978618999999998
#
# number of rings (size 3 to 8) (size 9 to 14) (size 15 to 20)
#    0.000    1.000    5.000    3.000    0.000    2.000 
#    3.000    0.833    0.000    0.000    0.000    0.000 
#    0.000    0.000    0.000    0.000    0.000    0.000 
#
# Total GULP energy -594698.165466 kJ/mol
# GULP energy per Si atom -12389.545114 kJ/mol
# Density = 2.292632 g / cm^3
# Si number density = 22.978619 Si / 1000 Ang^3
#
#
#
# Elastic Constant Matrix: (Units=GPa)
#
#
# Indices 1 2 3 4 5 6 
#
# 1 48.3448 10.7820 19.9314 0.0000 0.0000 0.0000
# 2 10.7820 153.7811 36.5521 0.0000 0.0000 0.0000
# 3 19.9314 36.5521 140.7300 0.0000 0.0000 0.0000
# 4 0.0000 0.0000 0.0000 32.4297 0.0000 0.0000
# 5 0.0000 0.0000 0.0000 0.0000 30.1263 0.0000
# 6 0.0000 0.0000 0.0000 0.0000 0.0000 12.5565
#
#
#
# Elastic Compliance Matrix: (Units=1/GPa)
#
#
# Indices 1 2 3 4 5 6 
#
# 1 0.022073 -0.000857 -0.002903 0.000000 0.000000 0.000000
# 2 -0.000857 0.006964 -0.001687 0.000000 0.000000 0.000000
# 3 -0.002903 -0.001687 0.007955 0.000000 0.000000 0.000000
# 4 0.000000 0.000000 0.000000 0.030836 0.000000 0.000000
# 5 0.000000 0.000000 0.000000 0.000000 0.033194 0.000000
# 6 0.000000 0.000000 0.000000 0.000000 0.000000 0.079640
#
#
# Mechanical properties :
#
#
# Convention : Reuss Voigt Hill
#
# Bulk Modulus (GPa) = 38.32046 53.04300 45.68173
# Shear Modulus (GPa) = 24.96790 33.39518 29.18154
#
# Velocity S-wave (km/s) = 3.29989 3.81637 3.56749
# Velocity P-wave (km/s) = 5.58855 6.52329 6.07393
#
# Compressibility (1/GPa) = 0.02609572
#
# Stress axis : x y z
#
# Youngs Moduli (GPa) = 45.30416 143.59721 125.70288
#
# Poissons Ratio (x) = 0.12313 0.36497
# Poissons Ratio (y) = 0.03885 0.21210
# Poissons Ratio (z) = 0.13154 0.24229
#
# Static dielectric constant tensor:
#      x y z
#    x 3.832080 0.000000 0.000000 
#    y 0.000000 4.195150 0.000000 
#    z 0.000000 0.000000 4.861440 
# 
# 
# High freq. dielectric constant tensor:
#      x y z
#    x 1.874210 0.000000 0.000000 
#    y 0.000000 1.903530 0.000000 
#    z 0.000000 0.000000 1.917800 
# 
# From -- ./inp_files/8921.got.cif
#   From: 2010.03.12/outbox.cif.g09.slc.cpg/sg54_5_cif.got.tgz:8921.got - 2010.04.16 15:00:50.
