data_PCOD8223541
_publ_section_title
;
Structure prediction by ZEFSAII (Michael W. Deem and Ramdas Pophale) SiO2 
 PCOD8223541
Probable space group: P C C A
;
_chemical_formula_sum "Si O2"
_cell_formula_units_Z 40
_cell_length_a 14.002485
_cell_length_b 13.055665
_cell_length_c 9.390504
_cell_angle_alpha 90.000000
_cell_angle_beta 90.000000
_cell_angle_gamma 90.000000
_cell_volume 1716.694501
_symmetry_space_group_name_H-M "P C C A"
_symmetry_group_IT_number 54
_symmetry_cell_setting 'orthorhombic'
loop_
_space_group_symop_operation_xyz
x,y,z
1/2-x,-y,z
1/2+x,-y,1/2-z
-x,y,1/2-z
-x,-y,-z
1/2+x,y,-z
1/2-x,y,1/2+z
x,-y,1/2+z
loop_
_atom_site_type_symbol
_atom_site_label
_atom_site_fract_x
_atom_site_fract_y
_atom_site_fract_z
Si Si1 0.754875 0.750109 0.741577
Si Si2 0.590332 0.907646 0.159387
Si Si3 0.338089 0.567667 0.891187
Si Si4 0.091917 0.111232 0.668828
Si Si5 0.093181 0.589918 0.674974
O O1 0.822002 0.829892 0.661229
O O2 0.693267 0.684941 0.629784
O O3 0.679789 0.809871 0.841414
O O4 0.819377 0.669727 0.827431
O O5 0.500000 0.864394 0.250000
O O6 0.621804 0.013499 0.234728
O O7 0.564342 0.922992 0.992060
O O8 0.250000 0.500000 0.949588
O O9 0.380290 0.516964 0.749630
O O10 0.422655 0.565840 0.008723
O O11 0.000000 0.160868 0.750000
O O12 0.000000 0.638524 0.750000
#
# Coordination Sequence:
#
# PCOD8223541 Si02
#       5
#     8   8   8   8   8
#     4  11  24  40  66  96 128 167 214 265 318 377
#     4  11  24  43  67  95 130 171 213 264 322 382
#     4  10  22  41  63  91 127 167 212 261 316 378
#     4  11  25  43  66  95 129 170 215 265 321 383
#     4  11  23  41  65  93 127 167 210 261 317 376
#
# _framework density 23.300594
#
# number of rings (size 3 to 8) (size 9 to 14) (size 15 to 20)
#    0.000    1.200    0.000    7.200    0.000   12.000 
#    0.000    0.000    0.000    0.000    0.000    0.000 
#    0.000    0.000    0.000    0.000    0.000    0.000 
#
# Total GULP energy -495765.981127 kJ/mol
# GULP energy per Si atom -12394.149528 kJ/mol
# Density = 2.324756 g / cm^3
# Si number density = 23.300594 Si / 1000 Ang^3
#
#
#
# Elastic Constant Matrix: (Units=GPa)
#
#
# Indices 1 2 3 4 5 6 
#
# 1 117.1255 67.3361 50.7569 0.0000 0.0000 0.0000
# 2 67.3361 108.5700 51.5141 0.0000 0.0000 0.0000
# 3 50.7569 51.5141 174.4471 0.0000 0.0000 0.0000
# 4 0.0000 0.0000 0.0000 4.1180 0.0000 0.0000
# 5 0.0000 0.0000 0.0000 0.0000 33.4540 0.0000
# 6 0.0000 0.0000 0.0000 0.0000 0.0000 31.9494
#
#
#
# Elastic Compliance Matrix: (Units=1/GPa)
#
#
# Indices 1 2 3 4 5 6 
#
# 1 0.013698 -0.007681 -0.001717 0.000000 0.000000 0.000000
# 2 -0.007681 0.015018 -0.002200 0.000000 0.000000 0.000000
# 3 -0.001717 -0.002200 0.006882 0.000000 0.000000 0.000000
# 4 0.000000 0.000000 0.000000 0.242837 0.000000 0.000000
# 5 0.000000 0.000000 0.000000 0.000000 0.029892 0.000000
# 6 0.000000 0.000000 0.000000 0.000000 0.000000 0.031299
#
#
# Mechanical properties :
#
#
# Convention : Reuss Voigt Hill
#
# Bulk Modulus (GPa) = 80.63583 82.15077 81.39330
# Shear Modulus (GPa) = 13.62561 29.27331 21.44946
#
# Velocity S-wave (km/s) = 2.42084 3.54832 3.03736
# Velocity P-wave (km/s) = 6.51888 7.21948 6.87811
#
# Compressibility (1/GPa) = 0.01240143
#
# Stress axis : x y z
#
# Youngs Moduli (GPa) = 73.00501 66.58630 145.31128
#
# Poissons Ratio (x) = 0.51142 0.24956
# Poissons Ratio (y) = 0.56072 0.31970
# Poissons Ratio (z) = 0.12538 0.14650
#
# Static dielectric constant tensor:
#      x y z
#    x 4.301580 0.000000 0.000000 
#    y 0.000000 4.117570 0.000000 
#    z 0.000000 0.000000 3.973400 
# 
# 
# High freq. dielectric constant tensor:
#      x y z
#    x 1.923480 0.000000 0.000000 
#    y 0.000000 1.921430 0.000000 
#    z 0.000000 0.000000 1.922030 
# 
# From -- ./inp_files/8305.got.cif
#   From: 2010.03.12/outbox.cif.g09.slc.cpg/sg54_5_cif.got.tgz:8305.got - 2010.04.16 15:00:50.
