data_PCOD8223490
_publ_section_title
;
Structure prediction by ZEFSAII (Michael W. Deem and Ramdas Pophale) SiO2 
 PCOD8223490
Probable space group: P C C A
;
_chemical_formula_sum "Si O2"
_cell_formula_units_Z 48
_cell_length_a 13.383679
_cell_length_b 17.836516
_cell_length_c 9.196045
_cell_angle_alpha 90.000000
_cell_angle_beta 90.000000
_cell_angle_gamma 90.000000
_cell_volume 2195.263352
_symmetry_space_group_name_H-M "P C C A"
_symmetry_group_IT_number 54
_symmetry_cell_setting 'orthorhombic'
loop_
_space_group_symop_operation_xyz
x,y,z
1/2-x,-y,z
1/2+x,-y,1/2-z
-x,y,1/2-z
-x,-y,-z
1/2+x,y,-z
1/2-x,y,1/2+z
x,-y,1/2+z
loop_
_atom_site_type_symbol
_atom_site_label
_atom_site_fract_x
_atom_site_fract_y
_atom_site_fract_z
Si Si1 0.845417 0.428965 0.435440
Si Si2 0.109638 0.564816 0.240383
Si Si3 0.750000 0.000000 0.478004
Si Si4 0.155522 0.235154 0.353921
Si Si5 0.305029 0.296856 0.149333
Si Si6 0.884339 0.929043 0.729533
Si Si7 0.500000 0.353861 0.750000
O O1 0.826047 0.512355 0.368431
O O2 0.835520 0.439087 0.606042
O O3 0.772293 0.362663 0.389544
O O4 0.955699 0.404299 0.380375
O O5 0.099636 0.652818 0.192899
O O6 0.000000 0.530770 0.250000
O O7 0.669473 0.040683 0.582775
O O8 0.816804 0.053315 0.372491
O O9 0.264134 0.247402 0.282274
O O10 0.171836 0.235180 0.526835
O O11 0.107279 0.159701 0.292757
O O12 0.085183 0.304334 0.321276
O O13 0.000000 0.958838 0.750000
#
# Coordination Sequence:
#
# PCOD8223490 Si02
#       7
#     8   8   4   8   8   8   4
#     4  11  24  39  58  84 115 162 212 271 332 388
#     4  12  24  39  59  86 117 159 216 276 339 394
#     4  10  24  42  72 110 150 172 230 288 320 412
#     4  11  22  42  63  90 125 170 214 260 326 399
#     4  11  24  39  60  85 124 160 216 273 326 388
#     4  11  22  44  72 106 142 190 227 272 346 409
#     4  10  22  40  62  84 122 164 214 266 324 384
#
# _framework density 21.865258000000001
#
# number of rings (size 3 to 8) (size 9 to 14) (size 15 to 20)
#    0.000    1.000    3.333    3.500    4.667    1.333 
#    0.000    0.000    0.000    4.000    0.000    0.000 
#    0.000    0.000    0.000    0.000    0.000    0.000 
#
# Total GULP energy -594756.183293 kJ/mol
# GULP energy per Si atom -12390.753819 kJ/mol
# Density = 2.181549 g / cm^3
# Si number density = 21.865258 Si / 1000 Ang^3
#
#
#
# Elastic Constant Matrix: (Units=GPa)
#
#
# Indices 1 2 3 4 5 6 
#
# 1 89.6550 19.8539 20.2113 0.0000 0.0000 0.0000
# 2 19.8539 74.5710 32.6229 0.0000 0.0000 0.0000
# 3 20.2113 32.6229 133.1334 0.0000 0.0000 0.0000
# 4 0.0000 0.0000 0.0000 37.7539 0.0000 0.0000
# 5 0.0000 0.0000 0.0000 0.0000 31.3488 0.0000
# 6 0.0000 0.0000 0.0000 0.0000 0.0000 30.1849
#
#
#
# Elastic Compliance Matrix: (Units=1/GPa)
#
#
# Indices 1 2 3 4 5 6 
#
# 1 0.012012 -0.002688 -0.001165 0.000000 0.000000 0.000000
# 2 -0.002688 0.015622 -0.003420 0.000000 0.000000 0.000000
# 3 -0.001165 -0.003420 0.008526 0.000000 0.000000 0.000000
# 4 0.000000 0.000000 0.000000 0.026487 0.000000 0.000000
# 5 0.000000 0.000000 0.000000 0.000000 0.031899 0.000000
# 6 0.000000 0.000000 0.000000 0.000000 0.000000 0.033129
#
#
# Mechanical properties :
#
#
# Convention : Reuss Voigt Hill
#
# Bulk Modulus (GPa) = 46.26707 49.19283 47.72995
# Shear Modulus (GPa) = 33.46137 34.83562 34.14849
#
# Velocity S-wave (km/s) = 3.91621 3.99582 3.95621
# Velocity P-wave (km/s) = 6.45406 6.62086 6.53799
#
# Compressibility (1/GPa) = 0.02161365
#
# Stress axis : x y z
#
# Youngs Moduli (GPa) = 83.25148 64.01270 117.28727
#
# Poissons Ratio (x) = 0.17210 0.13661
# Poissons Ratio (y) = 0.22382 0.40110
# Poissons Ratio (z) = 0.09697 0.21891
#
# Static dielectric constant tensor:
#      x y z
#    x 4.204170 0.000000 0.000000 
#    y 0.000000 3.802110 0.000000 
#    z 0.000000 0.000000 4.142250 
# 
# 
# High freq. dielectric constant tensor:
#      x y z
#    x 1.871940 0.000000 0.000000 
#    y 0.000000 1.846490 0.000000 
#    z 0.000000 0.000000 1.865240 
# 
# From -- ./inp_files/3610.got.cif
#   From: 2010.03.12/outbox.cif.g09.slc.cpg/sg54_2_cif.got.tgz:3610.got - 2010.04.16 15:00:50.
