data_PCOD8223769
_publ_section_title
;
Structure prediction by ZEFSAII (Michael W. Deem and Ramdas Pophale) SiO2 
 PCOD8223769
Probable space group: P C C A
;
_chemical_formula_sum "Si O2"
_cell_formula_units_Z 44
_cell_length_a 13.032494
_cell_length_b 18.987739
_cell_length_c 9.037524
_cell_angle_alpha 90.000000
_cell_angle_beta 90.000000
_cell_angle_gamma 90.000000
_cell_volume 2236.403950
_symmetry_space_group_name_H-M "P C C A"
_symmetry_group_IT_number 54
_symmetry_cell_setting 'orthorhombic'
loop_
_space_group_symop_operation_xyz
x,y,z
1/2-x,-y,z
1/2+x,-y,1/2-z
-x,y,1/2-z
-x,-y,-z
1/2+x,y,-z
1/2-x,y,1/2+z
x,-y,1/2+z
loop_
_atom_site_type_symbol
_atom_site_label
_atom_site_fract_x
_atom_site_fract_y
_atom_site_fract_z
Si Si1 0.899116 0.949116 0.004923
Si Si2 0.622877 0.308660 0.520377
Si Si3 0.319068 0.321507 0.649118
Si Si4 0.529247 0.803719 0.412882
Si Si5 0.250000 0.000000 0.244405
Si Si6 0.024517 0.427541 0.079100
O O1 0.939390 0.869493 0.013014
O O2 0.825269 0.954593 0.860842
O O3 0.828774 0.957269 0.150997
O O4 0.000000 0.000000 0.000000
O O5 0.677683 0.324081 0.675077
O O6 0.701433 0.311116 0.387176
O O7 0.571143 0.231870 0.515716
O O8 0.541943 0.370069 0.493335
O O9 0.382782 0.254908 0.591166
O O10 0.359900 0.395229 0.576077
O O11 0.500000 0.831385 0.250000
O O12 0.000000 0.435658 0.250000
O O13 0.000000 0.500000 0.000000
#
# Coordination Sequence:
#
# PCOD8223769 Si02
#       6
#     8   8   8   8   4   8
#     4  11  22  40  60  84 118 152 190 241 290 342
#     4   9  19  36  55  78 105 139 178 219 272 323
#     4   9  19  35  54  77 106 138 177 222 266 324
#     4   9  19  36  57  78 107 144 179 224 277 325
#     4  10  24  38  58  88 114 150 198 234 288 356
#     4   9  19  35  53  75 106 140 175 217 267 321
#
# _framework density 19.674443
#
# number of rings (size 3 to 8) (size 9 to 14) (size 15 to 20)
#    0.000    2.545    0.000    3.818    0.000    8.000 
#    0.000    8.182    0.000    0.000    0.000    0.000 
#    0.000    0.000    0.000    0.000    0.000    0.000 
#
# Total GULP energy -545164.340191 kJ/mol
# GULP energy per Si atom -12390.098641 kJ/mol
# Density = 1.962966 g / cm^3
# Si number density = 19.674443 Si / 1000 Ang^3
#
#
#
# Elastic Constant Matrix: (Units=GPa)
#
#
# Indices 1 2 3 4 5 6 
#
# 1 98.1899 27.3006 37.1758 0.0000 0.0000 0.0000
# 2 27.3006 110.6197 31.9438 0.0000 0.0000 0.0000
# 3 37.1758 31.9438 54.0147 0.0000 0.0000 0.0000
# 4 0.0000 0.0000 0.0000 21.4848 0.0000 0.0000
# 5 0.0000 0.0000 0.0000 0.0000 40.5561 0.0000
# 6 0.0000 0.0000 0.0000 0.0000 0.0000 17.4865
#
#
#
# Elastic Compliance Matrix: (Units=1/GPa)
#
#
# Indices 1 2 3 4 5 6 
#
# 1 0.013832 -0.000801 -0.009046 0.000000 0.000000 0.000000
# 2 -0.000801 0.010948 -0.005923 0.000000 0.000000 0.000000
# 3 -0.009046 -0.005923 0.028242 0.000000 0.000000 0.000000
# 4 0.000000 0.000000 0.000000 0.046545 0.000000 0.000000
# 5 0.000000 0.000000 0.000000 0.000000 0.024657 0.000000
# 6 0.000000 0.000000 0.000000 0.000000 0.000000 0.057187
#
#
# Mechanical properties :
#
#
# Convention : Reuss Voigt Hill
#
# Bulk Modulus (GPa) = 46.55170 50.62941 48.59055
# Shear Modulus (GPa) = 22.71561 26.99908 24.85734
#
# Velocity S-wave (km/s) = 3.40159 3.70846 3.55834
# Velocity P-wave (km/s) = 6.25621 6.64277 6.45238
#
# Compressibility (1/GPa) = 0.02148149
#
# Stress axis : x y z
#
# Youngs Moduli (GPa) = 72.29550 91.33934 35.40796
#
# Poissons Ratio (x) = 0.07321 0.32030
# Poissons Ratio (y) = 0.05794 0.20972
# Poissons Ratio (z) = 0.65399 0.54100
#
# Static dielectric constant tensor:
#      x y z
#    x 3.774270 0.000000 0.000000 
#    y 0.000000 3.291210 0.000000 
#    z 0.000000 0.000000 3.588170 
# 
# 
# High freq. dielectric constant tensor:
#      x y z
#    x 1.774670 0.000000 0.000000 
#    y 0.000000 1.762430 0.000000 
#    z 0.000000 0.000000 1.757230 
# 
# From -- ./inp_files/3541.got.cif
#   From: 2010.03.12/outbox.cif.g09.slc.cpg/sg54_2_cif.got.tgz:3541.got - 2010.04.16 15:00:50.
