data_PCOD8223393
_publ_section_title
;
Structure prediction by ZEFSAII (Michael W. Deem and Ramdas Pophale) SiO2 
 PCOD8223393
Probable space group: P C C A
;
_chemical_formula_sum "Si O2"
_cell_formula_units_Z 40
_cell_length_a 26.386197
_cell_length_b 7.499313
_cell_length_c 9.794813
_cell_angle_alpha 90.000000
_cell_angle_beta 90.000000
_cell_angle_gamma 90.000000
_cell_volume 1938.181437
_symmetry_space_group_name_H-M "P C C A"
_symmetry_group_IT_number 54
_symmetry_cell_setting 'orthorhombic'
loop_
_space_group_symop_operation_xyz
x,y,z
1/2-x,-y,z
1/2+x,-y,1/2-z
-x,y,1/2-z
-x,-y,-z
1/2+x,y,-z
1/2-x,y,1/2+z
x,-y,1/2+z
loop_
_atom_site_type_symbol
_atom_site_label
_atom_site_fract_x
_atom_site_fract_y
_atom_site_fract_z
Si Si1 0.606009 0.538532 0.030844
Si Si2 0.738241 0.706530 0.808042
Si Si3 0.557701 0.339715 0.257209
Si Si4 0.191359 0.174677 0.424408
Si Si5 0.646916 0.800444 0.622775
O O1 0.568022 0.509704 0.158635
O O2 0.646592 0.686509 0.067749
O O3 0.637215 0.351385 0.005537
O O4 0.570967 0.597390 0.907953
O O5 0.750000 0.500000 0.825660
O O6 0.780996 0.811987 0.722202
O O7 0.684612 0.718440 0.734161
O O8 0.733827 0.794030 0.958648
O O9 0.500000 0.274842 0.250000
O O10 0.593769 0.175283 0.206957
O O11 0.166918 0.980292 0.444034
#
# Coordination Sequence:
#
# PCOD8223393 Si02
#       5
#     8   8   8   8   8
#     4  10  22  44  69  96 139 170 222 279 335 397
#     4  12  24  44  67  95 137 176 226 272 335 400
#     4  10  21  44  73  99 132 178 225 278 342 400
#     4  12  25  45  65  99 133 183 219 274 338 399
#     4  10  25  41  66  98 136 172 219 277 331 403
#
# _framework density 20.637902
#
# number of rings (size 3 to 8) (size 9 to 14) (size 15 to 20)
#    1.200    0.000    4.000    1.800    0.000    4.800 
#    0.000    2.000    0.000    0.000    0.000    0.000 
#    0.000    0.000    0.000    0.000    0.000    0.000 
#
# Total GULP energy -495753.498129 kJ/mol
# GULP energy per Si atom -12393.837453 kJ/mol
# Density = 2.059093 g / cm^3
# Si number density = 20.637902 Si / 1000 Ang^3
#
#
#
# Elastic Constant Matrix: (Units=GPa)
#
#
# Indices 1 2 3 4 5 6 
#
# 1 131.0248 61.5863 44.4316 0.0000 0.0000 0.0000
# 2 61.5863 122.9449 15.9782 0.0000 0.0000 0.0000
# 3 44.4316 15.9782 88.7682 0.0000 0.0000 0.0000
# 4 0.0000 0.0000 0.0000 15.9371 0.0000 0.0000
# 5 0.0000 0.0000 0.0000 0.0000 19.4818 0.0000
# 6 0.0000 0.0000 0.0000 0.0000 0.0000 8.9124
#
#
#
# Elastic Compliance Matrix: (Units=1/GPa)
#
#
# Indices 1 2 3 4 5 6 
#
# 1 0.011783 -0.005259 -0.004951 0.000000 0.000000 0.000000
# 2 -0.005259 0.010676 0.000711 0.000000 0.000000 0.000000
# 3 -0.004951 0.000711 0.013616 0.000000 0.000000 0.000000
# 4 0.000000 0.000000 0.000000 0.062747 0.000000 0.000000
# 5 0.000000 0.000000 0.000000 0.000000 0.051330 0.000000
# 6 0.000000 0.000000 0.000000 0.000000 0.000000 0.112204
#
#
# Mechanical properties :
#
#
# Convention : Reuss Voigt Hill
#
# Bulk Modulus (GPa) = 58.56384 65.19222 61.87803
# Shear Modulus (GPa) = 17.41885 23.58239 20.50062
#
# Velocity S-wave (km/s) = 2.90836 3.38401 3.15516
# Velocity P-wave (km/s) = 6.30210 6.85025 6.58188
#
# Compressibility (1/GPa) = 0.01707538
#
# Stress axis : x y z
#
# Youngs Moduli (GPa) = 84.86782 93.67059 73.44504
#
# Poissons Ratio (x) = 0.49261 0.36364
# Poissons Ratio (y) = 0.44632 -0.05220
# Poissons Ratio (z) = 0.42020 -0.06657
#
# Static dielectric constant tensor:
#      x y z
#    x 3.740150 0.000000 0.000000 
#    y 0.000000 3.588240 0.000000 
#    z 0.000000 0.000000 3.801900 
# 
# 
# High freq. dielectric constant tensor:
#      x y z
#    x 1.808930 0.000000 0.000000 
#    y 0.000000 1.793140 0.000000 
#    z 0.000000 0.000000 1.809580 
# 
# From -- ./inp_files/5737.got.cif
#   From: 2010.03.12/outbox.cif.g09.slc.cpg/sg54_3_cif.got.tgz:5737.got - 2010.04.16 15:00:50.
