data_PCOD8223609
_publ_section_title
;
Structure prediction by ZEFSAII (Michael W. Deem and Ramdas Pophale) SiO2 
 PCOD8223609
Probable space group: P C C A
;
_chemical_formula_sum "Si O2"
_cell_formula_units_Z 52
_cell_length_a 16.116725
_cell_length_b 8.216061
_cell_length_c 17.750671
_cell_angle_alpha 90.000000
_cell_angle_beta 90.000000
_cell_angle_gamma 90.000000
_cell_volume 2350.472775
_symmetry_space_group_name_H-M "P C C A"
_symmetry_group_IT_number 54
_symmetry_cell_setting 'orthorhombic'
loop_
_space_group_symop_operation_xyz
x,y,z
1/2-x,-y,z
1/2+x,-y,1/2-z
-x,y,1/2-z
-x,-y,-z
1/2+x,y,-z
1/2-x,y,1/2+z
x,-y,1/2+z
loop_
_atom_site_type_symbol
_atom_site_label
_atom_site_fract_x
_atom_site_fract_y
_atom_site_fract_z
Si Si1 0.089516 0.608507 0.089700
Si Si2 0.609496 0.141160 0.028703
Si Si3 0.914677 0.492083 0.072251
Si Si4 0.000000 0.834085 0.750000
Si Si5 0.250000 0.000000 0.379164
Si Si6 0.665367 0.701005 0.196417
Si Si7 0.450498 0.031012 0.109767
Si Si8 0.250000 0.500000 0.679800
O O1 0.084550 0.789042 0.123295
O O2 0.171859 0.533299 0.126127
O O3 0.007773 0.497851 0.109117
O O4 0.092980 0.630763 0.998659
O O5 0.598062 0.333105 0.033979
O O6 0.541534 0.037833 0.073871
O O7 0.696738 0.110810 0.066367
O O8 0.609105 0.080853 0.942288
O O9 0.842850 0.439001 0.131237
O O10 0.069487 0.716678 0.782744
O O11 0.044924 0.948616 0.690102
O O12 0.197190 0.123030 0.328673
O O13 0.724676 0.647349 0.264767
#
# Coordination Sequence:
#
# PCOD8223609 Si02
#       8
#     8   8   8   4   4   8   8   4
#     4  10  24  43  74 101 138 177 242 283 344 408
#     4  10  22  42  74  98 131 175 240 281 344 402
#     4  10  23  46  72  99 131 190 232 288 335 427
#     4  12  26  44  74  98 140 186 230 274 344 432
#     4  12  24  44  68 104 132 186 228 300 350 404
#     4  12  27  44  68  99 144 182 228 283 357 418
#     4  10  23  44  68 100 133 182 229 285 331 427
#     4  12  28  44  64 108 144 184 222 298 358 412
#
# _framework density 22.123208999999999
#
# number of rings (size 3 to 8) (size 9 to 14) (size 15 to 20)
#    0.000    1.231    1.538    2.769   10.769    5.538 
#    0.000    0.000    0.000    0.000    0.000    0.000 
#    0.000    0.000    0.000    0.000    0.000    0.000 
#
# Total GULP energy -644715.493336 kJ/mol
# GULP energy per Si atom -12398.374872 kJ/mol
# Density = 2.207286 g / cm^3
# Si number density = 22.123209 Si / 1000 Ang^3
#
#
#
# Elastic Constant Matrix: (Units=GPa)
#
#
# Indices 1 2 3 4 5 6 
#
# 1 103.2577 27.2514 35.0214 0.0000 0.0000 0.0000
# 2 27.2514 77.4636 37.1635 0.0000 0.0000 0.0000
# 3 35.0214 37.1635 101.5566 0.0000 0.0000 0.0000
# 4 0.0000 0.0000 0.0000 36.2733 0.0000 0.0000
# 5 0.0000 0.0000 0.0000 0.0000 34.5770 0.0000
# 6 0.0000 0.0000 0.0000 0.0000 0.0000 34.7729
#
#
#
# Elastic Compliance Matrix: (Units=1/GPa)
#
#
# Indices 1 2 3 4 5 6 
#
# 1 0.011374 -0.002571 -0.002982 0.000000 0.000000 0.000000
# 2 -0.002571 0.016239 -0.005056 0.000000 0.000000 0.000000
# 3 -0.002982 -0.005056 0.012725 0.000000 0.000000 0.000000
# 4 0.000000 0.000000 0.000000 0.027569 0.000000 0.000000
# 5 0.000000 0.000000 0.000000 0.000000 0.028921 0.000000
# 6 0.000000 0.000000 0.000000 0.000000 0.000000 0.028758
#
#
# Mechanical properties :
#
#
# Convention : Reuss Voigt Hill
#
# Bulk Modulus (GPa) = 52.29684 53.46116 52.87900
# Shear Modulus (GPa) = 32.64192 33.31408 32.97800
#
# Velocity S-wave (km/s) = 3.84534 3.88473 3.86508
# Velocity P-wave (km/s) = 6.58830 6.65876 6.62363
#
# Compressibility (1/GPa) = 0.01912161
#
# Stress axis : x y z
#
# Youngs Moduli (GPa) = 87.91774 61.57863 78.58495
#
# Poissons Ratio (x) = 0.15832 0.23430
# Poissons Ratio (y) = 0.22604 0.39733
# Poissons Ratio (z) = 0.26213 0.31134
#
# Static dielectric constant tensor:
#      x y z
#    x 4.091690 0.000000 0.000000 
#    y 0.000000 3.897540 0.000000 
#    z 0.000000 0.000000 3.952450 
# 
# 
# High freq. dielectric constant tensor:
#      x y z
#    x 1.871730 0.000000 0.000000 
#    y 0.000000 1.876780 0.000000 
#    z 0.000000 0.000000 1.870620 
# 
# From -- ./inp_files/18644.got.cif
#   From: 2010.03.12/outbox.cif.g09.slc.cpg/sg54_10_cif.got.tgz:18644.got - 2010.04.16 15:00:50.
