data_PCOD8223759
_publ_section_title
;
Structure prediction by ZEFSAII (Michael W. Deem and Ramdas Pophale) SiO2 
 PCOD8223759
Probable space group: P C C A
;
_chemical_formula_sum "Si O2"
_cell_formula_units_Z 36
_cell_length_a 12.803665
_cell_length_b 10.215463
_cell_length_c 13.043070
_cell_angle_alpha 90.000000
_cell_angle_beta 90.000000
_cell_angle_gamma 90.000000
_cell_volume 1705.973115
_symmetry_space_group_name_H-M "P C C A"
_symmetry_group_IT_number 54
_symmetry_cell_setting 'orthorhombic'
loop_
_space_group_symop_operation_xyz
x,y,z
1/2-x,-y,z
1/2+x,-y,1/2-z
-x,y,1/2-z
-x,-y,-z
1/2+x,y,-z
1/2-x,y,1/2+z
x,-y,1/2+z
loop_
_atom_site_type_symbol
_atom_site_label
_atom_site_fract_x
_atom_site_fract_y
_atom_site_fract_z
Si Si1 0.053912 0.315463 0.937896
Si Si2 0.910707 0.084173 0.947111
Si Si3 0.954340 0.404288 0.141693
Si Si4 0.250000 0.000000 0.713167
Si Si5 0.726298 0.206986 0.614497
O O1 0.057329 0.439247 0.862376
O O2 0.163096 0.241937 0.933661
O O3 0.960763 0.218535 0.903223
O O4 0.035753 0.358463 0.055232
O O5 0.855575 0.008841 0.853958
O O6 0.825880 0.109612 0.034199
O O7 0.000000 0.000000 0.000000
O O8 0.841294 0.338351 0.128584
O O9 0.000000 0.360400 0.250000
O O10 0.260954 0.132009 0.778445
#
# Coordination Sequence:
#
# PCOD8223759 Si02
#       5
#     8   8   8   4   8
#     4  10  23  46  65  99 137 172 223 292 340 399
#     4  11  25  43  67  95 139 178 226 287 345 412
#     4  10  24  43  72  97 133 178 228 276 346 415
#     4  12  26  40  70 100 132 192 226 286 350 422
#     4  11  25  42  67 101 134 174 233 280 345 415
#
# _framework density 21.102323999999999
#
# number of rings (size 3 to 8) (size 9 to 14) (size 15 to 20)
#    0.000    1.333    0.000    4.000   12.444    1.778 
#    0.000    2.222    0.000    0.000    0.000    0.000 
#    0.000    0.000    0.000    0.000    0.000    0.000 
#
# Total GULP energy -446608.758669 kJ/mol
# GULP energy per Si atom -12405.798852 kJ/mol
# Density = 2.105429 g / cm^3
# Si number density = 21.102324 Si / 1000 Ang^3
#
#
#
# Elastic Constant Matrix: (Units=GPa)
#
#
# Indices 1 2 3 4 5 6 
#
# 1 142.9025 50.6939 65.5023 0.0000 0.0000 0.0000
# 2 50.6939 114.5100 41.8376 0.0000 0.0000 0.0000
# 3 65.5023 41.8376 103.5154 0.0000 0.0000 0.0000
# 4 0.0000 0.0000 0.0000 30.9380 0.0000 0.0000
# 5 0.0000 0.0000 0.0000 0.0000 35.4571 0.0000
# 6 0.0000 0.0000 0.0000 0.0000 0.0000 43.9351
#
#
#
# Elastic Compliance Matrix: (Units=1/GPa)
#
#
# Indices 1 2 3 4 5 6 
#
# 1 0.010477 -0.002600 -0.005579 0.000000 0.000000 0.000000
# 2 -0.002600 0.010891 -0.002757 0.000000 0.000000 0.000000
# 3 -0.005579 -0.002757 0.014305 0.000000 0.000000 0.000000
# 4 0.000000 0.000000 0.000000 0.032323 0.000000 0.000000
# 5 0.000000 0.000000 0.000000 0.000000 0.028203 0.000000
# 6 0.000000 0.000000 0.000000 0.000000 0.000000 0.022761
#
#
# Mechanical properties :
#
#
# Convention : Reuss Voigt Hill
#
# Bulk Modulus (GPa) = 72.45321 75.22171 73.83746
# Shear Modulus (GPa) = 34.38040 35.59232 34.98636
#
# Velocity S-wave (km/s) = 4.04074 4.11134 4.07620
# Velocity P-wave (km/s) = 7.49526 7.63290 7.56439
#
# Compressibility (1/GPa) = 0.01380201
#
# Stress axis : x y z
#
# Youngs Moduli (GPa) = 95.44381 91.81858 69.90665
#
# Poissons Ratio (x) = 0.23873 0.39001
# Poissons Ratio (y) = 0.24815 0.19270
# Poissons Ratio (z) = 0.53248 0.25311
#
# Static dielectric constant tensor:
#      x y z
#    x 4.076770 0.000000 0.000000 
#    y 0.000000 4.136700 0.000000 
#    z 0.000000 0.000000 3.768760 
# 
# 
# High freq. dielectric constant tensor:
#      x y z
#    x 1.836480 0.000000 0.000000 
#    y 0.000000 1.842520 0.000000 
#    z 0.000000 0.000000 1.825840 
# 
# From -- ./inp_files/7369.got.cif
#   From: 2010.03.12/outbox.cif.g09.slc.cpg/sg54_4_cif.got.tgz:7369.got - 2010.04.16 15:00:50.
