data_PCOD8223969
_publ_section_title
;
Structure prediction by ZEFSAII (Michael W. Deem and Ramdas Pophale) SiO2 
 PCOD8223969
Probable space group: P C C A
;
_chemical_formula_sum "Si O2"
_cell_formula_units_Z 40
_cell_length_a 14.279204
_cell_length_b 13.490693
_cell_length_c 8.571591
_cell_angle_alpha 90.000000
_cell_angle_beta 90.000000
_cell_angle_gamma 90.000000
_cell_volume 1651.200068
_symmetry_space_group_name_H-M "P C C A"
_symmetry_group_IT_number 54
_symmetry_cell_setting 'orthorhombic'
loop_
_space_group_symop_operation_xyz
x,y,z
1/2-x,-y,z
1/2+x,-y,1/2-z
-x,y,1/2-z
-x,-y,-z
1/2+x,y,-z
1/2-x,y,1/2+z
x,-y,1/2+z
loop_
_atom_site_type_symbol
_atom_site_label
_atom_site_fract_x
_atom_site_fract_y
_atom_site_fract_z
Si Si1 0.638731 0.397541 0.067736
Si Si2 0.714151 0.110888 0.914784
Si Si3 0.953157 0.187564 0.590212
Si Si4 0.344791 0.596836 0.297426
Si Si5 0.873352 0.194443 0.101110
O O1 0.571738 0.304594 0.104202
O O2 0.737734 0.388403 0.153173
O O3 0.598923 0.502409 0.132152
O O4 0.655203 0.407835 0.886473
O O5 0.667799 0.137384 0.750076
O O6 0.750000 0.000000 0.912686
O O7 0.639567 0.123929 0.055046
O O8 0.800642 0.184017 0.955903
O O9 0.000000 0.151731 0.750000
O O10 0.025011 0.157007 0.452511
O O11 0.397958 0.692613 0.359759
#
# Coordination Sequence:
#
# PCOD8223969 Si02
#       5
#     8   8   8   8   8
#     4  11  24  42  72 115 153 217 258 313 377 461
#     4  12  27  52  82 111 148 204 260 326 401 462
#     4  12  28  47  78 118 159 199 258 321 390 467
#     4  11  22  41  74 106 161 207 263 306 378 459
#     4  12  25  48  78 110 157 200 257 325 387 464
#
# _framework density 24.224806000000001
#
# number of rings (size 3 to 8) (size 9 to 14) (size 15 to 20)
#    0.000    0.400    4.000    4.800    5.600    1.600 
#    0.000    3.000    0.000    0.000    0.000    0.000 
#    0.000    0.000    0.000    0.000    0.000    0.000 
#
# Total GULP energy -495947.750522 kJ/mol
# GULP energy per Si atom -12398.693763 kJ/mol
# Density = 2.416967 g / cm^3
# Si number density = 24.224806 Si / 1000 Ang^3
#
#
#
# Elastic Constant Matrix: (Units=GPa)
#
#
# Indices 1 2 3 4 5 6 
#
# 1 96.8478 32.9532 11.1812 0.0000 0.0000 0.0000
# 2 32.9532 136.5412 39.1497 0.0000 0.0000 0.0000
# 3 11.1812 39.1497 85.9773 0.0000 0.0000 0.0000
# 4 0.0000 0.0000 0.0000 39.3621 0.0000 0.0000
# 5 0.0000 0.0000 0.0000 0.0000 66.5681 0.0000
# 6 0.0000 0.0000 0.0000 0.0000 0.0000 18.7964
#
#
#
# Elastic Compliance Matrix: (Units=1/GPa)
#
#
# Indices 1 2 3 4 5 6 
#
# 1 0.011254 -0.002641 -0.000261 0.000000 0.000000 0.000000
# 2 -0.002641 0.009043 -0.003774 0.000000 0.000000 0.000000
# 3 -0.000261 -0.003774 0.013384 0.000000 0.000000 0.000000
# 4 0.000000 0.000000 0.000000 0.025405 0.000000 0.000000
# 5 0.000000 0.000000 0.000000 0.000000 0.015022 0.000000
# 6 0.000000 0.000000 0.000000 0.000000 0.000000 0.053202
#
#
# Mechanical properties :
#
#
# Convention : Reuss Voigt Hill
#
# Bulk Modulus (GPa) = 49.19301 53.99272 51.59286
# Shear Modulus (GPa) = 33.91214 40.68414 37.29814
#
# Velocity S-wave (km/s) = 3.74557 4.10254 3.92812
# Velocity P-wave (km/s) = 6.24954 6.69162 6.47435
#
# Compressibility (1/GPa) = 0.02032809
#
# Stress axis : x y z
#
# Youngs Moduli (GPa) = 88.85461 110.57670 74.71839
#
# Poissons Ratio (x) = 0.29207 0.01949
# Poissons Ratio (y) = 0.23470 0.28202
# Poissons Ratio (z) = 0.02318 0.41737
#
# Static dielectric constant tensor:
#      x y z
#    x 4.159820 0.000000 0.000000 
#    y 0.000000 4.608840 0.000000 
#    z 0.000000 0.000000 4.578440 
# 
# 
# High freq. dielectric constant tensor:
#      x y z
#    x 1.965720 0.000000 0.000000 
#    y 0.000000 1.958470 0.000000 
#    z 0.000000 0.000000 1.979090 
# 
# From -- ./inp_files/3419.got.cif
#   From: 2010.03.12/outbox.cif.g09.slc.cpg/sg54_2_cif.got.tgz:3419.got - 2010.04.16 15:00:50.
