data_PCOD8223918
_publ_section_title
;
Structure prediction by ZEFSAII (Michael W. Deem and Ramdas Pophale) SiO2 
 PCOD8223918
Probable space group: P C C A
;
_chemical_formula_sum "Si O2"
_cell_formula_units_Z 48
_cell_length_a 13.605748
_cell_length_b 8.809232
_cell_length_c 19.765018
_cell_angle_alpha 90.000000
_cell_angle_beta 90.000000
_cell_angle_gamma 90.000000
_cell_volume 2368.959766
_symmetry_space_group_name_H-M "P C C A"
_symmetry_group_IT_number 54
_symmetry_cell_setting 'orthorhombic'
loop_
_space_group_symop_operation_xyz
x,y,z
1/2-x,-y,z
1/2+x,-y,1/2-z
-x,y,1/2-z
-x,-y,-z
1/2+x,y,-z
1/2-x,y,1/2+z
x,-y,1/2+z
loop_
_atom_site_type_symbol
_atom_site_label
_atom_site_fract_x
_atom_site_fract_y
_atom_site_fract_z
Si Si1 0.857627 0.194759 0.590624
Si Si2 0.538055 0.121728 0.612122
Si Si3 0.743509 0.322873 0.468987
Si Si4 0.024723 0.329260 0.516709
Si Si5 0.714804 0.171665 0.700046
Si Si6 0.678944 0.859206 0.350618
O O1 0.778207 0.216890 0.530712
O O2 0.804079 0.253675 0.659472
O O3 0.951119 0.298628 0.578132
O O4 0.899067 0.023728 0.589271
O O5 0.507919 0.224537 0.548596
O O6 0.609720 0.207897 0.664907
O O7 0.434273 0.081979 0.648657
O O8 0.750000 0.500000 0.487625
O O9 0.630453 0.291690 0.453435
O O10 0.806282 0.277925 0.403322
O O11 0.000000 0.500000 0.500000
O O12 0.706331 0.215675 0.778377
O O13 0.750000 0.000000 0.693465
O O14 0.750000 0.000000 0.368211
#
# Coordination Sequence:
#
# PCOD8223918 Si02
#       6
#     8   8   8   8   8   8
#     4  11  22  39  63  93 124 161 214 259 317 380
#     4  11  21  38  64  91 124 159 210 258 311 383
#     4  12  24  40  60  90 129 165 209 264 319 375
#     4  12  23  38  60  91 123 160 208 263 317 371
#     4   9  21  39  62  90 124 163 204 258 312 372
#     4  11  23  39  62  92 125 163 206 259 318 376
#
# _framework density 20.262056999999999
#
# number of rings (size 3 to 8) (size 9 to 14) (size 15 to 20)
#    0.000    1.000    5.000    2.000    2.333    0.000 
#    0.000    5.000    0.000    0.000    0.000    0.000 
#    0.000    0.000    0.000    0.000    0.000    0.000 
#
# Total GULP energy -594828.833355 kJ/mol
# GULP energy per Si atom -12392.267362 kJ/mol
# Density = 2.021594 g / cm^3
# Si number density = 20.262057 Si / 1000 Ang^3
#
#
#
# Elastic Constant Matrix: (Units=GPa)
#
#
# Indices 1 2 3 4 5 6 
#
# 1 153.7519 26.9271 45.8772 0.0000 0.0000 0.0000
# 2 26.9271 74.4200 38.3780 0.0000 0.0000 0.0000
# 3 45.8772 38.3780 123.4018 0.0000 0.0000 0.0000
# 4 0.0000 0.0000 0.0000 10.5534 0.0000 0.0000
# 5 0.0000 0.0000 0.0000 0.0000 36.1302 0.0000
# 6 0.0000 0.0000 0.0000 0.0000 0.0000 30.7327
#
#
#
# Elastic Compliance Matrix: (Units=1/GPa)
#
#
# Indices 1 2 3 4 5 6 
#
# 1 0.007455 -0.001510 -0.002302 0.000000 0.000000 0.000000
# 2 -0.001510 0.016310 -0.004511 0.000000 0.000000 0.000000
# 3 -0.002302 -0.004511 0.010362 0.000000 0.000000 0.000000
# 4 0.000000 0.000000 0.000000 0.094756 0.000000 0.000000
# 5 0.000000 0.000000 0.000000 0.000000 0.027678 0.000000
# 6 0.000000 0.000000 0.000000 0.000000 0.000000 0.032539
#
#
# Mechanical properties :
#
#
# Convention : Reuss Voigt Hill
#
# Bulk Modulus (GPa) = 57.20453 63.77092 60.48772
# Shear Modulus (GPa) = 23.63244 31.50936 27.57090
#
# Velocity S-wave (km/s) = 3.41888 3.94774 3.69279
# Velocity P-wave (km/s) = 6.62409 7.23332 6.93540
#
# Compressibility (1/GPa) = 0.01748113
#
# Stress axis : x y z
#
# Youngs Moduli (GPa) = 134.13129 61.31211 96.50381
#
# Poissons Ratio (x) = 0.09261 0.22215
# Poissons Ratio (y) = 0.20260 0.43532
# Poissons Ratio (z) = 0.30876 0.27657
#
# Static dielectric constant tensor:
#      x y z
#    x 4.209760 0.000000 0.000000 
#    y 0.000000 3.250240 0.000000 
#    z 0.000000 0.000000 4.462380 
# 
# 
# High freq. dielectric constant tensor:
#      x y z
#    x 1.824930 0.000000 0.000000 
#    y 0.000000 1.761640 0.000000 
#    z 0.000000 0.000000 1.783260 
# 
# From -- ./inp_files/18000.got.cif
#   From: 2010.03.12/outbox.cif.g09.slc.cpg/sg54_9_cif.got.tgz:18000.got - 2010.04.16 15:00:50.
