data_PCOD8223679
_publ_section_title
;
Structure prediction by ZEFSAII (Michael W. Deem and Ramdas Pophale) SiO2 
 PCOD8223679
Probable space group: P C C A
;
_chemical_formula_sum "Si O2"
_cell_formula_units_Z 36
_cell_length_a 13.933543
_cell_length_b 22.537322
_cell_length_c 5.161378
_cell_angle_alpha 90.000000
_cell_angle_beta 90.000000
_cell_angle_gamma 90.000000
_cell_volume 1620.800411
_symmetry_space_group_name_H-M "P C C A"
_symmetry_group_IT_number 54
_symmetry_cell_setting 'orthorhombic'
loop_
_space_group_symop_operation_xyz
x,y,z
1/2-x,-y,z
1/2+x,-y,1/2-z
-x,y,1/2-z
-x,-y,-z
1/2+x,y,-z
1/2-x,y,1/2+z
x,-y,1/2+z
loop_
_atom_site_type_symbol
_atom_site_label
_atom_site_fract_x
_atom_site_fract_y
_atom_site_fract_z
Si Si1 0.939975 0.644879 0.009085
Si Si2 0.810573 0.115849 0.677208
Si Si3 0.808148 0.746725 0.179818
Si Si4 0.000000 0.959541 0.250000
Si Si5 0.356479 0.525470 0.101297
O O1 0.857283 0.596129 0.949676
O O2 0.000000 0.656535 0.750000
O O3 0.898715 0.707338 0.105383
O O4 0.000000 0.619004 0.250000
O O5 0.766948 0.099046 0.397912
O O6 0.838580 0.184872 0.670491
O O7 0.906505 0.080924 0.739346
O O8 0.774968 0.731793 0.471233
O O9 0.000000 0.000000 0.500000
O O10 0.250000 0.500000 0.156765
O O11 0.410041 0.511066 0.372393
#
# Coordination Sequence:
#
# PCOD8223679 Si02
#       5
#     8   8   8   4   8
#     4  12  26  41  65 102 128 159 219 284 338 398
#     4  10  23  45  68 101 142 185 231 288 337 402
#     4  10  23  43  70  94 130 179 222 264 336 405
#     4  12  26  42  70 108 140 190 234 278 346 414
#     4  10  23  40  63  85 120 171 206 254 332 401
#
# _framework density 22.211248000000001
#
# number of rings (size 3 to 8) (size 9 to 14) (size 15 to 20)
#    0.000    1.333    0.000    4.000    7.778    5.333 
#    2.000    0.000    0.000    0.000    0.000    0.000 
#    0.000    0.000    0.000    0.000    0.000    0.000 
#
# Total GULP energy -446350.715223 kJ/mol
# GULP energy per Si atom -12398.630978 kJ/mol
# Density = 2.216069 g / cm^3
# Si number density = 22.211248 Si / 1000 Ang^3
#
#
#
# Elastic Constant Matrix: (Units=GPa)
#
#
# Indices 1 2 3 4 5 6 
#
# 1 91.2512 68.0926 30.4858 0.0000 0.0000 0.0000
# 2 68.0926 118.1049 48.1490 0.0000 0.0000 0.0000
# 3 30.4858 48.1490 169.0847 0.0000 0.0000 0.0000
# 4 0.0000 0.0000 0.0000 33.0096 0.0000 0.0000
# 5 0.0000 0.0000 0.0000 0.0000 119.7383 0.0000
# 6 0.0000 0.0000 0.0000 0.0000 0.0000 18.0494
#
#
#
# Elastic Compliance Matrix: (Units=1/GPa)
#
#
# Indices 1 2 3 4 5 6 
#
# 1 0.019252 -0.010956 -0.000351 0.000000 0.000000 0.000000
# 2 -0.010956 0.015814 -0.002528 0.000000 0.000000 0.000000
# 3 -0.000351 -0.002528 0.006697 0.000000 0.000000 0.000000
# 4 0.000000 0.000000 0.000000 0.030294 0.000000 0.000000
# 5 0.000000 0.000000 0.000000 0.000000 0.008352 0.000000
# 6 0.000000 0.000000 0.000000 0.000000 0.000000 0.055403
#
#
# Mechanical properties :
#
#
# Convention : Reuss Voigt Hill
#
# Bulk Modulus (GPa) = 70.95829 74.65508 72.80669
# Shear Modulus (GPa) = 29.72982 49.60702 39.66842
#
# Velocity S-wave (km/s) = 3.66252 4.73103 4.23065
# Velocity P-wave (km/s) = 7.06412 7.97044 7.53093
#
# Compressibility (1/GPa) = 0.01409279
#
# Stress axis : x y z
#
# Youngs Moduli (GPa) = 51.94309 63.23319 149.31242
#
# Poissons Ratio (x) = 0.69281 0.05243
# Poissons Ratio (y) = 0.56911 0.37745
# Poissons Ratio (z) = 0.01824 0.15985
#
# Static dielectric constant tensor:
#      x y z
#    x 3.975050 0.000000 0.000000 
#    y 0.000000 3.991960 0.000000 
#    z 0.000000 0.000000 4.834230 
# 
# 
# High freq. dielectric constant tensor:
#      x y z
#    x 1.860170 0.000000 0.000000 
#    y 0.000000 1.877980 0.000000 
#    z 0.000000 0.000000 1.912430 
# 
# From -- ./inp_files/461.got.cif
#   From: 2010.03.12/outbox.cif.g09.slc.cpg/sg54_1_cif.got.tgz:461.got - 2010.04.16 15:00:50.
