data_PCOD8223796
_publ_section_title
;
Structure prediction by ZEFSAII (Michael W. Deem and Ramdas Pophale) SiO2 
 PCOD8223796
Probable space group: P C C A
;
_chemical_formula_sum "Si O2"
_cell_formula_units_Z 48
_cell_length_a 26.021242
_cell_length_b 9.741879
_cell_length_c 8.437812
_cell_angle_alpha 90.000000
_cell_angle_beta 90.000000
_cell_angle_gamma 90.000000
_cell_volume 2138.949827
_symmetry_space_group_name_H-M "P C C A"
_symmetry_group_IT_number 54
_symmetry_cell_setting 'orthorhombic'
loop_
_space_group_symop_operation_xyz
x,y,z
1/2-x,-y,z
1/2+x,-y,1/2-z
-x,y,1/2-z
-x,-y,-z
1/2+x,y,-z
1/2-x,y,1/2+z
x,-y,1/2+z
loop_
_atom_site_type_symbol
_atom_site_label
_atom_site_fract_x
_atom_site_fract_y
_atom_site_fract_z
Si Si1 0.634771 0.008424 0.318464
Si Si2 0.795665 0.402962 0.560221
Si Si3 0.968099 0.608267 0.400185
Si Si4 0.866496 0.451650 0.284875
Si Si5 0.705471 0.895152 0.558498
Si Si6 0.093057 0.199293 0.404654
O O1 0.682401 0.918074 0.383042
O O2 0.589744 0.905990 0.246539
O O3 0.656495 0.095658 0.173701
O O4 0.618342 0.116662 0.450998
O O5 0.750000 0.500000 0.500654
O O6 0.843778 0.384768 0.442247
O O7 0.820781 0.450796 0.724319
O O8 0.769608 0.254280 0.578286
O O9 0.916782 0.538429 0.330938
O O10 0.959109 0.738525 0.518915
O O11 0.000000 0.663653 0.250000
O O12 0.000000 0.500000 0.500000
O O13 0.876291 0.335142 0.151775
O O14 0.750000 0.000000 0.601251
#
# Coordination Sequence:
#
# PCOD8223796 Si02
#       6
#     8   8   8   8   8   8
#     4  10  24  42  68  91 138 197 230 285 358 430
#     4  12  27  41  66 106 147 188 237 296 361 424
#     4  12  24  45  79 112 138 180 235 307 370 434
#     4  12  24  45  70 102 147 182 234 302 359 427
#     4  11  24  39  64  95 135 188 249 293 344 422
#     4  11  23  46  71 101 140 183 241 282 372 424
#
# _framework density 22.440919000000001
#
# number of rings (size 3 to 8) (size 9 to 14) (size 15 to 20)
#    0.000    0.667    5.000    2.000    4.667    2.667 
#    0.000    0.833    0.000    0.000    0.000    0.000 
#    0.000    0.000    0.000    0.000    0.000    0.000 
#
# Total GULP energy -594770.146082 kJ/mol
# GULP energy per Si atom -12391.044710 kJ/mol
# Density = 2.238984 g / cm^3
# Si number density = 22.440919 Si / 1000 Ang^3
#
#
#
# Elastic Constant Matrix: (Units=GPa)
#
#
# Indices 1 2 3 4 5 6 
#
# 1 83.6476 39.1738 25.0968 0.0000 0.0000 0.0000
# 2 39.1738 146.6691 28.8646 0.0000 0.0000 0.0000
# 3 25.0968 28.8646 88.3189 0.0000 0.0000 0.0000
# 4 0.0000 0.0000 0.0000 39.2530 0.0000 0.0000
# 5 0.0000 0.0000 0.0000 0.0000 43.5204 0.0000
# 6 0.0000 0.0000 0.0000 0.0000 0.0000 38.5882
#
#
#
# Elastic Compliance Matrix: (Units=1/GPa)
#
#
# Indices 1 2 3 4 5 6 
#
# 1 0.014383 -0.003246 -0.003026 0.000000 0.000000 0.000000
# 2 -0.003246 0.008019 -0.001699 0.000000 0.000000 0.000000
# 3 -0.003026 -0.001699 0.012738 0.000000 0.000000 0.000000
# 4 0.000000 0.000000 0.000000 0.025476 0.000000 0.000000
# 5 0.000000 0.000000 0.000000 0.000000 0.022978 0.000000
# 6 0.000000 0.000000 0.000000 0.000000 0.000000 0.025915
#
#
# Mechanical properties :
#
#
# Convention : Reuss Voigt Hill
#
# Bulk Modulus (GPa) = 52.08732 56.10066 54.09399
# Shear Modulus (GPa) = 37.92212 39.30567 38.61390
#
# Velocity S-wave (km/s) = 4.11526 4.18965 4.15262
# Velocity P-wave (km/s) = 6.77065 6.96116 6.86657
#
# Compressibility (1/GPa) = 0.01919853
#
# Stress axis : x y z
#
# Youngs Moduli (GPa) = 69.52636 124.69902 78.50740
#
# Poissons Ratio (x) = 0.40477 0.23758
# Poissons Ratio (y) = 0.22568 0.13335
# Poissons Ratio (z) = 0.21040 0.21180
#
# Static dielectric constant tensor:
#      x y z
#    x 3.963270 0.000000 0.000000 
#    y 0.000000 4.244650 0.000000 
#    z 0.000000 0.000000 4.359970 
# 
# 
# High freq. dielectric constant tensor:
#      x y z
#    x 1.856110 0.000000 0.000000 
#    y 0.000000 1.890420 0.000000 
#    z 0.000000 0.000000 1.907220 
# 
# From -- ./inp_files/5825.got.cif
#   From: 2010.03.12/outbox.cif.g09.slc.cpg/sg54_3_cif.got.tgz:5825.got - 2010.04.16 15:00:50.
