data_PCOD8223229
_publ_section_title
;
Structure prediction by ZEFSAII (Michael W. Deem and Ramdas Pophale) SiO2 
 PCOD8223229
Probable space group: P C C A
;
_chemical_formula_sum "Si O2"
_cell_formula_units_Z 40
_cell_length_a 18.220229
_cell_length_b 8.561952
_cell_length_c 12.013323
_cell_angle_alpha 90.000000
_cell_angle_beta 90.000000
_cell_angle_gamma 90.000000
_cell_volume 1874.087111
_symmetry_space_group_name_H-M "P C C A"
_symmetry_group_IT_number 54
_symmetry_cell_setting 'orthorhombic'
loop_
_space_group_symop_operation_xyz
x,y,z
1/2-x,-y,z
1/2+x,-y,1/2-z
-x,y,1/2-z
-x,-y,-z
1/2+x,y,-z
1/2-x,y,1/2+z
x,-y,1/2+z
loop_
_atom_site_type_symbol
_atom_site_label
_atom_site_fract_x
_atom_site_fract_y
_atom_site_fract_z
Si Si1 0.169641 0.667697 0.377708
Si Si2 0.569190 0.353475 0.312693
Si Si3 0.836151 0.702182 0.654948
Si Si4 0.103765 0.323374 0.109597
Si Si5 0.466359 0.168549 0.978888
O O1 0.122347 0.735482 0.274935
O O2 0.154959 0.481440 0.371307
O O3 0.250739 0.735662 0.363164
O O4 0.144299 0.731658 0.497361
O O5 0.500000 0.431981 0.250000
O O6 0.610012 0.489060 0.381482
O O7 0.537064 0.227966 0.395915
O O8 0.857151 0.747260 0.781649
O O9 0.885273 0.814340 0.575651
O O10 0.019422 0.269113 0.101073
O O11 0.500000 0.000000 0.000000
#
# Coordination Sequence:
#
# PCOD8223229 Si02
#       5
#     8   8   8   8   8
#     4  10  21  38  68 102 129 164 214 290 341 391
#     4  11  21  38  68  97 125 167 224 279 330 392
#     4  10  23  38  66 101 131 164 218 279 348 390
#     4  11  21  41  66  94 127 169 223 280 330 389
#     4  12  25  42  65  90 136 178 225 270 323 405
#
# _framework density 21.343727000000001
#
# number of rings (size 3 to 8) (size 9 to 14) (size 15 to 20)
#    0.000    1.200    4.000    3.600    2.800    3.200 
#    0.000    1.000    0.000    0.000    0.000    0.000 
#    0.000    0.000    0.000    0.000    0.000    0.000 
#
# Total GULP energy -495814.042143 kJ/mol
# GULP energy per Si atom -12395.351054 kJ/mol
# Density = 2.129515 g / cm^3
# Si number density = 21.343727 Si / 1000 Ang^3
#
#
#
# Elastic Constant Matrix: (Units=GPa)
#
#
# Indices 1 2 3 4 5 6 
#
# 1 158.9707 29.0117 62.0735 0.0000 0.0000 0.0000
# 2 29.0117 65.1396 39.1824 0.0000 0.0000 0.0000
# 3 62.0735 39.1824 139.7675 0.0000 0.0000 0.0000
# 4 0.0000 0.0000 0.0000 14.3522 0.0000 0.0000
# 5 0.0000 0.0000 0.0000 0.0000 41.1112 0.0000
# 6 0.0000 0.0000 0.0000 0.0000 0.0000 25.5865
#
#
#
# Elastic Compliance Matrix: (Units=1/GPa)
#
#
# Indices 1 2 3 4 5 6 
#
# 1 0.007757 -0.001663 -0.002979 0.000000 0.000000 0.000000
# 2 -0.001663 0.018822 -0.004538 0.000000 0.000000 0.000000
# 3 -0.002979 -0.004538 0.009750 0.000000 0.000000 0.000000
# 4 0.000000 0.000000 0.000000 0.069676 0.000000 0.000000
# 5 0.000000 0.000000 0.000000 0.000000 0.024324 0.000000
# 6 0.000000 0.000000 0.000000 0.000000 0.000000 0.039083
#
#
# Mechanical properties :
#
#
# Convention : Reuss Voigt Hill
#
# Bulk Modulus (GPa) = 55.65063 69.37923 62.51493
# Shear Modulus (GPa) = 25.80491 31.78399 28.79445
#
# Velocity S-wave (km/s) = 3.48086 3.86314 3.67697
# Velocity P-wave (km/s) = 6.50272 7.24394 6.88331
#
# Compressibility (1/GPa) = 0.01796925
#
# Stress axis : x y z
#
# Youngs Moduli (GPa) = 128.91364 53.12944 102.56520
#
# Poissons Ratio (x) = 0.08835 0.30553
# Poissons Ratio (y) = 0.21438 0.46544
# Poissons Ratio (z) = 0.38402 0.24110
#
# Static dielectric constant tensor:
#      x y z
#    x 3.991460 0.000000 0.000000 
#    y 0.000000 3.255090 0.000000 
#    z 0.000000 0.000000 4.130050 
# 
# 
# High freq. dielectric constant tensor:
#      x y z
#    x 1.845640 0.000000 0.000000 
#    y 0.000000 1.781860 0.000000 
#    z 0.000000 0.000000 1.861030 
# 
# From -- ./inp_files/8727.got.cif
#   From: 2010.03.12/outbox.cif.g09.slc.cpg/sg54_5_cif.got.tgz:8727.got - 2010.04.16 15:00:50.
