data_PCOD8223409
_publ_section_title
;
Structure prediction by ZEFSAII (Michael W. Deem and Ramdas Pophale) SiO2 
 PCOD8223409
Probable space group: P C C A
;
_chemical_formula_sum "Si O2"
_cell_formula_units_Z 56
_cell_length_a 19.348975
_cell_length_b 10.969682
_cell_length_c 13.285399
_cell_angle_alpha 90.000000
_cell_angle_beta 90.000000
_cell_angle_gamma 90.000000
_cell_volume 2819.853874
_symmetry_space_group_name_H-M "P C C A"
_symmetry_group_IT_number 54
_symmetry_cell_setting 'orthorhombic'
loop_
_space_group_symop_operation_xyz
x,y,z
1/2-x,-y,z
1/2+x,-y,1/2-z
-x,y,1/2-z
-x,-y,-z
1/2+x,y,-z
1/2-x,y,1/2+z
x,-y,1/2+z
loop_
_atom_site_type_symbol
_atom_site_label
_atom_site_fract_x
_atom_site_fract_y
_atom_site_fract_z
Si Si1 0.821794 0.037496 0.123502
Si Si2 0.650276 0.089131 0.319813
Si Si3 0.783883 0.764359 0.493283
Si Si4 0.071940 0.060106 0.021028
Si Si5 0.371708 0.305874 0.489887
Si Si6 0.172948 0.531834 0.114420
Si Si7 0.581658 0.674592 0.732197
O O1 0.826257 0.180409 0.089963
O O2 0.750000 0.000000 0.069067
O O3 0.815300 0.005682 0.241256
O O4 0.884478 0.961678 0.079617
O O5 0.707016 0.150798 0.393247
O O6 0.605663 0.190618 0.262521
O O7 0.598669 0.005441 0.380776
O O8 0.703589 0.755638 0.522075
O O9 0.817952 0.633418 0.472449
O O10 0.073886 0.206743 0.035780
O O11 0.000000 0.000000 0.000000
O O12 0.366420 0.417454 0.566628
O O13 0.400546 0.352020 0.383566
O O14 0.250000 0.500000 0.155915
O O15 0.124691 0.575806 0.204620
O O16 0.500000 0.659071 0.750000
#
# Coordination Sequence:
#
# PCOD8223409 Si02
#       7
#     8   8   8   8   8   8   8
#     4  11  20  35  59  92 122 160 208 259 328 377
#     4  10  22  35  63  89 125 159 207 261 325 390
#     4   9  20  39  60  96 126 161 213 269 324 372
#     4  11  23  38  59  89 127 166 204 259 319 388
#     4  11  21  42  64  88 130 168 219 263 321 389
#     4   9  22  42  66  94 124 169 220 274 315 374
#     4  11  22  41  65  91 124 172 214 256 326 392
#
# _framework density 19.859185
#
# number of rings (size 3 to 8) (size 9 to 14) (size 15 to 20)
#    0.000    1.714    2.857    0.857    2.000    2.286 
#    5.143    0.000    0.000    0.000    0.000    0.000 
#    0.000    0.000    0.000    0.000    0.000    0.000 
#
# Total GULP energy -694069.889488 kJ/mol
# GULP energy per Si atom -12394.105169 kJ/mol
# Density = 1.981398 g / cm^3
# Si number density = 19.859185 Si / 1000 Ang^3
#
#
#
# Elastic Constant Matrix: (Units=GPa)
#
#
# Indices 1 2 3 4 5 6 
#
# 1 122.5570 44.2093 49.6764 0.0000 0.0000 0.0000
# 2 44.2093 125.7127 47.6725 0.0000 0.0000 0.0000
# 3 49.6764 47.6725 88.8218 0.0000 0.0000 0.0000
# 4 0.0000 0.0000 0.0000 27.8669 0.0000 0.0000
# 5 0.0000 0.0000 0.0000 0.0000 21.7363 0.0000
# 6 0.0000 0.0000 0.0000 0.0000 0.0000 27.2597
#
#
#
# Elastic Compliance Matrix: (Units=1/GPa)
#
#
# Indices 1 2 3 4 5 6 
#
# 1 0.010905 -0.001911 -0.005073 0.000000 0.000000 0.000000
# 2 -0.001911 0.010322 -0.004471 0.000000 0.000000 0.000000
# 3 -0.005073 -0.004471 0.016496 0.000000 0.000000 0.000000
# 4 0.000000 0.000000 0.000000 0.035885 0.000000 0.000000
# 5 0.000000 0.000000 0.000000 0.000000 0.046006 0.000000
# 6 0.000000 0.000000 0.000000 0.000000 0.000000 0.036684
#
#
# Mechanical properties :
#
#
# Convention : Reuss Voigt Hill
#
# Bulk Modulus (GPa) = 67.51419 68.91200 68.21309
# Shear Modulus (GPa) = 27.15214 28.40812 27.78013
#
# Velocity S-wave (km/s) = 3.70162 3.78627 3.74419
# Velocity P-wave (km/s) = 7.23461 7.34099 7.28799
#
# Compressibility (1/GPa) = 0.01481170
#
# Stress axis : x y z
#
# Youngs Moduli (GPa) = 91.69877 96.87717 60.62143
#
# Poissons Ratio (x) = 0.18515 0.30756
# Poissons Ratio (y) = 0.17525 0.27106
# Poissons Ratio (z) = 0.46522 0.43317
#
# Static dielectric constant tensor:
#      x y z
#    x 5.989260 0.000000 0.000000 
#    y 0.000000 3.774040 0.000000 
#    z 0.000000 0.000000 3.473470 
# 
# 
# High freq. dielectric constant tensor:
#      x y z
#    x 1.767170 0.000000 0.000000 
#    y 0.000000 1.780560 0.000000 
#    z 0.000000 0.000000 1.769160 
# 
# From -- ./inp_files/9562.got.cif
#   From: 2010.03.12/outbox.cif.g09.slc.cpg/sg54_5_cif.got.tgz:9562.got - 2010.04.16 15:00:50.
