data_PCOD8223756
_publ_section_title
;
Structure prediction by ZEFSAII (Michael W. Deem and Ramdas Pophale) SiO2 
 PCOD8223756
Probable space group: P C C A
;
_chemical_formula_sum "Si O2"
_cell_formula_units_Z 56
_cell_length_a 19.496414
_cell_length_b 5.173731
_cell_length_c 23.617355
_cell_angle_alpha 90.000000
_cell_angle_beta 90.000000
_cell_angle_gamma 90.000000
_cell_volume 2382.263740
_symmetry_space_group_name_H-M "P C C A"
_symmetry_group_IT_number 54
_symmetry_cell_setting 'orthorhombic'
loop_
_space_group_symop_operation_xyz
x,y,z
1/2-x,-y,z
1/2+x,-y,1/2-z
-x,y,1/2-z
-x,-y,-z
1/2+x,y,-z
1/2-x,y,1/2+z
x,-y,1/2+z
loop_
_atom_site_type_symbol
_atom_site_label
_atom_site_fract_x
_atom_site_fract_y
_atom_site_fract_z
Si Si1 0.672657 0.983104 0.526482
Si Si2 0.390705 0.532892 0.514019
Si Si3 0.174033 0.462327 0.751851
Si Si4 0.053508 0.197954 0.611569
Si Si5 0.949891 0.823198 0.582735
Si Si6 0.464365 0.518216 0.308587
Si Si7 0.674109 0.967430 0.321799
O O1 0.660689 0.220770 0.483458
O O2 0.621988 0.016875 0.580452
O O3 0.750000 0.000000 0.548959
O O4 0.654473 0.720723 0.493605
O O5 0.426689 0.541237 0.576093
O O6 0.444810 0.581400 0.461551
O O7 0.250000 0.500000 0.778757
O O8 0.116358 0.466548 0.800117
O O9 0.161424 0.678860 0.703028
O O10 0.167723 0.175633 0.727823
O O11 0.005992 0.275521 0.665253
O O12 0.118338 0.030202 0.630916
O O13 0.011895 0.017605 0.566631
O O14 0.966547 0.749502 0.646977
O O15 0.500000 0.603904 0.250000
O O16 0.750000 0.000000 0.348983
#
# Coordination Sequence:
#
# PCOD8223756 Si02
#       7
#     8   8   8   8   8   8   8
#     4  10  23  49  74 106 147 190 247 302 362 446
#     4  10  25  45  74 106 145 189 244 297 380 436
#     4  10  23  47  68 101 144 191 245 302 360 430
#     4  12  25  43  74 111 149 190 242 310 370 446
#     4  10  26  43  72 103 147 190 240 299 369 429
#     4  12  25  43  72 107 144 192 248 302 366 436
#     4  10  23  45  73 101 144 193 240 300 369 435
#
# _framework density 23.507052000000002
#
# number of rings (size 3 to 8) (size 9 to 14) (size 15 to 20)
#    0.857    0.571    1.429    2.571    4.000    2.286 
#    5.143    2.857    0.000    0.000    0.000    0.000 
#    0.000    0.000    0.000    0.000    0.000    0.000 
#
# Total GULP energy -694001.920052 kJ/mol
# GULP energy per Si atom -12392.891430 kJ/mol
# Density = 2.345355 g / cm^3
# Si number density = 23.507052 Si / 1000 Ang^3
#
#
#
# Elastic Constant Matrix: (Units=GPa)
#
#
# Indices 1 2 3 4 5 6 
#
# 1 170.1342 43.3490 56.7687 0.0000 0.0000 0.0000
# 2 43.3490 114.5767 24.9858 0.0000 0.0000 0.0000
# 3 56.7687 24.9858 94.0123 0.0000 0.0000 0.0000
# 4 0.0000 0.0000 0.0000 22.2929 0.0000 0.0000
# 5 0.0000 0.0000 0.0000 0.0000 29.2200 0.0000
# 6 0.0000 0.0000 0.0000 0.0000 0.0000 28.2509
#
#
#
# Elastic Compliance Matrix: (Units=1/GPa)
#
#
# Indices 1 2 3 4 5 6 
#
# 1 0.007785 -0.002038 -0.004159 0.000000 0.000000 0.000000
# 2 -0.002038 0.009798 -0.001373 0.000000 0.000000 0.000000
# 3 -0.004159 -0.001373 0.013513 0.000000 0.000000 0.000000
# 4 0.000000 0.000000 0.000000 0.044857 0.000000 0.000000
# 5 0.000000 0.000000 0.000000 0.000000 0.034223 0.000000
# 6 0.000000 0.000000 0.000000 0.000000 0.000000 0.035397
#
#
# Mechanical properties :
#
#
# Convention : Reuss Voigt Hill
#
# Bulk Modulus (GPa) = 62.67578 69.88113 66.27846
# Shear Modulus (GPa) = 30.11432 32.86075 31.48754
#
# Velocity S-wave (km/s) = 3.58310 3.74292 3.66388
# Velocity P-wave (km/s) = 6.62107 6.96215 6.79375
#
# Compressibility (1/GPa) = 0.01595513
#
# Stress axis : x y z
#
# Youngs Moduli (GPa) = 128.45497 102.05700 74.00108
#
# Poissons Ratio (x) = 0.20803 0.30778
# Poissons Ratio (y) = 0.26184 0.10163
# Poissons Ratio (z) = 0.53425 0.14016
#
# Static dielectric constant tensor:
#      x y z
#    x 4.579520 0.000000 0.000000 
#    y 0.000000 4.174370 0.000000 
#    z 0.000000 0.000000 3.732660 
# 
# 
# High freq. dielectric constant tensor:
#      x y z
#    x 1.946830 0.000000 0.000000 
#    y 0.000000 1.938840 0.000000 
#    z 0.000000 0.000000 1.898810 
# 
# From -- ./inp_files/24737.got.cif
#   From: 2010.03.12/outbox.cif.g09.slc.cpg/sg54_13_cif.got.tgz:24737.got - 2010.04.16 15:00:50.
