data_PCOD8223234
_publ_section_title
;
Structure prediction by ZEFSAII (Michael W. Deem and Ramdas Pophale) SiO2 
 PCOD8223234
Probable space group: P C C A
;
_chemical_formula_sum "Si O2"
_cell_formula_units_Z 64
_cell_length_a 24.706917
_cell_length_b 11.832063
_cell_length_c 11.533346
_cell_angle_alpha 90.000000
_cell_angle_beta 90.000000
_cell_angle_gamma 90.000000
_cell_volume 3371.586845
_symmetry_space_group_name_H-M "P C C A"
_symmetry_group_IT_number 54
_symmetry_cell_setting 'orthorhombic'
loop_
_space_group_symop_operation_xyz
x,y,z
1/2-x,-y,z
1/2+x,-y,1/2-z
-x,y,1/2-z
-x,-y,-z
1/2+x,y,-z
1/2-x,y,1/2+z
x,-y,1/2+z
loop_
_atom_site_type_symbol
_atom_site_label
_atom_site_fract_x
_atom_site_fract_y
_atom_site_fract_z
Si Si1 0.902392 0.239887 0.093536
Si Si2 0.601538 0.379355 0.812285
Si Si3 0.685111 0.389811 0.014472
Si Si4 0.507284 0.630256 0.477340
Si Si5 0.467331 0.985901 0.375974
Si Si6 0.363621 0.377031 0.247903
Si Si7 0.804717 0.645502 0.478512
Si Si8 0.447554 0.777229 0.820355
O O1 0.888191 0.282041 0.220778
O O2 0.923591 0.112491 0.101773
O O3 0.845808 0.257670 0.023882
O O4 0.948331 0.315946 0.033706
O O5 0.541156 0.358827 0.859422
O O6 0.605655 0.503013 0.754295
O O7 0.646862 0.361697 0.908185
O O8 0.660036 0.339195 0.129464
O O9 0.687679 0.524173 0.039875
O O10 0.741802 0.324600 0.993592
O O11 0.500000 0.500000 0.500000
O O12 0.542023 0.686882 0.578692
O O13 0.500000 0.964368 0.250000
O O14 0.500000 0.000000 0.500000
O O15 0.430678 0.099407 0.368109
O O16 0.406825 0.276867 0.226194
O O17 0.314983 0.373488 0.157381
O O18 0.500000 0.807806 0.750000
#
# Coordination Sequence:
#
# PCOD8223234 Si02
#       8
#     8   8   8   8   8   8   8   8
#     4  12  23  40  60  91 124 159 212 250 313 369
#     4  11  22  36  57  93 125 161 197 252 312 378
#     4  10  21  39  58  91 125 161 207 247 317 374
#     4  12  21  34  57  91 130 161 194 248 316 387
#     4  11  25  43  64  90 123 171 216 259 311 373
#     4  11  21  38  58  89 123 161 201 249 313 374
#     4  10  23  36  62  89 123 165 204 256 305 382
#     4  11  22  38  59  87 124 162 204 252 309 373
#
# _framework density 18.98216
#
# number of rings (size 3 to 8) (size 9 to 14) (size 15 to 20)
#    0.000    1.000    3.750    4.875    3.500    1.000 
#    0.000    0.000    0.000    0.750    0.000    0.000 
#    0.000    0.000    0.000    0.000    0.000    0.000 
#
# Total GULP energy -793029.282703 kJ/mol
# GULP energy per Si atom -12391.082542 kJ/mol
# Density = 1.893896 g / cm^3
# Si number density = 18.982160 Si / 1000 Ang^3
#
#
#
# Elastic Constant Matrix: (Units=GPa)
#
#
# Indices 1 2 3 4 5 6 
#
# 1 97.5662 39.2031 21.4091 0.0000 0.0000 0.0000
# 2 39.2031 127.2740 27.8951 0.0000 0.0000 0.0000
# 3 21.4091 27.8951 82.4349 0.0000 0.0000 0.0000
# 4 0.0000 0.0000 0.0000 16.8740 0.0000 0.0000
# 5 0.0000 0.0000 0.0000 0.0000 19.7500 0.0000
# 6 0.0000 0.0000 0.0000 0.0000 0.0000 26.9985
#
#
#
# Elastic Compliance Matrix: (Units=1/GPa)
#
#
# Indices 1 2 3 4 5 6 
#
# 1 0.011999 -0.003254 -0.002015 0.000000 0.000000 0.000000
# 2 -0.003254 0.009369 -0.002325 0.000000 0.000000 0.000000
# 3 -0.002015 -0.002325 0.013441 0.000000 0.000000 0.000000
# 4 0.000000 0.000000 0.000000 0.059263 0.000000 0.000000
# 5 0.000000 0.000000 0.000000 0.000000 0.050633 0.000000
# 6 0.000000 0.000000 0.000000 0.000000 0.000000 0.037039
#
#
# Mechanical properties :
#
#
# Convention : Reuss Voigt Hill
#
# Bulk Modulus (GPa) = 50.96843 53.80996 52.38919
# Shear Modulus (GPa) = 24.57323 27.30902 25.94113
#
# Velocity S-wave (km/s) = 3.60188 3.79709 3.70077
# Velocity P-wave (km/s) = 6.64884 6.90167 6.77643
#
# Compressibility (1/GPa) = 0.01961999
#
# Stress axis : x y z
#
# Youngs Moduli (GPa) = 83.33842 106.73373 74.39950
#
# Poissons Ratio (x) = 0.34735 0.14992
# Poissons Ratio (y) = 0.27122 0.17299
# Poissons Ratio (z) = 0.16793 0.24818
#
# Static dielectric constant tensor:
#      x y z
#    x 3.577180 0.000000 0.000000 
#    y 0.000000 3.422360 0.000000 
#    z 0.000000 0.000000 3.914090 
# 
# 
# High freq. dielectric constant tensor:
#      x y z
#    x 1.728010 0.000000 0.000000 
#    y 0.000000 1.713460 0.000000 
#    z 0.000000 0.000000 1.758790 
# 
# From -- ./inp_files/10086.got.cif
#   From: 2010.03.12/outbox.cif.g09.slc.cpg/sg54_6_cif.got.tgz:10086.got - 2010.04.16 15:00:50.
