data_PCOD8223319
_publ_section_title
;
Structure prediction by ZEFSAII (Michael W. Deem and Ramdas Pophale) SiO2 
 PCOD8223319
Probable space group: P C C A
;
_chemical_formula_sum "Si O2"
_cell_formula_units_Z 56
_cell_length_a 5.249720
_cell_length_b 14.800862
_cell_length_c 31.991115
_cell_angle_alpha 90.000000
_cell_angle_beta 90.000000
_cell_angle_gamma 90.000000
_cell_volume 2485.721832
_symmetry_space_group_name_H-M "P C C A"
_symmetry_group_IT_number 54
_symmetry_cell_setting 'orthorhombic'
loop_
_space_group_symop_operation_xyz
x,y,z
1/2-x,-y,z
1/2+x,-y,1/2-z
-x,y,1/2-z
-x,-y,-z
1/2+x,y,-z
1/2-x,y,1/2+z
x,-y,1/2+z
loop_
_atom_site_type_symbol
_atom_site_label
_atom_site_fract_x
_atom_site_fract_y
_atom_site_fract_z
Si Si1 0.743345 0.605391 0.092212
Si Si2 0.746715 0.393182 0.356771
Si Si3 0.650320 0.897045 0.831052
Si Si4 0.686814 0.746753 0.027171
Si Si5 0.742704 0.268753 0.276606
Si Si6 0.914590 0.129064 0.411962
Si Si7 0.750000 0.000000 0.473197
Si Si8 0.250000 0.000000 0.367949
O O1 0.750000 0.500000 0.084599
O O2 0.498227 0.635985 0.118435
O O3 0.716378 0.646279 0.045647
O O4 0.000499 0.636253 0.116043
O O5 0.750000 0.500000 0.347127
O O6 0.753577 0.340387 0.313585
O O7 0.697167 0.835075 0.791046
O O8 0.768659 0.838146 0.870087
O O9 0.349319 0.914337 0.840088
O O10 0.750000 0.000000 0.823955
O O11 0.632821 0.805308 0.069478
O O12 0.454718 0.764901 0.995484
O O13 0.500000 0.298893 0.250000
O O14 0.000000 0.273787 0.250000
O O15 0.726234 0.095464 0.448414
O O16 0.029552 0.032764 0.398141
O O17 0.500000 0.000000 0.500000
#
# Coordination Sequence:
#
# PCOD8223319 Si02
#       8
#     8   8   8   8   8   8   4   4
#     4  10  22  43  71  97 128 177 230 272 322 398
#     4  10  22  44  73 103 133 174 224 272 328 409
#     4  10  24  43  69  92 126 177 235 277 326 399
#     4  12  27  40  60  96 137 176 218 280 346 391
#     4  12  28  44  69 105 140 175 212 273 348 408
#     4  11  23  40  61  89 123 173 227 271 327 401
#     4  12  23  36  56  85 122 158 206 274 333 376
#     4  10  21  40  70  89 114 172 228 274 323 372
#
# _framework density 22.528668
#
# number of rings (size 3 to 8) (size 9 to 14) (size 15 to 20)
#    0.000    1.143    2.143    3.857    8.000    1.714 
#    0.000    0.000    0.000    0.000    0.000    0.000 
#    0.000    0.000    0.000    0.000    0.000    0.000 
#
# Total GULP energy -693883.437968 kJ/mol
# GULP energy per Si atom -12390.775678 kJ/mol
# Density = 2.247739 g / cm^3
# Si number density = 22.528668 Si / 1000 Ang^3
#
#
#
# Elastic Constant Matrix: (Units=GPa)
#
#
# Indices 1 2 3 4 5 6 
#
# 1 149.5076 23.8816 36.1107 0.0000 0.0000 0.0000
# 2 23.8816 60.8322 35.4735 0.0000 0.0000 0.0000
# 3 36.1107 35.4735 76.7386 0.0000 0.0000 0.0000
# 4 0.0000 0.0000 0.0000 70.7788 0.0000 0.0000
# 5 0.0000 0.0000 0.0000 0.0000 29.7778 0.0000
# 6 0.0000 0.0000 0.0000 0.0000 0.0000 22.0480
#
#
#
# Elastic Compliance Matrix: (Units=1/GPa)
#
#
# Indices 1 2 3 4 5 6 
#
# 1 0.007613 -0.001232 -0.003013 0.000000 0.000000 0.000000
# 2 -0.001232 0.022705 -0.009916 0.000000 0.000000 0.000000
# 3 -0.003013 -0.009916 0.019033 0.000000 0.000000 0.000000
# 4 0.000000 0.000000 0.000000 0.014129 0.000000 0.000000
# 5 0.000000 0.000000 0.000000 0.000000 0.033582 0.000000
# 6 0.000000 0.000000 0.000000 0.000000 0.000000 0.045356
#
#
# Mechanical properties :
#
#
# Convention : Reuss Voigt Hill
#
# Bulk Modulus (GPa) = 47.55311 53.11221 50.33266
# Shear Modulus (GPa) = 28.12972 37.29508 32.71240
#
# Velocity S-wave (km/s) = 3.53741 4.07314 3.81469
# Velocity P-wave (km/s) = 6.15126 6.76366 6.46472
#
# Compressibility (1/GPa) = 0.02102912
#
# Stress axis : x y z
#
# Youngs Moduli (GPa) = 131.35196 44.04407 52.54062
#
# Poissons Ratio (x) = 0.05425 0.15831
# Poissons Ratio (y) = 0.16179 0.52099
# Poissons Ratio (z) = 0.39578 0.43674
#
# Static dielectric constant tensor:
#      x y z
#    x 4.494630 0.000000 0.000000 
#    y 0.000000 4.197710 0.000000 
#    z 0.000000 0.000000 4.072630 
# 
# 
# High freq. dielectric constant tensor:
#      x y z
#    x 1.903900 0.000000 0.000000 
#    y 0.000000 1.888620 0.000000 
#    z 0.000000 0.000000 1.884780 
# 
# From -- ./inp_files/27246.got.cif
#   From: 2010.03.12/outbox.cif.g09.slc.cpg/sg54_14_cif.got.tgz:27246.got - 2010.04.16 15:00:50.
