data_PCOD8223365
_publ_section_title
;
Structure prediction by ZEFSAII (Michael W. Deem and Ramdas Pophale) SiO2 
 PCOD8223365
Probable space group: P C C A
;
_chemical_formula_sum "Si O2"
_cell_formula_units_Z 60
_cell_length_a 14.338241
_cell_length_b 11.888079
_cell_length_c 16.746501
_cell_angle_alpha 90.000000
_cell_angle_beta 90.000000
_cell_angle_gamma 90.000000
_cell_volume 2854.510455
_symmetry_space_group_name_H-M "P C C A"
_symmetry_group_IT_number 54
_symmetry_cell_setting 'orthorhombic'
loop_
_space_group_symop_operation_xyz
x,y,z
1/2-x,-y,z
1/2+x,-y,1/2-z
-x,y,1/2-z
-x,-y,-z
1/2+x,y,-z
1/2-x,y,1/2+z
x,-y,1/2+z
loop_
_atom_site_type_symbol
_atom_site_label
_atom_site_fract_x
_atom_site_fract_y
_atom_site_fract_z
Si Si1 0.642135 0.195085 0.432817
Si Si2 0.332020 0.649485 0.841517
Si Si3 0.664838 0.578555 0.841030
Si Si4 0.750000 0.000000 0.853096
Si Si5 0.020300 0.518698 0.907677
Si Si6 0.639657 0.272408 0.608399
Si Si7 0.962595 0.850455 0.164766
Si Si8 0.655276 0.051969 0.699747
O O1 0.670885 0.315191 0.398665
O O2 0.642484 0.200517 0.527736
O O3 0.539354 0.161916 0.403461
O O4 0.717671 0.102604 0.407819
O O5 0.325450 0.617885 0.749215
O O6 0.393814 0.560681 0.887704
O O7 0.229739 0.648234 0.880435
O O8 0.373291 0.773937 0.854205
O O9 0.750000 0.500000 0.866041
O O10 0.568124 0.511805 0.853034
O O11 0.835853 0.959450 0.796354
O O12 0.048571 0.647950 0.890248
O O13 0.000000 0.500000 0.000000
O O14 0.637201 0.182131 0.679986
O O15 0.000000 0.806818 0.250000
O O16 0.932350 0.980217 0.168885
O O17 0.750000 0.000000 0.660665
#
# Coordination Sequence:
#
# PCOD8223365 Si02
#       8
#     8   8   8   4   8   8   8   8
#     4  12  25  43  69 101 137 182 237 287 360 434
#     4  12  23  44  77  96 136 189 230 285 352 431
#     4  12  25  45  71 101 135 187 240 284 350 430
#     4  10  22  42  70  98 134 184 240 290 348 432
#     4  12  25  45  67 103 143 182 234 292 356 424
#     4  12  26  43  68 106 143 181 231 301 367 415
#     4  12  19  43  75  95 132 185 230 283 347 430
#     4  10  21  42  67  98 137 176 228 294 351 418
#
# _framework density 21.019366000000002
#
# number of rings (size 3 to 8) (size 9 to 14) (size 15 to 20)
#    0.400    0.000    6.667    2.400    2.800    0.533 
#    2.400    1.333    0.000    0.000    0.000    0.000 
#    0.000    0.000    0.000    0.000    0.000    0.000 
#
# Total GULP energy -744239.077527 kJ/mol
# GULP energy per Si atom -12403.984625 kJ/mol
# Density = 2.097152 g / cm^3
# Si number density = 21.019366 Si / 1000 Ang^3
#
#
#
# Elastic Constant Matrix: (Units=GPa)
#
#
# Indices 1 2 3 4 5 6 
#
# 1 98.3209 51.7008 12.4906 0.0000 0.0000 0.0000
# 2 51.7008 136.9934 13.3070 0.0000 0.0000 0.0000
# 3 12.4906 13.3070 65.9463 0.0000 0.0000 0.0000
# 4 0.0000 0.0000 0.0000 30.9500 0.0000 0.0000
# 5 0.0000 0.0000 0.0000 0.0000 26.6824 0.0000
# 6 0.0000 0.0000 0.0000 0.0000 0.0000 55.9201
#
#
#
# Elastic Compliance Matrix: (Units=1/GPa)
#
#
# Indices 1 2 3 4 5 6 
#
# 1 0.012829 -0.004698 -0.001482 0.000000 0.000000 0.000000
# 2 -0.004698 0.009166 -0.000960 0.000000 0.000000 0.000000
# 3 -0.001482 -0.000960 0.015638 0.000000 0.000000 0.000000
# 4 0.000000 0.000000 0.000000 0.032310 0.000000 0.000000
# 5 0.000000 0.000000 0.000000 0.000000 0.037478 0.000000
# 6 0.000000 0.000000 0.000000 0.000000 0.000000 0.017883
#
#
# Mechanical properties :
#
#
# Convention : Reuss Voigt Hill
#
# Bulk Modulus (GPa) = 42.81872 50.69526 46.75699
# Shear Modulus (GPa) = 33.92870 37.62797 35.77834
#
# Velocity S-wave (km/s) = 4.02202 4.23562 4.13020
# Velocity P-wave (km/s) = 6.47952 6.93479 6.71102
#
# Compressibility (1/GPa) = 0.02335427
#
# Stress axis : x y z
#
# Youngs Moduli (GPa) = 77.94645 109.10160 63.94598
#
# Poissons Ratio (x) = 0.51254 0.09477
# Poissons Ratio (y) = 0.36618 0.06137
# Poissons Ratio (z) = 0.11552 0.10471
#
# Static dielectric constant tensor:
#      x y z
#    x 3.998800 0.000000 0.000000 
#    y 0.000000 3.852080 0.000000 
#    z 0.000000 0.000000 3.543930 
# 
# 
# High freq. dielectric constant tensor:
#      x y z
#    x 1.826410 0.000000 0.000000 
#    y 0.000000 1.834970 0.000000 
#    z 0.000000 0.000000 1.815270 
# 
# From -- ./inp_files/18200.got.cif
#   From: 2010.03.12/outbox.cif.g09.slc.cpg/sg54_10_cif.got.tgz:18200.got - 2010.04.16 15:00:50.
