data_PCOD8223028
_publ_section_title
;
Structure prediction by ZEFSAII (Michael W. Deem and Ramdas Pophale) SiO2 
 PCOD8223028
Probable space group: P C C A
;
_chemical_formula_sum "Si O2"
_cell_formula_units_Z 56
_cell_length_a 20.286710
_cell_length_b 6.706987
_cell_length_c 21.787691
_cell_angle_alpha 90.000000
_cell_angle_beta 90.000000
_cell_angle_gamma 90.000000
_cell_volume 2964.492070
_symmetry_space_group_name_H-M "P C C A"
_symmetry_group_IT_number 54
_symmetry_cell_setting 'orthorhombic'
loop_
_space_group_symop_operation_xyz
x,y,z
1/2-x,-y,z
1/2+x,-y,1/2-z
-x,y,1/2-z
-x,-y,-z
1/2+x,y,-z
1/2-x,y,1/2+z
x,-y,1/2+z
loop_
_atom_site_type_symbol
_atom_site_label
_atom_site_fract_x
_atom_site_fract_y
_atom_site_fract_z
Si Si1 0.250000 0.500000 0.932446
Si Si2 0.250000 0.000000 0.263732
Si Si3 0.918350 0.667514 0.885473
Si Si4 0.454447 0.072215 0.054324
Si Si5 0.670049 0.670506 0.673865
Si Si6 0.040402 0.590418 0.392020
Si Si7 0.809237 0.382390 0.287516
Si Si8 0.875702 0.413685 0.997798
O O1 0.210770 0.348098 0.889178
O O2 0.197769 0.610928 0.976002
O O3 0.192778 0.886571 0.302040
O O4 0.288555 0.845170 0.221663
O O5 0.876487 0.624577 0.824660
O O6 0.879653 0.561528 0.940515
O O7 0.990807 0.582747 0.870027
O O8 0.924789 0.899551 0.902803
O O9 0.497604 0.214359 0.096743
O O10 0.394707 0.191929 0.023036
O O11 0.500000 0.000000 0.000000
O O12 0.592437 0.655750 0.659730
O O13 0.683337 0.492366 0.721738
O O14 0.074254 0.504494 0.452732
O O15 0.750000 0.500000 0.323039
#
# Coordination Sequence:
#
# PCOD8223028 Si02
#       8
#     4   4   8   8   8   8   8   8
#     4  10  20  40  60  86 116 154 194 252 302 354
#     4  10  20  40  62  88 116 156 202 250 298 350
#     4  11  22  39  60  86 122 163 193 245 300 357
#     4  11  19  36  58  89 120 158 192 239 300 358
#     4  10  21  41  63  89 115 158 201 254 303 348
#     4  10  21  37  63  88 123 156 197 244 298 360
#     4  10  23  42  62  82 120 160 202 246 302 357
#     4  10  21  37  59  88 121 153 197 238 300 362
#
# _framework density 18.890252
#
# number of rings (size 3 to 8) (size 9 to 14) (size 15 to 20)
#    0.000    1.714    5.000    0.857    1.000    7.429 
#    0.000    0.000    0.000    0.000    0.000    0.000 
#    0.000    0.000    0.000    0.000    0.000    0.000 
#
# Total GULP energy -694158.414949 kJ/mol
# GULP energy per Si atom -12395.685981 kJ/mol
# Density = 1.884726 g / cm^3
# Si number density = 18.890252 Si / 1000 Ang^3
#
#
#
# Elastic Constant Matrix: (Units=GPa)
#
#
# Indices 1 2 3 4 5 6 
#
# 1 141.0487 58.3787 69.4194 0.0000 0.0000 0.0000
# 2 58.3787 134.9792 42.9193 0.0000 0.0000 0.0000
# 3 69.4194 42.9193 74.5147 0.0000 0.0000 0.0000
# 4 0.0000 0.0000 0.0000 11.8242 0.0000 0.0000
# 5 0.0000 0.0000 0.0000 0.0000 44.9492 0.0000
# 6 0.0000 0.0000 0.0000 0.0000 0.0000 20.4729
#
#
#
# Elastic Compliance Matrix: (Units=1/GPa)
#
#
# Indices 1 2 3 4 5 6 
#
# 1 0.013641 -0.002276 -0.011398 0.000000 0.000000 0.000000
# 2 -0.002276 0.009449 -0.003323 0.000000 0.000000 0.000000
# 3 -0.011398 -0.003323 0.025952 0.000000 0.000000 0.000000
# 4 0.000000 0.000000 0.000000 0.084573 0.000000 0.000000
# 5 0.000000 0.000000 0.000000 0.000000 0.022247 0.000000
# 6 0.000000 0.000000 0.000000 0.000000 0.000000 0.048845
#
#
# Mechanical properties :
#
#
# Convention : Reuss Voigt Hill
#
# Bulk Modulus (GPa) = 66.44134 76.88636 71.66385
# Shear Modulus (GPa) = 20.51568 27.43762 23.97665
#
# Velocity S-wave (km/s) = 3.29910 3.81527 3.56653
# Velocity P-wave (km/s) = 7.05413 7.75876 7.41482
#
# Compressibility (1/GPa) = 0.01505087
#
# Stress axis : x y z
#
# Youngs Moduli (GPa) = 73.30757 105.82837 38.53253
#
# Poissons Ratio (x) = 0.24084 0.43918
# Poissons Ratio (y) = 0.16683 0.12802
# Poissons Ratio (z) = 0.83553 0.35161
#
# Static dielectric constant tensor:
#      x y z
#    x 3.721500 0.000000 0.000000 
#    y 0.000000 3.467170 0.000000 
#    z 0.000000 0.000000 3.334060 
# 
# 
# High freq. dielectric constant tensor:
#      x y z
#    x 1.744460 0.000000 0.000000 
#    y 0.000000 1.735260 0.000000 
#    z 0.000000 0.000000 1.721780 
# 
# From -- ./inp_files/24767.got.cif
#   From: 2010.03.12/outbox.cif.g09.slc.cpg/sg54_13_cif.got.tgz:24767.got - 2010.04.16 15:00:50.
