data_PCOD8223863
_publ_section_title
;
Structure prediction by ZEFSAII (Michael W. Deem and Ramdas Pophale) SiO2 
 PCOD8223863
Probable space group: P C C A
;
_chemical_formula_sum "Si O2"
_cell_formula_units_Z 40
_cell_length_a 20.682736
_cell_length_b 10.664339
_cell_length_c 8.133078
_cell_angle_alpha 90.000000
_cell_angle_beta 90.000000
_cell_angle_gamma 90.000000
_cell_volume 1793.894375
_symmetry_space_group_name_H-M "P C C A"
_symmetry_group_IT_number 54
_symmetry_cell_setting 'orthorhombic'
loop_
_space_group_symop_operation_xyz
x,y,z
1/2-x,-y,z
1/2+x,-y,1/2-z
-x,y,1/2-z
-x,-y,-z
1/2+x,y,-z
1/2-x,y,1/2+z
x,-y,1/2+z
loop_
_atom_site_type_symbol
_atom_site_label
_atom_site_fract_x
_atom_site_fract_y
_atom_site_fract_z
Si Si1 0.500000 0.790281 0.750000
Si Si2 0.750000 0.500000 0.434688
Si Si3 0.191504 0.920301 0.672107
Si Si4 0.954547 0.245957 0.094546
Si Si5 0.683203 0.341119 0.691731
Si Si6 0.598733 0.027061 0.096507
O O1 0.483794 0.709195 0.583696
O O2 0.437625 0.873658 0.790896
O O3 0.726687 0.379864 0.536946
O O4 0.810789 0.453550 0.324249
O O5 0.214362 0.782449 0.725770
O O6 0.122518 0.909963 0.574037
O O7 0.250000 0.000000 0.590336
O O8 0.169476 0.995455 0.833040
O O9 0.889381 0.320983 0.130850
O O10 0.000000 0.274067 0.250000
O O11 0.945296 0.096300 0.070604
#
# Coordination Sequence:
#
# PCOD8223863 Si02
#       6
#     4   4   8   8   8   8
#     4  12  20  38  66  96 142 194 214 258 348 432
#     4  10  24  52  74  86 130 190 234 296 342 386
#     4  11  24  37  62 105 142 169 218 284 347 418
#     4  11  23  42  65 103 141 182 229 276 337 424
#     4  10  25  46  70  98 128 179 242 280 341 414
#     4  11  21  37  59  95 146 186 210 259 344 434
#
# _framework density 22.297858000000002
#
# number of rings (size 3 to 8) (size 9 to 14) (size 15 to 20)
#    0.000    1.200    3.000    3.600    8.400    0.000 
#   10.800    1.000    0.000    0.000    0.000    0.000 
#    0.000    0.000    0.000    0.000    0.000    0.000 
#
# Total GULP energy -495672.812934 kJ/mol
# GULP energy per Si atom -12391.820323 kJ/mol
# Density = 2.224711 g / cm^3
# Si number density = 22.297858 Si / 1000 Ang^3
#
#
#
# Elastic Constant Matrix: (Units=GPa)
#
#
# Indices 1 2 3 4 5 6 
#
# 1 96.1773 39.0426 56.5946 0.0000 0.0000 0.0000
# 2 39.0426 80.4893 44.1643 0.0000 0.0000 0.0000
# 3 56.5946 44.1643 148.2644 0.0000 0.0000 0.0000
# 4 0.0000 0.0000 0.0000 8.9240 0.0000 0.0000
# 5 0.0000 0.0000 0.0000 0.0000 31.5594 0.0000
# 6 0.0000 0.0000 0.0000 0.0000 0.0000 29.6267
#
#
#
# Elastic Compliance Matrix: (Units=1/GPa)
#
#
# Indices 1 2 3 4 5 6 
#
# 1 0.014867 -0.004898 -0.004216 0.000000 0.000000 0.000000
# 2 -0.004898 0.016465 -0.003035 0.000000 0.000000 0.000000
# 3 -0.004216 -0.003035 0.009258 0.000000 0.000000 0.000000
# 4 0.000000 0.000000 0.000000 0.112057 0.000000 0.000000
# 5 0.000000 0.000000 0.000000 0.000000 0.031686 0.000000
# 6 0.000000 0.000000 0.000000 0.000000 0.000000 0.033753
#
#
# Mechanical properties :
#
#
# Convention : Reuss Voigt Hill
#
# Bulk Modulus (GPa) = 61.37918 67.17045 64.27481
# Shear Modulus (GPa) = 20.17639 26.36401 23.27020
#
# Velocity S-wave (km/s) = 3.01135 3.44227 3.23400
# Velocity P-wave (km/s) = 6.29902 6.78149 6.54470
#
# Compressibility (1/GPa) = 0.01629217
#
# Stress axis : x y z
#
# Youngs Moduli (GPa) = 67.26526 60.73437 108.01548
#
# Poissons Ratio (x) = 0.29748 0.45536
# Poissons Ratio (y) = 0.32947 0.32782
# Poissons Ratio (z) = 0.28357 0.18432
#
# Static dielectric constant tensor:
#      x y z
#    x 3.820350 0.000000 0.000000 
#    y 0.000000 3.616920 0.000000 
#    z 0.000000 0.000000 4.396320 
# 
# 
# High freq. dielectric constant tensor:
#      x y z
#    x 1.877780 0.000000 0.000000 
#    y 0.000000 1.830860 0.000000 
#    z 0.000000 0.000000 1.908750 
# 
# From -- ./inp_files/5063.got.cif
#   From: 2010.03.12/outbox.cif.g09.slc.cpg/sg54_3_cif.got.tgz:5063.got - 2010.04.16 15:00:50.
