data_PCOD8223861
_publ_section_title
;
Structure prediction by ZEFSAII (Michael W. Deem and Ramdas Pophale) SiO2 
 PCOD8223861
Probable space group: P C C A
;
_chemical_formula_sum "Si O2"
_cell_formula_units_Z 32
_cell_length_a 5.308052
_cell_length_b 15.114255
_cell_length_c 17.281878
_cell_angle_alpha 90.000000
_cell_angle_beta 90.000000
_cell_angle_gamma 90.000000
_cell_volume 1386.477572
_symmetry_space_group_name_H-M "P C C A"
_symmetry_group_IT_number 54
_symmetry_cell_setting 'orthorhombic'
loop_
_space_group_symop_operation_xyz
x,y,z
1/2-x,-y,z
1/2+x,-y,1/2-z
-x,y,1/2-z
-x,-y,-z
1/2+x,y,-z
1/2-x,y,1/2+z
x,-y,1/2+z
loop_
_atom_site_type_symbol
_atom_site_label
_atom_site_fract_x
_atom_site_fract_y
_atom_site_fract_z
Si Si1 0.000000 0.367288 0.750000
Si Si2 0.127509 0.229051 0.175594
Si Si3 0.750000 0.500000 0.632615
Si Si4 0.758826 0.103345 0.953129
Si Si5 0.436723 0.342519 0.951459
O O1 0.203560 0.308026 0.707666
O O2 0.100944 0.430198 0.816807
O O3 0.279019 0.154463 0.128419
O O4 0.000000 0.182126 0.250000
O O5 0.917909 0.275159 0.120973
O O6 0.937441 0.555940 0.577666
O O7 0.750000 0.000000 0.934192
O O8 0.502573 0.130742 0.997255
O O9 0.699373 0.322151 0.994077
#
# Coordination Sequence:
#
# PCOD8223861 Si02
#       5
#     4   8   4   8   8
#     4  12  26  46  68 102 150 186 248 300 378 420
#     4  12  26  46  70 107 144 193 234 299 361 436
#     4  12  24  46  68  98 140 198 242 314 356 426
#     4  10  24  49  79 111 146 188 234 290 359 433
#     4  12  26  45  69 100 136 185 246 300 352 414
#
# _framework density 23.080071
#
# number of rings (size 3 to 8) (size 9 to 14) (size 15 to 20)
#    0.000    0.500    2.500    5.250    3.500    2.000 
#    2.250    0.000    0.000    0.000    0.000    0.000 
#    0.000    0.000    0.000    0.000    0.000    0.000 
#
# Total GULP energy -396867.020143 kJ/mol
# GULP energy per Si atom -12402.094379 kJ/mol
# Density = 2.302754 g / cm^3
# Si number density = 23.080071 Si / 1000 Ang^3
#
#
#
# Elastic Constant Matrix: (Units=GPa)
#
#
# Indices 1 2 3 4 5 6 
#
# 1 125.7743 14.7991 58.3586 0.0000 0.0000 0.0000
# 2 14.7991 53.1361 53.9518 0.0000 0.0000 0.0000
# 3 58.3586 53.9518 159.8283 0.0000 0.0000 0.0000
# 4 0.0000 0.0000 0.0000 36.5847 0.0000 0.0000
# 5 0.0000 0.0000 0.0000 0.0000 18.0346 0.0000
# 6 0.0000 0.0000 0.0000 0.0000 0.0000 5.3374
#
#
#
# Elastic Compliance Matrix: (Units=1/GPa)
#
#
# Indices 1 2 3 4 5 6 
#
# 1 0.009636 0.001352 -0.003975 0.000000 0.000000 0.000000
# 2 0.001352 0.028823 -0.010223 0.000000 0.000000 0.000000
# 3 -0.003975 -0.010223 0.011159 0.000000 0.000000 0.000000
# 4 0.000000 0.000000 0.000000 0.027334 0.000000 0.000000
# 5 0.000000 0.000000 0.000000 0.000000 0.055449 0.000000
# 6 0.000000 0.000000 0.000000 0.000000 0.000000 0.187357
#
#
# Mechanical properties :
#
#
# Convention : Reuss Voigt Hill
#
# Bulk Modulus (GPa) = 41.79518 65.88418 53.83968
# Shear Modulus (GPa) = 14.14726 26.09996 20.12361
#
# Velocity S-wave (km/s) = 2.47850 3.36645 2.95601
# Velocity P-wave (km/s) = 5.13212 6.61200 5.91850
#
# Compressibility (1/GPa) = 0.02392620
#
# Stress axis : x y z
#
# Youngs Moduli (GPa) = 103.77804 34.69420 89.61349
#
# Poissons Ratio (x) = -0.04691 0.35620
# Poissons Ratio (y) = -0.14032 0.91615
# Poissons Ratio (z) = 0.41250 0.35469
#
# Static dielectric constant tensor:
#      x y z
#    x 4.083180 0.000000 0.000000 
#    y 0.000000 4.303080 0.000000 
#    z 0.000000 0.000000 4.760360 
# 
# 
# High freq. dielectric constant tensor:
#      x y z
#    x 1.908530 0.000000 0.000000 
#    y 0.000000 1.920770 0.000000 
#    z 0.000000 0.000000 1.931490 
# 
# From -- ./inp_files/15689.got.cif
#   From: 2010.03.12/outbox.cif.g09.slc.cpg/sg54_8_cif.got.tgz:15689.got - 2010.04.16 15:00:50.
