data_PCOD8223248
_publ_section_title
;
Structure prediction by ZEFSAII (Michael W. Deem and Ramdas Pophale) SiO2 
 PCOD8223248
Probable space group: P C C A
;
_chemical_formula_sum "Si O2"
_cell_formula_units_Z 40
_cell_length_a 8.570582
_cell_length_b 14.862511
_cell_length_c 14.813723
_cell_angle_alpha 90.000000
_cell_angle_beta 90.000000
_cell_angle_gamma 90.000000
_cell_volume 1886.977506
_symmetry_space_group_name_H-M "P C C A"
_symmetry_group_IT_number 54
_symmetry_cell_setting 'orthorhombic'
loop_
_space_group_symop_operation_xyz
x,y,z
1/2-x,-y,z
1/2+x,-y,1/2-z
-x,y,1/2-z
-x,-y,-z
1/2+x,y,-z
1/2-x,y,1/2+z
x,-y,1/2+z
loop_
_atom_site_type_symbol
_atom_site_label
_atom_site_fract_x
_atom_site_fract_y
_atom_site_fract_z
Si Si1 0.194717 0.412011 0.880503
Si Si2 0.159462 0.583512 0.070271
Si Si3 0.686455 0.781457 0.919981
Si Si4 0.674886 0.213148 0.116051
Si Si5 0.181107 0.097091 0.229565
O O1 0.250000 0.500000 0.819771
O O2 0.202097 0.312208 0.836853
O O3 0.021997 0.429252 0.915104
O O4 0.314787 0.413943 0.963380
O O5 0.250000 0.500000 0.116591
O O6 0.219524 0.678425 0.110477
O O7 0.505485 0.804716 0.905553
O O8 0.796173 0.843672 0.859699
O O9 0.726565 0.796436 0.024732
O O10 0.728141 0.138367 0.185790
O O11 0.000000 0.090436 0.250000
O O12 0.250000 0.000000 0.209110
#
# Coordination Sequence:
#
# PCOD8223248 Si02
#       5
#     8   8   8   8   8
#     4   9  16  27  49  80 116 154 192 233 279 334
#     4   9  16  27  49  80 116 154 192 233 279 334
#     4  10  21  39  62  90 122 157 197 242 291 347
#     4  10  21  39  62  90 122 157 197 242 291 347
#     4  12  26  44  65  88 115 150 193 246 302 356
#
# _framework density 21.19792
#
# number of rings (size 3 to 8) (size 9 to 14) (size 15 to 20)
#    0.000    2.000    0.000    5.400    0.000    5.600 
#    0.000    5.000    0.000    0.000    0.000    0.000 
#    0.000    0.000    0.000    0.000    0.000    0.000 
#
# Total GULP energy -495691.295390 kJ/mol
# GULP energy per Si atom -12392.282385 kJ/mol
# Density = 2.114967 g / cm^3
# Si number density = 21.197920 Si / 1000 Ang^3
#
#
#
# Elastic Constant Matrix: (Units=GPa)
#
#
# Indices 1 2 3 4 5 6 
#
# 1 59.7383 28.5112 1.0965 0.0000 0.0000 0.0000
# 2 28.5112 133.9177 27.9391 0.0000 0.0000 0.0000
# 3 1.0965 27.9391 58.0446 0.0000 0.0000 0.0000
# 4 0.0000 0.0000 0.0000 77.3852 0.0000 0.0000
# 5 0.0000 0.0000 0.0000 0.0000 18.6206 0.0000
# 6 0.0000 0.0000 0.0000 0.0000 0.0000 39.2628
#
#
#
# Elastic Compliance Matrix: (Units=1/GPa)
#
#
# Indices 1 2 3 4 5 6 
#
# 1 0.018791 -0.004365 0.001746 0.000000 0.000000 0.000000
# 2 -0.004365 0.009315 -0.004401 0.000000 0.000000 0.000000
# 3 0.001746 -0.004401 0.019314 0.000000 0.000000 0.000000
# 4 0.000000 0.000000 0.000000 0.012922 0.000000 0.000000
# 5 0.000000 0.000000 0.000000 0.000000 0.053704 0.000000
# 6 0.000000 0.000000 0.000000 0.000000 0.000000 0.025469
#
#
# Mechanical properties :
#
#
# Convention : Reuss Voigt Hill
#
# Bulk Modulus (GPa) = 29.95869 40.75490 35.35680
# Shear Modulus (GPa) = 30.36169 39.99731 35.17950
#
# Velocity S-wave (km/s) = 3.78867 4.34850 4.07821
# Velocity P-wave (km/s) = 5.77081 6.66935 6.23629
#
# Compressibility (1/GPa) = 0.03337929
#
# Stress axis : x y z
#
# Youngs Moduli (GPa) = 53.21738 107.35664 51.77706
#
# Poissons Ratio (x) = 0.46860 -0.09040
# Poissons Ratio (y) = 0.23229 0.22788
# Poissons Ratio (z) = -0.09292 0.47249
#
# Static dielectric constant tensor:
#      x y z
#    x 3.899600 0.000000 0.000000 
#    y 0.000000 4.347000 0.000000 
#    z 0.000000 0.000000 3.454200 
# 
# 
# High freq. dielectric constant tensor:
#      x y z
#    x 1.844750 0.000000 0.000000 
#    y 0.000000 1.851180 0.000000 
#    z 0.000000 0.000000 1.794250 
# 
# From -- ./inp_files/11464.got.cif
#   From: 2010.03.12/outbox.cif.g09.slc.cpg/sg54_6_cif.got.tgz:11464.got - 2010.04.16 15:00:50.
