data_PCOD8223486
_publ_section_title
;
Structure prediction by ZEFSAII (Michael W. Deem and Ramdas Pophale) SiO2 
 PCOD8223486
Probable space group: P C C A
;
_chemical_formula_sum "Si O2"
_cell_formula_units_Z 56
_cell_length_a 20.217088
_cell_length_b 14.791990
_cell_length_c 8.387664
_cell_angle_alpha 90.000000
_cell_angle_beta 90.000000
_cell_angle_gamma 90.000000
_cell_volume 2508.339001
_symmetry_space_group_name_H-M "P C C A"
_symmetry_group_IT_number 54
_symmetry_cell_setting 'orthorhombic'
loop_
_space_group_symop_operation_xyz
x,y,z
1/2-x,-y,z
1/2+x,-y,1/2-z
-x,y,1/2-z
-x,-y,-z
1/2+x,y,-z
1/2-x,y,1/2+z
x,-y,1/2+z
loop_
_atom_site_type_symbol
_atom_site_label
_atom_site_fract_x
_atom_site_fract_y
_atom_site_fract_z
Si Si1 0.391801 0.501964 0.978226
Si Si2 0.071285 0.124262 0.800555
Si Si3 0.569590 0.637333 0.279232
Si Si4 0.331476 0.793827 0.301222
Si Si5 0.804921 0.772792 0.327971
Si Si6 0.695755 0.570497 0.771944
Si Si7 0.430838 0.068712 0.670442
O O1 0.431473 0.442403 0.852065
O O2 0.324349 0.542347 0.905398
O O3 0.432010 0.588101 0.048111
O O4 0.369877 0.435460 0.119710
O O5 0.131347 0.194205 0.772664
O O6 0.000000 0.167514 0.750000
O O7 0.083407 0.037934 0.686833
O O8 0.070048 0.096364 0.985529
O O9 0.500000 0.690417 0.250000
O O10 0.632088 0.704227 0.268411
O O11 0.263007 0.823779 0.215560
O O12 0.320427 0.779064 0.487221
O O13 0.376443 0.880180 0.273133
O O14 0.781344 0.673277 0.274003
O O15 0.750000 0.500000 0.834696
O O16 0.500000 0.093863 0.750000
#
# Coordination Sequence:
#
# PCOD8223486 Si02
#       7
#     8   8   8   8   8   8   8
#     4  10  22  40  60  93 122 175 231 289 349 421
#     4  11  24  46  77 109 143 185 231 289 360 430
#     4  11  23  42  65  92 135 177 234 291 359 421
#     4  12  26  43  66 100 139 186 233 294 357 421
#     4  12  26  44  66 102 143 178 244 295 350 429
#     4  11  23  39  66  92 135 182 232 285 355 414
#     4  11  23  46  76 107 145 185 231 285 358 436
#
# _framework density 22.325531000000002
#
# number of rings (size 3 to 8) (size 9 to 14) (size 15 to 20)
#    0.000    0.857    1.429    7.286    6.000    0.571 
#    0.000    3.571    0.000    0.000    0.000    0.000 
#    0.000    0.000    0.000    0.000    0.000    0.000 
#
# Total GULP energy -694164.767467 kJ/mol
# GULP energy per Si atom -12395.799419 kJ/mol
# Density = 2.227472 g / cm^3
# Si number density = 22.325531 Si / 1000 Ang^3
#
#
#
# Elastic Constant Matrix: (Units=GPa)
#
#
# Indices 1 2 3 4 5 6 
#
# 1 154.2961 56.9111 30.2036 0.0000 0.0000 0.0000
# 2 56.9111 80.9911 21.9109 0.0000 0.0000 0.0000
# 3 30.2036 21.9109 88.1677 0.0000 0.0000 0.0000
# 4 0.0000 0.0000 0.0000 14.4462 0.0000 0.0000
# 5 0.0000 0.0000 0.0000 0.0000 32.4423 0.0000
# 6 0.0000 0.0000 0.0000 0.0000 0.0000 38.9353
#
#
#
# Elastic Compliance Matrix: (Units=1/GPa)
#
#
# Indices 1 2 3 4 5 6 
#
# 1 0.008957 -0.005858 -0.001613 0.000000 0.000000 0.000000
# 2 -0.005858 0.017068 -0.002235 0.000000 0.000000 0.000000
# 3 -0.001613 -0.002235 0.012450 0.000000 0.000000 0.000000
# 4 0.000000 0.000000 0.000000 0.069222 0.000000 0.000000
# 5 0.000000 0.000000 0.000000 0.000000 0.030824 0.000000
# 6 0.000000 0.000000 0.000000 0.000000 0.000000 0.025684
#
#
# Mechanical properties :
#
#
# Convention : Reuss Voigt Hill
#
# Bulk Modulus (GPa) = 52.45455 60.16736 56.31096
# Shear Modulus (GPa) = 26.31985 31.46006 28.88995
#
# Velocity S-wave (km/s) = 3.43725 3.75794 3.60117
# Velocity P-wave (km/s) = 6.26891 6.77038 6.52447
#
# Compressibility (1/GPa) = 0.01906412
#
# Stress axis : x y z
#
# Youngs Moduli (GPa) = 111.63960 58.58957 80.32194
#
# Poissons Ratio (x) = 0.34321 0.12954
# Poissons Ratio (y) = 0.65397 0.17951
# Poissons Ratio (z) = 0.18005 0.13094
#
# Static dielectric constant tensor:
#      x y z
#    x 4.165390 0.000000 0.000000 
#    y 0.000000 3.961120 0.000000 
#    z 0.000000 0.000000 4.111410 
# 
# 
# High freq. dielectric constant tensor:
#      x y z
#    x 1.889080 0.000000 0.000000 
#    y 0.000000 1.864510 0.000000 
#    z 0.000000 0.000000 1.894920 
# 
# From -- ./inp_files/4810.got.cif
#   From: 2010.03.12/outbox.cif.g09.slc.cpg/sg54_3_cif.got.tgz:4810.got - 2010.04.16 15:00:50.
