data_PCOD8223256
_publ_section_title
;
Structure prediction by ZEFSAII (Michael W. Deem and Ramdas Pophale) SiO2 
 PCOD8223256
Probable space group: P C C A
;
_chemical_formula_sum "Si O2"
_cell_formula_units_Z 48
_cell_length_a 18.249984
_cell_length_b 8.516731
_cell_length_c 14.987922
_cell_angle_alpha 90.000000
_cell_angle_beta 90.000000
_cell_angle_gamma 90.000000
_cell_volume 2329.575781
_symmetry_space_group_name_H-M "P C C A"
_symmetry_group_IT_number 54
_symmetry_cell_setting 'orthorhombic'
loop_
_space_group_symop_operation_xyz
x,y,z
1/2-x,-y,z
1/2+x,-y,1/2-z
-x,y,1/2-z
-x,-y,-z
1/2+x,y,-z
1/2-x,y,1/2+z
x,-y,1/2+z
loop_
_atom_site_type_symbol
_atom_site_label
_atom_site_fract_x
_atom_site_fract_y
_atom_site_fract_z
Si Si1 0.408871 0.567792 0.923508
Si Si2 0.591129 0.932208 0.576491
Si Si3 0.424782 0.068946 0.110086
Si Si4 0.327468 0.567051 0.260175
Si Si5 0.327468 0.932949 0.260175
Si Si6 0.924782 0.431054 0.889914
O O1 0.402235 0.750000 0.948065
O O2 0.349290 0.521896 0.850487
O O3 0.489277 0.528318 0.885560
O O4 0.393029 0.468441 0.012377
O O5 0.510723 0.971681 0.614441
O O6 0.606971 0.031559 0.487622
O O7 0.650711 0.978105 0.649512
O O8 0.409693 0.250000 0.133384
O O9 0.386252 0.961164 0.182912
O O10 0.250000 0.500000 0.227224
O O11 0.322000 0.750000 0.280512
O O12 0.386251 0.538836 0.182912
O O13 0.250000 0.000000 0.227223
#
# Coordination Sequence:
#
# PCOD8223256 Si02
#       6
#     8   8   8   8   8   8
#     4  10  21  39  63  90 119 152 193 240 289 343
#     4  10  21  39  63  90 119 152 193 240 289 343
#     4  10  21  39  63  90 119 152 193 240 289 343
#     4  12  25  40  59  85 119 157 197 240 291 348
#     4  12  25  40  59  85 119 157 197 240 291 348
#     4  10  21  39  63  90 119 152 193 240 289 343
#
# _framework density 20.604610000000001
#
# number of rings (size 3 to 8) (size 9 to 14) (size 15 to 20)
#    0.000    1.333    0.000    6.000    0.000    9.333 
#    0.000    6.667    0.000    0.000    0.000    0.000 
#    0.000    0.000    0.000    0.000    0.000    0.000 
#
# Total GULP energy -595615.683201 kJ/mol
# GULP energy per Si atom -12408.660067 kJ/mol
# Density = 2.055771 g / cm^3
# Si number density = 20.604610 Si / 1000 Ang^3
#
#
#
# Elastic Constant Matrix: (Units=GPa)
#
#
# Indices 1 2 3 4 5 6 
#
# 1 46.2604 31.1181 24.0396 0.0000 0.0000 0.0000
# 2 31.1181 69.4775 16.1252 0.0000 0.0000 0.0000
# 3 24.0396 16.1252 71.3923 0.0000 0.0000 0.0000
# 4 0.0000 0.0000 0.0000 40.0499 0.0000 0.0000
# 5 0.0000 0.0000 0.0000 0.0000 4.1138 0.0000
# 6 0.0000 0.0000 0.0000 0.0000 0.0000 31.8141
#
#
#
# Elastic Compliance Matrix: (Units=1/GPa)
#
#
# Indices 1 2 3 4 5 6 
#
# 1 0.035534 -0.013865 -0.008833 0.000000 0.000000 0.000000
# 2 -0.013865 0.020599 0.000016 0.000000 0.000000 0.000000
# 3 -0.008833 0.000016 0.016978 0.000000 0.000000 0.000000
# 4 0.000000 0.000000 0.000000 0.024969 0.000000 0.000000
# 5 0.000000 0.000000 0.000000 0.000000 0.243081 0.000000
# 6 0.000000 0.000000 0.000000 0.000000 0.000000 0.031433
#
#
# Mechanical properties :
#
#
# Convention : Reuss Voigt Hill
#
# Bulk Modulus (GPa) = 36.04104 36.63289 36.33696
# Shear Modulus (GPa) = 11.70391 22.91873 17.31132
#
# Velocity S-wave (km/s) = 2.38591 3.33875 2.90171
# Velocity P-wave (km/s) = 5.01197 5.71669 5.37589
#
# Compressibility (1/GPa) = 0.02774615
#
# Stress axis : x y z
#
# Youngs Moduli (GPa) = 28.14231 48.54512 58.89995
#
# Poissons Ratio (x) = 0.67307 0.52029
# Poissons Ratio (y) = 0.39019 -0.00094
# Poissons Ratio (z) = 0.24859 -0.00077
#
# Static dielectric constant tensor:
#      x y z
#    x 3.729750 0.000000 0.000000 
#    y 0.000000 3.725910 0.000000 
#    z 0.000000 0.000000 3.723850 
# 
# 
# High freq. dielectric constant tensor:
#      x y z
#    x 1.798980 0.000000 0.000000 
#    y 0.000000 1.818280 0.000000 
#    z 0.000000 0.000000 1.813200 
# 
# From -- ./inp_files/3564.got.cif
#   From: 2010.03.12/outbox.cif.g09.slc.cpg/sg54_2_cif.got.tgz:3564.got - 2010.04.16 15:00:50.
