data_PCOD8223147
_publ_section_title
;
Structure prediction by ZEFSAII (Michael W. Deem and Ramdas Pophale) SiO2 
 PCOD8223147
Probable space group: P C C A
;
_chemical_formula_sum "Si O2"
_cell_formula_units_Z 28
_cell_length_a 5.008200
_cell_length_b 8.454236
_cell_length_c 30.481661
_cell_angle_alpha 90.000000
_cell_angle_beta 90.000000
_cell_angle_gamma 90.000000
_cell_volume 1290.608912
_symmetry_space_group_name_H-M "P C C A"
_symmetry_group_IT_number 54
_symmetry_cell_setting 'orthorhombic'
loop_
_space_group_symop_operation_xyz
x,y,z
1/2-x,-y,z
1/2+x,-y,1/2-z
-x,y,1/2-z
-x,-y,-z
1/2+x,y,-z
1/2-x,y,1/2+z
x,-y,1/2+z
loop_
_atom_site_type_symbol
_atom_site_label
_atom_site_fract_x
_atom_site_fract_y
_atom_site_fract_z
Si Si1 0.252535 0.682723 0.118842
Si Si2 0.739627 0.185872 0.475253
Si Si3 0.252111 0.316309 0.825182
Si Si4 0.500000 0.898501 0.250000
O O1 0.250000 0.500000 0.106280
O O2 0.187720 0.780468 0.075605
O O3 0.548641 0.721791 0.135092
O O4 0.042920 0.727837 0.157441
O O5 0.509655 0.261593 0.505747
O O6 0.750000 0.000000 0.481746
O O7 0.250000 0.500000 0.810408
O O8 0.345961 0.209506 0.785033
O O9 0.750000 0.000000 0.270041
#
# Coordination Sequence:
#
# PCOD8223147 Si02
#       4
#     8   8   8   4
#     4  10  21  38  61  88 115 154 206 249 293 356
#     4  10  21  36  55  82 117 156 194 238 299 360
#     4  10  23  42  63  87 122 164 201 245 308 371
#     4  12  26  42  64  98 128 156 208 262 308 366
#
# _framework density 21.695188000000002
#
# number of rings (size 3 to 8) (size 9 to 14) (size 15 to 20)
#    0.000    1.714    0.000    3.429    0.000    9.143 
#    0.000    0.000    0.000    0.000    0.000    0.000 
#    0.000    0.000    0.000    0.000    0.000    0.000 
#
# Total GULP energy -347088.045912 kJ/mol
# GULP energy per Si atom -12396.001640 kJ/mol
# Density = 2.164581 g / cm^3
# Si number density = 21.695188 Si / 1000 Ang^3
#
#
#
# Elastic Constant Matrix: (Units=GPa)
#
#
# Indices 1 2 3 4 5 6 
#
# 1 141.8078 46.1886 36.0893 0.0000 0.0000 0.0000
# 2 46.1886 50.1775 40.9777 0.0000 0.0000 0.0000
# 3 36.0893 40.9777 103.3206 0.0000 0.0000 0.0000
# 4 0.0000 0.0000 0.0000 27.4608 0.0000 0.0000
# 5 0.0000 0.0000 0.0000 0.0000 25.0423 0.0000
# 6 0.0000 0.0000 0.0000 0.0000 0.0000 27.0537
#
#
#
# Elastic Compliance Matrix: (Units=1/GPa)
#
#
# Indices 1 2 3 4 5 6 
#
# 1 0.010075 -0.009466 0.000235 0.000000 0.000000 0.000000
# 2 -0.009466 0.038371 -0.011912 0.000000 0.000000 0.000000
# 3 0.000235 -0.011912 0.014321 0.000000 0.000000 0.000000
# 4 0.000000 0.000000 0.000000 0.036416 0.000000 0.000000
# 5 0.000000 0.000000 0.000000 0.000000 0.039932 0.000000
# 6 0.000000 0.000000 0.000000 0.000000 0.000000 0.036964
#
#
# Mechanical properties :
#
#
# Convention : Reuss Voigt Hill
#
# Bulk Modulus (GPa) = 48.82532 60.20189 54.51361
# Shear Modulus (GPa) = 22.20340 27.38138 24.79239
#
# Velocity S-wave (km/s) = 3.20257 3.55645 3.38414
# Velocity P-wave (km/s) = 6.01908 6.68384 6.36015
#
# Compressibility (1/GPa) = 0.02048117
#
# Stress axis : x y z
#
# Youngs Moduli (GPa) = 99.25284 26.06152 69.82924
#
# Poissons Ratio (x) = 0.24671 -0.01643
# Poissons Ratio (y) = 0.93957 0.83177
# Poissons Ratio (z) = -0.02335 0.31043
#
# Static dielectric constant tensor:
#      x y z
#    x 4.610120 0.000000 0.000000 
#    y 0.000000 3.858540 0.000000 
#    z 0.000000 0.000000 3.582170 
# 
# 
# High freq. dielectric constant tensor:
#      x y z
#    x 1.879350 0.000000 0.000000 
#    y 0.000000 1.839020 0.000000 
#    z 0.000000 0.000000 1.844640 
# 
# From -- ./inp_files/25022.got.cif
#   From: 2010.03.12/outbox.cif.g09.slc.cpg/sg54_13_cif.got.tgz:25022.got - 2010.04.16 15:00:50.
