data_PCOD8223899
_publ_section_title
;
Structure prediction by ZEFSAII (Michael W. Deem and Ramdas Pophale) SiO2 
 PCOD8223899
Probable space group: P C C A
;
_chemical_formula_sum "Si O2"
_cell_formula_units_Z 60
_cell_length_a 17.271941
_cell_length_b 16.632125
_cell_length_c 9.956809
_cell_angle_alpha 90.000000
_cell_angle_beta 90.000000
_cell_angle_gamma 90.000000
_cell_volume 2860.283378
_symmetry_space_group_name_H-M "P C C A"
_symmetry_group_IT_number 54
_symmetry_cell_setting 'orthorhombic'
loop_
_space_group_symop_operation_xyz
x,y,z
1/2-x,-y,z
1/2+x,-y,1/2-z
-x,y,1/2-z
-x,-y,-z
1/2+x,y,-z
1/2-x,y,1/2+z
x,-y,1/2+z
loop_
_atom_site_type_symbol
_atom_site_label
_atom_site_fract_x
_atom_site_fract_y
_atom_site_fract_z
Si Si1 0.591491 0.360916 0.274287
Si Si2 0.397300 0.684006 0.017644
Si Si3 0.816329 0.156880 0.407493
Si Si4 0.583468 0.971609 0.551019
Si Si5 0.941868 0.761063 0.474226
Si Si6 0.500000 0.120280 0.250000
Si Si7 0.325008 0.869696 0.395712
Si Si8 0.053347 0.475393 0.127056
O O1 0.500000 0.354393 0.250000
O O2 0.614928 0.298842 0.391691
O O3 0.609244 0.451338 0.324651
O O4 0.631134 0.333185 0.135526
O O5 0.342609 0.750371 0.083605
O O6 0.390327 0.598897 0.093729
O O7 0.486258 0.712163 0.034048
O O8 0.884794 0.096948 0.451446
O O9 0.793022 0.135267 0.255303
O O10 0.742816 0.147267 0.501175
O O11 0.571733 0.934112 0.699715
O O12 0.500000 0.000000 0.500000
O O13 0.644300 0.042499 0.566965
O O14 0.892973 0.803216 0.591486
O O15 0.972408 0.828873 0.375049
O O16 0.000000 0.448598 0.250000
O O17 0.000000 0.500000 0.000000
#
# Coordination Sequence:
#
# PCOD8223899 Si02
#       8
#     8   8   8   8   8   4   8   8
#     4   9  17  33  60  98 131 172 208 262 342 392
#     4  11  21  39  66 100 133 173 221 276 337 403
#     4  12  29  47  65  97 134 180 228 273 333 404
#     4  12  24  44  73  98 133 165 220 276 338 398
#     4  11  20  38  66  94 131 173 219 266 332 400
#     4  12  20  38  72  98 126 174 210 278 334 392
#     4  12  30  45  65  96 133 180 226 278 337 396
#     4  11  19  32  58 102 141 164 210 281 340 393
#
# _framework density 20.976941
#
# number of rings (size 3 to 8) (size 9 to 14) (size 15 to 20)
#    0.000    0.800    8.667    1.200    5.600    2.133 
#    0.000    0.000    0.000    0.800    0.000    0.000 
#    0.000    0.000    0.000    0.000    0.000    0.000 
#
# Total GULP energy -743952.258331 kJ/mol
# GULP energy per Si atom -12399.204306 kJ/mol
# Density = 2.092920 g / cm^3
# Si number density = 20.976941 Si / 1000 Ang^3
#
#
#
# Elastic Constant Matrix: (Units=GPa)
#
#
# Indices 1 2 3 4 5 6 
#
# 1 62.4756 29.9540 29.8361 0.0000 0.0000 0.0000
# 2 29.9540 143.0469 34.4346 0.0000 0.0000 0.0000
# 3 29.8361 34.4346 114.9537 0.0000 0.0000 0.0000
# 4 0.0000 0.0000 0.0000 35.3093 0.0000 0.0000
# 5 0.0000 0.0000 0.0000 0.0000 32.9466 0.0000
# 6 0.0000 0.0000 0.0000 0.0000 0.0000 14.0524
#
#
#
# Elastic Compliance Matrix: (Units=1/GPa)
#
#
# Indices 1 2 3 4 5 6 
#
# 1 0.019454 -0.003080 -0.004126 0.000000 0.000000 0.000000
# 2 -0.003080 0.008022 -0.001603 0.000000 0.000000 0.000000
# 3 -0.004126 -0.001603 0.010250 0.000000 0.000000 0.000000
# 4 0.000000 0.000000 0.000000 0.028321 0.000000 0.000000
# 5 0.000000 0.000000 0.000000 0.000000 0.030352 0.000000
# 6 0.000000 0.000000 0.000000 0.000000 0.000000 0.071162
#
#
# Mechanical properties :
#
#
# Convention : Reuss Voigt Hill
#
# Bulk Modulus (GPa) = 49.73753 56.54729 53.14241
# Shear Modulus (GPa) = 26.05746 31.54509 28.80127
#
# Velocity S-wave (km/s) = 3.52830 3.88209 3.70942
# Velocity P-wave (km/s) = 6.35300 6.86364 6.61325
#
# Compressibility (1/GPa) = 0.02010554
#
# Stress axis : x y z
#
# Youngs Moduli (GPa) = 51.40397 124.66169 97.55633
#
# Poissons Ratio (x) = 0.38399 0.40257
# Poissons Ratio (y) = 0.15834 0.15643
# Poissons Ratio (z) = 0.21212 0.19989
#
# Static dielectric constant tensor:
#      x y z
#    x 3.560750 0.000000 0.000000 
#    y 0.000000 4.489980 0.000000 
#    z 0.000000 0.000000 4.273970 
# 
# 
# High freq. dielectric constant tensor:
#      x y z
#    x 1.769200 0.000000 0.000000 
#    y 0.000000 1.847630 0.000000 
#    z 0.000000 0.000000 1.830880 
# 
# From -- ./inp_files/4365.got.cif
#   From: 2010.03.12/outbox.cif.g09.slc.cpg/sg54_3_cif.got.tgz:4365.got - 2010.04.16 15:00:50.
