data_PCOD8223689
_publ_section_title
;
Structure prediction by ZEFSAII (Michael W. Deem and Ramdas Pophale) SiO2 
 PCOD8223689
Probable space group: P C C A
;
_chemical_formula_sum "Si O2"
_cell_formula_units_Z 24
_cell_length_a 4.865002
_cell_length_b 17.410362
_cell_length_c 11.462792
_cell_angle_alpha 90.000000
_cell_angle_beta 90.000000
_cell_angle_gamma 90.000000
_cell_volume 970.915057
_symmetry_space_group_name_H-M "P C C A"
_symmetry_group_IT_number 54
_symmetry_cell_setting 'orthorhombic'
loop_
_space_group_symop_operation_xyz
x,y,z
1/2-x,-y,z
1/2+x,-y,1/2-z
-x,y,1/2-z
-x,-y,-z
1/2+x,y,-z
1/2-x,y,1/2+z
x,-y,1/2+z
loop_
_atom_site_type_symbol
_atom_site_label
_atom_site_fract_x
_atom_site_fract_y
_atom_site_fract_z
Si Si1 0.305387 0.178412 0.421905
Si Si2 0.000000 0.694945 0.250000
Si Si3 0.787010 0.413037 0.421408
Si Si4 0.500000 0.050835 0.250000
O O1 0.488305 0.180450 0.539251
O O2 0.343715 0.253012 0.343382
O O3 0.373168 0.100956 0.353538
O O4 0.773744 0.642659 0.313802
O O5 0.750000 0.500000 0.376207
O O6 0.594996 0.397539 0.534371
O O7 0.250000 0.000000 0.199029
#
# Coordination Sequence:
#
# PCOD8223689 Si02
#       4
#     8   4   8   4
#     4  11  25  43  65  96 132 170 212 263 320 379
#     4  11  24  42  68  93 128 172 218 263 320 390
#     4  10  23  41  62  91 124 161 209 264 319 372
#     4  11  24  42  68  99 128 168 216 259 316 384
#
# _framework density 24.71895
#
# number of rings (size 3 to 8) (size 9 to 14) (size 15 to 20)
#    0.000    1.333    0.000    4.000    0.000   16.000 
#    0.000    0.000    0.000    0.000    0.000    0.000 
#    0.000    0.000    0.000    0.000    0.000    0.000 
#
# Total GULP energy -297830.132803 kJ/mol
# GULP energy per Si atom -12409.588867 kJ/mol
# Density = 2.466269 g / cm^3
# Si number density = 24.718950 Si / 1000 Ang^3
#
#
#
# Elastic Constant Matrix: (Units=GPa)
#
#
# Indices 1 2 3 4 5 6 
#
# 1 69.0484 18.5338 -0.4300 0.0000 0.0000 0.0000
# 2 18.5338 149.6359 51.3741 0.0000 0.0000 0.0000
# 3 -0.4300 51.3741 91.5469 0.0000 0.0000 0.0000
# 4 0.0000 0.0000 0.0000 20.7873 0.0000 0.0000
# 5 0.0000 0.0000 0.0000 0.0000 20.0179 0.0000
# 6 0.0000 0.0000 0.0000 0.0000 0.0000 32.8866
#
#
#
# Elastic Compliance Matrix: (Units=1/GPa)
#
#
# Indices 1 2 3 4 5 6 
#
# 1 0.015122 -0.002350 0.001390 0.000000 0.000000 0.000000
# 2 -0.002350 0.008643 -0.004861 0.000000 0.000000 0.000000
# 3 0.001390 -0.004861 0.013658 0.000000 0.000000 0.000000
# 4 0.000000 0.000000 0.000000 0.048106 0.000000 0.000000
# 5 0.000000 0.000000 0.000000 0.000000 0.049955 0.000000
# 6 0.000000 0.000000 0.000000 0.000000 0.000000 0.030408
#
#
# Mechanical properties :
#
#
# Convention : Reuss Voigt Hill
#
# Bulk Modulus (GPa) = 38.78999 49.90967 44.34983
# Shear Modulus (GPa) = 26.86311 30.78855 28.82583
#
# Velocity S-wave (km/s) = 3.30015 3.53306 3.41859
# Velocity P-wave (km/s) = 5.49980 6.07273 5.79335
#
# Compressibility (1/GPa) = 0.02577985
#
# Stress axis : x y z
#
# Youngs Moduli (GPa) = 66.12839 115.70056 73.21750
#
# Poissons Ratio (x) = 0.27192 -0.10177
# Poissons Ratio (y) = 0.15542 0.35593
# Poissons Ratio (z) = -0.09191 0.56245
#
# Static dielectric constant tensor:
#      x y z
#    x 4.368420 0.000000 0.000000 
#    y 0.000000 4.728030 0.000000 
#    z 0.000000 0.000000 4.229120 
# 
# 
# High freq. dielectric constant tensor:
#      x y z
#    x 1.989100 0.000000 0.000000 
#    y 0.000000 2.003750 0.000000 
#    z 0.000000 0.000000 1.979010 
# 
# From -- ./inp_files/6154.got.cif
#   From: 2010.03.12/outbox.cif.g09.slc.cpg/sg54_4_cif.got.tgz:6154.got - 2010.04.16 15:00:50.
