data_PCOD8223440
_publ_section_title
;
Structure prediction by ZEFSAII (Michael W. Deem and Ramdas Pophale) SiO2 
 PCOD8223440
Probable space group: P C C A
;
_chemical_formula_sum "Si O2"
_cell_formula_units_Z 36
_cell_length_a 21.567991
_cell_length_b 5.005134
_cell_length_c 16.292677
_cell_angle_alpha 90.000000
_cell_angle_beta 90.000000
_cell_angle_gamma 90.000000
_cell_volume 1758.805644
_symmetry_space_group_name_H-M "P C C A"
_symmetry_group_IT_number 54
_symmetry_cell_setting 'orthorhombic'
loop_
_space_group_symop_operation_xyz
x,y,z
1/2-x,-y,z
1/2+x,-y,1/2-z
-x,y,1/2-z
-x,-y,-z
1/2+x,y,-z
1/2-x,y,1/2+z
x,-y,1/2+z
loop_
_atom_site_type_symbol
_atom_site_label
_atom_site_fract_x
_atom_site_fract_y
_atom_site_fract_z
Si Si1 0.089472 0.574871 0.622025
Si Si2 0.322956 0.522752 0.264169
Si Si3 0.500000 0.202456 0.750000
Si Si4 0.884354 0.019816 0.662474
Si Si5 0.928892 0.934866 0.484049
O O1 0.150536 0.487810 0.672088
O O2 0.031307 0.600913 0.683811
O O3 0.074743 0.362740 0.551496
O O4 0.101079 0.861920 0.580823
O O5 0.250000 0.500000 0.261250
O O6 0.336459 0.816542 0.297154
O O7 0.356563 0.314188 0.324910
O O8 0.549138 0.007083 0.706615
O O9 0.889528 0.955867 0.566701
O O10 0.000000 0.000000 0.500000
#
# Coordination Sequence:
#
# PCOD8223440 Si02
#       5
#     8   8   4   8   8
#     4  11  24  39  65  93 131 166 212 253 322 375
#     4  11  25  46  66  89 124 175 224 261 297 371
#     4  10  22  38  64 100 124 176 202 268 316 386
#     4  11  24  40  68  93 131 162 215 258 324 374
#     4  12  24  39  61 100 136 161 195 263 332 390
#
# _framework density 20.468433999999998
#
# number of rings (size 3 to 8) (size 9 to 14) (size 15 to 20)
#    0.000    0.889    2.222    5.333    6.222    1.778 
#    0.000    6.667    0.000    0.000    0.000    0.000 
#    0.000    0.000    0.000    0.000    0.000    0.000 
#
# Total GULP energy -446609.021551 kJ/mol
# GULP energy per Si atom -12405.806154 kJ/mol
# Density = 2.042185 g / cm^3
# Si number density = 20.468434 Si / 1000 Ang^3
#
#
#
# Elastic Constant Matrix: (Units=GPa)
#
#
# Indices 1 2 3 4 5 6 
#
# 1 121.3442 6.8060 37.8950 0.0000 0.0000 0.0000
# 2 6.8060 71.0724 17.3301 0.0000 0.0000 0.0000
# 3 37.8950 17.3301 117.5674 0.0000 0.0000 0.0000
# 4 0.0000 0.0000 0.0000 46.5741 0.0000 0.0000
# 5 0.0000 0.0000 0.0000 0.0000 13.7941 0.0000
# 6 0.0000 0.0000 0.0000 0.0000 0.0000 21.1689
#
#
#
# Elastic Compliance Matrix: (Units=1/GPa)
#
#
# Indices 1 2 3 4 5 6 
#
# 1 0.009165 -0.000163 -0.002930 0.000000 0.000000 0.000000
# 2 -0.000163 0.014598 -0.002099 0.000000 0.000000 0.000000
# 3 -0.002930 -0.002099 0.009760 0.000000 0.000000 0.000000
# 4 0.000000 0.000000 0.000000 0.021471 0.000000 0.000000
# 5 0.000000 0.000000 0.000000 0.000000 0.072495 0.000000
# 6 0.000000 0.000000 0.000000 0.000000 0.000000 0.047239
#
#
# Mechanical properties :
#
#
# Convention : Reuss Voigt Hill
#
# Bulk Modulus (GPa) = 43.21986 48.22735 45.72361
# Shear Modulus (GPa) = 25.93023 32.83761 29.38392
#
# Velocity S-wave (km/s) = 3.56313 4.00972 3.79301
# Velocity P-wave (km/s) = 6.17164 6.71194 6.44745
#
# Compressibility (1/GPa) = 0.02313751
#
# Stress axis : x y z
#
# Youngs Moduli (GPa) = 109.10790 68.50424 102.46271
#
# Poissons Ratio (x) = 0.01118 0.30023
# Poissons Ratio (y) = 0.01781 0.21509
# Poissons Ratio (z) = 0.31970 0.14380
#
# Static dielectric constant tensor:
#      x y z
#    x 3.590050 0.000000 0.000000 
#    y 0.000000 3.816230 0.000000 
#    z 0.000000 0.000000 4.034370 
# 
# 
# High freq. dielectric constant tensor:
#      x y z
#    x 1.779670 0.000000 0.000000 
#    y 0.000000 1.814950 0.000000 
#    z 0.000000 0.000000 1.813560 
# 
# From -- ./inp_files/14430.got.cif
#   From: 2010.03.12/outbox.cif.g09.slc.cpg/sg54_8_cif.got.tgz:14430.got - 2010.04.16 15:00:50.
