data_PCOD8223893
_publ_section_title
;
Structure prediction by ZEFSAII (Michael W. Deem and Ramdas Pophale) SiO2 
 PCOD8223893
Probable space group: P C C A
;
_chemical_formula_sum "Si O2"
_cell_formula_units_Z 40
_cell_length_a 8.911875
_cell_length_b 13.148015
_cell_length_c 15.394438
_cell_angle_alpha 90.000000
_cell_angle_beta 90.000000
_cell_angle_gamma 90.000000
_cell_volume 1803.819660
_symmetry_space_group_name_H-M "P C C A"
_symmetry_group_IT_number 54
_symmetry_cell_setting 'orthorhombic'
loop_
_space_group_symop_operation_xyz
x,y,z
1/2-x,-y,z
1/2+x,-y,1/2-z
-x,y,1/2-z
-x,-y,-z
1/2+x,y,-z
1/2-x,y,1/2+z
x,-y,1/2+z
loop_
_atom_site_type_symbol
_atom_site_label
_atom_site_fract_x
_atom_site_fract_y
_atom_site_fract_z
Si Si1 0.760849 0.230135 0.612895
Si Si2 0.123733 0.429870 0.806317
Si Si3 0.589072 0.546418 0.421499
Si Si4 0.329166 0.106961 0.722647
Si Si5 0.576393 0.779123 0.443317
O O1 0.797771 0.350034 0.628129
O O2 0.763079 0.172720 0.705630
O O3 0.879516 0.186181 0.541977
O O4 0.601088 0.211827 0.568009
O O5 0.250000 0.500000 0.758359
O O6 0.000000 0.366646 0.750000
O O7 0.018954 0.519656 0.842834
O O8 0.750000 0.500000 0.410836
O O9 0.500000 0.500000 0.500000
O O10 0.623661 0.664270 0.429348
O O11 0.500000 0.091705 0.750000
O O12 0.328047 0.159022 0.628156
O O13 0.250000 0.000000 0.713415
#
# Coordination Sequence:
#
# PCOD8223893 Si02
#       5
#     8   8   8   8   8
#     4  11  25  44  69 105 136 183 233 288 355 425
#     4  12  26  40  62 100 142 191 236 281 343 428
#     4  12  23  39  64  98 143 188 232 276 343 422
#     4  10  26  49  72  99 137 180 237 306 359 419
#     4  11  24  44  71  99 144 184 233 293 353 421
#
# _framework density 22.175166000000001
#
# number of rings (size 3 to 8) (size 9 to 14) (size 15 to 20)
#    0.000    0.800    4.000    2.400    5.600    3.200 
#    0.000    4.000    0.000    0.000    0.000    0.000 
#    0.000    0.000    0.000    0.000    0.000    0.000 
#
# Total GULP energy -495543.646953 kJ/mol
# GULP energy per Si atom -12388.591174 kJ/mol
# Density = 2.212469 g / cm^3
# Si number density = 22.175166 Si / 1000 Ang^3
#
#
#
# Elastic Constant Matrix: (Units=GPa)
#
#
# Indices 1 2 3 4 5 6 
#
# 1 117.8708 42.3377 54.9626 0.0000 0.0000 0.0000
# 2 42.3377 107.9627 39.8018 0.0000 0.0000 0.0000
# 3 54.9626 39.8018 125.5618 0.0000 0.0000 0.0000
# 4 0.0000 0.0000 0.0000 29.4203 0.0000 0.0000
# 5 0.0000 0.0000 0.0000 0.0000 36.6543 0.0000
# 6 0.0000 0.0000 0.0000 0.0000 0.0000 42.0784
#
#
#
# Elastic Compliance Matrix: (Units=1/GPa)
#
#
# Indices 1 2 3 4 5 6 
#
# 1 0.011455 -0.002993 -0.004065 0.000000 0.000000 0.000000
# 2 -0.002993 0.011270 -0.002262 0.000000 0.000000 0.000000
# 3 -0.004065 -0.002262 0.010461 0.000000 0.000000 0.000000
# 4 0.000000 0.000000 0.000000 0.033990 0.000000 0.000000
# 5 0.000000 0.000000 0.000000 0.000000 0.027282 0.000000
# 6 0.000000 0.000000 0.000000 0.000000 0.000000 0.023765
#
#
# Mechanical properties :
#
#
# Convention : Reuss Voigt Hill
#
# Bulk Modulus (GPa) = 68.75628 69.51104 69.13366
# Shear Modulus (GPa) = 35.28269 35.91682 35.59975
#
# Velocity S-wave (km/s) = 3.99317 4.02890 4.01108
# Velocity P-wave (km/s) = 7.23422 7.28403 7.25917
#
# Compressibility (1/GPa) = 0.01454413
#
# Stress axis : x y z
#
# Youngs Moduli (GPa) = 87.30120 88.72880 95.59470
#
# Poissons Ratio (x) = 0.26559 0.38861
# Poissons Ratio (y) = 0.26131 0.21627
# Poissons Ratio (z) = 0.35490 0.20073
#
# Static dielectric constant tensor:
#      x y z
#    x 4.039180 0.000000 0.000000 
#    y 0.000000 3.480040 0.000000 
#    z 0.000000 0.000000 4.383120 
# 
# 
# High freq. dielectric constant tensor:
#      x y z
#    x 1.894830 0.000000 0.000000 
#    y 0.000000 1.848430 0.000000 
#    z 0.000000 0.000000 1.885310 
# 
# From -- ./inp_files/16299.got.cif
#   From: 2010.03.12/outbox.cif.g09.slc.cpg/sg54_9_cif.got.tgz:16299.got - 2010.04.16 15:00:50.
