data_PCOD8223847
_publ_section_title
;
Structure prediction by ZEFSAII (Michael W. Deem and Ramdas Pophale) SiO2 
 PCOD8223847
Probable space group: P C C A
;
_chemical_formula_sum "Si O2"
_cell_formula_units_Z 36
_cell_length_a 10.003848
_cell_length_b 16.803758
_cell_length_c 9.214817
_cell_angle_alpha 90.000000
_cell_angle_beta 90.000000
_cell_angle_gamma 90.000000
_cell_volume 1549.031387
_symmetry_space_group_name_H-M "P C C A"
_symmetry_group_IT_number 54
_symmetry_cell_setting 'orthorhombic'
loop_
_space_group_symop_operation_xyz
x,y,z
1/2-x,-y,z
1/2+x,-y,1/2-z
-x,y,1/2-z
-x,-y,-z
1/2+x,y,-z
1/2-x,y,1/2+z
x,-y,1/2+z
loop_
_atom_site_type_symbol
_atom_site_label
_atom_site_fract_x
_atom_site_fract_y
_atom_site_fract_z
Si Si1 0.690637 0.651767 0.562514
Si Si2 0.500000 0.560592 0.750000
Si Si3 0.352427 0.105574 0.246313
Si Si4 0.250000 0.000000 0.998409
Si Si5 0.347355 0.249760 0.712271
Si Si6 0.750000 0.500000 0.892751
O O1 0.549741 0.619372 0.622926
O O2 0.788782 0.678869 0.691087
O O3 0.661653 0.725081 0.455711
O O4 0.764971 0.579246 0.485900
O O5 0.617344 0.499973 0.795015
O O6 0.500000 0.145273 0.250000
O O7 0.237783 0.171048 0.237491
O O8 0.337307 0.056730 0.395362
O O9 0.347069 0.049949 0.104026
O O10 0.500000 0.230497 0.750000
#
# Coordination Sequence:
#
# PCOD8223847 Si02
#       6
#     8   4   8   4   8   4
#     4  12  27  48  75 103 146 192 248 304 368 429
#     4  12  26  48  76 106 138 192 250 310 368 436
#     4  11  25  46  76 109 146 189 236 290 357 425
#     4  10  24  46  76 110 146 184 238 290 348 430
#     4  12  29  47  72 107 149 192 243 300 363 432
#     4  12  26  48  76 106 142 190 252 306 370 430
#
# _framework density 23.240328999999999
#
# number of rings (size 3 to 8) (size 9 to 14) (size 15 to 20)
#    0.000    0.444    2.222    4.667    3.111    8.889 
#    0.000    0.000    0.000    0.000    0.000    0.000 
#    0.000    0.000    0.000    0.000    0.000    0.000 
#
# Total GULP energy -446560.134765 kJ/mol
# GULP energy per Si atom -12404.448188 kJ/mol
# Density = 2.318743 g / cm^3
# Si number density = 23.240329 Si / 1000 Ang^3
#
#
#
# Elastic Constant Matrix: (Units=GPa)
#
#
# Indices 1 2 3 4 5 6 
#
# 1 185.6354 51.6295 49.3520 0.0000 0.0000 0.0000
# 2 51.6295 109.5754 39.6622 0.0000 0.0000 0.0000
# 3 49.3520 39.6622 136.6671 0.0000 0.0000 0.0000
# 4 0.0000 0.0000 0.0000 24.5343 0.0000 0.0000
# 5 0.0000 0.0000 0.0000 0.0000 27.8877 0.0000
# 6 0.0000 0.0000 0.0000 0.0000 0.0000 33.0300
#
#
#
# Elastic Compliance Matrix: (Units=1/GPa)
#
#
# Indices 1 2 3 4 5 6 
#
# 1 0.006510 -0.002476 -0.001632 0.000000 0.000000 0.000000
# 2 -0.002476 0.011139 -0.002339 0.000000 0.000000 0.000000
# 3 -0.001632 -0.002339 0.008585 0.000000 0.000000 0.000000
# 4 0.000000 0.000000 0.000000 0.040759 0.000000 0.000000
# 5 0.000000 0.000000 0.000000 0.000000 0.035858 0.000000
# 6 0.000000 0.000000 0.000000 0.000000 0.000000 0.030276
#
#
# Mechanical properties :
#
#
# Convention : Reuss Voigt Hill
#
# Bulk Modulus (GPa) = 74.96167 79.24061 77.10114
# Shear Modulus (GPa) = 33.22979 36.50601 34.86790
#
# Velocity S-wave (km/s) = 3.78542 3.96764 3.87760
# Velocity P-wave (km/s) = 7.17153 7.42696 7.30036
#
# Compressibility (1/GPa) = 0.01334015
#
# Stress axis : x y z
#
# Youngs Moduli (GPa) = 153.62098 89.77116 116.48174
#
# Poissons Ratio (x) = 0.22231 0.19010
# Poissons Ratio (y) = 0.38043 0.27239
# Poissons Ratio (z) = 0.25071 0.20993
#
# Static dielectric constant tensor:
#      x y z
#    x 4.098120 0.000000 0.000000 
#    y 0.000000 4.099160 0.000000 
#    z 0.000000 0.000000 4.551580 
# 
# 
# High freq. dielectric constant tensor:
#      x y z
#    x 1.922610 0.000000 0.000000 
#    y 0.000000 1.919550 0.000000 
#    z 0.000000 0.000000 1.940480 
# 
# From -- ./inp_files/2514.got.cif
#   From: 2010.03.12/outbox.cif.g09.slc.cpg/sg54_2_cif.got.tgz:2514.got - 2010.04.16 15:00:50.
