data_PCOD8223730
_publ_section_title
;
Structure prediction by ZEFSAII (Michael W. Deem and Ramdas Pophale) SiO2 
 PCOD8223730
Probable space group: P C C A
;
_chemical_formula_sum "Si O2"
_cell_formula_units_Z 40
_cell_length_a 9.437478
_cell_length_b 7.862168
_cell_length_c 23.965972
_cell_angle_alpha 90.000000
_cell_angle_beta 90.000000
_cell_angle_gamma 90.000000
_cell_volume 1778.252056
_symmetry_space_group_name_H-M "P C C A"
_symmetry_group_IT_number 54
_symmetry_cell_setting 'orthorhombic'
loop_
_space_group_symop_operation_xyz
x,y,z
1/2-x,-y,z
1/2+x,-y,1/2-z
-x,y,1/2-z
-x,-y,-z
1/2+x,y,-z
1/2-x,y,1/2+z
x,-y,1/2+z
loop_
_atom_site_type_symbol
_atom_site_label
_atom_site_fract_x
_atom_site_fract_y
_atom_site_fract_z
Si Si1 0.656693 0.833523 0.684850
Si Si2 0.344843 0.360930 0.594820
Si Si3 0.824197 0.826920 0.312699
Si Si4 0.117916 0.411740 0.908439
Si Si5 0.625417 0.122918 0.006005
O O1 0.489026 0.860263 0.673769
O O2 0.693626 0.780164 0.747783
O O3 0.690977 0.672162 0.646385
O O4 0.750000 0.000000 0.668095
O O5 0.250000 0.500000 0.562786
O O6 0.256353 0.317293 0.651477
O O7 0.497158 0.449512 0.606770
O O8 0.348775 0.198612 0.555287
O O9 0.750000 0.000000 0.328323
O O10 0.250000 0.500000 0.939360
O O11 0.069867 0.264791 0.950696
O O12 0.750000 0.000000 0.028095
O O13 0.500000 0.000000 0.000000
#
# Coordination Sequence:
#
# PCOD8223730 Si02
#       5
#     8   8   8   8   8
#     4  10  23  45  69 100 139 183 237 288 343 415
#     4  12  24  44  71 103 141 181 228 290 353 418
#     4  10  23  43  72 102 134 185 241 285 339 419
#     4  12  26  44  65 102 146 181 224 294 358 408
#     4  12  26  45  72 102 135 184 240 286 342 426
#
# _framework density 22.493997
#
# number of rings (size 3 to 8) (size 9 to 14) (size 15 to 20)
#    0.000    0.800    2.000    4.800    5.600    0.800 
#    0.000    0.000    0.000    0.000    0.000    0.000 
#    0.000    0.000    0.000    0.000    0.000    0.000 
#
# Total GULP energy -495638.159805 kJ/mol
# GULP energy per Si atom -12390.953995 kJ/mol
# Density = 2.244280 g / cm^3
# Si number density = 22.493997 Si / 1000 Ang^3
#
#
#
# Elastic Constant Matrix: (Units=GPa)
#
#
# Indices 1 2 3 4 5 6 
#
# 1 154.2618 62.6801 34.0797 0.0000 0.0000 0.0000
# 2 62.6801 115.9790 48.7786 0.0000 0.0000 0.0000
# 3 34.0797 48.7786 104.5396 0.0000 0.0000 0.0000
# 4 0.0000 0.0000 0.0000 18.0974 0.0000 0.0000
# 5 0.0000 0.0000 0.0000 0.0000 27.6713 0.0000
# 6 0.0000 0.0000 0.0000 0.0000 0.0000 64.0387
#
#
#
# Elastic Compliance Matrix: (Units=1/GPa)
#
#
# Indices 1 2 3 4 5 6 
#
# 1 0.008356 -0.004193 -0.000767 0.000000 0.000000 0.000000
# 2 -0.004193 0.012832 -0.004620 0.000000 0.000000 0.000000
# 3 -0.000767 -0.004620 0.011972 0.000000 0.000000 0.000000
# 4 0.000000 0.000000 0.000000 0.055257 0.000000 0.000000
# 5 0.000000 0.000000 0.000000 0.000000 0.036139 0.000000
# 6 0.000000 0.000000 0.000000 0.000000 0.000000 0.015616
#
#
# Mechanical properties :
#
#
# Convention : Reuss Voigt Hill
#
# Bulk Modulus (GPa) = 71.44155 73.98413 72.71284
# Shear Modulus (GPa) = 30.48828 37.24428 33.86628
#
# Velocity S-wave (km/s) = 3.68556 4.07350 3.88438
# Velocity P-wave (km/s) = 7.06685 7.42203 7.24662
#
# Compressibility (1/GPa) = 0.01399746
#
# Stress axis : x y z
#
# Youngs Moduli (GPa) = 119.67789 77.93275 83.52949
#
# Poissons Ratio (x) = 0.32677 0.06411
# Poissons Ratio (y) = 0.50181 0.38593
# Poissons Ratio (z) = 0.09185 0.36008
#
# Static dielectric constant tensor:
#      x y z
#    x 4.259940 0.000000 0.000000 
#    y 0.000000 4.246540 0.000000 
#    z 0.000000 0.000000 4.219620 
# 
# 
# High freq. dielectric constant tensor:
#      x y z
#    x 1.901210 0.000000 0.000000 
#    y 0.000000 1.899540 0.000000 
#    z 0.000000 0.000000 1.887700 
# 
# From -- ./inp_files/23248.got.cif
#   From: 2010.03.12/outbox.cif.g09.slc.cpg/sg54_12_cif.got.tgz:23248.got - 2010.04.16 15:00:50.
