data_PCOD8223209
_publ_section_title
;
Structure prediction by ZEFSAII (Michael W. Deem and Ramdas Pophale) SiO2 
 PCOD8223209
Probable space group: P C C A
;
_chemical_formula_sum "Si O2"
_cell_formula_units_Z 64
_cell_length_a 23.817235
_cell_length_b 14.206200
_cell_length_c 9.383693
_cell_angle_alpha 90.000000
_cell_angle_beta 90.000000
_cell_angle_gamma 90.000000
_cell_volume 3174.995084
_symmetry_space_group_name_H-M "P C C A"
_symmetry_group_IT_number 54
_symmetry_cell_setting 'orthorhombic'
loop_
_space_group_symop_operation_xyz
x,y,z
1/2-x,-y,z
1/2+x,-y,1/2-z
-x,y,1/2-z
-x,-y,-z
1/2+x,y,-z
1/2-x,y,1/2+z
x,-y,1/2+z
loop_
_atom_site_type_symbol
_atom_site_label
_atom_site_fract_x
_atom_site_fract_y
_atom_site_fract_z
Si Si1 0.622568 0.091810 0.594690
Si Si2 0.405197 0.402455 0.917193
Si Si3 0.094803 0.597545 0.582806
Si Si4 0.806239 0.733626 0.586429
Si Si5 0.877432 0.091810 0.405311
Si Si6 0.500000 0.701385 0.912532
Si Si7 1.000000 0.891000 0.535195
Si Si8 0.693761 0.733626 0.413571
O O1 0.659197 0.176215 0.527325
O O2 0.646292 0.065951 0.750000
O O3 0.558196 0.126608 0.618006
O O4 0.628335 1.000000 0.500001
O O5 0.422263 0.414124 0.750000
O O6 0.342962 0.360435 0.930078
O O7 0.407446 0.500000 0.999999
O O8 0.446528 0.332515 0.998838
O O9 0.053472 0.667486 0.501161
O O10 0.157039 0.639565 0.569922
O O11 0.750000 0.718677 0.500000
O O12 0.790361 0.750494 0.750000
O O13 0.840803 0.176215 0.472675
O O14 0.941804 0.126609 0.381995
O O15 0.500000 0.663133 0.750000
O O16 0.500000 0.815969 0.904866
O O17 0.000000 0.000000 0.500000
#
# Coordination Sequence:
#
# PCOD8223209 Si02
#       8
#     8   8   8   8   8   8   8   8
#     4  10  21  38  61  90 124 164 204 250 306 367
#     4  11  24  44  66  92 126 163 205 256 315 373
#     4  11  24  44  66  92 126 163 205 256 315 373
#     4  10  23  42  63  88 121 163 208 258 312 363
#     4  10  21  38  61  90 124 164 204 250 306 367
#     4  12  24  40  66  99 129 165 207 249 306 371
#     4  10  21  38  60  93 132 159 200 243 303 361
#     4  10  23  42  63  88 121 163 208 258 312 363
#
# _framework density 20.157512000000001
#
# number of rings (size 3 to 8) (size 9 to 14) (size 15 to 20)
#    0.000    1.500    2.500    1.875    0.000    9.000 
#    0.000    5.000    0.000    0.000    0.000    0.000 
#    0.000    0.000    0.000    0.000    0.000    0.000 
#
# Total GULP energy -793043.065080 kJ/mol
# GULP energy per Si atom -12391.297892 kJ/mol
# Density = 2.011163 g / cm^3
# Si number density = 20.157512 Si / 1000 Ang^3
#
#
#
# Elastic Constant Matrix: (Units=GPa)
#
#
# Indices 1 2 3 4 5 6 
#
# 1 112.7804 37.6283 49.2036 0.0000 0.0000 0.0000
# 2 37.6283 129.8074 56.6289 0.0000 0.0000 0.0000
# 3 49.2036 56.6289 127.2207 0.0000 0.0000 0.0000
# 4 0.0000 0.0000 0.0000 32.5935 0.0000 0.0000
# 5 0.0000 0.0000 0.0000 0.0000 24.8906 0.0000
# 6 0.0000 0.0000 0.0000 0.0000 0.0000 23.1426
#
#
#
# Elastic Compliance Matrix: (Units=1/GPa)
#
#
# Indices 1 2 3 4 5 6 
#
# 1 0.010943 -0.001645 -0.003500 0.000000 0.000000 0.000000
# 2 -0.001645 0.009808 -0.003729 0.000000 0.000000 0.000000
# 3 -0.003500 -0.003729 0.010874 0.000000 0.000000 0.000000
# 4 0.000000 0.000000 0.000000 0.030681 0.000000 0.000000
# 5 0.000000 0.000000 0.000000 0.000000 0.040176 0.000000
# 6 0.000000 0.000000 0.000000 0.000000 0.000000 0.043210
#
#
# Mechanical properties :
#
#
# Convention : Reuss Voigt Hill
#
# Bulk Modulus (GPa) = 72.06962 72.97001 72.51982
# Shear Modulus (GPa) = 29.75042 31.21519 30.48281
#
# Velocity S-wave (km/s) = 3.84591 3.93945 3.89296
# Velocity P-wave (km/s) = 7.45334 7.54790 7.50077
#
# Compressibility (1/GPa) = 0.01387547
#
# Stress axis : x y z
#
# Youngs Moduli (GPa) = 91.38602 101.96244 91.96316
#
# Poissons Ratio (x) = 0.16775 0.32185
# Poissons Ratio (y) = 0.15035 0.34295
# Poissons Ratio (z) = 0.31983 0.38024
#
# Static dielectric constant tensor:
#      x y z
#    x 3.814630 0.000000 0.000000 
#    y 0.000000 3.764620 0.000000 
#    z 0.000000 0.000000 3.594420 
# 
# 
# High freq. dielectric constant tensor:
#      x y z
#    x 1.785290 0.000000 0.000000 
#    y 0.000000 1.798730 0.000000 
#    z 0.000000 0.000000 1.781730 
# 
# From -- ./inp_files/5310.got.cif
#   From: 2010.03.12/outbox.cif.g09.slc.cpg/sg54_3_cif.got.tgz:5310.got - 2010.04.16 15:00:50.
