data_PCOD8223451
_publ_section_title
;
Structure prediction by ZEFSAII (Michael W. Deem and Ramdas Pophale) SiO2 
 PCOD8223451
Probable space group: P C C A
;
_chemical_formula_sum "Si O2"
_cell_formula_units_Z 56
_cell_length_a 11.521184
_cell_length_b 16.694885
_cell_length_c 13.598845
_cell_angle_alpha 90.000000
_cell_angle_beta 90.000000
_cell_angle_gamma 90.000000
_cell_volume 2615.667692
_symmetry_space_group_name_H-M "P C C A"
_symmetry_group_IT_number 54
_symmetry_cell_setting 'orthorhombic'
loop_
_space_group_symop_operation_xyz
x,y,z
1/2-x,-y,z
1/2+x,-y,1/2-z
-x,y,1/2-z
-x,-y,-z
1/2+x,y,-z
1/2-x,y,1/2+z
x,-y,1/2+z
loop_
_atom_site_type_symbol
_atom_site_label
_atom_site_fract_x
_atom_site_fract_y
_atom_site_fract_z
Si Si1 0.154304 0.397709 0.334831
Si Si2 0.958781 0.960348 0.353823
Si Si3 0.338489 0.066816 0.492113
Si Si4 0.077478 0.572799 0.341403
Si Si5 0.964900 0.312295 0.998633
Si Si6 0.401533 0.266661 0.685099
Si Si7 0.192565 0.816311 0.105148
O O1 0.076832 0.476935 0.352516
O O2 0.290093 0.406924 0.319918
O O3 0.137917 0.346927 0.434141
O O4 0.109849 0.353465 0.236730
O O5 0.864678 0.890723 0.338488
O O6 0.000000 0.994299 0.250000
O O7 0.065601 0.918224 0.409917
O O8 0.904165 0.035881 0.409892
O O9 0.268971 0.148778 0.514227
O O10 0.250000 0.000000 0.452355
O O11 0.000000 0.600661 0.250000
O O12 0.026810 0.617841 0.436281
O O13 0.061169 0.274679 0.071254
O O14 0.906346 0.244869 0.930580
O O15 0.500000 0.219404 0.750000
O O16 0.277371 0.223288 0.686007
#
# Coordination Sequence:
#
# PCOD8223451 Si02
#       7
#     8   8   8   8   8   8   8
#     4  10  23  40  59  85 118 158 202 254 312 371
#     4  10  22  39  63  90 121 161 203 247 296 361
#     4   9  21  41  60  87 124 158 199 247 301 366
#     4  11  22  38  61  86 115 156 206 256 309 371
#     4  11  22  38  60  86 120 159 202 252 309 366
#     4  10  22  39  57  84 122 158 198 251 310 366
#     4  11  22  37  60  90 122 159 202 251 307 362
#
# _framework density 21.409448000000001
#
# number of rings (size 3 to 8) (size 9 to 14) (size 15 to 20)
#    0.000    1.714    0.000    4.286    0.000    6.286 
#    0.000    4.286    0.000    0.000    0.000    0.000 
#    0.000    0.000    0.000    0.000    0.000    0.000 
#
# Total GULP energy -694240.470826 kJ/mol
# GULP energy per Si atom -12397.151265 kJ/mol
# Density = 2.136072 g / cm^3
# Si number density = 21.409448 Si / 1000 Ang^3
#
#
#
# Elastic Constant Matrix: (Units=GPa)
#
#
# Indices 1 2 3 4 5 6 
#
# 1 106.1841 31.0478 40.5043 0.0000 0.0000 0.0000
# 2 31.0478 70.1333 23.0273 0.0000 0.0000 0.0000
# 3 40.5043 23.0273 94.3798 0.0000 0.0000 0.0000
# 4 0.0000 0.0000 0.0000 16.8367 0.0000 0.0000
# 5 0.0000 0.0000 0.0000 0.0000 32.7180 0.0000
# 6 0.0000 0.0000 0.0000 0.0000 0.0000 37.6199
#
#
#
# Elastic Compliance Matrix: (Units=1/GPa)
#
#
# Indices 1 2 3 4 5 6 
#
# 1 0.012216 -0.004008 -0.004265 0.000000 0.000000 0.000000
# 2 -0.004008 0.016815 -0.002383 0.000000 0.000000 0.000000
# 3 -0.004265 -0.002383 0.013007 0.000000 0.000000 0.000000
# 4 0.000000 0.000000 0.000000 0.059394 0.000000 0.000000
# 5 0.000000 0.000000 0.000000 0.000000 0.030564 0.000000
# 6 0.000000 0.000000 0.000000 0.000000 0.000000 0.026582
#
#
# Mechanical properties :
#
#
# Convention : Reuss Voigt Hill
#
# Bulk Modulus (GPa) = 48.24431 51.09511 49.66971
# Shear Modulus (GPa) = 26.76677 29.17609 27.97143
#
# Velocity S-wave (km/s) = 3.53970 3.69557 3.61847
# Velocity P-wave (km/s) = 6.26809 6.49054 6.38029
#
# Compressibility (1/GPa) = 0.02072783
#
# Stress axis : x y z
#
# Youngs Moduli (GPa) = 81.85746 59.47029 76.88061
#
# Poissons Ratio (x) = 0.23835 0.32789
# Poissons Ratio (y) = 0.32807 0.18318
# Poissons Ratio (z) = 0.34912 0.14170
#
# Static dielectric constant tensor:
#      x y z
#    x 4.176790 0.000000 0.000000 
#    y 0.000000 3.815550 0.000000 
#    z 0.000000 0.000000 3.641300 
# 
# 
# High freq. dielectric constant tensor:
#      x y z
#    x 1.863720 0.000000 0.000000 
#    y 0.000000 1.835110 0.000000 
#    z 0.000000 0.000000 1.823150 
# 
# From -- ./inp_files/12697.got.cif
#   From: 2010.03.12/outbox.cif.g09.slc.cpg/sg54_7_cif.got.tgz:12697.got - 2010.04.16 15:00:50.
