data_PCOD8223405
_publ_section_title
;
Structure prediction by ZEFSAII (Michael W. Deem and Ramdas Pophale) SiO2 
 PCOD8223405
Probable space group: P C C A
;
_chemical_formula_sum "Si O2"
_cell_formula_units_Z 64
_cell_length_a 9.496580
_cell_length_b 15.140125
_cell_length_c 24.187317
_cell_angle_alpha 90.000000
_cell_angle_beta 90.000000
_cell_angle_gamma 90.000000
_cell_volume 3477.638126
_symmetry_space_group_name_H-M "P C C A"
_symmetry_group_IT_number 54
_symmetry_cell_setting 'orthorhombic'
loop_
_space_group_symop_operation_xyz
x,y,z
1/2-x,-y,z
1/2+x,-y,1/2-z
-x,y,1/2-z
-x,-y,-z
1/2+x,y,-z
1/2-x,y,1/2+z
x,-y,1/2+z
loop_
_atom_site_type_symbol
_atom_site_label
_atom_site_fract_x
_atom_site_fract_y
_atom_site_fract_z
Si Si1 0.702042 0.798100 0.910607
Si Si2 0.468228 0.321019 0.572921
Si Si3 0.163275 0.087736 0.688464
Si Si4 0.195851 0.799414 0.906127
Si Si5 0.450268 0.305118 0.445625
Si Si6 0.162304 0.912265 0.314620
Si Si7 0.131907 0.064706 0.493356
Si Si8 0.580912 0.497712 0.057005
O O1 0.811515 0.718033 0.921431
O O2 0.731820 0.837600 0.850169
O O3 0.551504 0.752572 0.908049
O O4 0.688572 0.880081 0.953710
O O5 0.571994 0.266005 0.612748
O O6 0.509010 0.310827 0.508162
O O7 0.504045 0.422781 0.591146
O O8 0.179299 0.119605 0.751527
O O9 0.000985 0.069372 0.672001
O O10 0.250000 0.000000 0.677757
O O11 0.300787 0.744890 0.945966
O O12 0.276682 0.835618 0.853118
O O13 0.108561 0.870561 0.941986
O O14 0.444554 0.401314 0.416367
O O15 0.250000 0.000000 0.326332
O O16 0.250000 0.000000 0.472279
O O17 0.000000 0.000000 0.500000
O O18 0.750000 0.500000 0.048758
O O19 0.500000 0.500000 0.000000
#
# Coordination Sequence:
#
# PCOD8223405 Si02
#       8
#     8   8   8   8   8   8   8   8
#     4  12  23  37  56  82 115 153 190 238 287 335
#     4  11  22  36  55  85 119 149 185 233 282 352
#     4  10  23  42  58  81 113 148 200 249 286 327
#     4  12  21  37  58  82 113 153 193 235 281 340
#     4  11  20  38  56  81 120 150 186 234 276 352
#     4  10  23  40  61  82 107 153 202 245 284 330
#     4  12  24  35  50  77 119 155 188 226 281 345
#     4  10  22  35  55  82 116 155 188 226 289 344
#
# _framework density 18.403295
#
# number of rings (size 3 to 8) (size 9 to 14) (size 15 to 20)
#    0.000    1.000    5.000    2.250    8.750    0.000 
#    0.000    0.000    0.000    0.000    0.000    5.250 
#    0.000    0.000    0.000    0.000    0.000    0.000 
#
# Total GULP energy -792900.928011 kJ/mol
# GULP energy per Si atom -12389.077000 kJ/mol
# Density = 1.836141 g / cm^3
# Si number density = 18.403295 Si / 1000 Ang^3
#
#
#
# Elastic Constant Matrix: (Units=GPa)
#
#
# Indices 1 2 3 4 5 6 
#
# 1 80.2085 33.7169 10.5509 0.0000 0.0000 0.0000
# 2 33.7169 121.5082 32.5658 0.0000 0.0000 0.0000
# 3 10.5509 32.5658 60.9173 0.0000 0.0000 0.0000
# 4 0.0000 0.0000 0.0000 16.3086 0.0000 0.0000
# 5 0.0000 0.0000 0.0000 0.0000 22.1150 0.0000
# 6 0.0000 0.0000 0.0000 0.0000 0.0000 40.9617
#
#
#
# Elastic Compliance Matrix: (Units=1/GPa)
#
#
# Indices 1 2 3 4 5 6 
#
# 1 0.014123 -0.003809 -0.000410 0.000000 0.000000 0.000000
# 2 -0.003809 0.010634 -0.005025 0.000000 0.000000 0.000000
# 3 -0.000410 -0.005025 0.019173 0.000000 0.000000 0.000000
# 4 0.000000 0.000000 0.000000 0.061317 0.000000 0.000000
# 5 0.000000 0.000000 0.000000 0.000000 0.045218 0.000000
# 6 0.000000 0.000000 0.000000 0.000000 0.000000 0.024413
#
#
# Mechanical properties :
#
#
# Convention : Reuss Voigt Hill
#
# Bulk Modulus (GPa) = 39.30544 46.25568 42.78056
# Shear Modulus (GPa) = 24.77139 28.26375 26.51757
#
# Velocity S-wave (km/s) = 3.67281 3.92318 3.80006
# Velocity P-wave (km/s) = 6.27616 6.76098 6.52307
#
# Compressibility (1/GPa) = 0.02544177
#
# Stress axis : x y z
#
# Youngs Moduli (GPa) = 70.80855 94.04164 52.15683
#
# Poissons Ratio (x) = 0.35821 0.02137
# Poissons Ratio (y) = 0.26971 0.26208
# Poissons Ratio (z) = 0.02901 0.47255
#
# Static dielectric constant tensor:
#      x y z
#    x 3.518140 0.000000 0.000000 
#    y 0.000000 4.048880 0.000000 
#    z 0.000000 0.000000 3.042040 
# 
# 
# High freq. dielectric constant tensor:
#      x y z
#    x 1.733200 0.000000 0.000000 
#    y 0.000000 1.725760 0.000000 
#    z 0.000000 0.000000 1.664760 
# 
# From -- ./inp_files/23685.got.cif
#   From: 2010.03.12/outbox.cif.g09.slc.cpg/sg54_12_cif.got.tgz:23685.got - 2010.04.16 15:00:50.
