data_PCOD8223511
_publ_section_title
;
Structure prediction by ZEFSAII (Michael W. Deem and Ramdas Pophale) SiO2 
 PCOD8223511
Probable space group: P C C A
;
_chemical_formula_sum "Si O2"
_cell_formula_units_Z 40
_cell_length_a 9.395993
_cell_length_b 11.200021
_cell_length_c 17.032283
_cell_angle_alpha 90.000000
_cell_angle_beta 90.000000
_cell_angle_gamma 90.000000
_cell_volume 1792.397733
_symmetry_space_group_name_H-M "P C C A"
_symmetry_group_IT_number 54
_symmetry_cell_setting 'orthorhombic'
loop_
_space_group_symop_operation_xyz
x,y,z
1/2-x,-y,z
1/2+x,-y,1/2-z
-x,y,1/2-z
-x,-y,-z
1/2+x,y,-z
1/2-x,y,1/2+z
x,-y,1/2+z
loop_
_atom_site_type_symbol
_atom_site_label
_atom_site_fract_x
_atom_site_fract_y
_atom_site_fract_z
Si Si1 0.301169 0.166446 0.595633
Si Si2 0.033132 0.056304 0.659563
Si Si3 0.402686 0.461520 0.430057
Si Si4 0.027757 0.679790 0.839669
Si Si5 0.199499 0.207408 0.916760
O O1 0.158612 0.154632 0.648411
O O2 0.382054 0.289550 0.614313
O O3 0.257327 0.168505 0.504467
O O4 0.413170 0.061264 0.614697
O O5 0.000000 0.029403 0.750000
O O6 0.884493 0.098009 0.622066
O O7 0.250000 0.500000 0.460839
O O8 0.500000 0.500000 0.500000
O O9 0.440972 0.539268 0.352466
O O10 0.408245 0.320753 0.413083
O O11 0.157484 0.762784 0.869215
O O12 0.000000 0.708486 0.750000
#
# Coordination Sequence:
#
# PCOD8223511 Si02
#       5
#     8   8   8   8   8
#     4  11  23  42  67  96 132 180 227 274 340 402
#     4  11  25  42  63  99 137 174 222 281 343 400
#     4  10  22  40  65  96 131 175 222 275 332 401
#     4  11  23  41  67  99 136 178 222 281 341 395
#     4  11  23  42  69  98 134 175 234 269 334 413
#
# _framework density 22.316475000000001
#
# number of rings (size 3 to 8) (size 9 to 14) (size 15 to 20)
#    0.000    1.200    2.000    3.600    2.800    4.800 
#    0.000    5.000    0.000    0.000    0.000    0.000 
#    0.000    0.000    0.000    0.000    0.000    0.000 
#
# Total GULP energy -496013.454497 kJ/mol
# GULP energy per Si atom -12400.336362 kJ/mol
# Density = 2.226568 g / cm^3
# Si number density = 22.316475 Si / 1000 Ang^3
#
#
#
# Elastic Constant Matrix: (Units=GPa)
#
#
# Indices 1 2 3 4 5 6 
#
# 1 85.4120 28.1068 55.7266 0.0000 0.0000 0.0000
# 2 28.1068 63.1729 35.4438 0.0000 0.0000 0.0000
# 3 55.7266 35.4438 166.2641 0.0000 0.0000 0.0000
# 4 0.0000 0.0000 0.0000 31.6643 0.0000 0.0000
# 5 0.0000 0.0000 0.0000 0.0000 48.0805 0.0000
# 6 0.0000 0.0000 0.0000 0.0000 0.0000 36.9551
#
#
#
# Elastic Compliance Matrix: (Units=1/GPa)
#
#
# Indices 1 2 3 4 5 6 
#
# 1 0.016129 -0.004706 -0.004403 0.000000 0.000000 0.000000
# 2 -0.004706 0.019353 -0.002548 0.000000 0.000000 0.000000
# 3 -0.004403 -0.002548 0.008033 0.000000 0.000000 0.000000
# 4 0.000000 0.000000 0.000000 0.031581 0.000000 0.000000
# 5 0.000000 0.000000 0.000000 0.000000 0.020798 0.000000
# 6 0.000000 0.000000 0.000000 0.000000 0.000000 0.027060
#
#
# Mechanical properties :
#
#
# Convention : Reuss Voigt Hill
#
# Bulk Modulus (GPa) = 49.50118 61.48928 55.49523
# Shear Modulus (GPa) = 32.67902 36.37808 34.52855
#
# Velocity S-wave (km/s) = 3.83083 4.04183 3.93774
# Velocity P-wave (km/s) = 6.46503 7.02816 6.75246
#
# Compressibility (1/GPa) = 0.02020154
#
# Stress axis : x y z
#
# Youngs Moduli (GPa) = 61.99966 51.67128 124.47926
#
# Poissons Ratio (x) = 0.24316 0.54806
# Poissons Ratio (y) = 0.29176 0.31722
# Poissons Ratio (z) = 0.27297 0.13168
#
# Static dielectric constant tensor:
#      x y z
#    x 4.250890 0.000000 0.000000 
#    y 0.000000 4.424460 0.000000 
#    z 0.000000 0.000000 3.916050 
# 
# 
# High freq. dielectric constant tensor:
#      x y z
#    x 1.892890 0.000000 0.000000 
#    y 0.000000 1.881300 0.000000 
#    z 0.000000 0.000000 1.873250 
# 
# From -- ./inp_files/11472.got.cif
#   From: 2010.03.12/outbox.cif.g09.slc.cpg/sg54_6_cif.got.tgz:11472.got - 2010.04.16 15:00:50.
