data_PCOD8223111
_publ_section_title
;
Structure prediction by ZEFSAII (Michael W. Deem and Ramdas Pophale) SiO2 
 PCOD8223111
Probable space group: P C C A
;
_chemical_formula_sum "Si O2"
_cell_formula_units_Z 52
_cell_length_a 8.036813
_cell_length_b 15.168146
_cell_length_c 20.321724
_cell_angle_alpha 90.000000
_cell_angle_beta 90.000000
_cell_angle_gamma 90.000000
_cell_volume 2477.290358
_symmetry_space_group_name_H-M "P C C A"
_symmetry_group_IT_number 54
_symmetry_cell_setting 'orthorhombic'
loop_
_space_group_symop_operation_xyz
x,y,z
1/2-x,-y,z
1/2+x,-y,1/2-z
-x,y,1/2-z
-x,-y,-z
1/2+x,y,-z
1/2-x,y,1/2+z
x,-y,1/2+z
loop_
_atom_site_type_symbol
_atom_site_label
_atom_site_fract_x
_atom_site_fract_y
_atom_site_fract_z
Si Si1 0.850482 0.673267 0.202105
Si Si2 0.189879 0.403726 0.933183
Si Si3 0.475613 0.179629 0.120641
Si Si4 0.553502 0.004368 0.925547
Si Si5 0.101341 0.812205 0.625193
Si Si6 0.000000 0.280328 0.250000
Si Si7 0.970854 0.292037 0.008996
O O1 0.843033 0.600071 0.144806
O O2 0.676048 0.667178 0.243101
O O3 0.000000 0.645288 0.250000
O O4 0.896863 0.768083 0.168022
O O5 0.250000 0.500000 0.952857
O O6 0.303956 0.319271 0.952738
O O7 0.026277 0.384742 0.976129
O O8 0.290237 0.179460 0.151340
O O9 0.532237 0.077322 0.113605
O O10 0.454063 0.218751 0.047383
O O11 0.505248 0.097645 0.893698
O O12 0.750000 0.000000 0.921996
O O13 0.500000 0.000000 0.000000
O O14 0.993508 0.777125 0.684887
O O15 0.098026 0.744809 0.563768
#
# Coordination Sequence:
#
# PCOD8223111 Si02
#       7
#     8   8   8   8   8   4   8
#     4  11  24  44  69  88 127 177 219 263 324 394
#     4  11  24  41  64 100 128 158 211 275 337 391
#     4  10  21  39  62  92 127 168 209 266 318 374
#     4  10  21  34  58  93 131 160 212 263 315 372
#     4  11  21  38  60  94 130 172 213 260 314 381
#     4  12  24  42  66  92 126 176 228 254 314 398
#     4  11  20  37  67  91 126 164 204 264 330 386
#
# _framework density 20.990676000000001
#
# number of rings (size 3 to 8) (size 9 to 14) (size 15 to 20)
#    0.000    1.231    6.154    0.462    0.000    1.231 
#    2.769    0.000    0.000    0.000    0.000    0.000 
#    0.000    0.000    0.000    0.000    0.000    0.000 
#
# Total GULP energy -644427.581303 kJ/mol
# GULP energy per Si atom -12392.838102 kJ/mol
# Density = 2.094290 g / cm^3
# Si number density = 20.990676 Si / 1000 Ang^3
#
#
#
# Elastic Constant Matrix: (Units=GPa)
#
#
# Indices 1 2 3 4 5 6 
#
# 1 78.7821 5.3947 22.6048 0.0000 0.0000 0.0000
# 2 5.3947 83.4237 20.0988 0.0000 0.0000 0.0000
# 3 22.6048 20.0988 93.6555 0.0000 0.0000 0.0000
# 4 0.0000 0.0000 0.0000 16.2595 0.0000 0.0000
# 5 0.0000 0.0000 0.0000 0.0000 39.0142 0.0000
# 6 0.0000 0.0000 0.0000 0.0000 0.0000 19.5570
#
#
#
# Elastic Compliance Matrix: (Units=1/GPa)
#
#
# Indices 1 2 3 4 5 6 
#
# 1 0.013638 -0.000094 -0.003272 0.000000 0.000000 0.000000
# 2 -0.000094 0.012641 -0.002690 0.000000 0.000000 0.000000
# 3 -0.003272 -0.002690 0.012044 0.000000 0.000000 0.000000
# 4 0.000000 0.000000 0.000000 0.061503 0.000000 0.000000
# 5 0.000000 0.000000 0.000000 0.000000 0.025632 0.000000
# 6 0.000000 0.000000 0.000000 0.000000 0.000000 0.051133
#
#
# Mechanical properties :
#
#
# Convention : Reuss Voigt Hill
#
# Bulk Modulus (GPa) = 38.14934 39.11756 38.63345
# Shear Modulus (GPa) = 25.32418 28.81700 27.07059
#
# Velocity S-wave (km/s) = 3.47717 3.70922 3.59506
# Velocity P-wave (km/s) = 5.85959 6.08445 5.97308
#
# Compressibility (1/GPa) = 0.02621277
#
# Stress axis : x y z
#
# Youngs Moduli (GPa) = 73.32249 79.10637 83.02606
#
# Poissons Ratio (x) = 0.00741 0.27163
# Poissons Ratio (y) = 0.00687 0.22336
# Poissons Ratio (z) = 0.23989 0.21281
#
# Static dielectric constant tensor:
#      x y z
#    x 3.635500 0.000000 0.000000 
#    y 0.000000 3.744210 0.000000 
#    z 0.000000 0.000000 3.758000 
# 
# 
# High freq. dielectric constant tensor:
#      x y z
#    x 1.824920 0.000000 0.000000 
#    y 0.000000 1.803880 0.000000 
#    z 0.000000 0.000000 1.822130 
# 
# From -- ./inp_files/20484.got.cif
#   From: 2010.03.12/outbox.cif.g09.slc.cpg/sg54_11_cif.got.tgz:20484.got - 2010.04.16 15:00:50.
