data_PCOD8223379
_publ_section_title
;
Structure prediction by ZEFSAII (Michael W. Deem and Ramdas Pophale) SiO2 
 PCOD8223379
Probable space group: P C C A
;
_chemical_formula_sum "Si O2"
_cell_formula_units_Z 56
_cell_length_a 14.678401
_cell_length_b 5.538071
_cell_length_c 31.775451
_cell_angle_alpha 90.000000
_cell_angle_beta 90.000000
_cell_angle_gamma 90.000000
_cell_volume 2583.027267
_symmetry_space_group_name_H-M "P C C A"
_symmetry_group_IT_number 54
_symmetry_cell_setting 'orthorhombic'
loop_
_space_group_symop_operation_xyz
x,y,z
1/2-x,-y,z
1/2+x,-y,1/2-z
-x,y,1/2-z
-x,-y,-z
1/2+x,y,-z
1/2-x,y,1/2+z
x,-y,1/2+z
loop_
_atom_site_type_symbol
_atom_site_label
_atom_site_fract_x
_atom_site_fract_y
_atom_site_fract_z
Si Si1 0.507317 0.156725 0.865263
Si Si2 0.417018 0.208879 0.074951
Si Si3 0.998567 0.222713 0.700374
Si Si4 0.646186 0.532426 0.642738
Si Si5 0.909017 0.410801 0.554360
Si Si6 0.148211 0.927043 0.986190
Si Si7 0.649017 0.534836 0.849987
O O1 0.410621 0.291027 0.868003
O O2 0.601638 0.300669 0.869326
O O3 0.508699 0.972744 0.904242
O O4 0.510353 0.041045 0.818801
O O5 0.482010 0.440337 0.063453
O O6 0.344762 0.275503 0.111365
O O7 0.361904 0.103052 0.036154
O O8 0.085648 0.382083 0.688272
O O9 0.000000 0.205796 0.750000
O O10 0.905361 0.328397 0.680278
O O11 0.750000 0.500000 0.658228
O O12 0.647246 0.660128 0.596873
O O13 0.875313 0.664537 0.534299
O O14 0.909039 0.167523 0.525395
O O15 0.250000 0.000000 0.974306
O O16 0.750000 0.500000 0.831944
#
# Coordination Sequence:
#
# PCOD8223379 Si02
#       7
#     8   8   8   8   8   8   8
#     4  10  21  43  66  97 133 178 223 283 358 413
#     4  11  24  41  66  95 135 185 233 286 350 418
#     4  10  23  44  67 100 135 171 226 284 356 430
#     4  11  23  42  69  97 134 179 229 277 351 420
#     4  12  24  46  64  98 141 191 234 295 348 414
#     4  12  28  41  65 103 141 187 246 297 346 409
#     4  10  23  41  70  99 136 178 232 284 352 422
#
# _framework density 21.679986
#
# number of rings (size 3 to 8) (size 9 to 14) (size 15 to 20)
#    0.000    1.143    4.286    3.000    4.000    5.143 
#    0.000    1.429    0.000    0.000    0.000    0.000 
#    0.000    0.000    0.000    0.000    0.000    0.000 
#
# Total GULP energy -693783.683059 kJ/mol
# GULP energy per Si atom -12388.994340 kJ/mol
# Density = 2.163064 g / cm^3
# Si number density = 21.679986 Si / 1000 Ang^3
#
#
#
# Elastic Constant Matrix: (Units=GPa)
#
#
# Indices 1 2 3 4 5 6 
#
# 1 138.2090 27.3517 14.0975 0.0000 0.0000 0.0000
# 2 27.3517 100.9834 29.0607 0.0000 0.0000 0.0000
# 3 14.0975 29.0607 134.5835 0.0000 0.0000 0.0000
# 4 0.0000 0.0000 0.0000 13.1313 0.0000 0.0000
# 5 0.0000 0.0000 0.0000 0.0000 18.4949 0.0000
# 6 0.0000 0.0000 0.0000 0.0000 0.0000 17.0986
#
#
#
# Elastic Compliance Matrix: (Units=1/GPa)
#
#
# Indices 1 2 3 4 5 6 
#
# 1 0.007663 -0.001967 -0.000378 0.000000 0.000000 0.000000
# 2 -0.001967 0.011064 -0.002183 0.000000 0.000000 0.000000
# 3 -0.000378 -0.002183 0.007941 0.000000 0.000000 0.000000
# 4 0.000000 0.000000 0.000000 0.076154 0.000000 0.000000
# 5 0.000000 0.000000 0.000000 0.000000 0.054069 0.000000
# 6 0.000000 0.000000 0.000000 0.000000 0.000000 0.058484
#
#
# Mechanical properties :
#
#
# Convention : Reuss Voigt Hill
#
# Bulk Modulus (GPa) = 56.77789 57.19953 56.98871
# Shear Modulus (GPa) = 21.71066 29.96270 25.83668
#
# Velocity S-wave (km/s) = 3.16795 3.72162 3.45589
# Velocity P-wave (km/s) = 6.29501 6.70135 6.50135
#
# Compressibility (1/GPa) = 0.01761249
#
# Stress axis : x y z
#
# Youngs Moduli (GPa) = 130.49360 90.38705 125.92415
#
# Poissons Ratio (x) = 0.17778 0.04760
# Poissons Ratio (y) = 0.25666 0.27488
# Poissons Ratio (z) = 0.04933 0.19731
#
# Static dielectric constant tensor:
#      x y z
#    x 3.781550 0.000000 0.000000 
#    y 0.000000 4.153390 0.000000 
#    z 0.000000 0.000000 3.722960 
# 
# 
# High freq. dielectric constant tensor:
#      x y z
#    x 1.846510 0.000000 0.000000 
#    y 0.000000 1.857620 0.000000 
#    z 0.000000 0.000000 1.844040 
# 
# From -- ./inp_files/28256.got.cif
#   From: 2010.03.12/outbox.cif.g09.slc.cpg/sg54_15_cif.got.tgz:28256.got - 2010.04.16 15:00:50.
