data_PCOD8223351
_publ_section_title
;
Structure prediction by ZEFSAII (Michael W. Deem and Ramdas Pophale) SiO2 
 PCOD8223351
Probable space group: P C C A
;
_chemical_formula_sum "Si O2"
_cell_formula_units_Z 36
_cell_length_a 5.052139
_cell_length_b 24.392299
_cell_length_c 12.489348
_cell_angle_alpha 90.000000
_cell_angle_beta 90.000000
_cell_angle_gamma 90.000000
_cell_volume 1539.103383
_symmetry_space_group_name_H-M "P C C A"
_symmetry_group_IT_number 54
_symmetry_cell_setting 'orthorhombic'
loop_
_space_group_symop_operation_xyz
x,y,z
1/2-x,-y,z
1/2+x,-y,1/2-z
-x,y,1/2-z
-x,-y,-z
1/2+x,y,-z
1/2-x,y,1/2+z
x,-y,1/2+z
loop_
_atom_site_type_symbol
_atom_site_label
_atom_site_fract_x
_atom_site_fract_y
_atom_site_fract_z
Si Si1 0.250000 0.500000 0.312666
Si Si2 0.772333 0.119051 0.923068
Si Si3 0.000000 0.195753 0.750000
Si Si4 0.250000 0.000000 0.073151
Si Si5 0.595094 0.392224 0.064482
Si Si6 0.198923 0.726254 0.425748
O O1 0.500000 0.523363 0.250000
O O2 0.148179 0.552160 0.375272
O O3 0.764030 0.058355 0.865116
O O4 0.802039 0.159872 0.823247
O O5 0.505338 0.128525 0.990324
O O6 0.182417 0.232510 0.826731
O O7 0.500000 0.000000 0.000000
O O8 0.668901 0.335315 0.124292
O O9 0.282434 0.392610 0.040361
O O10 0.478964 0.736099 0.482796
#
# Coordination Sequence:
#
# PCOD8223351 Si02
#       6
#     4   8   4   4   8   8
#     4  12  24  36  62  98 126 152 206 270 314 378
#     4  10  22  40  63  92 128 165 212 258 314 376
#     4  12  24  40  68  96 130 172 212 270 318 378
#     4   8  16  36  60  84 120 162 196 254 308 360
#     4  10  21  42  63  84 121 169 206 253 318 384
#     4  10  24  43  63  92 128 168 217 263 317 382
#
# _framework density 23.390241
#
# number of rings (size 3 to 8) (size 9 to 14) (size 15 to 20)
#    0.000    1.778    0.000    3.333    1.556    3.556 
#    0.000    6.667    0.000    0.000    0.000    0.000 
#    0.000    0.000    0.000    0.000    0.000    0.000 
#
# Total GULP energy -445974.887383 kJ/mol
# GULP energy per Si atom -12388.191316 kJ/mol
# Density = 2.333700 g / cm^3
# Si number density = 23.390241 Si / 1000 Ang^3
#
#
#
# Elastic Constant Matrix: (Units=GPa)
#
#
# Indices 1 2 3 4 5 6 
#
# 1 92.7655 3.8456 -0.9179 0.0000 0.0000 0.0000
# 2 3.8456 191.5918 64.8718 0.0000 0.0000 0.0000
# 3 -0.9179 64.8718 65.2625 0.0000 0.0000 0.0000
# 4 0.0000 0.0000 0.0000 -69.0873 0.0000 0.0000
# 5 0.0000 0.0000 0.0000 0.0000 13.6169 0.0000
# 6 0.0000 0.0000 0.0000 0.0000 0.0000 31.1276
#
#
#
# Elastic Compliance Matrix: (Units=1/GPa)
#
#
# Indices 1 2 3 4 5 6 
#
# 1 0.010802 -0.000404 0.000554 0.000000 0.000000 0.000000
# 2 -0.000404 0.007882 -0.007841 0.000000 0.000000 0.000000
# 3 0.000554 -0.007841 0.023125 0.000000 0.000000 0.000000
# 4 0.000000 0.000000 0.000000 -0.014474 0.000000 0.000000
# 5 0.000000 0.000000 0.000000 0.000000 0.073438 0.000000
# 6 0.000000 0.000000 0.000000 0.000000 0.000000 0.032126
#
#
# Mechanical properties :
#
#
# Convention : Reuss Voigt Hill
#
# Bulk Modulus (GPa) = 37.84119 53.91320 45.87720
# Shear Modulus (GPa) = 31.82879 13.91944 22.87412
#
# Velocity S-wave (km/s) = 3.69287 2.44211 3.13059
# Velocity P-wave (km/s) = 5.86484 5.57237 5.72047
#
# Compressibility (1/GPa) = 0.02642623
#
# Stress axis : x y z
#
# Youngs Moduli (GPa) = 92.57451 126.86417 43.24408
#
# Poissons Ratio (x) = 0.05130 -0.02395
# Poissons Ratio (y) = 0.03743 0.33907
# Poissons Ratio (z) = -0.05127 0.99474
#
# Static dielectric constant tensor:
#      x y z
#    x 4.325040 0.000000 0.000000 
#    y 0.000000 5.175140 0.000000 
#    z 0.000000 0.000000 3.790950 
# 
# 
# High freq. dielectric constant tensor:
#      x y z
#    x 1.944240 0.000000 0.000000 
#    y 0.000000 1.966260 0.000000 
#    z 0.000000 0.000000 1.879140 
# 
# From -- ./inp_files/6396.got.cif
#   From: 2010.03.12/outbox.cif.g09.slc.cpg/sg54_4_cif.got.tgz:6396.got - 2010.04.16 15:00:50.
