data_PCOD8223956
_publ_section_title
;
Structure prediction by ZEFSAII (Michael W. Deem and Ramdas Pophale) SiO2 
 PCOD8223956
Probable space group: P C C A
;
_chemical_formula_sum "Si O2"
_cell_formula_units_Z 40
_cell_length_a 7.975815
_cell_length_b 8.682744
_cell_length_c 22.897381
_cell_angle_alpha 90.000000
_cell_angle_beta 90.000000
_cell_angle_gamma 90.000000
_cell_volume 1585.688509
_symmetry_space_group_name_H-M "P C C A"
_symmetry_group_IT_number 54
_symmetry_cell_setting 'orthorhombic'
loop_
_space_group_symop_operation_xyz
x,y,z
1/2-x,-y,z
1/2+x,-y,1/2-z
-x,y,1/2-z
-x,-y,-z
1/2+x,y,-z
1/2-x,y,1/2+z
x,-y,1/2+z
loop_
_atom_site_type_symbol
_atom_site_label
_atom_site_fract_x
_atom_site_fract_y
_atom_site_fract_z
Si Si1 0.860029 0.359769 0.710696
Si Si2 0.914441 0.604921 0.087796
Si Si3 0.724380 0.819092 0.013508
Si Si4 0.650409 0.853674 0.292361
Si Si5 0.408112 0.698277 0.085057
O O1 0.750000 0.500000 0.689579
O O2 0.931462 0.299402 0.648823
O O3 0.776177 0.230068 0.748767
O O4 0.000000 0.439926 0.750000
O O5 0.750000 0.500000 0.082041
O O6 0.895975 0.738234 0.039122
O O7 0.072440 0.487848 0.080525
O O8 0.564550 0.782139 0.053102
O O9 0.750000 0.000000 0.012301
O O10 0.732490 0.751619 0.946451
O O11 0.500000 0.905614 0.250000
O O12 0.591264 0.748050 0.346682
O O13 0.750000 0.000000 0.317772
#
# Coordination Sequence:
#
# PCOD8223956 Si02
#       5
#     8   8   8   8   8
#     4  11  22  40  66  98 133 176 227 286 352 424
#     4   9  20  39  64  91 130 179 225 282 345 418
#     4  11  23  40  65  95 133 178 230 287 347 420
#     4  12  26  45  68  98 136 180 233 297 366 438
#     4  11  24  44  66  96 137 181 230 286 353 434
#
# _framework density 25.225635
#
# number of rings (size 3 to 8) (size 9 to 14) (size 15 to 20)
#    0.000    1.200    0.000    7.800    0.000    6.400 
#    0.000    5.000    0.000    0.000    0.000    0.000 
#    0.000    0.000    0.000    0.000    0.000    0.000 
#
# Total GULP energy -495653.418691 kJ/mol
# GULP energy per Si atom -12391.335467 kJ/mol
# Density = 2.516822 g / cm^3
# Si number density = 25.225635 Si / 1000 Ang^3
#
#
#
# Elastic Constant Matrix: (Units=GPa)
#
#
# Indices 1 2 3 4 5 6 
#
# 1 37.3327 12.8657 16.6816 0.0000 0.0000 0.0000
# 2 12.8657 153.6491 56.8295 0.0000 0.0000 0.0000
# 3 16.6816 56.8295 156.5671 0.0000 0.0000 0.0000
# 4 0.0000 0.0000 0.0000 61.0899 0.0000 0.0000
# 5 0.0000 0.0000 0.0000 0.0000 30.4710 0.0000
# 6 0.0000 0.0000 0.0000 0.0000 0.0000 10.6709
#
#
#
# Elastic Compliance Matrix: (Units=1/GPa)
#
#
# Indices 1 2 3 4 5 6 
#
# 1 0.028404 -0.001454 -0.002498 0.000000 0.000000 0.000000
# 2 -0.001454 0.007592 -0.002601 0.000000 0.000000 0.000000
# 3 -0.002498 -0.002601 0.007597 0.000000 0.000000 0.000000
# 4 0.000000 0.000000 0.000000 0.016369 0.000000 0.000000
# 5 0.000000 0.000000 0.000000 0.000000 0.032818 0.000000
# 6 0.000000 0.000000 0.000000 0.000000 0.000000 0.093713
#
#
# Mechanical properties :
#
#
# Convention : Reuss Voigt Hill
#
# Bulk Modulus (GPa) = 32.80188 57.81139 45.30664
# Shear Modulus (GPa) = 23.83654 37.85784 30.84719
#
# Velocity S-wave (km/s) = 3.07731 3.87818 3.50072
# Velocity P-wave (km/s) = 5.06538 6.55905 5.86000
#
# Compressibility (1/GPa) = 0.03048606
#
# Stress axis : x y z
#
# Youngs Moduli (GPa) = 35.20665 131.71698 131.62685
#
# Poissons Ratio (x) = 0.19155 0.32886
# Poissons Ratio (y) = 0.05120 0.34233
# Poissons Ratio (z) = 0.08796 0.34256
#
# Static dielectric constant tensor:
#      x y z
#    x 8.012650 0.000000 0.000000 
#    y 0.000000 4.635530 0.000000 
#    z 0.000000 0.000000 5.305920 
# 
# 
# High freq. dielectric constant tensor:
#      x y z
#    x 2.013810 0.000000 0.000000 
#    y 0.000000 1.992660 0.000000 
#    z 0.000000 0.000000 2.031650 
# 
# From -- ./inp_files/23240.got.cif
#   From: 2010.03.12/outbox.cif.g09.slc.cpg/sg54_12_cif.got.tgz:23240.got - 2010.04.16 15:00:50.
