data_PCOD8223432
_publ_section_title
;
Structure prediction by ZEFSAII (Michael W. Deem and Ramdas Pophale) SiO2 
 PCOD8223432
Probable space group: P C C A
;
_chemical_formula_sum "Si O2"
_cell_formula_units_Z 56
_cell_length_a 12.957721
_cell_length_b 10.800049
_cell_length_c 21.156433
_cell_angle_alpha 90.000000
_cell_angle_beta 90.000000
_cell_angle_gamma 90.000000
_cell_volume 2960.716319
_symmetry_space_group_name_H-M "P C C A"
_symmetry_group_IT_number 54
_symmetry_cell_setting 'orthorhombic'
loop_
_space_group_symop_operation_xyz
x,y,z
1/2-x,-y,z
1/2+x,-y,1/2-z
-x,y,1/2-z
-x,-y,-z
1/2+x,y,-z
1/2-x,y,1/2+z
x,-y,1/2+z
loop_
_atom_site_type_symbol
_atom_site_label
_atom_site_fract_x
_atom_site_fract_y
_atom_site_fract_z
Si Si1 0.750000 0.500000 0.410537
Si Si2 0.960567 0.987191 0.645848
Si Si3 0.345502 0.288365 0.155631
Si Si4 0.666806 0.278039 0.992488
Si Si5 0.319520 0.883002 0.442845
Si Si6 0.475162 0.824000 0.546318
Si Si7 0.823010 0.882125 0.872509
Si Si8 0.500000 0.172340 0.250000
O O1 0.829235 0.567757 0.362120
O O2 0.810161 0.405774 0.456446
O O3 0.864551 0.894118 0.630023
O O4 0.067945 0.916124 0.660270
O O5 0.936603 0.082117 0.702994
O O6 0.964700 0.067665 0.582005
O O7 0.386285 0.228180 0.091198
O O8 0.234509 0.223483 0.169319
O O9 0.422209 0.264827 0.213830
O O10 0.658123 0.165189 0.943198
O O11 0.754454 0.243564 0.044939
O O12 0.556046 0.284926 0.027413
O O13 0.421180 0.880885 0.485628
O O14 0.250000 0.000000 0.459968
O O15 0.750000 0.000000 0.875250
#
# Coordination Sequence:
#
# PCOD8223432 Si02
#       8
#     4   8   8   8   8   8   8   4
#     4  10  22  40  60  82 114 162 206 248 292 348
#     4  11  21  33  54  85 121 155 182 233 300 362
#     4  10  22  38  60  86 113 156 210 245 282 343
#     4  11  21  33  54  87 124 152 192 235 298 369
#     4  12  20  31  54  89 128 153 176 232 319 378
#     4  11  19  31  55  86 118 153 180 232 302 365
#     4  11  17  31  55  84 115 147 185 228 293 367
#     4  10  22  40  56  82 114 150 206 248 284 348
#
# _framework density 18.914342000000001
#
# number of rings (size 3 to 8) (size 9 to 14) (size 15 to 20)
#    0.000    1.143    8.571    1.714    0.000    0.571 
#    2.571    0.000    0.000    8.571    0.000    0.000 
#    0.000    0.000    0.000    0.000    0.000    0.000 
#
# Total GULP energy -693935.787729 kJ/mol
# GULP energy per Si atom -12391.710495 kJ/mol
# Density = 1.887129 g / cm^3
# Si number density = 18.914342 Si / 1000 Ang^3
#
#
#
# Elastic Constant Matrix: (Units=GPa)
#
#
# Indices 1 2 3 4 5 6 
#
# 1 94.0602 48.5037 47.8039 0.0000 0.0000 0.0000
# 2 48.5037 98.1549 37.4073 0.0000 0.0000 0.0000
# 3 47.8039 37.4073 68.9872 0.0000 0.0000 0.0000
# 4 0.0000 0.0000 0.0000 26.7625 0.0000 0.0000
# 5 0.0000 0.0000 0.0000 0.0000 25.9923 0.0000
# 6 0.0000 0.0000 0.0000 0.0000 0.0000 26.3944
#
#
#
# Elastic Compliance Matrix: (Units=1/GPa)
#
#
# Indices 1 2 3 4 5 6 
#
# 1 0.018387 -0.005332 -0.009850 0.000000 0.000000 0.000000
# 2 -0.005332 0.014388 -0.004107 0.000000 0.000000 0.000000
# 3 -0.009850 -0.004107 0.023548 0.000000 0.000000 0.000000
# 4 0.000000 0.000000 0.000000 0.037366 0.000000 0.000000
# 5 0.000000 0.000000 0.000000 0.000000 0.038473 0.000000
# 6 0.000000 0.000000 0.000000 0.000000 0.000000 0.037887
#
#
# Mechanical properties :
#
#
# Convention : Reuss Voigt Hill
#
# Bulk Modulus (GPa) = 56.35368 58.73689 57.54529
# Shear Modulus (GPa) = 23.30559 24.32900 23.81729
#
# Velocity S-wave (km/s) = 3.51403 3.59036 3.55240
# Velocity P-wave (km/s) = 6.80613 6.95048 6.87868
#
# Compressibility (1/GPa) = 0.01774507
#
# Stress axis : x y z
#
# Youngs Moduli (GPa) = 54.38600 69.50212 42.46728
#
# Poissons Ratio (x) = 0.37060 0.41829
# Poissons Ratio (y) = 0.29000 0.17440
# Poissons Ratio (z) = 0.53569 0.28543
#
# Static dielectric constant tensor:
#      x y z
#    x 3.676490 0.000000 0.000000 
#    y 0.000000 3.431920 0.000000 
#    z 0.000000 0.000000 3.287700 
# 
# 
# High freq. dielectric constant tensor:
#      x y z
#    x 1.746190 0.000000 0.000000 
#    y 0.000000 1.705890 0.000000 
#    z 0.000000 0.000000 1.708270 
# 
# From -- ./inp_files/24231.got.cif
#   From: 2010.03.12/outbox.cif.g09.slc.cpg/sg54_13_cif.got.tgz:24231.got - 2010.04.16 15:00:50.
