data_PCOD8223293
_publ_section_title
;
Structure prediction by ZEFSAII (Michael W. Deem and Ramdas Pophale) SiO2 
 PCOD8223293
Probable space group: P C C A
;
_chemical_formula_sum "Si O2"
_cell_formula_units_Z 40
_cell_length_a 4.992612
_cell_length_b 27.275322
_cell_length_c 13.629636
_cell_angle_alpha 90.000000
_cell_angle_beta 90.000000
_cell_angle_gamma 90.000000
_cell_volume 1856.017044
_symmetry_space_group_name_H-M "P C C A"
_symmetry_group_IT_number 54
_symmetry_cell_setting 'orthorhombic'
loop_
_space_group_symop_operation_xyz
x,y,z
1/2-x,-y,z
1/2+x,-y,1/2-z
-x,y,1/2-z
-x,-y,-z
1/2+x,y,-z
1/2-x,y,1/2+z
x,-y,1/2+z
loop_
_atom_site_type_symbol
_atom_site_label
_atom_site_fract_x
_atom_site_fract_y
_atom_site_fract_z
Si Si1 0.000000 0.827367 0.750000
Si Si2 0.046913 0.586714 0.061565
Si Si3 0.250000 0.500000 0.692732
Si Si4 0.250000 0.000000 0.568776
Si Si5 0.826773 0.894659 0.928938
Si Si6 0.935622 0.302796 0.933374
Si Si7 0.500000 0.236326 0.250000
O O1 0.877115 0.858020 0.839948
O O2 0.751002 0.795369 0.711339
O O3 0.119271 0.544995 0.136744
O O4 0.090272 0.641141 0.104945
O O5 0.236922 0.579676 0.966822
O O6 0.500000 0.476490 0.750000
O O7 0.290120 0.051673 0.625842
O O8 0.500000 0.000000 0.500000
O O9 0.554826 0.886808 0.989463
O O10 0.892557 0.268808 0.839630
O O11 0.718126 0.291619 0.016520
#
# Coordination Sequence:
#
# PCOD8223293 Si02
#       7
#     4   8   4   4   8   8   4
#     4  12  26  40  61  98 125 168 214 252 332 368
#     4  10  21  41  63  85 120 161 202 248 306 375
#     4  12  24  36  58  98 126 158 196 244 312 378
#     4   8  16  34  60  86 116 158 202 240 300 356
#     4  10  21  40  63  90 127 165 204 258 304 369
#     4  10  23  43  66  91 119 164 212 259 319 371
#     4  12  26  42  63  92 127 162 214 272 306 380
#
# _framework density 21.551525999999999
#
# number of rings (size 3 to 8) (size 9 to 14) (size 15 to 20)
#    0.000    1.600    0.000    4.200    1.400    4.800 
#    1.800    7.000    0.000    0.000    0.000    0.000 
#    0.000    0.000    0.000    0.000    0.000    0.000 
#
# Total GULP energy -495609.286043 kJ/mol
# GULP energy per Si atom -12390.232151 kJ/mol
# Density = 2.150247 g / cm^3
# Si number density = 21.551526 Si / 1000 Ang^3
#
#
#
# Elastic Constant Matrix: (Units=GPa)
#
#
# Indices 1 2 3 4 5 6 
#
# 1 99.5986 27.5472 6.1423 0.0000 0.0000 0.0000
# 2 27.5472 129.9787 57.1923 0.0000 0.0000 0.0000
# 3 6.1423 57.1923 74.0829 0.0000 0.0000 0.0000
# 4 0.0000 0.0000 0.0000 42.0267 0.0000 0.0000
# 5 0.0000 0.0000 0.0000 0.0000 21.7481 0.0000
# 6 0.0000 0.0000 0.0000 0.0000 0.0000 37.2050
#
#
#
# Elastic Compliance Matrix: (Units=1/GPa)
#
#
# Indices 1 2 3 4 5 6 
#
# 1 0.010749 -0.002856 0.001314 0.000000 0.000000 0.000000
# 2 -0.002856 0.012410 -0.009344 0.000000 0.000000 0.000000
# 3 0.001314 -0.009344 0.020603 0.000000 0.000000 0.000000
# 4 0.000000 0.000000 0.000000 0.023794 0.000000 0.000000
# 5 0.000000 0.000000 0.000000 0.000000 0.045981 0.000000
# 6 0.000000 0.000000 0.000000 0.000000 0.000000 0.026878
#
#
# Mechanical properties :
#
#
# Convention : Reuss Voigt Hill
#
# Bulk Modulus (GPa) = 45.47570 53.93598 49.70584
# Shear Modulus (GPa) = 29.49512 34.38117 31.93815
#
# Velocity S-wave (km/s) = 3.70345 3.99845 3.85378
# Velocity P-wave (km/s) = 6.27966 6.81159 6.55103
#
# Compressibility (1/GPa) = 0.02198976
#
# Stress axis : x y z
#
# Youngs Moduli (GPa) = 93.02958 80.57732 48.53622
#
# Poissons Ratio (x) = 0.23015 -0.06377
# Poissons Ratio (y) = 0.26572 0.45353
# Poissons Ratio (z) = -0.12222 0.75292
#
# Static dielectric constant tensor:
#      x y z
#    x 3.952120 0.000000 0.000000 
#    y 0.000000 4.456930 0.000000 
#    z 0.000000 0.000000 3.468210 
# 
# 
# High freq. dielectric constant tensor:
#      x y z
#    x 1.875250 0.000000 0.000000 
#    y 0.000000 1.864090 0.000000 
#    z 0.000000 0.000000 1.814660 
# 
# From -- ./inp_files/6491.got.cif
#   From: 2010.03.12/outbox.cif.g09.slc.cpg/sg54_4_cif.got.tgz:6491.got - 2010.04.16 15:00:50.
