data_PCOD8223942
_publ_section_title
;
Structure prediction by ZEFSAII (Michael W. Deem and Ramdas Pophale) SiO2 
 PCOD8223942
Probable space group: P C C A
;
_chemical_formula_sum "Si O2"
_cell_formula_units_Z 64
_cell_length_a 17.858192
_cell_length_b 14.827970
_cell_length_c 11.406066
_cell_angle_alpha 90.000000
_cell_angle_beta 90.000000
_cell_angle_gamma 90.000000
_cell_volume 3020.334663
_symmetry_space_group_name_H-M "P C C A"
_symmetry_group_IT_number 54
_symmetry_cell_setting 'orthorhombic'
loop_
_space_group_symop_operation_xyz
x,y,z
1/2-x,-y,z
1/2+x,-y,1/2-z
-x,y,1/2-z
-x,-y,-z
1/2+x,y,-z
1/2-x,y,1/2+z
x,-y,1/2+z
loop_
_atom_site_type_symbol
_atom_site_label
_atom_site_fract_x
_atom_site_fract_y
_atom_site_fract_z
Si Si1 0.085012 0.314938 0.959074
Si Si2 0.915840 0.618965 0.793808
Si Si3 0.686191 0.842218 0.559960
Si Si4 0.679846 0.944813 0.328407
Si Si5 0.088675 0.418482 0.736146
Si Si6 0.918713 0.734940 0.428492
Si Si7 0.338520 0.778653 0.332723
Si Si8 0.587521 0.898800 0.769276
O O1 0.138950 0.235996 0.001204
O O2 0.121425 0.367614 0.849468
O O3 0.008056 0.266613 0.923252
O O4 0.075657 0.382881 0.066199
O O5 0.882055 0.520888 0.762964
O O6 0.854957 0.691376 0.748140
O O7 0.000000 0.639033 0.750000
O O8 0.709979 0.906865 0.452769
O O9 0.754099 0.790305 0.623060
O O10 0.634638 0.898961 0.648971
O O11 0.646013 0.868876 0.241852
O O12 0.750000 0.000000 0.271267
O O13 0.612016 0.014997 0.346642
O O14 0.111287 0.363127 0.617425
O O15 0.000000 0.422574 0.750000
O O16 0.892643 0.764193 0.556610
O O17 0.889622 0.808004 0.336112
O O18 0.500000 0.906619 0.750000
#
# Coordination Sequence:
#
# PCOD8223942 Si02
#       8
#     8   8   8   8   8   8   8   8
#     4  11  21  43  71  95 138 181 227 280 334 398
#     4  11  23  41  69 106 139 176 229 283 334 398
#     4  12  26  46  68  93 137 179 223 281 344 402
#     4  12  28  46  67  98 134 181 227 275 346 420
#     4   9  21  38  69 103 137 180 226 274 334 407
#     4  11  22  41  70 102 134 178 229 276 338 401
#     4  12  27  43  69  98 135 180 224 281 342 410
#     4  12  25  43  71 101 132 176 229 282 339 403
#
# _framework density 21.189703999999999
#
# number of rings (size 3 to 8) (size 9 to 14) (size 15 to 20)
#    0.000    0.750    6.250    1.125    5.250    3.500 
#    0.000    0.625    0.000    0.000    0.000    0.000 
#    0.000    0.000    0.000    0.000    0.000    0.000 
#
# Total GULP energy -793335.646257 kJ/mol
# GULP energy per Si atom -12395.869473 kJ/mol
# Density = 2.114148 g / cm^3
# Si number density = 21.189704 Si / 1000 Ang^3
#
#
#
# Elastic Constant Matrix: (Units=GPa)
#
#
# Indices 1 2 3 4 5 6 
#
# 1 67.0777 50.3325 25.4276 0.0000 0.0000 0.0000
# 2 50.3325 163.7988 54.5529 0.0000 0.0000 0.0000
# 3 25.4276 54.5529 107.7938 0.0000 0.0000 0.0000
# 4 0.0000 0.0000 0.0000 21.6643 0.0000 0.0000
# 5 0.0000 0.0000 0.0000 0.0000 29.0076 0.0000
# 6 0.0000 0.0000 0.0000 0.0000 0.0000 27.2094
#
#
#
# Elastic Compliance Matrix: (Units=1/GPa)
#
#
# Indices 1 2 3 4 5 6 
#
# 1 0.019695 -0.005418 -0.001904 0.000000 0.000000 0.000000
# 2 -0.005418 0.008833 -0.003192 0.000000 0.000000 0.000000
# 3 -0.001904 -0.003192 0.011342 0.000000 0.000000 0.000000
# 4 0.000000 0.000000 0.000000 0.046159 0.000000 0.000000
# 5 0.000000 0.000000 0.000000 0.000000 0.034474 0.000000
# 6 0.000000 0.000000 0.000000 0.000000 0.000000 0.036752
#
#
# Mechanical properties :
#
#
# Convention : Reuss Voigt Hill
#
# Bulk Modulus (GPa) = 53.07393 66.58849 59.83121
# Shear Modulus (GPa) = 27.09097 29.46674 28.27886
#
# Velocity S-wave (km/s) = 3.57949 3.73314 3.65712
# Velocity P-wave (km/s) = 6.49500 7.07637 6.79191
#
# Compressibility (1/GPa) = 0.01884164
#
# Stress axis : x y z
#
# Youngs Moduli (GPa) = 50.77374 113.21131 88.17045
#
# Poissons Ratio (x) = 0.61336 0.16788
# Poissons Ratio (y) = 0.27509 0.28146
# Poissons Ratio (z) = 0.09667 0.36140
#
# Static dielectric constant tensor:
#      x y z
#    x 3.648850 0.000000 0.000000 
#    y 0.000000 4.116800 0.000000 
#    z 0.000000 0.000000 3.922200 
# 
# 
# High freq. dielectric constant tensor:
#      x y z
#    x 1.805760 0.000000 0.000000 
#    y 0.000000 1.842550 0.000000 
#    z 0.000000 0.000000 1.840960 
# 
# From -- ./inp_files/9071.got.cif
#   From: 2010.03.12/outbox.cif.g09.slc.cpg/sg54_5_cif.got.tgz:9071.got - 2010.04.16 15:00:50.
