data_PCOD8223221
_publ_section_title
;
Structure prediction by ZEFSAII (Michael W. Deem and Ramdas Pophale) SiO2 
 PCOD8223221
Probable space group: P C C A
;
_chemical_formula_sum "Si O2"
_cell_formula_units_Z 52
_cell_length_a 25.768324
_cell_length_b 8.514825
_cell_length_c 11.677287
_cell_angle_alpha 90.000000
_cell_angle_beta 90.000000
_cell_angle_gamma 90.000000
_cell_volume 2562.145880
_symmetry_space_group_name_H-M "P C C A"
_symmetry_group_IT_number 54
_symmetry_cell_setting 'orthorhombic'
loop_
_space_group_symop_operation_xyz
x,y,z
1/2-x,-y,z
1/2+x,-y,1/2-z
-x,y,1/2-z
-x,-y,-z
1/2+x,y,-z
1/2-x,y,1/2+z
x,-y,1/2+z
loop_
_atom_site_type_symbol
_atom_site_label
_atom_site_fract_x
_atom_site_fract_y
_atom_site_fract_z
Si Si1 0.924916 0.237741 0.363838
Si Si2 0.250000 0.000000 0.144890
Si Si3 0.015480 0.747325 0.405647
Si Si4 0.578432 0.883672 0.795942
Si Si5 0.815421 0.254295 0.738939
Si Si6 0.500000 0.461798 0.750000
Si Si7 0.250000 0.500000 0.644718
Si Si8 0.316301 0.244931 0.528919
O O1 0.967083 0.236801 0.464779
O O2 0.869255 0.294808 0.408116
O O3 0.948502 0.357200 0.270715
O O4 0.916172 0.069734 0.306341
O O5 0.270410 0.132891 0.229940
O O6 0.204162 0.072085 0.065647
O O7 0.053534 0.850823 0.327501
O O8 0.014304 0.567974 0.360285
O O9 0.957459 0.817338 0.397813
O O10 0.632958 0.793938 0.807553
O O11 0.795550 0.426987 0.775961
O O12 0.827345 0.248066 0.605165
O O13 0.272436 0.369379 0.560336
#
# Coordination Sequence:
#
# PCOD8223221 Si02
#       8
#     8   4   8   8   8   4   4   8
#     4  12  22  40  66  91 127 164 211 252 315 372
#     4  10  22  42  60  94 120 158 208 262 306 368
#     4  10  23  42  61  88 130 163 202 259 305 377
#     4  10  21  38  64  90 122 161 207 255 308 364
#     4  11  21  43  64  90 126 161 204 260 312 365
#     4  10  24  40  60  94 126 164 204 258 308 380
#     4  10  26  40  64  92 128 164 206 260 304 380
#     4  11  23  39  67  90 124 163 208 252 317 369
#
# _framework density 20.295487000000001
#
# number of rings (size 3 to 8) (size 9 to 14) (size 15 to 20)
#    0.000    1.538    3.077    2.769    4.308    0.000 
#    0.000    0.000    3.385    0.000    0.000    0.000 
#    0.000    0.000    0.000    0.000    0.000    0.000 
#
# Total GULP energy -644928.832718 kJ/mol
# GULP energy per Si atom -12402.477552 kJ/mol
# Density = 2.024929 g / cm^3
# Si number density = 20.295487 Si / 1000 Ang^3
#
#
#
# Elastic Constant Matrix: (Units=GPa)
#
#
# Indices 1 2 3 4 5 6 
#
# 1 106.8073 32.0529 24.1907 0.0000 0.0000 0.0000
# 2 32.0529 105.7127 28.4156 0.0000 0.0000 0.0000
# 3 24.1907 28.4156 49.6711 0.0000 0.0000 0.0000
# 4 0.0000 0.0000 0.0000 19.0552 0.0000 0.0000
# 5 0.0000 0.0000 0.0000 0.0000 31.9095 0.0000
# 6 0.0000 0.0000 0.0000 0.0000 0.0000 35.4123
#
#
#
# Elastic Compliance Matrix: (Units=1/GPa)
#
#
# Indices 1 2 3 4 5 6 
#
# 1 0.010951 -0.002230 -0.004058 0.000000 0.000000 0.000000
# 2 -0.002230 0.011633 -0.005569 0.000000 0.000000 0.000000
# 3 -0.004058 -0.005569 0.025294 0.000000 0.000000 0.000000
# 4 0.000000 0.000000 0.000000 0.052479 0.000000 0.000000
# 5 0.000000 0.000000 0.000000 0.000000 0.031339 0.000000
# 6 0.000000 0.000000 0.000000 0.000000 0.000000 0.028239
#
#
# Mechanical properties :
#
#
# Convention : Reuss Voigt Hill
#
# Bulk Modulus (GPa) = 41.38151 47.94551 44.66351
# Shear Modulus (GPa) = 26.08218 29.11085 27.59651
#
# Velocity S-wave (km/s) = 3.58875 3.79139 3.69146
# Velocity P-wave (km/s) = 6.13237 6.54532 6.34221
#
# Compressibility (1/GPa) = 0.02416538
#
# Stress axis : x y z
#
# Youngs Moduli (GPa) = 91.31750 85.96566 39.53449
#
# Poissons Ratio (x) = 0.19167 0.16042
# Poissons Ratio (y) = 0.20361 0.22016
# Poissons Ratio (z) = 0.37054 0.47873
#
# Static dielectric constant tensor:
#      x y z
#    x 3.809790 0.000000 0.000000 
#    y 0.000000 3.782840 0.000000 
#    z 0.000000 0.000000 3.446190 
# 
# 
# High freq. dielectric constant tensor:
#      x y z
#    x 1.803410 0.000000 0.000000 
#    y 0.000000 1.799900 0.000000 
#    z 0.000000 0.000000 1.778420 
# 
# From -- ./inp_files/10320.got.cif
#   From: 2010.03.12/outbox.cif.g09.slc.cpg/sg54_6_cif.got.tgz:10320.got - 2010.04.16 15:00:50.
