data_PCOD8223993
_publ_section_title
;
Structure prediction by ZEFSAII (Michael W. Deem and Ramdas Pophale) SiO2 
 PCOD8223993
Probable space group: P C C A
;
_chemical_formula_sum "Si O2"
_cell_formula_units_Z 40
_cell_length_a 22.741235
_cell_length_b 9.145617
_cell_length_c 8.563760
_cell_angle_alpha 90.000000
_cell_angle_beta 90.000000
_cell_angle_gamma 90.000000
_cell_volume 1781.113288
_symmetry_space_group_name_H-M "P C C A"
_symmetry_group_IT_number 54
_symmetry_cell_setting 'orthorhombic'
loop_
_space_group_symop_operation_xyz
x,y,z
1/2-x,-y,z
1/2+x,-y,1/2-z
-x,y,1/2-z
-x,-y,-z
1/2+x,y,-z
1/2-x,y,1/2+z
x,-y,1/2+z
loop_
_atom_site_type_symbol
_atom_site_label
_atom_site_fract_x
_atom_site_fract_y
_atom_site_fract_z
Si Si1 0.274804 0.153740 0.635673
Si Si2 0.643749 0.358590 0.686231
Si Si3 0.934809 0.139058 0.300633
Si Si4 0.375956 0.891517 0.888987
Si Si5 0.838151 0.658473 0.342792
O O1 0.311597 0.227314 0.773857
O O2 0.313128 0.122218 0.478688
O O3 0.222089 0.265722 0.601966
O O4 0.250000 0.000000 0.699966
O O5 0.581357 0.308347 0.762288
O O6 0.629387 0.376548 0.504206
O O7 0.671299 0.506800 0.753349
O O8 0.928830 0.117413 0.486329
O O9 0.000000 0.097197 0.250000
O O10 0.886372 0.038947 0.209478
O O11 0.379029 0.760386 0.764337
#
# Coordination Sequence:
#
# PCOD8223993 Si02
#       5
#     8   8   8   8   8
#     4  11  23  40  64  96 131 171 212 265 334 407
#     4  11  24  41  62  91 129 169 217 266 325 402
#     4  11  23  44  69  97 130 172 224 283 332 379
#     4  11  24  41  66  99 132 171 226 276 333 400
#     4  12  24  42  63  93 133 173 214 268 333 406
#
# _framework density 22.457864000000001
#
# number of rings (size 3 to 8) (size 9 to 14) (size 15 to 20)
#    0.000    0.800    0.000    9.600    0.000    4.800 
#    0.000    5.000    0.000    0.000    0.000    0.000 
#    0.000    0.000    0.000    0.000    0.000    0.000 
#
# Total GULP energy -495809.701274 kJ/mol
# GULP energy per Si atom -12395.242532 kJ/mol
# Density = 2.240675 g / cm^3
# Si number density = 22.457864 Si / 1000 Ang^3
#
#
#
# Elastic Constant Matrix: (Units=GPa)
#
#
# Indices 1 2 3 4 5 6 
#
# 1 71.5355 49.5412 19.2354 0.0000 0.0000 0.0000
# 2 49.5412 147.6608 44.2030 0.0000 0.0000 0.0000
# 3 19.2354 44.2030 138.7886 0.0000 0.0000 0.0000
# 4 0.0000 0.0000 0.0000 40.3625 0.0000 0.0000
# 5 0.0000 0.0000 0.0000 0.0000 17.5970 0.0000
# 6 0.0000 0.0000 0.0000 0.0000 0.0000 21.4705
#
#
#
# Elastic Compliance Matrix: (Units=1/GPa)
#
#
# Indices 1 2 3 4 5 6 
#
# 1 0.018262 -0.005935 -0.000641 0.000000 0.000000 0.000000
# 2 -0.005935 0.009415 -0.002176 0.000000 0.000000 0.000000
# 3 -0.000641 -0.002176 0.007987 0.000000 0.000000 0.000000
# 4 0.000000 0.000000 0.000000 0.024775 0.000000 0.000000
# 5 0.000000 0.000000 0.000000 0.000000 0.056828 0.000000
# 6 0.000000 0.000000 0.000000 0.000000 0.000000 0.046576
#
#
# Mechanical properties :
#
#
# Convention : Reuss Voigt Hill
#
# Bulk Modulus (GPa) = 55.06602 64.88268 59.97435
# Shear Modulus (GPa) = 26.68098 32.21970 29.45034
#
# Velocity S-wave (km/s) = 3.45054 3.79182 3.62520
# Velocity P-wave (km/s) = 6.35987 6.93715 6.65477
#
# Compressibility (1/GPa) = 0.01816002
#
# Stress axis : x y z
#
# Youngs Moduli (GPa) = 54.75960 106.21405 125.20287
#
# Poissons Ratio (x) = 0.63039 0.08022
# Poissons Ratio (y) = 0.32500 0.27244
# Poissons Ratio (z) = 0.03508 0.23112
#
# Static dielectric constant tensor:
#      x y z
#    x 3.853160 0.000000 0.000000 
#    y 0.000000 4.163810 0.000000 
#    z 0.000000 0.000000 4.134290 
# 
# 
# High freq. dielectric constant tensor:
#      x y z
#    x 1.853940 0.000000 0.000000 
#    y 0.000000 1.891540 0.000000 
#    z 0.000000 0.000000 1.904050 
# 
# From -- ./inp_files/4992.got.cif
#   From: 2010.03.12/outbox.cif.g09.slc.cpg/sg54_3_cif.got.tgz:4992.got - 2010.04.16 15:00:50.
