data_PCOD8223748
_publ_section_title
;
Structure prediction by ZEFSAII (Michael W. Deem and Ramdas Pophale) SiO2 
 PCOD8223748
Probable space group: P C C A
;
_chemical_formula_sum "Si O2"
_cell_formula_units_Z 32
_cell_length_a 8.938568
_cell_length_b 12.571954
_cell_length_c 12.371963
_cell_angle_alpha 90.000000
_cell_angle_beta 90.000000
_cell_angle_gamma 90.000000
_cell_volume 1390.302630
_symmetry_space_group_name_H-M "P C C A"
_symmetry_group_IT_number 54
_symmetry_cell_setting 'orthorhombic'
loop_
_space_group_symop_operation_xyz
x,y,z
1/2-x,-y,z
1/2+x,-y,1/2-z
-x,y,1/2-z
-x,-y,-z
1/2+x,y,-z
1/2-x,y,1/2+z
x,-y,1/2+z
loop_
_atom_site_type_symbol
_atom_site_label
_atom_site_fract_x
_atom_site_fract_y
_atom_site_fract_z
Si Si1 0.745526 0.376057 0.113875
Si Si2 0.351342 0.243089 0.203569
Si Si3 0.620450 0.917300 0.335127
Si Si4 0.496911 0.742464 0.482599
O O1 0.750000 0.500000 0.090139
O O2 0.675617 0.354732 0.233340
O O3 0.641864 0.319367 0.024281
O O4 0.913665 0.327997 0.108593
O O5 0.500000 0.186620 0.250000
O O6 0.206881 0.173281 0.232205
O O7 0.371014 0.250924 0.075740
O O8 0.500000 0.966673 0.250000
O O9 0.540672 0.860744 0.438526
O O10 0.750000 0.000000 0.373958
#
# Coordination Sequence:
#
# PCOD8223748 Si02
#       4
#     8   8   8   8
#     4  11  23  43  72 107 147 197 240 301 370 438
#     4  10  23  45  66 100 149 186 237 301 356 440
#     4  12  25  46  75 104 142 194 245 310 378 438
#     4  11  23  45  69 107 147 187 248 306 356 446
#
# _framework density 23.016570000000002
#
# number of rings (size 3 to 8) (size 9 to 14) (size 15 to 20)
#    0.000    1.000    5.000    1.500    0.000    2.000 
#   13.500    3.750    0.000    0.000    0.000    0.000 
#    0.000    0.000    0.000    0.000    0.000    0.000 
#
# Total GULP energy -396455.402591 kJ/mol
# GULP energy per Si atom -12389.231331 kJ/mol
# Density = 2.296418 g / cm^3
# Si number density = 23.016570 Si / 1000 Ang^3
#
#
#
# Elastic Constant Matrix: (Units=GPa)
#
#
# Indices 1 2 3 4 5 6 
#
# 1 115.0879 45.8563 51.0586 0.0000 0.0000 0.0000
# 2 45.8563 131.4434 51.3970 0.0000 0.0000 0.0000
# 3 51.0586 51.3970 117.1807 0.0000 0.0000 0.0000
# 4 0.0000 0.0000 0.0000 30.9031 0.0000 0.0000
# 5 0.0000 0.0000 0.0000 0.0000 35.6316 0.0000
# 6 0.0000 0.0000 0.0000 0.0000 0.0000 40.7992
#
#
#
# Elastic Compliance Matrix: (Units=1/GPa)
#
#
# Indices 1 2 3 4 5 6 
#
# 1 0.011391 -0.002454 -0.003887 0.000000 0.000000 0.000000
# 2 -0.002454 0.009711 -0.003190 0.000000 0.000000 0.000000
# 3 -0.003887 -0.003190 0.011627 0.000000 0.000000 0.000000
# 4 0.000000 0.000000 0.000000 0.032359 0.000000 0.000000
# 5 0.000000 0.000000 0.000000 0.000000 0.028065 0.000000
# 6 0.000000 0.000000 0.000000 0.000000 0.000000 0.024510
#
#
# Mechanical properties :
#
#
# Convention : Reuss Voigt Hill
#
# Bulk Modulus (GPa) = 73.17063 73.37066 73.27065
# Shear Modulus (GPa) = 35.39008 35.82679 35.60844
#
# Velocity S-wave (km/s) = 3.92547 3.94961 3.93756
# Velocity P-wave (km/s) = 7.23914 7.26263 7.25089
#
# Compressibility (1/GPa) = 0.01366668
#
# Stress axis : x y z
#
# Youngs Moduli (GPa) = 87.78591 102.97119 86.00807
#
# Poissons Ratio (x) = 0.25271 0.33432
# Poissons Ratio (y) = 0.21544 0.27439
# Poissons Ratio (z) = 0.34123 0.32850
#
# Static dielectric constant tensor:
#      x y z
#    x 4.481620 0.000000 0.000000 
#    y 0.000000 3.807170 0.000000 
#    z 0.000000 0.000000 3.998960 
# 
# 
# High freq. dielectric constant tensor:
#      x y z
#    x 1.943140 0.000000 0.000000 
#    y 0.000000 1.880820 0.000000 
#    z 0.000000 0.000000 1.898540 
# 
# From -- ./inp_files/6791.got.cif
#   From: 2010.03.12/outbox.cif.g09.slc.cpg/sg54_4_cif.got.tgz:6791.got - 2010.04.16 15:00:50.
