data_PCOD8223439
_publ_section_title
;
Structure prediction by ZEFSAII (Michael W. Deem and Ramdas Pophale) SiO2 
 PCOD8223439
Probable space group: P C C A
;
_chemical_formula_sum "Si O2"
_cell_formula_units_Z 60
_cell_length_a 26.849192
_cell_length_b 9.302216
_cell_length_c 11.475366
_cell_angle_alpha 90.000000
_cell_angle_beta 90.000000
_cell_angle_gamma 90.000000
_cell_volume 2866.052796
_symmetry_space_group_name_H-M "P C C A"
_symmetry_group_IT_number 54
_symmetry_cell_setting 'orthorhombic'
loop_
_space_group_symop_operation_xyz
x,y,z
1/2-x,-y,z
1/2+x,-y,1/2-z
-x,y,1/2-z
-x,-y,-z
1/2+x,y,-z
1/2-x,y,1/2+z
x,-y,1/2+z
loop_
_atom_site_type_symbol
_atom_site_label
_atom_site_fract_x
_atom_site_fract_y
_atom_site_fract_z
Si Si1 0.370128 0.988145 0.545075
Si Si2 0.139867 0.725990 0.666073
Si Si3 0.214691 0.886470 0.410097
Si Si4 0.416353 0.248242 0.898003
Si Si5 0.747420 0.334620 0.917562
Si Si6 0.915594 0.542889 0.380093
Si Si7 0.655187 0.750564 0.781903
Si Si8 0.000000 0.618761 0.750000
O O1 0.407516 0.914466 0.448660
O O2 0.368852 0.881872 0.652008
O O3 0.386997 0.139421 0.601041
O O4 0.313626 0.009968 0.500955
O O5 0.127171 0.720445 0.803848
O O6 0.199479 0.715533 0.657169
O O7 0.117747 0.594880 0.592176
O O8 0.248862 0.763276 0.467148
O O9 0.169899 0.808405 0.343946
O O10 0.250000 0.000000 0.338782
O O11 0.468071 0.271543 0.829539
O O12 0.416454 0.362825 0.003081
O O13 0.750000 0.500000 0.956628
O O14 0.795448 0.309625 0.840466
O O15 0.887420 0.628926 0.275634
O O16 0.968795 0.489209 0.332665
#
# Coordination Sequence:
#
# PCOD8223439 Si02
#       8
#     8   8   8   8   8   8   8   4
#     4  10  22  40  59  90 128 169 213 262 310 384
#     4  10  22  38  63  91 132 172 211 257 317 385
#     4  11  24  37  62  89 131 182 215 254 307 376
#     4  10  22  42  69  92 126 166 211 273 331 389
#     4  11  23  40  55  90 133 171 217 257 308 376
#     4  10  22  43  65  95 126 163 212 273 327 396
#     4  11  23  38  58  90 128 167 217 254 314 374
#     4  10  22  42  72 100 120 166 216 276 350 398
#
# _framework density 20.934716000000002
#
# number of rings (size 3 to 8) (size 9 to 14) (size 15 to 20)
#    0.000    1.600    2.667    1.200    5.600    4.800 
#    0.000    2.667    0.000   19.200    0.000    0.000 
#    0.000    0.000    0.000    0.000    0.000    0.000 
#
# Total GULP energy -743309.777195 kJ/mol
# GULP energy per Si atom -12388.496287 kJ/mol
# Density = 2.088707 g / cm^3
# Si number density = 20.934716 Si / 1000 Ang^3
#
#
#
# Elastic Constant Matrix: (Units=GPa)
#
#
# Indices 1 2 3 4 5 6 
#
# 1 51.6960 28.1194 8.7907 0.0000 0.0000 0.0000
# 2 28.1194 137.3064 31.7511 0.0000 0.0000 0.0000
# 3 8.7907 31.7511 66.5439 0.0000 0.0000 0.0000
# 4 0.0000 0.0000 0.0000 20.8187 0.0000 0.0000
# 5 0.0000 0.0000 0.0000 0.0000 31.1751 0.0000
# 6 0.0000 0.0000 0.0000 0.0000 0.0000 40.8194
#
#
#
# Elastic Compliance Matrix: (Units=1/GPa)
#
#
# Indices 1 2 3 4 5 6 
#
# 1 0.021811 -0.004272 -0.000843 0.000000 0.000000 0.000000
# 2 -0.004272 0.009023 -0.003741 0.000000 0.000000 0.000000
# 3 -0.000843 -0.003741 0.016924 0.000000 0.000000 0.000000
# 4 0.000000 0.000000 0.000000 0.048034 0.000000 0.000000
# 5 0.000000 0.000000 0.000000 0.000000 0.032077 0.000000
# 6 0.000000 0.000000 0.000000 0.000000 0.000000 0.024498
#
#
# Mechanical properties :
#
#
# Convention : Reuss Voigt Hill
#
# Bulk Modulus (GPa) = 33.28201 43.65208 38.46705
# Shear Modulus (GPa) = 27.76341 31.02165 29.39253
#
# Velocity S-wave (km/s) = 3.64564 3.85363 3.75108
# Velocity P-wave (km/s) = 5.80116 6.37945 6.09716
#
# Compressibility (1/GPa) = 0.03004626
#
# Stress axis : x y z
#
# Youngs Moduli (GPa) = 45.84889 110.82961 59.08769
#
# Poissons Ratio (x) = 0.47344 0.04981
# Poissons Ratio (y) = 0.19585 0.22104
# Poissons Ratio (z) = 0.03865 0.41460
#
# Static dielectric constant tensor:
#      x y z
#    x 3.805050 0.000000 0.000000 
#    y 0.000000 4.251920 0.000000 
#    z 0.000000 0.000000 3.733070 
# 
# 
# High freq. dielectric constant tensor:
#      x y z
#    x 1.804740 0.000000 0.000000 
#    y 0.000000 1.839290 0.000000 
#    z 0.000000 0.000000 1.811240 
# 
# From -- ./inp_files/10359.got.cif
#   From: 2010.03.12/outbox.cif.g09.slc.cpg/sg54_6_cif.got.tgz:10359.got - 2010.04.16 15:00:50.
