data_PCOD8223230
_publ_section_title
;
Structure prediction by ZEFSAII (Michael W. Deem and Ramdas Pophale) SiO2 
 PCOD8223230
Probable space group: P C C A
;
_chemical_formula_sum "Si O2"
_cell_formula_units_Z 48
_cell_length_a 17.559508
_cell_length_b 9.269293
_cell_length_c 14.379027
_cell_angle_alpha 90.000000
_cell_angle_beta 90.000000
_cell_angle_gamma 90.000000
_cell_volume 2340.391180
_symmetry_space_group_name_H-M "P C C A"
_symmetry_group_IT_number 54
_symmetry_cell_setting 'orthorhombic'
loop_
_space_group_symop_operation_xyz
x,y,z
1/2-x,-y,z
1/2+x,-y,1/2-z
-x,y,1/2-z
-x,-y,-z
1/2+x,y,-z
1/2-x,y,1/2+z
x,-y,1/2+z
loop_
_atom_site_type_symbol
_atom_site_label
_atom_site_fract_x
_atom_site_fract_y
_atom_site_fract_z
Si Si1 0.454651 0.648637 0.012529
Si Si2 0.047049 0.903219 0.932269
Si Si3 0.291748 0.644821 0.097934
Si Si4 0.212209 0.147597 0.463498
Si Si5 0.237309 0.840572 0.257518
Si Si6 0.067510 0.824273 0.319956
O O1 0.501381 0.754045 0.082853
O O2 0.377632 0.614162 0.067227
O O3 0.500000 0.500000 0.000000
O O4 0.438506 0.726565 0.913137
O O5 0.123603 0.861345 0.986813
O O6 0.063212 0.002886 0.841772
O O7 0.000000 0.000000 0.000000
O O8 0.250000 0.500000 0.124005
O O9 0.284945 0.739225 0.189980
O O10 0.248294 0.716943 0.012856
O O11 0.221014 0.171917 0.354956
O O12 0.250000 0.000000 0.498368
O O13 0.148116 0.797816 0.268267
O O14 0.250000 0.000000 0.216525
O O15 0.000000 0.779964 0.250000
#
# Coordination Sequence:
#
# PCOD8223230 Si02
#       6
#     8   8   8   8   8   8
#     4  11  25  47  65  99 138 184 224 273 343 414
#     4  10  21  38  68  97 129 170 221 270 336 393
#     4  12  27  43  68  96 136 181 226 275 343 404
#     4  11  20  44  69  97 131 174 223 282 330 398
#     4  11  24  44  70 102 133 173 229 284 337 397
#     4  11  24  42  70 100 137 170 223 285 341 399
#
# _framework density 20.509391000000001
#
# number of rings (size 3 to 8) (size 9 to 14) (size 15 to 20)
#    0.000    1.000    5.000    2.500    9.333    0.667 
#    3.000    0.833    0.000    0.000    0.000    0.000 
#    0.000    0.000    0.000    0.000    0.000    0.000 
#
# Total GULP energy -595062.540923 kJ/mol
# GULP energy per Si atom -12397.136269 kJ/mol
# Density = 2.046271 g / cm^3
# Si number density = 20.509391 Si / 1000 Ang^3
#
#
#
# Elastic Constant Matrix: (Units=GPa)
#
#
# Indices 1 2 3 4 5 6 
#
# 1 152.5176 30.7800 20.6864 0.0000 0.0000 0.0000
# 2 30.7800 120.9810 35.1874 0.0000 0.0000 0.0000
# 3 20.6864 35.1874 61.9501 0.0000 0.0000 0.0000
# 4 0.0000 0.0000 0.0000 28.4154 0.0000 0.0000
# 5 0.0000 0.0000 0.0000 0.0000 15.4510 0.0000
# 6 0.0000 0.0000 0.0000 0.0000 0.0000 38.8014
#
#
#
# Elastic Compliance Matrix: (Units=1/GPa)
#
#
# Indices 1 2 3 4 5 6 
#
# 1 0.007041 -0.001327 -0.001598 0.000000 0.000000 0.000000
# 2 -0.001327 0.010152 -0.005323 0.000000 0.000000 0.000000
# 3 -0.001598 -0.005323 0.019699 0.000000 0.000000 0.000000
# 4 0.000000 0.000000 0.000000 0.035192 0.000000 0.000000
# 5 0.000000 0.000000 0.000000 0.000000 0.064721 0.000000
# 6 0.000000 0.000000 0.000000 0.000000 0.000000 0.025772
#
#
# Mechanical properties :
#
#
# Convention : Reuss Voigt Hill
#
# Bulk Modulus (GPa) = 49.02710 56.52849 52.77779
# Shear Modulus (GPa) = 26.90048 33.11989 30.01018
#
# Velocity S-wave (km/s) = 3.62556 4.02290 3.82938
# Velocity P-wave (km/s) = 6.44071 7.01430 6.73362
#
# Compressibility (1/GPa) = 0.02039688
#
# Stress axis : x y z
#
# Youngs Moduli (GPa) = 142.02412 98.50758 50.76419
#
# Poissons Ratio (x) = 0.13069 0.08110
# Poissons Ratio (y) = 0.18843 0.27022
# Poissons Ratio (z) = 0.22689 0.52436
#
# Static dielectric constant tensor:
#      x y z
#    x 3.960420 0.000000 0.000000 
#    y 0.000000 3.307600 0.000000 
#    z 0.000000 0.000000 3.705740 
# 
# 
# High freq. dielectric constant tensor:
#      x y z
#    x 1.824000 0.000000 0.000000 
#    y 0.000000 1.802540 0.000000 
#    z 0.000000 0.000000 1.790880 
# 
# From -- ./inp_files/14109.got.cif
#   From: 2010.03.12/outbox.cif.g09.slc.cpg/sg54_8_cif.got.tgz:14109.got - 2010.04.16 15:00:50.
