data_PCOD8223298
_publ_section_title
;
Structure prediction by ZEFSAII (Michael W. Deem and Ramdas Pophale) SiO2 
 PCOD8223298
Probable space group: P C C A
;
_chemical_formula_sum "Si O2"
_cell_formula_units_Z 44
_cell_length_a 17.617111
_cell_length_b 8.897655
_cell_length_c 13.711219
_cell_angle_alpha 90.000000
_cell_angle_beta 90.000000
_cell_angle_gamma 90.000000
_cell_volume 2149.246957
_symmetry_space_group_name_H-M "P C C A"
_symmetry_group_IT_number 54
_symmetry_cell_setting 'orthorhombic'
loop_
_space_group_symop_operation_xyz
x,y,z
1/2-x,-y,z
1/2+x,-y,1/2-z
-x,y,1/2-z
-x,-y,-z
1/2+x,y,-z
1/2-x,y,1/2+z
x,-y,1/2+z
loop_
_atom_site_type_symbol
_atom_site_label
_atom_site_fract_x
_atom_site_fract_y
_atom_site_fract_z
Si Si1 0.056184 0.854627 0.899111
Si Si2 0.614896 0.369530 0.329575
Si Si3 0.161562 0.367814 0.875834
Si Si4 0.186304 0.323509 0.466569
Si Si5 0.982582 0.177414 0.599465
Si Si6 0.500000 0.386143 0.750000
O O1 0.140411 0.828482 0.943511
O O2 0.043173 0.723255 0.823046
O O3 0.049726 0.022189 0.853812
O O4 0.995353 0.843579 0.985004
O O5 0.673068 0.338961 0.240260
O O6 0.668355 0.385046 0.424656
O O7 0.557726 0.227870 0.341990
O O8 0.562595 0.515501 0.308219
O O9 0.224897 0.289045 0.944952
O O10 0.161436 0.545733 0.892508
O O11 0.078071 0.309950 0.898422
#
# Coordination Sequence:
#
# PCOD8223298 Si02
#       6
#     8   8   8   8   8   4
#     4  10  22  38  60  92 122 159 201 254 305 370
#     4  11  21  39  64  92 118 163 205 260 302 362
#     4  11  21  38  62  88 120 165 196 251 304 362
#     4  10  23  39  58  89 128 155 205 248 308 371
#     4  10  21  40  64  87 123 160 205 255 309 357
#     4  12  20  34  68  94 118 154 214 262 300 360
#
# _framework density 20.472287000000001
#
# number of rings (size 3 to 8) (size 9 to 14) (size 15 to 20)
#    0.000    1.455    3.636    1.091    2.545    6.545 
#    3.273    0.000    0.000    2.182    0.000    0.000 
#    0.000    0.000    0.000    0.000    0.000    0.000 
#
# Total GULP energy -545292.912210 kJ/mol
# GULP energy per Si atom -12393.020732 kJ/mol
# Density = 2.042569 g / cm^3
# Si number density = 20.472287 Si / 1000 Ang^3
#
#
#
# Elastic Constant Matrix: (Units=GPa)
#
#
# Indices 1 2 3 4 5 6 
#
# 1 95.2738 13.1901 50.8446 0.0000 0.0000 0.0000
# 2 13.1901 67.0583 24.9832 0.0000 0.0000 0.0000
# 3 50.8446 24.9832 113.6391 0.0000 0.0000 0.0000
# 4 0.0000 0.0000 0.0000 22.7073 0.0000 0.0000
# 5 0.0000 0.0000 0.0000 0.0000 39.7400 0.0000
# 6 0.0000 0.0000 0.0000 0.0000 0.0000 24.5245
#
#
#
# Elastic Compliance Matrix: (Units=1/GPa)
#
#
# Indices 1 2 3 4 5 6 
#
# 1 0.013801 -0.000451 -0.006076 0.000000 0.000000 0.000000
# 2 -0.000451 0.016258 -0.003372 0.000000 0.000000 0.000000
# 3 -0.006076 -0.003372 0.012260 0.000000 0.000000 0.000000
# 4 0.000000 0.000000 0.000000 0.044039 0.000000 0.000000
# 5 0.000000 0.000000 0.000000 0.000000 0.025164 0.000000
# 6 0.000000 0.000000 0.000000 0.000000 0.000000 0.040775
#
#
# Mechanical properties :
#
#
# Convention : Reuss Voigt Hill
#
# Bulk Modulus (GPa) = 44.40522 50.44521 47.42522
# Shear Modulus (GPa) = 27.83958 29.85793 28.84876
#
# Velocity S-wave (km/s) = 3.69164 3.82312 3.75795
# Velocity P-wave (km/s) = 6.31731 6.64699 6.48425
#
# Compressibility (1/GPa) = 0.02251987
#
# Stress axis : x y z
#
# Youngs Moduli (GPa) = 72.45900 61.51007 81.56891
#
# Poissons Ratio (x) = 0.02774 0.49559
# Poissons Ratio (y) = 0.03268 0.27508
# Poissons Ratio (z) = 0.44024 0.20743
#
# Static dielectric constant tensor:
#      x y z
#    x 3.718190 0.000000 0.000000 
#    y 0.000000 3.790970 0.000000 
#    z 0.000000 0.000000 3.909220 
# 
# 
# High freq. dielectric constant tensor:
#      x y z
#    x 1.789860 0.000000 0.000000 
#    y 0.000000 1.790640 0.000000 
#    z 0.000000 0.000000 1.808940 
# 
# From -- ./inp_files/14020.got.cif
#   From: 2010.03.12/outbox.cif.g09.slc.cpg/sg54_8_cif.got.tgz:14020.got - 2010.04.16 15:00:50.
