data_PCOD8223875
_publ_section_title
;
Structure prediction by ZEFSAII (Michael W. Deem and Ramdas Pophale) SiO2 
 PCOD8223875
Probable space group: P C C A
;
_chemical_formula_sum "Si O2"
_cell_formula_units_Z 40
_cell_length_a 15.301690
_cell_length_b 13.939117
_cell_length_c 8.554351
_cell_angle_alpha 90.000000
_cell_angle_beta 90.000000
_cell_angle_gamma 90.000000
_cell_volume 1824.575037
_symmetry_space_group_name_H-M "P C C A"
_symmetry_group_IT_number 54
_symmetry_cell_setting 'orthorhombic'
loop_
_space_group_symop_operation_xyz
x,y,z
1/2-x,-y,z
1/2+x,-y,1/2-z
-x,y,1/2-z
-x,-y,-z
1/2+x,y,-z
1/2-x,y,1/2+z
x,-y,1/2+z
loop_
_atom_site_type_symbol
_atom_site_label
_atom_site_fract_x
_atom_site_fract_y
_atom_site_fract_z
Si Si1 0.330313 0.931163 0.488056
Si Si2 0.317757 0.279847 0.125581
Si Si3 0.359322 0.269853 0.489652
Si Si4 0.909581 0.082920 0.333189
Si Si5 0.516371 0.395976 0.432099
O O1 0.323168 0.824465 0.550471
O O2 0.337313 0.925092 0.302076
O O3 0.250000 0.000000 0.533917
O O4 0.414240 0.982200 0.571149
O O5 0.333211 0.270881 0.308759
O O6 0.219696 0.317582 0.089603
O O7 0.386558 0.352374 0.042130
O O8 0.379227 0.162203 0.542619
O O9 0.446912 0.329271 0.520586
O O10 0.000000 0.109168 0.250000
O O11 0.500000 0.398767 0.250000
O O12 0.500000 0.500000 0.500000
#
# Coordination Sequence:
#
# PCOD8223875 Si02
#       5
#     8   8   8   8   8
#     4  12  24  40  63  95 136 181 231 278 339 406
#     4  11  24  44  70  98 140 182 226 290 342 417
#     4  11  24  44  68 102 136 182 232 280 351 412
#     4  12  25  40  63  96 135 185 233 285 339 409
#     4  10  25  47  72 101 135 173 228 291 351 416
#
# _framework density 21.922913999999999
#
# number of rings (size 3 to 8) (size 9 to 14) (size 15 to 20)
#    0.000    0.800    2.000    4.800    0.000    7.200 
#    0.000    4.000    0.000    0.000    0.000    0.000 
#    0.000    0.000    0.000    0.000    0.000    0.000 
#
# Total GULP energy -495989.326599 kJ/mol
# GULP energy per Si atom -12399.733165 kJ/mol
# Density = 2.187302 g / cm^3
# Si number density = 21.922914 Si / 1000 Ang^3
#
#
#
# Elastic Constant Matrix: (Units=GPa)
#
#
# Indices 1 2 3 4 5 6 
#
# 1 123.3360 31.0276 24.1035 0.0000 0.0000 0.0000
# 2 31.0276 100.7351 26.9623 0.0000 0.0000 0.0000
# 3 24.1035 26.9623 86.5030 0.0000 0.0000 0.0000
# 4 0.0000 0.0000 0.0000 39.2796 0.0000 0.0000
# 5 0.0000 0.0000 0.0000 0.0000 36.0130 0.0000
# 6 0.0000 0.0000 0.0000 0.0000 0.0000 33.5503
#
#
#
# Elastic Compliance Matrix: (Units=1/GPa)
#
#
# Indices 1 2 3 4 5 6 
#
# 1 0.009039 -0.002302 -0.001801 0.000000 0.000000 0.000000
# 2 -0.002302 0.011417 -0.002917 0.000000 0.000000 0.000000
# 3 -0.001801 -0.002917 0.012971 0.000000 0.000000 0.000000
# 4 0.000000 0.000000 0.000000 0.025458 0.000000 0.000000
# 5 0.000000 0.000000 0.000000 0.000000 0.027768 0.000000
# 6 0.000000 0.000000 0.000000 0.000000 0.000000 0.029806
#
#
# Mechanical properties :
#
#
# Convention : Reuss Voigt Hill
#
# Bulk Modulus (GPa) = 51.58163 52.75121 52.16642
# Shear Modulus (GPa) = 36.50638 37.00063 36.75350
#
# Velocity S-wave (km/s) = 4.08513 4.11269 4.09894
# Velocity P-wave (km/s) = 6.76984 6.83130 6.80064
#
# Compressibility (1/GPa) = 0.01938675
#
# Stress axis : x y z
#
# Youngs Moduli (GPa) = 110.63099 87.58981 77.09269
#
# Poissons Ratio (x) = 0.20164 0.13886
# Poissons Ratio (y) = 0.25468 0.22489
# Poissons Ratio (z) = 0.19926 0.25551
#
# Static dielectric constant tensor:
#      x y z
#    x 5.088040 0.000000 0.000000 
#    y 0.000000 3.853890 0.000000 
#    z 0.000000 0.000000 4.104450 
# 
# 
# High freq. dielectric constant tensor:
#      x y z
#    x 1.877750 0.000000 0.000000 
#    y 0.000000 1.849460 0.000000 
#    z 0.000000 0.000000 1.875250 
# 
# From -- ./inp_files/3415.got.cif
#   From: 2010.03.12/outbox.cif.g09.slc.cpg/sg54_2_cif.got.tgz:3415.got - 2010.04.16 15:00:50.
