data_PCOD8223341
_publ_section_title
;
Structure prediction by ZEFSAII (Michael W. Deem and Ramdas Pophale) SiO2 
 PCOD8223341
Probable space group: P C C A
;
_chemical_formula_sum "Si O2"
_cell_formula_units_Z 40
_cell_length_a 9.087777
_cell_length_b 13.884169
_cell_length_c 13.587960
_cell_angle_alpha 90.000000
_cell_angle_beta 90.000000
_cell_angle_gamma 90.000000
_cell_volume 1714.477589
_symmetry_space_group_name_H-M "P C C A"
_symmetry_group_IT_number 54
_symmetry_cell_setting 'orthorhombic'
loop_
_space_group_symop_operation_xyz
x,y,z
1/2-x,-y,z
1/2+x,-y,1/2-z
-x,y,1/2-z
-x,-y,-z
1/2+x,y,-z
1/2-x,y,1/2+z
x,-y,1/2+z
loop_
_atom_site_type_symbol
_atom_site_label
_atom_site_fract_x
_atom_site_fract_y
_atom_site_fract_z
Si Si1 0.641169 0.089510 0.550556
Si Si2 0.660593 0.403200 0.287564
Si Si3 0.912981 0.029822 0.844344
Si Si4 0.979522 0.612213 0.482634
Si Si5 0.260687 0.707332 0.389079
O O1 0.593000 0.106180 0.435651
O O2 0.729584 0.178795 0.595135
O O3 0.750000 0.000000 0.552269
O O4 0.497942 0.066089 0.616704
O O5 0.750000 0.500000 0.273834
O O6 0.500000 0.429672 0.250000
O O7 0.647089 0.370258 0.400338
O O8 0.732703 0.315956 0.225563
O O9 0.000000 0.074103 0.750000
O O10 0.750000 0.000000 0.808787
O O11 0.917167 0.660698 0.581252
O O12 0.000000 0.500000 0.500000
O O13 0.131749 0.661962 0.454731
#
# Coordination Sequence:
#
# PCOD8223341 Si02
#       5
#     8   8   8   8   8
#     4  10  24  46  70 100 147 193 245 309 371 449
#     4  10  21  41  67 102 140 185 237 300 362 437
#     4  10  22  44  72 101 137 191 243 304 379 442
#     4  11  23  43  71 102 142 190 236 301 375 436
#     4  11  24  42  68 103 140 186 244 296 367 444
#
# _framework density 23.330722999999999
#
# number of rings (size 3 to 8) (size 9 to 14) (size 15 to 20)
#    0.000    1.600    0.000    4.800    8.400    0.800 
#   10.800    3.000    0.000    0.000    0.000    0.000 
#    0.000    0.000    0.000    0.000    0.000    0.000 
#
# Total GULP energy -495993.570233 kJ/mol
# GULP energy per Si atom -12399.839256 kJ/mol
# Density = 2.327762 g / cm^3
# Si number density = 23.330723 Si / 1000 Ang^3
#
#
#
# Elastic Constant Matrix: (Units=GPa)
#
#
# Indices 1 2 3 4 5 6 
#
# 1 93.3868 37.6007 39.3611 0.0000 0.0000 0.0000
# 2 37.6007 131.5099 22.8752 0.0000 0.0000 0.0000
# 3 39.3611 22.8752 111.4985 0.0000 0.0000 0.0000
# 4 0.0000 0.0000 0.0000 16.4149 0.0000 0.0000
# 5 0.0000 0.0000 0.0000 0.0000 41.0456 0.0000
# 6 0.0000 0.0000 0.0000 0.0000 0.0000 21.8662
#
#
#
# Elastic Compliance Matrix: (Units=1/GPa)
#
#
# Indices 1 2 3 4 5 6 
#
# 1 0.013771 -0.003206 -0.004204 0.000000 0.000000 0.000000
# 2 -0.003206 0.008632 -0.000639 0.000000 0.000000 0.000000
# 3 -0.004204 -0.000639 0.010584 0.000000 0.000000 0.000000
# 4 0.000000 0.000000 0.000000 0.060920 0.000000 0.000000
# 5 0.000000 0.000000 0.000000 0.000000 0.024363 0.000000
# 6 0.000000 0.000000 0.000000 0.000000 0.000000 0.045733
#
#
# Mechanical properties :
#
#
# Convention : Reuss Voigt Hill
#
# Bulk Modulus (GPa) = 59.21071 59.56325 59.38698
# Shear Modulus (GPa) = 26.92088 31.63590 29.27839
#
# Velocity S-wave (km/s) = 3.40057 3.68635 3.54634
# Velocity P-wave (km/s) = 6.39159 6.61092 6.50218
#
# Compressibility (1/GPa) = 0.01688884
#
# Stress axis : x y z
#
# Youngs Moduli (GPa) = 72.61759 115.85032 94.48405
#
# Poissons Ratio (x) = 0.37143 0.39717
# Poissons Ratio (y) = 0.23282 0.06039
# Poissons Ratio (z) = 0.30525 0.07404
#
# Static dielectric constant tensor:
#      x y z
#    x 4.362270 0.000000 0.000000 
#    y 0.000000 3.863470 0.000000 
#    z 0.000000 0.000000 4.772200 
# 
# 
# High freq. dielectric constant tensor:
#      x y z
#    x 1.942210 0.000000 0.000000 
#    y 0.000000 1.892560 0.000000 
#    z 0.000000 0.000000 1.932760 
# 
# From -- ./inp_files/11486.got.cif
#   From: 2010.03.12/outbox.cif.g09.slc.cpg/sg54_6_cif.got.tgz:11486.got - 2010.04.16 15:00:50.
