data_PCOD8223400
_publ_section_title
;
Structure prediction by ZEFSAII (Michael W. Deem and Ramdas Pophale) SiO2 
 PCOD8223400
Probable space group: P C C A
;
_chemical_formula_sum "Si O2"
_cell_formula_units_Z 36
_cell_length_a 5.190095
_cell_length_b 19.437469
_cell_length_c 17.067694
_cell_angle_alpha 90.000000
_cell_angle_beta 90.000000
_cell_angle_gamma 90.000000
_cell_volume 1721.828409
_symmetry_space_group_name_H-M "P C C A"
_symmetry_group_IT_number 54
_symmetry_cell_setting 'orthorhombic'
loop_
_space_group_symop_operation_xyz
x,y,z
1/2-x,-y,z
1/2+x,-y,1/2-z
-x,y,1/2-z
-x,-y,-z
1/2+x,y,-z
1/2-x,y,1/2+z
x,-y,1/2+z
loop_
_atom_site_type_symbol
_atom_site_label
_atom_site_fract_x
_atom_site_fract_y
_atom_site_fract_z
Si Si1 0.750000 0.500000 0.197640
Si Si2 0.000000 0.043340 0.250000
Si Si3 0.563844 0.755467 0.948526
Si Si4 0.000000 0.729772 0.750000
Si Si5 0.183100 0.848451 0.183228
Si Si6 0.130252 0.645027 0.334869
O O1 0.500000 0.518759 0.250000
O O2 0.686483 0.434393 0.141733
O O3 0.089298 0.093770 0.177136
O O4 0.250000 0.000000 0.278159
O O5 0.542812 0.826883 0.897576
O O6 0.538507 0.684466 0.899473
O O7 0.344471 0.756897 0.013466
O O8 0.773669 0.775219 0.784880
O O9 0.899497 0.685187 0.676521
O O10 0.000000 0.880920 0.250000
O O11 0.000000 0.643802 0.250000
#
# Coordination Sequence:
#
# PCOD8223400 Si02
#       6
#     4   4   8   4   8   8
#     4  10  22  34  60  92 116 164 222 280 324 386
#     4  11  24  40  70 106 127 160 206 264 311 374
#     4  12  26  39  61  96 134 171 212 265 328 378
#     4  11  16  34  66  90 121 154 216 270 331 352
#     4  11  22  39  68  97 128 162 215 266 312 368
#     4  11  21  38  61  90 125 167 221 277 326 386
#
# _framework density 20.908006
#
# number of rings (size 3 to 8) (size 9 to 14) (size 15 to 20)
#    0.000    0.889    6.667    1.333    3.111    0.000 
#    0.000    1.111    0.000    4.000    0.000    0.000 
#    0.000    0.000    0.000    0.000    0.000    0.000 
#
# Total GULP energy -446003.451313 kJ/mol
# GULP energy per Si atom -12388.984759 kJ/mol
# Density = 2.086042 g / cm^3
# Si number density = 20.908006 Si / 1000 Ang^3
#
#
#
# Elastic Constant Matrix: (Units=GPa)
#
#
# Indices 1 2 3 4 5 6 
#
# 1 94.9463 43.9956 24.5385 0.0000 0.0000 0.0000
# 2 43.9956 151.1221 41.7831 0.0000 0.0000 0.0000
# 3 24.5385 41.7831 74.7358 0.0000 0.0000 0.0000
# 4 0.0000 0.0000 0.0000 6.2052 0.0000 0.0000
# 5 0.0000 0.0000 0.0000 0.0000 38.1512 0.0000
# 6 0.0000 0.0000 0.0000 0.0000 0.0000 27.4712
#
#
#
# Elastic Compliance Matrix: (Units=1/GPa)
#
#
# Indices 1 2 3 4 5 6 
#
# 1 0.012545 -0.002973 -0.002457 0.000000 0.000000 0.000000
# 2 -0.002973 0.008532 -0.003794 0.000000 0.000000 0.000000
# 3 -0.002457 -0.003794 0.016308 0.000000 0.000000 0.000000
# 4 0.000000 0.000000 0.000000 0.161155 0.000000 0.000000
# 5 0.000000 0.000000 0.000000 0.000000 0.026211 0.000000
# 6 0.000000 0.000000 0.000000 0.000000 0.000000 0.036402
#
#
# Mechanical properties :
#
#
# Convention : Reuss Voigt Hill
#
# Bulk Modulus (GPa) = 52.80491 60.15985 56.48238
# Shear Modulus (GPa) = 17.48789 28.39799 22.94294
#
# Velocity S-wave (km/s) = 2.89523 3.68942 3.31619
# Velocity P-wave (km/s) = 6.04046 6.85457 6.46035
#
# Compressibility (1/GPa) = 0.01893763
#
# Stress axis : x y z
#
# Youngs Moduli (GPa) = 79.71452 117.21225 61.31914
#
# Poissons Ratio (x) = 0.34845 0.15065
# Poissons Ratio (y) = 0.23698 0.23263
# Poissons Ratio (z) = 0.19585 0.44467
#
# Static dielectric constant tensor:
#      x y z
#    x 4.267930 0.000000 0.000000 
#    y 0.000000 4.206850 0.000000 
#    z 0.000000 0.000000 3.560300 
# 
# 
# High freq. dielectric constant tensor:
#      x y z
#    x 1.842470 0.000000 0.000000 
#    y 0.000000 1.830220 0.000000 
#    z 0.000000 0.000000 1.759800 
# 
# From -- ./inp_files/10812.got.cif
#   From: 2010.03.12/outbox.cif.g09.slc.cpg/sg54_6_cif.got.tgz:10812.got - 2010.04.16 15:00:50.
