data_PCOD8223833
_publ_section_title
;
Structure prediction by ZEFSAII (Michael W. Deem and Ramdas Pophale) SiO2 
 PCOD8223833
Probable space group: P C C A
;
_chemical_formula_sum "Si O2"
_cell_formula_units_Z 40
_cell_length_a 19.821923
_cell_length_b 8.277444
_cell_length_c 10.415401
_cell_angle_alpha 90.000000
_cell_angle_beta 90.000000
_cell_angle_gamma 90.000000
_cell_volume 1708.905436
_symmetry_space_group_name_H-M "P C C A"
_symmetry_group_IT_number 54
_symmetry_cell_setting 'orthorhombic'
loop_
_space_group_symop_operation_xyz
x,y,z
1/2-x,-y,z
1/2+x,-y,1/2-z
-x,y,1/2-z
-x,-y,-z
1/2+x,y,-z
1/2-x,y,1/2+z
x,-y,1/2+z
loop_
_atom_site_type_symbol
_atom_site_label
_atom_site_fract_x
_atom_site_fract_y
_atom_site_fract_z
Si Si1 0.819461 0.906450 0.472498
Si Si2 0.682483 0.579727 0.834623
Si Si3 0.575026 0.775642 0.141564
Si Si4 0.106014 0.556719 0.429285
Si Si5 0.437769 0.149644 0.575294
O O1 0.805054 0.766920 0.370304
O O2 0.849100 0.832900 0.605120
O O3 0.750000 0.000000 0.501690
O O4 0.881221 0.013215 0.419638
O O5 0.750000 0.500000 0.782480
O O6 0.633611 0.574811 0.713948
O O7 0.660379 0.474763 0.958352
O O8 0.558149 0.602039 0.074764
O O9 0.572278 0.750703 0.292890
O O10 0.518049 0.903010 0.084717
O O11 0.069460 0.726197 0.457474
#
# Coordination Sequence:
#
# PCOD8223833 Si02
#       5
#     8   8   8   8   8
#     4  11  26  44  70 103 141 190 232 293 358 431
#     4  11  24  44  68 103 140 186 235 287 355 424
#     4  10  24  45  71 100 145 182 242 286 363 420
#     4  11  22  44  71 102 133 183 240 290 348 425
#     4  11  23  45  70 106 141 184 232 302 352 426
#
# _framework density 23.406796
#
# number of rings (size 3 to 8) (size 9 to 14) (size 15 to 20)
#    0.000    1.200    2.000    3.000    2.800    2.400 
#    0.000    0.000    0.000    0.000    0.000    0.000 
#    0.000    0.000    0.000    0.000    0.000    0.000 
#
# Total GULP energy -495647.116997 kJ/mol
# GULP energy per Si atom -12391.177925 kJ/mol
# Density = 2.335352 g / cm^3
# Si number density = 23.406796 Si / 1000 Ang^3
#
#
#
# Elastic Constant Matrix: (Units=GPa)
#
#
# Indices 1 2 3 4 5 6 
#
# 1 136.5192 37.8160 22.8473 0.0000 0.0000 0.0000
# 2 37.8160 62.6574 -15.8518 0.0000 0.0000 0.0000
# 3 22.8473 -15.8518 76.7636 0.0000 0.0000 0.0000
# 4 0.0000 0.0000 0.0000 21.2841 0.0000 0.0000
# 5 0.0000 0.0000 0.0000 0.0000 26.6820 0.0000
# 6 0.0000 0.0000 0.0000 0.0000 0.0000 35.7426
#
#
#
# Elastic Compliance Matrix: (Units=1/GPa)
#
#
# Indices 1 2 3 4 5 6 
#
# 1 0.010075 -0.007216 -0.004489 0.000000 0.000000 0.000000
# 2 -0.007216 0.022008 0.006693 0.000000 0.000000 0.000000
# 3 -0.004489 0.006693 0.015745 0.000000 0.000000 0.000000
# 4 0.000000 0.000000 0.000000 0.046983 0.000000 0.000000
# 5 0.000000 0.000000 0.000000 0.000000 0.037478 0.000000
# 6 0.000000 0.000000 0.000000 0.000000 0.000000 0.027978
#
#
# Mechanical properties :
#
#
# Convention : Reuss Voigt Hill
#
# Bulk Modulus (GPa) = 26.45283 40.61813 33.53548
# Shear Modulus (GPa) = 27.33814 32.15032 29.74423
#
# Velocity S-wave (km/s) = 3.42125 3.71016 3.56863
# Velocity P-wave (km/s) = 5.18965 5.97867 5.59808
#
# Compressibility (1/GPa) = 0.03780314
#
# Stress axis : x y z
#
# Youngs Moduli (GPa) = 99.25401 45.43738 63.51204
#
# Poissons Ratio (x) = 0.32789 0.28510
# Poissons Ratio (y) = 0.71625 -0.42506
# Poissons Ratio (z) = 0.44554 -0.30409
#
# Static dielectric constant tensor:
#      x y z
#    x 4.254650 0.000000 0.000000 
#    y 0.000000 4.336150 0.000000 
#    z 0.000000 0.000000 4.150590 
# 
# 
# High freq. dielectric constant tensor:
#      x y z
#    x 1.925890 0.000000 0.000000 
#    y 0.000000 1.932150 0.000000 
#    z 0.000000 0.000000 1.931480 
# 
# From -- ./inp_files/8739.got.cif
#   From: 2010.03.12/outbox.cif.g09.slc.cpg/sg54_5_cif.got.tgz:8739.got - 2010.04.16 15:00:50.
