data_PCOD8223812
_publ_section_title
;
Structure prediction by ZEFSAII (Michael W. Deem and Ramdas Pophale) SiO2 
 PCOD8223812
Probable space group: P C C A
;
_chemical_formula_sum "Si O2"
_cell_formula_units_Z 64
_cell_length_a 9.144407
_cell_length_b 24.013215
_cell_length_c 14.492114
_cell_angle_alpha 90.000000
_cell_angle_beta 90.000000
_cell_angle_gamma 90.000000
_cell_volume 3182.274204
_symmetry_space_group_name_H-M "P C C A"
_symmetry_group_IT_number 54
_symmetry_cell_setting 'orthorhombic'
loop_
_space_group_symop_operation_xyz
x,y,z
1/2-x,-y,z
1/2+x,-y,1/2-z
-x,y,1/2-z
-x,-y,-z
1/2+x,y,-z
1/2-x,y,1/2+z
x,-y,1/2+z
loop_
_atom_site_type_symbol
_atom_site_label
_atom_site_fract_x
_atom_site_fract_y
_atom_site_fract_z
Si Si1 0.173809 0.745193 0.144694
Si Si2 0.660414 0.755729 0.644685
Si Si3 0.683901 0.866449 0.088338
Si Si4 0.667449 0.055751 0.748954
Si Si5 0.280245 0.335121 0.497832
Si Si6 0.424168 0.497785 0.150422
Si Si7 0.532913 0.413023 0.510870
Si Si8 0.160093 0.144551 0.096334
O O1 0.180637 0.732556 0.252828
O O2 0.223115 0.688344 0.095442
O O3 0.286321 0.793134 0.115481
O O4 0.009443 0.762901 0.116632
O O5 0.737791 0.814857 0.637118
O O6 0.741109 0.712531 0.578089
O O7 0.712291 0.921652 0.148564
O O8 0.512591 0.853217 0.078750
O O9 0.755780 0.880250 0.991003
O O10 0.500000 0.039082 0.750000
O O11 0.703164 0.105007 0.819731
O O12 0.750000 0.000000 0.776258
O O13 0.447441 0.354527 0.502276
O O14 0.197736 0.392544 0.471182
O O15 0.250000 0.500000 0.163317
O O16 0.500000 0.491253 0.250000
O O17 0.474452 0.447327 0.084517
O O18 0.477674 0.553830 0.100284
#
# Coordination Sequence:
#
# PCOD8223812 Si02
#       8
#     8   8   8   8   8   8   8   8
#     4  11  24  40  62  95 130 173 220 261 326 391
#     4  11  24  40  63  93 130 177 215 265 323 391
#     4  11  23  41  64  93 129 170 216 265 326 390
#     4  10  24  44  66  94 128 168 219 277 328 384
#     4  12  24  43  64  98 135 174 219 270 325 384
#     4  11  26  46  74 101 131 177 223 267 335 387
#     4  11  26  46  68  96 141 172 216 277 324 390
#     4  11  23  41  64  93 130 168 218 265 324 393
#
# _framework density 20.111404
#
# number of rings (size 3 to 8) (size 9 to 14) (size 15 to 20)
#    0.000    1.000    5.000    0.750    3.500    4.500 
#    0.000    2.500    0.000    0.000    0.000    0.000 
#    0.000    0.000    0.000    0.000    0.000    0.000 
#
# Total GULP energy -793834.888200 kJ/mol
# GULP energy per Si atom -12403.670128 kJ/mol
# Density = 2.006563 g / cm^3
# Si number density = 20.111404 Si / 1000 Ang^3
#
#
#
# Elastic Constant Matrix: (Units=GPa)
#
#
# Indices 1 2 3 4 5 6 
#
# 1 94.1641 36.3819 47.0251 0.0000 0.0000 0.0000
# 2 36.3819 83.5911 20.9454 0.0000 0.0000 0.0000
# 3 47.0251 20.9454 109.9114 0.0000 0.0000 0.0000
# 4 0.0000 0.0000 0.0000 148.5868 0.0000 0.0000
# 5 0.0000 0.0000 0.0000 0.0000 31.1533 0.0000
# 6 0.0000 0.0000 0.0000 0.0000 0.0000 37.4380
#
#
#
# Elastic Compliance Matrix: (Units=1/GPa)
#
#
# Indices 1 2 3 4 5 6 
#
# 1 0.015480 -0.005333 -0.005607 0.000000 0.000000 0.000000
# 2 -0.005333 0.014400 -0.000463 0.000000 0.000000 0.000000
# 3 -0.005607 -0.000463 0.011585 0.000000 0.000000 0.000000
# 4 0.000000 0.000000 0.000000 0.006730 0.000000 0.000000
# 5 0.000000 0.000000 0.000000 0.000000 0.032099 0.000000
# 6 0.000000 0.000000 0.000000 0.000000 0.000000 0.026711
#
#
# Mechanical properties :
#
#
# Convention : Reuss Voigt Hill
#
# Bulk Modulus (GPa) = 53.58745 55.15237 54.36991
# Shear Modulus (GPa) = 36.75659 55.65659 46.20659
#
# Velocity S-wave (km/s) = 4.27974 5.26633 4.79846
# Velocity P-wave (km/s) = 7.15015 8.02882 7.60219
#
# Compressibility (1/GPa) = 0.01866109
#
# Stress axis : x y z
#
# Youngs Moduli (GPa) = 64.59882 69.44513 86.31650
#
# Poissons Ratio (x) = 0.37032 0.48397
# Poissons Ratio (y) = 0.34448 0.03993
# Poissons Ratio (z) = 0.36220 0.03212
#
# Static dielectric constant tensor:
#      x y z
#    x 3.763200 0.000000 0.000000 
#    y 0.000000 3.515670 0.000000 
#    z 0.000000 0.000000 3.798370 
# 
# 
# High freq. dielectric constant tensor:
#      x y z
#    x 1.799270 0.000000 0.000000 
#    y 0.000000 1.783850 0.000000 
#    z 0.000000 0.000000 1.792920 
# 
# From -- ./inp_files/11936.got.cif
#   From: 2010.03.12/outbox.cif.g09.slc.cpg/sg54_6_cif.got.tgz:11936.got - 2010.04.16 15:00:50.
