data_PCOD8223658
_publ_section_title
;
Structure prediction by ZEFSAII (Michael W. Deem and Ramdas Pophale) SiO2 
 PCOD8223658
Probable space group: P C C A
;
_chemical_formula_sum "Si O2"
_cell_formula_units_Z 36
_cell_length_a 11.641057
_cell_length_b 5.607434
_cell_length_c 23.107571
_cell_angle_alpha 90.000000
_cell_angle_beta 90.000000
_cell_angle_gamma 90.000000
_cell_volume 1508.380407
_symmetry_space_group_name_H-M "P C C A"
_symmetry_group_IT_number 54
_symmetry_cell_setting 'orthorhombic'
loop_
_space_group_symop_operation_xyz
x,y,z
1/2-x,-y,z
1/2+x,-y,1/2-z
-x,y,1/2-z
-x,-y,-z
1/2+x,y,-z
1/2-x,y,1/2+z
x,-y,1/2+z
loop_
_atom_site_type_symbol
_atom_site_label
_atom_site_fract_x
_atom_site_fract_y
_atom_site_fract_z
Si Si1 0.181717 0.753403 0.985081
Si Si2 0.250000 0.500000 0.171182
Si Si3 0.436440 0.215828 0.102585
Si Si4 0.121983 0.547930 0.869738
Si Si5 0.558304 0.822367 0.304842
O O1 0.250000 0.500000 0.993748
O O2 0.087847 0.797893 0.034645
O O3 0.250000 0.000000 0.985338
O O4 0.119070 0.736283 0.922928
O O5 0.348227 0.403156 0.129485
O O6 0.181936 0.303001 0.210170
O O7 0.568451 0.298298 0.108153
O O8 0.418279 0.973643 0.137867
O O9 0.250000 0.500000 0.846864
O O10 0.042941 0.633145 0.817167
O O11 0.500000 0.963599 0.250000
#
# Coordination Sequence:
#
# PCOD8223658 Si02
#       5
#     8   4   8   8   8
#     4  11  24  43  76 112 150 193 237 308 375 445
#     4  10  22  46  66 100 134 182 238 302 362 436
#     4  11  23  45  72 102 141 187 248 294 367 443
#     4  10  26  45  68 105 148 189 238 302 371 436
#     4  11  26  44  73 101 136 193 244 306 361 438
#
# _framework density 23.866658000000001
#
# number of rings (size 3 to 8) (size 9 to 14) (size 15 to 20)
#    0.000    1.333    1.111    2.667   10.889    4.444 
#    4.000    0.000    0.000    0.000    0.000    0.000 
#    0.000    0.000    0.000    0.000    0.000    0.000 
#
# Total GULP energy -445985.652544 kJ/mol
# GULP energy per Si atom -12388.490348 kJ/mol
# Density = 2.381234 g / cm^3
# Si number density = 23.866658 Si / 1000 Ang^3
#
#
#
# Elastic Constant Matrix: (Units=GPa)
#
#
# Indices 1 2 3 4 5 6 
#
# 1 135.2551 34.2164 8.5354 0.0000 0.0000 0.0000
# 2 34.2164 104.9256 -5.5119 0.0000 0.0000 0.0000
# 3 8.5354 -5.5119 43.8093 0.0000 0.0000 0.0000
# 4 0.0000 0.0000 0.0000 23.4843 0.0000 0.0000
# 5 0.0000 0.0000 0.0000 0.0000 35.1023 0.0000
# 6 0.0000 0.0000 0.0000 0.0000 0.0000 37.1353
#
#
#
# Elastic Compliance Matrix: (Units=1/GPa)
#
#
# Indices 1 2 3 4 5 6 
#
# 1 0.008221 -0.002783 -0.001952 0.000000 0.000000 0.000000
# 2 -0.002783 0.010536 0.001868 0.000000 0.000000 0.000000
# 3 -0.001952 0.001868 0.023441 0.000000 0.000000 0.000000
# 4 0.000000 0.000000 0.000000 0.042582 0.000000 0.000000
# 5 0.000000 0.000000 0.000000 0.000000 0.028488 0.000000
# 6 0.000000 0.000000 0.000000 0.000000 0.000000 0.026929
#
#
# Mechanical properties :
#
#
# Convention : Reuss Voigt Hill
#
# Bulk Modulus (GPa) = 27.42427 39.82999 33.62713
# Shear Modulus (GPa) = 31.62833 35.59438 33.61136
#
# Velocity S-wave (km/s) = 3.64429 3.86604 3.75680
# Velocity P-wave (km/s) = 5.40587 6.05418 5.73918
#
# Compressibility (1/GPa) = 0.03646406
#
# Stress axis : x y z
#
# Youngs Moduli (GPa) = 121.64376 94.90969 42.65941
#
# Poissons Ratio (x) = 0.26416 0.08326
# Poissons Ratio (y) = 0.33857 -0.07968
# Poissons Ratio (z) = 0.23743 -0.17728
#
# Static dielectric constant tensor:
#      x y z
#    x 4.660780 0.000000 0.000000 
#    y 0.000000 4.251740 0.000000 
#    z 0.000000 0.000000 4.348060 
# 
# 
# High freq. dielectric constant tensor:
#      x y z
#    x 1.958760 0.000000 0.000000 
#    y 0.000000 1.939060 0.000000 
#    z 0.000000 0.000000 1.941960 
# 
# From -- ./inp_files/23807.got.cif
#   From: 2010.03.12/outbox.cif.g09.slc.cpg/sg54_12_cif.got.tgz:23807.got - 2010.04.16 15:00:50.
