data_PCOD8223572
_publ_section_title
;
Structure prediction by ZEFSAII (Michael W. Deem and Ramdas Pophale) SiO2 
 PCOD8223572
Probable space group: P C C A
;
_chemical_formula_sum "Si O2"
_cell_formula_units_Z 48
_cell_length_a 9.526856
_cell_length_b 7.385866
_cell_length_c 28.687472
_cell_angle_alpha 90.000000
_cell_angle_beta 90.000000
_cell_angle_gamma 90.000000
_cell_volume 2018.567627
_symmetry_space_group_name_H-M "P C C A"
_symmetry_group_IT_number 54
_symmetry_cell_setting 'orthorhombic'
loop_
_space_group_symop_operation_xyz
x,y,z
1/2-x,-y,z
1/2+x,-y,1/2-z
-x,y,1/2-z
-x,-y,-z
1/2+x,y,-z
1/2-x,y,1/2+z
x,-y,1/2+z
loop_
_atom_site_type_symbol
_atom_site_label
_atom_site_fract_x
_atom_site_fract_y
_atom_site_fract_z
Si Si1 0.909574 0.964145 0.791392
Si Si2 0.015969 0.714982 0.452134
Si Si3 0.400987 0.443034 0.876719
Si Si4 0.913639 0.456714 0.292785
Si Si5 0.508372 0.939265 0.391622
Si Si6 0.790716 0.807520 0.966029
O O1 0.941236 0.754187 0.791488
O O2 0.951228 0.037039 0.842680
O O3 0.000000 0.057973 0.750000
O O4 0.750000 0.000000 0.779293
O O5 0.072732 0.539828 0.425763
O O6 0.094612 0.711622 0.501595
O O7 0.849461 0.688080 0.460208
O O8 0.050403 0.903214 0.425155
O O9 0.250000 0.500000 0.856410
O O10 0.519768 0.520256 0.841613
O O11 0.397734 0.224463 0.883833
O O12 0.750000 0.500000 0.289917
O O13 0.000000 0.547587 0.250000
O O14 0.645101 0.844343 0.414631
O O15 0.750000 0.000000 0.989220
#
# Coordination Sequence:
#
# PCOD8223572 Si02
#       6
#     8   8   8   8   8   8
#     4  10  22  42  64 100 133 168 220 269 322 399
#     4  11  25  44  70  95 133 181 218 287 339 398
#     4  11  27  43  66 102 135 175 232 274 335 399
#     4  10  23  44  71  97 139 174 219 276 330 399
#     4  10  23  45  69  93 136 175 223 274 332 405
#     4  10  22  42  69  97 129 173 233 269 343 402
#
# _framework density 23.779237999999999
#
# number of rings (size 3 to 8) (size 9 to 14) (size 15 to 20)
#    0.000    1.667    0.000    4.000   11.667    1.333 
#    9.000    0.000    0.000    0.000    0.000    0.000 
#    0.000    0.000    0.000    0.000    0.000    0.000 
#
# Total GULP energy -595166.855002 kJ/mol
# GULP energy per Si atom -12399.309479 kJ/mol
# Density = 2.372512 g / cm^3
# Si number density = 23.779238 Si / 1000 Ang^3
#
#
#
# Elastic Constant Matrix: (Units=GPa)
#
#
# Indices 1 2 3 4 5 6 
#
# 1 149.5997 10.6684 58.8211 0.0000 0.0000 0.0000
# 2 10.6684 48.2757 14.0171 0.0000 0.0000 0.0000
# 3 58.8211 14.0171 159.1134 0.0000 0.0000 0.0000
# 4 0.0000 0.0000 0.0000 13.2059 0.0000 0.0000
# 5 0.0000 0.0000 0.0000 0.0000 41.5767 0.0000
# 6 0.0000 0.0000 0.0000 0.0000 0.0000 27.7523
#
#
#
# Elastic Compliance Matrix: (Units=1/GPa)
#
#
# Indices 1 2 3 4 5 6 
#
# 1 0.007861 -0.000917 -0.002825 0.000000 0.000000 0.000000
# 2 -0.000917 0.021365 -0.001543 0.000000 0.000000 0.000000
# 3 -0.002825 -0.001543 0.007465 0.000000 0.000000 0.000000
# 4 0.000000 0.000000 0.000000 0.075724 0.000000 0.000000
# 5 0.000000 0.000000 0.000000 0.000000 0.024052 0.000000
# 6 0.000000 0.000000 0.000000 0.000000 0.000000 0.036033
#
#
# Mechanical properties :
#
#
# Convention : Reuss Voigt Hill
#
# Bulk Modulus (GPa) = 38.28410 58.22243 48.25326
# Shear Modulus (GPa) = 26.07195 34.73912 30.40554
#
# Velocity S-wave (km/s) = 3.31481 3.82632 3.57971
# Velocity P-wave (km/s) = 5.54846 6.63767 6.11736
#
# Compressibility (1/GPa) = 0.02612051
#
# Stress axis : x y z
#
# Youngs Moduli (GPa) = 127.21479 46.80540 133.95504
#
# Poissons Ratio (x) = 0.04291 0.37845
# Poissons Ratio (y) = 0.11663 0.20672
# Poissons Ratio (z) = 0.35941 0.07223
#
# Static dielectric constant tensor:
#      x y z
#    x 4.393700 0.000000 0.000000 
#    y 0.000000 4.148690 0.000000 
#    z 0.000000 0.000000 4.657860 
# 
# 
# High freq. dielectric constant tensor:
#      x y z
#    x 1.940000 0.000000 0.000000 
#    y 0.000000 1.932990 0.000000 
#    z 0.000000 0.000000 1.951770 
# 
# From -- ./inp_files/27753.got.cif
#   From: 2010.03.12/outbox.cif.g09.slc.cpg/sg54_14_cif.got.tgz:27753.got - 2010.04.16 15:00:50.
