data_PCOD8223181
_publ_section_title
;
Structure prediction by ZEFSAII (Michael W. Deem and Ramdas Pophale) SiO2 
 PCOD8223181
Probable space group: P C C A
;
_chemical_formula_sum "Si O2"
_cell_formula_units_Z 48
_cell_length_a 8.443528
_cell_length_b 17.659380
_cell_length_c 15.433457
_cell_angle_alpha 90.000000
_cell_angle_beta 90.000000
_cell_angle_gamma 90.000000
_cell_volume 2301.243719
_symmetry_space_group_name_H-M "P C C A"
_symmetry_group_IT_number 54
_symmetry_cell_setting 'orthorhombic'
loop_
_space_group_symop_operation_xyz
x,y,z
1/2-x,-y,z
1/2+x,-y,1/2-z
-x,y,1/2-z
-x,-y,-z
1/2+x,y,-z
1/2-x,y,1/2+z
x,-y,1/2+z
loop_
_atom_site_type_symbol
_atom_site_label
_atom_site_fract_x
_atom_site_fract_y
_atom_site_fract_z
Si Si1 0.874304 0.688094 0.577303
Si Si2 0.254616 0.670747 0.107948
Si Si3 0.500000 0.938179 0.750000
Si Si4 0.750000 0.000000 0.130257
Si Si5 0.211197 0.844031 0.454079
Si Si6 0.633790 0.172777 0.376697
Si Si7 0.317651 0.420186 0.769186
O O1 0.830307 0.651575 0.483521
O O2 0.813548 0.774349 0.583615
O O3 0.790704 0.640079 0.653587
O O4 0.062320 0.688356 0.588619
O O5 0.168330 0.742065 0.154133
O O6 0.233367 0.604613 0.178892
O O7 0.590443 0.992343 0.685118
O O8 0.369313 0.883994 0.704378
O O9 0.720485 0.924363 0.076219
O O10 0.224026 0.848010 0.557973
O O11 0.030456 0.832214 0.428661
O O12 0.250000 0.500000 0.800635
O O13 0.500000 0.430449 0.750000
#
# Coordination Sequence:
#
# PCOD8223181 Si02
#       7
#     8   8   4   4   8   8   8
#     4  10  21  40  62  90 120 159 203 244 297 359
#     4  10  21  39  63  91 118 159 202 246 297 358
#     4  10  24  38  54  88 120 148 206 246 304 352
#     4  10  24  38  54  86 118 156 204 246 302 350
#     4  10  21  38  58  84 115 156 202 244 298 356
#     4  10  21  37  60  86 114 154 202 246 296 353
#     4  10  24  41  61  92 124 158 198 241 303 359
#
# _framework density 20.858287000000001
#
# number of rings (size 3 to 8) (size 9 to 14) (size 15 to 20)
#    0.000    2.000    0.000    4.000    4.667    9.333 
#    1.500    3.333    0.000    0.000    0.000    0.000 
#    0.000    0.000    0.000    0.000    0.000    0.000 
#
# Total GULP energy -595045.229357 kJ/mol
# GULP energy per Si atom -12396.775612 kJ/mol
# Density = 2.081081 g / cm^3
# Si number density = 20.858287 Si / 1000 Ang^3
#
#
#
# Elastic Constant Matrix: (Units=GPa)
#
#
# Indices 1 2 3 4 5 6 
#
# 1 44.9015 24.7674 13.2698 0.0000 0.0000 0.0000
# 2 24.7674 137.5669 59.7841 0.0000 0.0000 0.0000
# 3 13.2698 59.7841 91.5942 0.0000 0.0000 0.0000
# 4 0.0000 0.0000 0.0000 7.3763 0.0000 0.0000
# 5 0.0000 0.0000 0.0000 0.0000 27.5791 0.0000
# 6 0.0000 0.0000 0.0000 0.0000 0.0000 32.8923
#
#
#
# Elastic Compliance Matrix: (Units=1/GPa)
#
#
# Indices 1 2 3 4 5 6 
#
# 1 0.024785 -0.004051 -0.000947 0.000000 0.000000 0.000000
# 2 -0.004051 0.010810 -0.006469 0.000000 0.000000 0.000000
# 3 -0.000947 -0.006469 0.015277 0.000000 0.000000 0.000000
# 4 0.000000 0.000000 0.000000 0.135569 0.000000 0.000000
# 5 0.000000 0.000000 0.000000 0.000000 0.036259 0.000000
# 6 0.000000 0.000000 0.000000 0.000000 0.000000 0.030402
#
#
# Mechanical properties :
#
#
# Convention : Reuss Voigt Hill
#
# Bulk Modulus (GPa) = 35.79183 52.18946 43.99064
# Shear Modulus (GPa) = 17.52245 25.31897 21.42071
#
# Velocity S-wave (km/s) = 2.90154 3.48782 3.20810
# Velocity P-wave (km/s) = 5.33123 6.42613 5.90412
#
# Compressibility (1/GPa) = 0.02793934
#
# Stress axis : x y z
#
# Youngs Moduli (GPa) = 40.34663 92.50982 65.45778
#
# Poissons Ratio (x) = 0.37475 0.06197
# Poissons Ratio (y) = 0.16344 0.42342
# Poissons Ratio (z) = 0.03820 0.59841
#
# Static dielectric constant tensor:
#      x y z
#    x 3.732780 0.000000 0.000000 
#    y 0.000000 3.875500 0.000000 
#    z 0.000000 0.000000 4.000010 
# 
# 
# High freq. dielectric constant tensor:
#      x y z
#    x 1.816940 0.000000 0.000000 
#    y 0.000000 1.814590 0.000000 
#    z 0.000000 0.000000 1.821490 
# 
# From -- ./inp_files/11778.got.cif
#   From: 2010.03.12/outbox.cif.g09.slc.cpg/sg54_6_cif.got.tgz:11778.got - 2010.04.16 15:00:50.
