data_PCOD8223849
_publ_section_title
;
Structure prediction by ZEFSAII (Michael W. Deem and Ramdas Pophale) SiO2 
 PCOD8223849
Probable space group: P C C A
;
_chemical_formula_sum "Si O2"
_cell_formula_units_Z 40
_cell_length_a 8.734211
_cell_length_b 10.903730
_cell_length_c 17.470282
_cell_angle_alpha 90.000000
_cell_angle_beta 90.000000
_cell_angle_gamma 90.000000
_cell_volume 1663.790666
_symmetry_space_group_name_H-M "P C C A"
_symmetry_group_IT_number 54
_symmetry_cell_setting 'orthorhombic'
loop_
_space_group_symop_operation_xyz
x,y,z
1/2-x,-y,z
1/2+x,-y,1/2-z
-x,y,1/2-z
-x,-y,-z
1/2+x,y,-z
1/2-x,y,1/2+z
x,-y,1/2+z
loop_
_atom_site_type_symbol
_atom_site_label
_atom_site_fract_x
_atom_site_fract_y
_atom_site_fract_z
Si Si1 0.403929 0.071865 0.823547
Si Si2 0.405499 0.329492 0.898900
Si Si3 0.525196 0.844416 0.898412
Si Si4 0.806474 0.261541 0.476707
Si Si5 0.000000 0.679783 0.250000
Si Si6 0.750000 0.500000 0.715059
O O1 0.500000 0.112066 0.750000
O O2 0.361206 0.193669 0.869534
O O3 0.250000 0.000000 0.799388
O O4 0.509626 0.986409 0.876479
O O5 0.583744 0.341089 0.921487
O O6 0.377209 0.432397 0.836221
O O7 0.297892 0.353233 0.972866
O O8 0.700185 0.822991 0.923154
O O9 0.477795 0.761075 0.825578
O O10 0.413522 0.821134 0.969490
O O11 0.153056 0.598045 0.236178
#
# Coordination Sequence:
#
# PCOD8223849 Si02
#       6
#     8   8   8   8   4   4
#     4  12  26  43  72 107 149 188 242 308 369 444
#     4  11  26  46  69 106 140 191 248 295 372 438
#     4  11  24  48  74 107 148 184 246 303 375 438
#     4  10  24  47  73 106 143 194 238 305 376 443
#     4  12  26  48  72 104 144 194 244 312 364 430
#     4  12  28  48  70 104 146 194 254 306 354 454
#
# _framework density 24.041485000000002
#
# number of rings (size 3 to 8) (size 9 to 14) (size 15 to 20)
#    0.000    0.800    5.000    0.000    7.000    5.600 
#    0.000    0.000    0.000    0.000    0.000    0.000 
#    0.000    0.000    0.000    0.000    0.000    0.000 
#
# Total GULP energy -496176.476411 kJ/mol
# GULP energy per Si atom -12404.411910 kJ/mol
# Density = 2.398677 g / cm^3
# Si number density = 24.041485 Si / 1000 Ang^3
#
#
#
# Elastic Constant Matrix: (Units=GPa)
#
#
# Indices 1 2 3 4 5 6 
#
# 1 142.2272 16.9975 33.5422 0.0000 0.0000 0.0000
# 2 16.9975 86.3675 21.1288 0.0000 0.0000 0.0000
# 3 33.5422 21.1288 71.5399 0.0000 0.0000 0.0000
# 4 0.0000 0.0000 0.0000 8.4566 0.0000 0.0000
# 5 0.0000 0.0000 0.0000 0.0000 38.8443 0.0000
# 6 0.0000 0.0000 0.0000 0.0000 0.0000 29.4126
#
#
#
# Elastic Compliance Matrix: (Units=1/GPa)
#
#
# Indices 1 2 3 4 5 6 
#
# 1 0.007945 -0.000703 -0.003517 0.000000 0.000000 0.000000
# 2 -0.000703 0.012542 -0.003375 0.000000 0.000000 0.000000
# 3 -0.003517 -0.003375 0.016624 0.000000 0.000000 0.000000
# 4 0.000000 0.000000 0.000000 0.118251 0.000000 0.000000
# 5 0.000000 0.000000 0.000000 0.000000 0.025744 0.000000
# 6 0.000000 0.000000 0.000000 0.000000 0.000000 0.033999
#
#
# Mechanical properties :
#
#
# Convention : Reuss Voigt Hill
#
# Bulk Modulus (GPa) = 45.61841 49.27461 47.44651
# Shear Modulus (GPa) = 21.04365 30.57378 25.80871
#
# Velocity S-wave (km/s) = 2.96177 3.56997 3.28000
# Velocity P-wave (km/s) = 5.54185 6.12643 5.84146
#
# Compressibility (1/GPa) = 0.02192097
#
# Stress axis : x y z
#
# Youngs Moduli (GPa) = 125.87305 79.72980 60.15406
#
# Poissons Ratio (x) = 0.05606 0.21158
# Poissons Ratio (y) = 0.08850 0.20300
# Poissons Ratio (z) = 0.44272 0.26906
#
# Static dielectric constant tensor:
#      x y z
#    x 4.553520 0.000000 0.000000 
#    y 0.000000 4.050810 0.000000 
#    z 0.000000 0.000000 4.423900 
# 
# 
# High freq. dielectric constant tensor:
#      x y z
#    x 1.975810 0.000000 0.000000 
#    y 0.000000 1.933900 0.000000 
#    z 0.000000 0.000000 1.955520 
# 
# From -- ./inp_files/16364.got.cif
#   From: 2010.03.12/outbox.cif.g09.slc.cpg/sg54_9_cif.got.tgz:16364.got - 2010.04.16 15:00:50.
