data_PCOD8223364
_publ_section_title
;
Structure prediction by ZEFSAII (Michael W. Deem and Ramdas Pophale) SiO2 
 PCOD8223364
Probable space group: P C C A
;
_chemical_formula_sum "Si O2"
_cell_formula_units_Z 48
_cell_length_a 18.384013
_cell_length_b 7.966345
_cell_length_c 15.780564
_cell_angle_alpha 90.000000
_cell_angle_beta 90.000000
_cell_angle_gamma 90.000000
_cell_volume 2311.117095
_symmetry_space_group_name_H-M "P C C A"
_symmetry_group_IT_number 54
_symmetry_cell_setting 'orthorhombic'
loop_
_space_group_symop_operation_xyz
x,y,z
1/2-x,-y,z
1/2+x,-y,1/2-z
-x,y,1/2-z
-x,-y,-z
1/2+x,y,-z
1/2-x,y,1/2+z
x,-y,1/2+z
loop_
_atom_site_type_symbol
_atom_site_label
_atom_site_fract_x
_atom_site_fract_y
_atom_site_fract_z
Si Si1 0.529800 0.120718 0.608928
Si Si2 0.465642 0.469522 0.665807
Si Si3 0.692591 0.144711 0.641956
Si Si4 0.696699 0.359063 0.810061
Si Si5 0.281429 0.815508 0.542525
Si Si6 0.946945 0.191293 0.919527
O O1 0.508339 0.296276 0.651400
O O2 0.612047 0.069413 0.631165
O O3 0.520373 0.155160 0.510513
O O4 0.478751 0.963337 0.637951
O O5 0.500000 0.546888 0.750000
O O6 0.380806 0.435514 0.670331
O O7 0.477396 0.622939 0.600857
O O8 0.693689 0.236843 0.731024
O O9 0.711475 0.252361 0.555552
O O10 0.750000 0.000000 0.652901
O O11 0.750000 0.500000 0.776629
O O12 0.725743 0.287781 0.899735
O O13 0.359801 0.814614 0.587609
O O14 0.250000 0.000000 0.535451
#
# Coordination Sequence:
#
# PCOD8223364 Si02
#       6
#     8   8   8   8   8   8
#     4  10  22  43  67  96 129 174 221 279 331 403
#     4  12  24  42  65  98 134 174 219 277 339 407
#     4  10  23  43  66  96 130 174 226 276 339 402
#     4  12  24  42  63  96 136 173 220 275 336 400
#     4  10  21  42  67  94 128 173 224 276 335 404
#     4  10  22  42  68  94 129 173 225 270 340 402
#
# _framework density 20.769176999999999
#
# number of rings (size 3 to 8) (size 9 to 14) (size 15 to 20)
#    0.000    1.333    3.333    2.000    0.000    4.000 
#    3.000    0.000    0.000    0.000    0.000    0.000 
#    0.000    0.000    0.000    0.000    0.000    0.000 
#
# Total GULP energy -594772.189729 kJ/mol
# GULP energy per Si atom -12391.087286 kJ/mol
# Density = 2.072191 g / cm^3
# Si number density = 20.769177 Si / 1000 Ang^3
#
#
#
# Elastic Constant Matrix: (Units=GPa)
#
#
# Indices 1 2 3 4 5 6 
#
# 1 104.7315 40.0251 29.2576 0.0000 0.0000 0.0000
# 2 40.0251 115.5324 29.9279 0.0000 0.0000 0.0000
# 3 29.2576 29.9279 94.0922 0.0000 0.0000 0.0000
# 4 0.0000 0.0000 0.0000 48.1135 0.0000 0.0000
# 5 0.0000 0.0000 0.0000 0.0000 35.0737 0.0000
# 6 0.0000 0.0000 0.0000 0.0000 0.0000 23.1981
#
#
#
# Elastic Compliance Matrix: (Units=1/GPa)
#
#
# Indices 1 2 3 4 5 6 
#
# 1 0.011530 -0.003341 -0.002522 0.000000 0.000000 0.000000
# 2 -0.003341 0.010401 -0.002269 0.000000 0.000000 0.000000
# 3 -0.002522 -0.002269 0.012134 0.000000 0.000000 0.000000
# 4 0.000000 0.000000 0.000000 0.020784 0.000000 0.000000
# 5 0.000000 0.000000 0.000000 0.000000 0.028511 0.000000
# 6 0.000000 0.000000 0.000000 0.000000 0.000000 0.043107
#
#
# Mechanical properties :
#
#
# Convention : Reuss Voigt Hill
#
# Bulk Modulus (GPa) = 56.18260 56.97527 56.57893
# Shear Modulus (GPa) = 33.63251 35.62010 34.62631
#
# Velocity S-wave (km/s) = 4.02848 4.14580 4.08756
# Velocity P-wave (km/s) = 6.98197 7.09994 7.04120
#
# Compressibility (1/GPa) = 0.01779911
#
# Stress axis : x y z
#
# Youngs Moduli (GPa) = 86.73253 96.14567 82.41276
#
# Poissons Ratio (x) = 0.32122 0.20788
# Poissons Ratio (y) = 0.28977 0.18702
# Poissons Ratio (z) = 0.21878 0.21819
#
# Static dielectric constant tensor:
#      x y z
#    x 3.806400 0.000000 0.000000 
#    y 0.000000 3.913740 0.000000 
#    z 0.000000 0.000000 3.833430 
# 
# 
# High freq. dielectric constant tensor:
#      x y z
#    x 1.827380 0.000000 0.000000 
#    y 0.000000 1.808340 0.000000 
#    z 0.000000 0.000000 1.820270 
# 
# From -- ./inp_files/14151.got.cif
#   From: 2010.03.12/outbox.cif.g09.slc.cpg/sg54_8_cif.got.tgz:14151.got - 2010.04.16 15:00:50.
