data_PCOD8223790
_publ_section_title
;
Structure prediction by ZEFSAII (Michael W. Deem and Ramdas Pophale) SiO2 
 PCOD8223790
Probable space group: P C C A
;
_chemical_formula_sum "Si O2"
_cell_formula_units_Z 48
_cell_length_a 16.209596
_cell_length_b 15.519635
_cell_length_c 8.366977
_cell_angle_alpha 90.000000
_cell_angle_beta 90.000000
_cell_angle_gamma 90.000000
_cell_volume 2104.855415
_symmetry_space_group_name_H-M "P C C A"
_symmetry_group_IT_number 54
_symmetry_cell_setting 'orthorhombic'
loop_
_space_group_symop_operation_xyz
x,y,z
1/2-x,-y,z
1/2+x,-y,1/2-z
-x,y,1/2-z
-x,-y,-z
1/2+x,y,-z
1/2-x,y,1/2+z
x,-y,1/2+z
loop_
_atom_site_type_symbol
_atom_site_label
_atom_site_fract_x
_atom_site_fract_y
_atom_site_fract_z
Si Si1 0.500000 0.303729 0.750000
Si Si2 0.601611 0.588294 0.015565
Si Si3 0.672320 0.557528 0.347914
Si Si4 0.344587 0.746324 0.065329
Si Si5 0.405267 0.264816 0.215871
Si Si6 0.805528 0.875034 0.403941
Si Si7 0.750000 0.000000 0.658524
O O1 0.477897 0.366396 0.900790
O O2 0.575894 0.245458 0.814583
O O3 0.665875 0.573896 0.159260
O O4 0.592870 0.494752 0.926301
O O5 0.632668 0.651568 0.872786
O O6 0.750000 0.500000 0.390264
O O7 0.686985 0.648613 0.430920
O O8 0.275927 0.814775 0.119755
O O9 0.361689 0.762283 0.879636
O O10 0.500000 0.281189 0.250000
O O11 0.387360 0.184327 0.096875
O O12 0.804995 0.932003 0.561966
O O13 0.812999 0.944248 0.262528
#
# Coordination Sequence:
#
# PCOD8223790 Si02
#       7
#     4   8   8   8   8   8   4
#     4  10  24  42  66 102 132 192 234 294 350 410
#     4  11  24  41  63  91 140 181 234 292 342 406
#     4  11  24  41  64  98 135 185 247 297 348 406
#     4  11  24  44  71  99 139 186 236 287 352 421
#     4  12  25  46  72 105 145 185 234 289 352 422
#     4  11  24  45  75 103 138 184 224 285 352 426
#     4  10  24  44  74 104 140 172 232 284 350 428
#
# _framework density 22.804417999999998
#
# number of rings (size 3 to 8) (size 9 to 14) (size 15 to 20)
#    0.000    1.000    3.333    2.500    4.667    6.667 
#    7.500    1.667    7.333    0.000    0.000    0.000 
#    0.000    0.000    0.000    0.000    0.000    0.000 
#
# Total GULP energy -594634.287290 kJ/mol
# GULP energy per Si atom -12388.214319 kJ/mol
# Density = 2.275251 g / cm^3
# Si number density = 22.804418 Si / 1000 Ang^3
#
#
#
# Elastic Constant Matrix: (Units=GPa)
#
#
# Indices 1 2 3 4 5 6 
#
# 1 40.8468 19.2354 9.7626 0.0000 0.0000 0.0000
# 2 19.2354 131.4993 28.6663 0.0000 0.0000 0.0000
# 3 9.7626 28.6663 96.8010 0.0000 0.0000 0.0000
# 4 0.0000 0.0000 0.0000 59.0058 0.0000 0.0000
# 5 0.0000 0.0000 0.0000 0.0000 57.7971 0.0000
# 6 0.0000 0.0000 0.0000 0.0000 0.0000 21.1195
#
#
#
# Elastic Compliance Matrix: (Units=1/GPa)
#
#
# Indices 1 2 3 4 5 6 
#
# 1 0.026532 -0.003525 -0.001632 0.000000 0.000000 0.000000
# 2 -0.003525 0.008598 -0.002191 0.000000 0.000000 0.000000
# 3 -0.001632 -0.002191 0.011144 0.000000 0.000000 0.000000
# 4 0.000000 0.000000 0.000000 0.016947 0.000000 0.000000
# 5 0.000000 0.000000 0.000000 0.000000 0.017302 0.000000
# 6 0.000000 0.000000 0.000000 0.000000 0.000000 0.047350
#
#
# Mechanical properties :
#
#
# Convention : Reuss Voigt Hill
#
# Bulk Modulus (GPa) = 31.66764 42.71954 37.19359
# Shear Modulus (GPa) = 32.65972 41.68335 37.17153
#
# Velocity S-wave (km/s) = 3.78850 4.27999 4.04172
# Velocity P-wave (km/s) = 5.74924 6.57253 6.17462
#
# Compressibility (1/GPa) = 0.03157798
#
# Stress axis : x y z
#
# Youngs Moduli (GPa) = 37.69057 116.30869 89.73636
#
# Poissons Ratio (x) = 0.41002 0.14644
# Poissons Ratio (y) = 0.13287 0.19658
# Poissons Ratio (z) = 0.06151 0.25478
#
# Static dielectric constant tensor:
#      x y z
#    x 3.857590 0.000000 0.000000 
#    y 0.000000 4.284950 0.000000 
#    z 0.000000 0.000000 4.461150 
# 
# 
# High freq. dielectric constant tensor:
#      x y z
#    x 1.868250 0.000000 0.000000 
#    y 0.000000 1.902240 0.000000 
#    z 0.000000 0.000000 1.924830 
# 
# From -- ./inp_files/4233.got.cif
#   From: 2010.03.12/outbox.cif.g09.slc.cpg/sg54_3_cif.got.tgz:4233.got - 2010.04.16 15:00:50.
