data_PCOD8223633
_publ_section_title
;
Structure prediction by ZEFSAII (Michael W. Deem and Ramdas Pophale) SiO2 
 PCOD8223633
Probable space group: P C C A
;
_chemical_formula_sum "Si O2"
_cell_formula_units_Z 40
_cell_length_a 8.663568
_cell_length_b 9.020635
_cell_length_c 22.610390
_cell_angle_alpha 90.000000
_cell_angle_beta 90.000000
_cell_angle_gamma 90.000000
_cell_volume 1767.021982
_symmetry_space_group_name_H-M "P C C A"
_symmetry_group_IT_number 54
_symmetry_cell_setting 'orthorhombic'
loop_
_space_group_symop_operation_xyz
x,y,z
1/2-x,-y,z
1/2+x,-y,1/2-z
-x,y,1/2-z
-x,-y,-z
1/2+x,y,-z
1/2-x,y,1/2+z
x,-y,1/2+z
loop_
_atom_site_type_symbol
_atom_site_label
_atom_site_fract_x
_atom_site_fract_y
_atom_site_fract_z
Si Si1 0.658996 0.638802 0.447034
Si Si2 0.852640 0.129050 0.887903
Si Si3 0.000000 0.227055 0.250000
Si Si4 0.250000 0.000000 0.222708
Si Si5 0.321862 0.846637 0.942656
Si Si6 0.624628 0.630454 0.132919
O O1 0.750000 0.500000 0.473614
O O2 0.769105 0.714348 0.398212
O O3 0.632011 0.746525 0.501857
O O4 0.499497 0.583525 0.417272
O O5 0.865246 0.098783 0.817819
O O6 0.021446 0.115276 0.911411
O O7 0.750000 0.000000 0.918531
O O8 0.850772 0.120562 0.242725
O O9 0.976275 0.329871 0.191834
O O10 0.211215 0.772078 0.894047
O O11 0.250000 0.000000 0.965426
O O12 0.750000 0.500000 0.145353
#
# Coordination Sequence:
#
# PCOD8223633 Si02
#       6
#     8   8   4   4   8   8
#     4  12  25  46  71 101 146 194 239 297 369 438
#     4  10  22  44  66 102 138 184 233 298 356 429
#     4  12  26  48  76 110 146 192 248 312 372 436
#     4  10  24  46  74 102 138 184 246 308 362 434
#     4  12  25  43  76 110 146 189 248 305 364 435
#     4  12  28  50  72 110 152 194 248 299 369 447
#
# _framework density 22.636955
#
# number of rings (size 3 to 8) (size 9 to 14) (size 15 to 20)
#    0.600    0.000    2.000    6.000    4.200    5.600 
#    3.600    2.000    0.000    0.000    0.000    0.000 
#    0.000    0.000    0.000    0.000    0.000    0.000 
#
# Total GULP energy -495676.394941 kJ/mol
# GULP energy per Si atom -12391.909874 kJ/mol
# Density = 2.258543 g / cm^3
# Si number density = 22.636955 Si / 1000 Ang^3
#
#
#
# Elastic Constant Matrix: (Units=GPa)
#
#
# Indices 1 2 3 4 5 6 
#
# 1 138.7998 34.1138 31.2371 0.0000 0.0000 0.0000
# 2 34.1138 99.0188 22.7127 0.0000 0.0000 0.0000
# 3 31.2371 22.7127 101.7077 0.0000 0.0000 0.0000
# 4 0.0000 0.0000 0.0000 25.4196 0.0000 0.0000
# 5 0.0000 0.0000 0.0000 0.0000 33.1610 0.0000
# 6 0.0000 0.0000 0.0000 0.0000 0.0000 55.3547
#
#
#
# Elastic Compliance Matrix: (Units=1/GPa)
#
#
# Indices 1 2 3 4 5 6 
#
# 1 0.008239 -0.002380 -0.001999 0.000000 0.000000 0.000000
# 2 -0.002380 0.011332 -0.001800 0.000000 0.000000 0.000000
# 3 -0.001999 -0.001800 0.010848 0.000000 0.000000 0.000000
# 4 0.000000 0.000000 0.000000 0.039340 0.000000 0.000000
# 5 0.000000 0.000000 0.000000 0.000000 0.030156 0.000000
# 6 0.000000 0.000000 0.000000 0.000000 0.000000 0.018065
#
#
# Mechanical properties :
#
#
# Convention : Reuss Voigt Hill
#
# Bulk Modulus (GPa) = 55.36543 57.29485 56.33014
# Shear Modulus (GPa) = 36.66808 39.55123 38.10965
#
# Velocity S-wave (km/s) = 4.02908 4.18448 4.10752
# Velocity P-wave (km/s) = 6.79380 6.97938 6.88722
#
# Compressibility (1/GPa) = 0.01806181
#
# Stress axis : x y z
#
# Youngs Moduli (GPa) = 121.36670 88.24672 92.18356
#
# Poissons Ratio (x) = 0.21004 0.18428
# Poissons Ratio (y) = 0.28887 0.16589
# Poissons Ratio (z) = 0.24262 0.15881
#
# Static dielectric constant tensor:
#      x y z
#    x 4.131940 0.000000 0.000000 
#    y 0.000000 4.162320 0.000000 
#    z 0.000000 0.000000 3.972640 
# 
# 
# High freq. dielectric constant tensor:
#      x y z
#    x 1.904460 0.000000 0.000000 
#    y 0.000000 1.894760 0.000000 
#    z 0.000000 0.000000 1.889620 
# 
# From -- ./inp_files/23341.got.cif
#   From: 2010.03.12/outbox.cif.g09.slc.cpg/sg54_12_cif.got.tgz:23341.got - 2010.04.16 15:00:50.
