data_PCOD8223831
_publ_section_title
;
Structure prediction by ZEFSAII (Michael W. Deem and Ramdas Pophale) SiO2 
 PCOD8223831
Probable space group: P C C A
;
_chemical_formula_sum "Si O2"
_cell_formula_units_Z 48
_cell_length_a 18.805033
_cell_length_b 9.251593
_cell_length_c 12.601712
_cell_angle_alpha 90.000000
_cell_angle_beta 90.000000
_cell_angle_gamma 90.000000
_cell_volume 2192.401895
_symmetry_space_group_name_H-M "P C C A"
_symmetry_group_IT_number 54
_symmetry_cell_setting 'orthorhombic'
loop_
_space_group_symop_operation_xyz
x,y,z
1/2-x,-y,z
1/2+x,-y,1/2-z
-x,y,1/2-z
-x,-y,-z
1/2+x,y,-z
1/2-x,y,1/2+z
x,-y,1/2+z
loop_
_atom_site_type_symbol
_atom_site_label
_atom_site_fract_x
_atom_site_fract_y
_atom_site_fract_z
Si Si1 0.784811 0.361444 0.979054
Si Si2 0.027091 0.843638 0.864797
Si Si3 0.398710 0.947971 0.007802
Si Si4 0.429783 0.453316 0.936447
Si Si5 0.833732 0.711019 0.124103
Si Si6 0.807336 0.113989 0.829669
O O1 0.750000 0.500000 0.919486
O O2 0.768263 0.218966 0.912255
O O3 0.869495 0.386340 0.986463
O O4 0.744654 0.350737 0.094502
O O5 0.049435 0.675494 0.855617
O O6 0.000000 0.896166 0.750000
O O7 0.969552 0.864243 0.957631
O O8 0.091728 0.944563 0.906187
O O9 0.370664 0.031677 0.110900
O O10 0.345644 0.824667 0.970201
O O11 0.394854 0.587543 0.873593
O O12 0.500000 0.500000 0.000000
O O13 0.838500 0.788289 0.236546
O O14 0.750000 0.000000 0.784845
#
# Coordination Sequence:
#
# PCOD8223831 Si02
#       6
#     8   8   8   8   8   8
#     4  10  24  45  66  98 142 177 236 301 352 424
#     4  11  24  42  69 100 136 184 226 282 351 420
#     4  11  23  45  66 102 145 172 233 293 347 422
#     4  11  23  46  70  96 142 187 231 291 351 424
#     4  11  25  44  69 101 138 184 234 294 363 426
#     4  12  25  41  74 104 137 188 233 299 366 424
#
# _framework density 21.893795999999998
#
# number of rings (size 3 to 8) (size 9 to 14) (size 15 to 20)
#    0.000    1.000    5.000    1.000    2.333    4.667 
#    0.000    2.500    0.000    0.000    0.000    0.000 
#    0.000    0.000    0.000    0.000    0.000    0.000 
#
# Total GULP energy -595035.090970 kJ/mol
# GULP energy per Si atom -12396.564395 kJ/mol
# Density = 2.184397 g / cm^3
# Si number density = 21.893796 Si / 1000 Ang^3
#
#
#
# Elastic Constant Matrix: (Units=GPa)
#
#
# Indices 1 2 3 4 5 6 
#
# 1 112.5201 47.3570 32.8581 0.0000 0.0000 0.0000
# 2 47.3570 147.9275 49.0583 0.0000 0.0000 0.0000
# 3 32.8581 49.0583 91.2881 0.0000 0.0000 0.0000
# 4 0.0000 0.0000 0.0000 31.2454 0.0000 0.0000
# 5 0.0000 0.0000 0.0000 0.0000 27.9259 0.0000
# 6 0.0000 0.0000 0.0000 0.0000 0.0000 39.1234
#
#
#
# Elastic Compliance Matrix: (Units=1/GPa)
#
#
# Indices 1 2 3 4 5 6 
#
# 1 0.010702 -0.002615 -0.002447 0.000000 0.000000 0.000000
# 2 -0.002615 0.008865 -0.003823 0.000000 0.000000 0.000000
# 3 -0.002447 -0.003823 0.013890 0.000000 0.000000 0.000000
# 4 0.000000 0.000000 0.000000 0.032005 0.000000 0.000000
# 5 0.000000 0.000000 0.000000 0.000000 0.035809 0.000000
# 6 0.000000 0.000000 0.000000 0.000000 0.000000 0.025560
#
#
# Mechanical properties :
#
#
# Convention : Reuss Voigt Hill
#
# Bulk Modulus (GPa) = 63.74478 67.80917 65.77698
# Shear Modulus (GPa) = 33.37134 34.48976 33.93055
#
# Velocity S-wave (km/s) = 3.90838 3.97334 3.94099
# Velocity P-wave (km/s) = 7.03889 7.21727 7.12864
#
# Compressibility (1/GPa) = 0.01568756
#
# Stress axis : x y z
#
# Youngs Moduli (GPa) = 93.43745 112.80391 71.99655
#
# Poissons Ratio (x) = 0.29495 0.17618
# Poissons Ratio (y) = 0.24431 0.27524
# Poissons Ratio (z) = 0.22865 0.43124
#
# Static dielectric constant tensor:
#      x y z
#    x 3.900470 0.000000 0.000000 
#    y 0.000000 4.345940 0.000000 
#    z 0.000000 0.000000 3.458570 
# 
# 
# High freq. dielectric constant tensor:
#      x y z
#    x 1.865080 0.000000 0.000000 
#    y 0.000000 1.888760 0.000000 
#    z 0.000000 0.000000 1.829300 
# 
# From -- ./inp_files/14092.got.cif
#   From: 2010.03.12/outbox.cif.g09.slc.cpg/sg54_8_cif.got.tgz:14092.got - 2010.04.16 15:00:50.
