data_PCOD8223309
_publ_section_title
;
Structure prediction by ZEFSAII (Michael W. Deem and Ramdas Pophale) SiO2 
 PCOD8223309
Probable space group: P C C A
;
_chemical_formula_sum "Si O2"
_cell_formula_units_Z 48
_cell_length_a 9.318357
_cell_length_b 8.500588
_cell_length_c 29.544019
_cell_angle_alpha 90.000000
_cell_angle_beta 90.000000
_cell_angle_gamma 90.000000
_cell_volume 2340.226466
_symmetry_space_group_name_H-M "P C C A"
_symmetry_group_IT_number 54
_symmetry_cell_setting 'orthorhombic'
loop_
_space_group_symop_operation_xyz
x,y,z
1/2-x,-y,z
1/2+x,-y,1/2-z
-x,y,1/2-z
-x,-y,-z
1/2+x,y,-z
1/2-x,y,1/2+z
x,-y,1/2+z
loop_
_atom_site_type_symbol
_atom_site_label
_atom_site_fract_x
_atom_site_fract_y
_atom_site_fract_z
Si Si1 0.513618 0.150399 0.469430
Si Si2 0.093027 0.532586 0.208862
Si Si3 0.654437 0.135900 0.320582
Si Si4 0.698285 0.663102 0.471869
Si Si5 0.401878 0.696742 0.125529
Si Si6 0.582850 0.991674 0.121300
O O1 0.678386 0.205299 0.466393
O O2 0.419601 0.285601 0.491931
O O3 0.500000 0.000000 0.500000
O O4 0.451146 0.103190 0.421014
O O5 0.250000 0.500000 0.225655
O O6 0.085931 0.721763 0.207506
O O7 0.058504 0.441583 0.161556
O O8 0.000000 0.465483 0.250000
O O9 0.761378 0.205723 0.358853
O O10 0.750000 0.000000 0.294497
O O11 0.511176 0.054124 0.337741
O O12 0.750000 0.500000 0.493036
O O13 0.632211 0.620487 0.422816
O O14 0.537700 0.809391 0.115472
O O15 0.750000 0.000000 0.133301
#
# Coordination Sequence:
#
# PCOD8223309 Si02
#       6
#     8   8   8   8   8   8
#     4  12  24  39  62  92 130 178 225 278 322 377
#     4  10  22  42  69  99 127 164 214 267 334 398
#     4   9  19  39  64  90 120 170 212 250 317 402
#     4  12  24  41  62  93 133 174 227 274 327 393
#     4  10  21  40  67  89 124 177 213 260 333 399
#     4  11  22  38  58  92 128 167 226 270 321 377
#
# _framework density 20.510836999999999
#
# number of rings (size 3 to 8) (size 9 to 14) (size 15 to 20)
#    0.000    1.333    3.333    3.500    0.000    1.333 
#    0.000    8.333    0.000    0.000    0.000    0.000 
#    0.000    0.000    0.000    0.000    0.000    0.000 
#
# Total GULP energy -594802.455429 kJ/mol
# GULP energy per Si atom -12391.717821 kJ/mol
# Density = 2.046415 g / cm^3
# Si number density = 20.510837 Si / 1000 Ang^3
#
#
#
# Elastic Constant Matrix: (Units=GPa)
#
#
# Indices 1 2 3 4 5 6 
#
# 1 89.5862 5.1882 34.8516 0.0000 0.0000 0.0000
# 2 5.1882 91.2249 28.2071 0.0000 0.0000 0.0000
# 3 34.8516 28.2071 86.4076 0.0000 0.0000 0.0000
# 4 0.0000 0.0000 0.0000 47.9684 0.0000 0.0000
# 5 0.0000 0.0000 0.0000 0.0000 28.9187 0.0000
# 6 0.0000 0.0000 0.0000 0.0000 0.0000 34.3782
#
#
#
# Elastic Compliance Matrix: (Units=1/GPa)
#
#
# Indices 1 2 3 4 5 6 
#
# 1 0.013322 0.001005 -0.005702 0.000000 0.000000 0.000000
# 2 0.001005 0.012268 -0.004410 0.000000 0.000000 0.000000
# 3 -0.005702 -0.004410 0.015312 0.000000 0.000000 0.000000
# 4 0.000000 0.000000 0.000000 0.020847 0.000000 0.000000
# 5 0.000000 0.000000 0.000000 0.000000 0.034580 0.000000
# 6 0.000000 0.000000 0.000000 0.000000 0.000000 0.029088
#
#
# Mechanical properties :
#
#
# Convention : Reuss Voigt Hill
#
# Bulk Modulus (GPa) = 44.07265 44.85694 44.46480
# Shear Modulus (GPa) = 33.06990 35.51784 34.29387
#
# Velocity S-wave (km/s) = 4.01972 4.16584 4.09343
# Velocity P-wave (km/s) = 6.56341 6.71240 6.63832
#
# Compressibility (1/GPa) = 0.02268981
#
# Stress axis : x y z
#
# Youngs Moduli (GPa) = 75.06214 81.50983 65.30624
#
# Poissons Ratio (x) = -0.08194 0.37235
# Poissons Ratio (y) = -0.07546 0.28803
# Poissons Ratio (z) = 0.42797 0.35949
#
# Static dielectric constant tensor:
#      x y z
#    x 3.693170 0.000000 0.000000 
#    y 0.000000 3.634920 0.000000 
#    z 0.000000 0.000000 3.295410 
# 
# 
# High freq. dielectric constant tensor:
#      x y z
#    x 1.802000 0.000000 0.000000 
#    y 0.000000 1.818920 0.000000 
#    z 0.000000 0.000000 1.777600 
# 
# From -- ./inp_files/27697.got.cif
#   From: 2010.03.12/outbox.cif.g09.slc.cpg/sg54_14_cif.got.tgz:27697.got - 2010.04.16 15:00:50.
