data_PCOD8223308
_publ_section_title
;
Structure prediction by ZEFSAII (Michael W. Deem and Ramdas Pophale) SiO2 
 PCOD8223308
Probable space group: P C C A
;
_chemical_formula_sum "Si O2"
_cell_formula_units_Z 32
_cell_length_a 13.618009
_cell_length_b 8.683276
_cell_length_c 11.777492
_cell_angle_alpha 90.000000
_cell_angle_beta 90.000000
_cell_angle_gamma 90.000000
_cell_volume 1392.675836
_symmetry_space_group_name_H-M "P C C A"
_symmetry_group_IT_number 54
_symmetry_cell_setting 'orthorhombic'
loop_
_space_group_symop_operation_xyz
x,y,z
1/2-x,-y,z
1/2+x,-y,1/2-z
-x,y,1/2-z
-x,-y,-z
1/2+x,y,-z
1/2-x,y,1/2+z
x,-y,1/2+z
loop_
_atom_site_type_symbol
_atom_site_label
_atom_site_fract_x
_atom_site_fract_y
_atom_site_fract_z
Si Si1 0.589884 0.223196 0.484950
Si Si2 0.703975 0.272813 0.267509
Si Si3 0.395765 0.585578 0.305187
Si Si4 0.568954 0.057700 0.148526
O O1 0.681674 0.247630 0.400448
O O2 0.589325 0.377363 0.561301
O O3 0.490206 0.197913 0.413062
O O4 0.602981 0.073508 0.562867
O O5 0.820348 0.292084 0.251519
O O6 0.644973 0.416206 0.214634
O O7 0.669588 0.123708 0.198615
O O8 0.500000 0.609665 0.250000
O O9 0.500000 0.990879 0.250000
#
# Coordination Sequence:
#
# PCOD8223308 Si02
#       4
#     8   8   8   8
#     4  10  21  40  66  91 127 168 201 261 320 361
#     4  10  24  42  63  95 127 162 212 259 310 380
#     4  11  24  41  63  93 128 165 211 257 311 380
#     4   9  19  40  66  95 126 162 212 259 313 376
#
# _framework density 22.977350999999999
#
# number of rings (size 3 to 8) (size 9 to 14) (size 15 to 20)
#    0.000    2.000    0.000    3.000    0.000   11.000 
#    0.000    7.500    0.000    0.000    0.000    0.000 
#    0.000    0.000    0.000    0.000    0.000    0.000 
#
# Total GULP energy -396759.176424 kJ/mol
# GULP energy per Si atom -12398.724263 kJ/mol
# Density = 2.292505 g / cm^3
# Si number density = 22.977351 Si / 1000 Ang^3
#
#
#
# Elastic Constant Matrix: (Units=GPa)
#
#
# Indices 1 2 3 4 5 6 
#
# 1 119.6361 12.5794 21.6585 0.0000 0.0000 0.0000
# 2 12.5794 44.0395 17.1005 0.0000 0.0000 0.0000
# 3 21.6585 17.1005 126.1433 0.0000 0.0000 0.0000
# 4 0.0000 0.0000 0.0000 -8.9387 0.0000 0.0000
# 5 0.0000 0.0000 0.0000 0.0000 11.6381 0.0000
# 6 0.0000 0.0000 0.0000 0.0000 0.0000 22.9833
#
#
#
# Elastic Compliance Matrix: (Units=1/GPa)
#
#
# Indices 1 2 3 4 5 6 
#
# 1 0.008796 -0.002033 -0.001235 0.000000 0.000000 0.000000
# 2 -0.002033 0.024439 -0.002964 0.000000 0.000000 0.000000
# 3 -0.001235 -0.002964 0.008541 0.000000 0.000000 0.000000
# 4 0.000000 0.000000 0.000000 -0.111873 0.000000 0.000000
# 5 0.000000 0.000000 0.000000 0.000000 0.085925 0.000000
# 6 0.000000 0.000000 0.000000 0.000000 0.000000 0.043510
#
#
# Mechanical properties :
#
#
# Convention : Reuss Voigt Hill
#
# Bulk Modulus (GPa) = 34.11511 43.61064 38.86287
# Shear Modulus (GPa) = 61.29618 21.03524 41.16571
#
# Velocity S-wave (km/s) = 5.17056 3.02897 4.23730
# Velocity P-wave (km/s) = 7.10815 5.59052 6.39452
#
# Compressibility (1/GPa) = 0.02931252
#
# Stress axis : x y z
#
# Youngs Moduli (GPa) = 113.68845 40.91903 117.07854
#
# Poissons Ratio (x) = 0.08319 0.14455
# Poissons Ratio (y) = 0.23114 0.34701
# Poissons Ratio (z) = 0.14036 0.12128
#
# Static dielectric constant tensor:
#      x y z
#    x 4.161060 0.000000 0.000000 
#    y 0.000000 4.077500 0.000000 
#    z 0.000000 0.000000 4.378880 
# 
# 
# High freq. dielectric constant tensor:
#      x y z
#    x 1.904440 0.000000 0.000000 
#    y 0.000000 1.905780 0.000000 
#    z 0.000000 0.000000 1.918090 
# 
# From -- ./inp_files/3318.got.cif
#   From: 2010.03.12/outbox.cif.g09.slc.cpg/sg54_2_cif.got.tgz:3318.got - 2010.04.16 15:00:50.
