data_PCOD8223622
_publ_section_title
;
Structure prediction by ZEFSAII (Michael W. Deem and Ramdas Pophale) SiO2 
 PCOD8223622
Probable space group: P C C A
;
_chemical_formula_sum "Si O2"
_cell_formula_units_Z 32
_cell_length_a 14.543924
_cell_length_b 9.242230
_cell_length_c 11.143462
_cell_angle_alpha 90.000000
_cell_angle_beta 90.000000
_cell_angle_gamma 90.000000
_cell_volume 1497.885115
_symmetry_space_group_name_H-M "P C C A"
_symmetry_group_IT_number 54
_symmetry_cell_setting 'orthorhombic'
loop_
_space_group_symop_operation_xyz
x,y,z
1/2-x,-y,z
1/2+x,-y,1/2-z
-x,y,1/2-z
-x,-y,-z
1/2+x,y,-z
1/2-x,y,1/2+z
x,-y,1/2+z
loop_
_atom_site_type_symbol
_atom_site_label
_atom_site_fract_x
_atom_site_fract_y
_atom_site_fract_z
Si Si1 0.630961 0.228526 0.942714
Si Si2 0.349319 0.559955 0.856582
Si Si3 0.500000 0.646067 0.250000
Si Si4 0.594135 0.860070 0.690152
Si Si5 0.750000 0.000000 0.826734
O O1 0.560604 0.251051 0.834317
O O2 0.723615 0.142452 0.904347
O O3 0.655247 0.385314 0.003648
O O4 0.583592 0.128884 0.045657
O O5 0.250000 0.500000 0.817613
O O6 0.431005 0.445631 0.834552
O O7 0.371749 0.698486 0.772831
O O8 0.500000 0.901539 0.750000
O O9 0.665083 0.975258 0.739559
#
# Coordination Sequence:
#
# PCOD8223622 Si02
#       5
#     8   8   4   8   4
#     4  10  26  42  71 100 134 187 220 288 331 415
#     4  10  22  43  69 100 140 171 225 282 341 401
#     4  12  22  46  72 108 132 182 228 280 350 404
#     4  10  24  46  66 100 138 180 220 294 327 399
#     4  12  24  46  68 100 142 180 240 264 352 402
#
# _framework density 21.363454999999998
#
# number of rings (size 3 to 8) (size 9 to 14) (size 15 to 20)
#    1.500    0.000    1.250    3.000    1.750    6.000 
#    0.000    0.000    0.000    0.000    0.000    0.000 
#    0.000    0.000    0.000    0.000    0.000    0.000 
#
# Total GULP energy -396506.732425 kJ/mol
# GULP energy per Si atom -12390.835388 kJ/mol
# Density = 2.131483 g / cm^3
# Si number density = 21.363455 Si / 1000 Ang^3
#
#
#
# Elastic Constant Matrix: (Units=GPa)
#
#
# Indices 1 2 3 4 5 6 
#
# 1 158.3755 59.1349 53.1059 0.0000 0.0000 0.0000
# 2 59.1349 76.8743 47.6947 0.0000 0.0000 0.0000
# 3 53.1059 47.6947 118.5864 0.0000 0.0000 0.0000
# 4 0.0000 0.0000 0.0000 7.0343 0.0000 0.0000
# 5 0.0000 0.0000 0.0000 0.0000 25.6420 0.0000
# 6 0.0000 0.0000 0.0000 0.0000 0.0000 47.9069
#
#
#
# Elastic Compliance Matrix: (Units=1/GPa)
#
#
# Indices 1 2 3 4 5 6 
#
# 1 0.009103 -0.005960 -0.001679 0.000000 0.000000 0.000000
# 2 -0.005960 0.021236 -0.005872 0.000000 0.000000 0.000000
# 3 -0.001679 -0.005872 0.011546 0.000000 0.000000 0.000000
# 4 0.000000 0.000000 0.000000 0.142161 0.000000 0.000000
# 5 0.000000 0.000000 0.000000 0.000000 0.038999 0.000000
# 6 0.000000 0.000000 0.000000 0.000000 0.000000 0.020874
#
#
# Mechanical properties :
#
#
# Convention : Reuss Voigt Hill
#
# Bulk Modulus (GPa) = 67.28403 74.85634 71.07019
# Shear Modulus (GPa) = 18.12278 29.04334 23.58306
#
# Velocity S-wave (km/s) = 2.91573 3.69112 3.32610
# Velocity P-wave (km/s) = 6.54970 7.29941 6.93469
#
# Compressibility (1/GPa) = 0.01486237
#
# Stress axis : x y z
#
# Youngs Moduli (GPa) = 109.85790 47.08921 86.60789
#
# Poissons Ratio (x) = 0.28067 0.14543
# Poissons Ratio (y) = 0.65479 0.50855
# Poissons Ratio (z) = 0.18447 0.27650
#
# Static dielectric constant tensor:
#      x y z
#    x -1.580160 0.000000 0.000000 
#    y 0.000000 3.729720 0.000000 
#    z 0.000000 0.000000 3.717080 
# 
# 
# High freq. dielectric constant tensor:
#      x y z
#    x 1.838560 0.000000 0.000000 
#    y 0.000000 1.834350 0.000000 
#    z 0.000000 0.000000 1.828840 
# 
# From -- ./inp_files/8009.got.cif
#   From: 2010.03.12/outbox.cif.g09.slc.cpg/sg54_5_cif.got.tgz:8009.got - 2010.04.16 15:00:50.
