data_PCOD8223869
_publ_section_title
;
Structure prediction by ZEFSAII (Michael W. Deem and Ramdas Pophale) SiO2 
 PCOD8223869
Probable space group: P C C A
;
_chemical_formula_sum "Si O2"
_cell_formula_units_Z 40
_cell_length_a 5.225827
_cell_length_b 13.904273
_cell_length_c 23.872625
_cell_angle_alpha 90.000000
_cell_angle_beta 90.000000
_cell_angle_gamma 90.000000
_cell_volume 1734.616570
_symmetry_space_group_name_H-M "P C C A"
_symmetry_group_IT_number 54
_symmetry_cell_setting 'orthorhombic'
loop_
_space_group_symop_operation_xyz
x,y,z
1/2-x,-y,z
1/2+x,-y,1/2-z
-x,y,1/2-z
-x,-y,-z
1/2+x,y,-z
1/2-x,y,1/2+z
x,-y,1/2+z
loop_
_atom_site_type_symbol
_atom_site_label
_atom_site_fract_x
_atom_site_fract_y
_atom_site_fract_z
Si Si1 0.079813 0.248079 0.873081
Si Si2 0.675731 0.104826 0.919755
Si Si3 0.917200 0.735520 0.529933
Si Si4 0.003610 0.558592 0.184342
Si Si5 0.627235 0.101956 0.693438
O O1 0.903413 0.186107 0.916680
O O2 0.329027 0.289228 0.906739
O O3 0.949239 0.341016 0.847178
O O4 0.156235 0.178547 0.822371
O O5 0.466439 0.147446 0.964131
O O6 0.571972 0.091537 0.857004
O O7 0.750000 0.000000 0.942382
O O8 0.692667 0.694451 0.489242
O O9 0.750000 0.500000 0.166077
O O10 0.250000 0.500000 0.165983
O O11 0.000000 0.579981 0.250000
O O12 0.500000 0.141532 0.750000
O O13 0.750000 0.000000 0.707100
#
# Coordination Sequence:
#
# PCOD8223869 Si02
#       5
#     8   8   8   8   8
#     4  11  25  43  69  96 136 181 222 285 339 399
#     4  11  23  41  62  96 136 179 232 275 328 407
#     4  11  24  44  67  97 133 179 231 284 340 397
#     4  10  25  45  71 103 135 172 225 276 335 409
#     4  11  24  36  59  95 141 186 224 265 326 410
#
# _framework density 23.059853
#
# number of rings (size 3 to 8) (size 9 to 14) (size 15 to 20)
#    0.000    1.200    4.000    0.600    8.400    1.600 
#    0.000    0.000    0.000    3.600    0.000    0.000 
#    0.000    0.000    0.000    0.000    0.000    0.000 
#
# Total GULP energy -495524.372430 kJ/mol
# GULP energy per Si atom -12388.109311 kJ/mol
# Density = 2.300737 g / cm^3
# Si number density = 23.059853 Si / 1000 Ang^3
#
#
#
# Elastic Constant Matrix: (Units=GPa)
#
#
# Indices 1 2 3 4 5 6 
#
# 1 141.3699 49.2940 23.9218 0.0000 0.0000 0.0000
# 2 49.2940 133.1786 23.9822 0.0000 0.0000 0.0000
# 3 23.9218 23.9822 42.4613 0.0000 0.0000 0.0000
# 4 0.0000 0.0000 0.0000 13.5205 0.0000 0.0000
# 5 0.0000 0.0000 0.0000 0.0000 41.6453 0.0000
# 6 0.0000 0.0000 0.0000 0.0000 0.0000 30.3276
#
#
#
# Elastic Compliance Matrix: (Units=1/GPa)
#
#
# Indices 1 2 3 4 5 6 
#
# 1 0.008533 -0.002552 -0.003366 0.000000 0.000000 0.000000
# 2 -0.002552 0.009122 -0.003714 0.000000 0.000000 0.000000
# 3 -0.003366 -0.003714 0.027545 0.000000 0.000000 0.000000
# 4 0.000000 0.000000 0.000000 0.073962 0.000000 0.000000
# 5 0.000000 0.000000 0.000000 0.000000 0.024012 0.000000
# 6 0.000000 0.000000 0.000000 0.000000 0.000000 0.032973
#
#
# Mechanical properties :
#
#
# Convention : Reuss Voigt Hill
#
# Bulk Modulus (GPa) = 38.55739 56.82288 47.69014
# Shear Modulus (GPa) = 24.50285 31.75279 28.12782
#
# Velocity S-wave (km/s) = 3.26325 3.71478 3.49632
# Velocity P-wave (km/s) = 5.56375 6.56464 6.08481
#
# Compressibility (1/GPa) = 0.02593536
#
# Stress axis : x y z
#
# Youngs Moduli (GPa) = 117.18998 109.62175 36.30427
#
# Poissons Ratio (x) = 0.27979 0.12219
# Poissons Ratio (y) = 0.29911 0.13485
# Poissons Ratio (z) = 0.39444 0.40717
#
# Static dielectric constant tensor:
#      x y z
#    x 4.440130 0.000000 0.000000 
#    y 0.000000 3.774590 0.000000 
#    z 0.000000 0.000000 4.174630 
# 
# 
# High freq. dielectric constant tensor:
#      x y z
#    x 1.921580 0.000000 0.000000 
#    y 0.000000 1.874160 0.000000 
#    z 0.000000 0.000000 1.920660 
# 
# From -- ./inp_files/25163.got.cif
#   From: 2010.03.12/outbox.cif.g09.slc.cpg/sg54_13_cif.got.tgz:25163.got - 2010.04.16 15:00:50.
