data_PCOD8223911
_publ_section_title
;
Structure prediction by ZEFSAII (Michael W. Deem and Ramdas Pophale) SiO2 
 PCOD8223911
Probable space group: P C C A
;
_chemical_formula_sum "Si O2"
_cell_formula_units_Z 60
_cell_length_a 16.422842
_cell_length_b 9.985365
_cell_length_c 17.268173
_cell_angle_alpha 90.000000
_cell_angle_beta 90.000000
_cell_angle_gamma 90.000000
_cell_volume 2831.774392
_symmetry_space_group_name_H-M "P C C A"
_symmetry_group_IT_number 54
_symmetry_cell_setting 'orthorhombic'
loop_
_space_group_symop_operation_xyz
x,y,z
1/2-x,-y,z
1/2+x,-y,1/2-z
-x,y,1/2-z
-x,-y,-z
1/2+x,y,-z
1/2-x,y,1/2+z
x,-y,1/2+z
loop_
_atom_site_type_symbol
_atom_site_label
_atom_site_fract_x
_atom_site_fract_y
_atom_site_fract_z
Si Si1 0.250000 0.000000 0.540506
Si Si2 0.495773 0.794096 0.341062
Si Si3 0.942936 0.494087 0.658978
Si Si4 0.160515 0.762113 0.594577
Si Si5 0.580095 0.915345 0.018943
Si Si6 0.336122 0.503474 0.199160
Si Si7 0.660538 0.549155 0.525295
Si Si8 0.582270 0.651123 0.920572
O O1 0.264208 0.132318 0.593733
O O2 0.167360 0.009991 0.488697
O O3 0.500000 0.833975 0.250000
O O4 0.484929 0.636281 0.355675
O O5 0.578628 0.842664 0.383010
O O6 0.424281 0.866602 0.390812
O O7 0.917576 0.490429 0.749273
O O8 0.856801 0.464337 0.616418
O O9 0.001217 0.375191 0.629834
O O10 0.167368 0.647376 0.658481
O O11 0.151618 0.698981 0.508334
O O12 0.582377 0.798154 0.954883
O O13 0.500000 0.000000 0.000000
O O14 0.250000 0.500000 0.244803
O O15 0.340726 0.382802 0.136113
O O16 0.750000 0.500000 0.504190
O O17 0.589558 0.455298 0.489923
#
# Coordination Sequence:
#
# PCOD8223911 Si02
#       8
#     4   8   8   8   8   8   8   8
#     4  12  26  46  70 100 132 186 252 292 336 408
#     4  12  22  44  69  98 132 178 223 276 355 425
#     4  12  21  37  67  99 133 171 212 278 359 421
#     4  11  22  40  68  93 135 178 230 281 339 418
#     4  12  26  45  72  96 132 186 238 287 337 416
#     4  11  22  39  63 102 141 174 215 286 358 416
#     4  11  21  34  59  97 127 163 214 282 343 398
#     4  11  21  40  65  96 127 167 227 277 348 410
#
# _framework density 21.188130000000001
#
# number of rings (size 3 to 8) (size 9 to 14) (size 15 to 20)
#    0.000    0.533    6.667    5.200    0.000    0.000 
#    0.000    2.000    0.000    0.000    0.000    0.000 
#    0.000    0.000    0.000    0.000    0.000    0.000 
#
# Total GULP energy -743364.043397 kJ/mol
# GULP energy per Si atom -12389.400723 kJ/mol
# Density = 2.113991 g / cm^3
# Si number density = 21.188130 Si / 1000 Ang^3
#
#
#
# Elastic Constant Matrix: (Units=GPa)
#
#
# Indices 1 2 3 4 5 6 
#
# 1 132.9689 37.6423 43.9869 0.0000 0.0000 0.0000
# 2 37.6423 97.4116 37.6200 0.0000 0.0000 0.0000
# 3 43.9869 37.6200 104.1692 0.0000 0.0000 0.0000
# 4 0.0000 0.0000 0.0000 17.9243 0.0000 0.0000
# 5 0.0000 0.0000 0.0000 0.0000 39.2282 0.0000
# 6 0.0000 0.0000 0.0000 0.0000 0.0000 34.5278
#
#
#
# Elastic Compliance Matrix: (Units=1/GPa)
#
#
# Indices 1 2 3 4 5 6 
#
# 1 0.009196 -0.002387 -0.003021 0.000000 0.000000 0.000000
# 2 -0.002387 0.012549 -0.003524 0.000000 0.000000 0.000000
# 3 -0.003021 -0.003524 0.012148 0.000000 0.000000 0.000000
# 4 0.000000 0.000000 0.000000 0.055790 0.000000 0.000000
# 5 0.000000 0.000000 0.000000 0.000000 0.025492 0.000000
# 6 0.000000 0.000000 0.000000 0.000000 0.000000 0.028962
#
#
# Mechanical properties :
#
#
# Convention : Reuss Voigt Hill
#
# Bulk Modulus (GPa) = 62.38705 63.67204 63.02954
# Shear Modulus (GPa) = 29.87860 32.68943 31.28402
#
# Velocity S-wave (km/s) = 3.75928 3.93213 3.84668
# Velocity P-wave (km/s) = 6.95350 7.12261 7.03856
#
# Compressibility (1/GPa) = 0.01602897
#
# Stress axis : x y z
#
# Youngs Moduli (GPa) = 108.74792 79.68749 82.31689
#
# Poissons Ratio (x) = 0.19019 0.24868
# Poissons Ratio (y) = 0.25955 0.29010
# Poissons Ratio (z) = 0.32853 0.28083
#
# Static dielectric constant tensor:
#      x y z
#    x 4.117410 0.000000 0.000000 
#    y 0.000000 3.626700 0.000000 
#    z 0.000000 0.000000 3.864250 
# 
# 
# High freq. dielectric constant tensor:
#      x y z
#    x 1.852260 0.000000 0.000000 
#    y 0.000000 1.804630 0.000000 
#    z 0.000000 0.000000 1.823220 
# 
# From -- ./inp_files/18686.got.cif
#   From: 2010.03.12/outbox.cif.g09.slc.cpg/sg54_10_cif.got.tgz:18686.got - 2010.04.16 15:00:50.
