data_PCOD8223190
_publ_section_title
;
Structure prediction by ZEFSAII (Michael W. Deem and Ramdas Pophale) SiO2 
 PCOD8223190
Probable space group: P C C A
;
_chemical_formula_sum "Si O2"
_cell_formula_units_Z 56
_cell_length_a 8.961147
_cell_length_b 14.990981
_cell_length_c 20.144233
_cell_angle_alpha 90.000000
_cell_angle_beta 90.000000
_cell_angle_gamma 90.000000
_cell_volume 2706.103428
_symmetry_space_group_name_H-M "P C C A"
_symmetry_group_IT_number 54
_symmetry_cell_setting 'orthorhombic'
loop_
_space_group_symop_operation_xyz
x,y,z
1/2-x,-y,z
1/2+x,-y,1/2-z
-x,y,1/2-z
-x,-y,-z
1/2+x,y,-z
1/2-x,y,1/2+z
x,-y,1/2+z
loop_
_atom_site_type_symbol
_atom_site_label
_atom_site_fract_x
_atom_site_fract_y
_atom_site_fract_z
Si Si1 0.196527 0.906602 0.433803
Si Si2 0.176275 0.719093 0.257782
Si Si3 0.333527 0.594209 0.878488
Si Si4 0.682413 0.412407 0.353960
Si Si5 0.952418 0.202728 0.012492
Si Si6 0.660481 0.914606 0.719088
Si Si7 0.792993 0.674102 0.974888
O O1 0.342929 0.843742 0.434619
O O2 0.141163 0.920360 0.359673
O O3 0.056193 0.867393 0.473663
O O4 0.250000 0.000000 0.466077
O O5 0.225699 0.663543 0.323041
O O6 0.233816 0.670368 0.191620
O O7 0.239730 0.820408 0.261615
O O8 0.000000 0.724854 0.250000
O O9 0.250000 0.500000 0.873634
O O10 0.506769 0.577128 0.864536
O O11 0.305981 0.639150 0.949911
O O12 0.750000 0.500000 0.318816
O O13 0.766029 0.406697 0.424877
O O14 0.845182 0.257802 0.962851
O O15 0.057388 0.275050 0.048170
O O16 0.500000 0.921648 0.750000
O O17 0.750000 0.000000 0.746496
#
# Coordination Sequence:
#
# PCOD8223190 Si02
#       7
#     8   8   8   8   8   8   8
#     4  10  21  40  64  95 130 165 211 271 324 381
#     4   9  20  41  66  85 123 168 208 258 320 376
#     4  11  23  40  65  89 126 173 212 262 324 383
#     4  11  24  40  60  93 124 163 219 268 318 382
#     4  10  21  37  63  92 126 165 214 253 323 390
#     4  10  22  43  68  94 129 167 216 262 319 385
#     4  11  22  37  61  91 126 168 210 259 320 385
#
# _framework density 20.693961999999999
#
# number of rings (size 3 to 8) (size 9 to 14) (size 15 to 20)
#    0.000    1.714    1.429    3.000    6.000    1.143 
#    5.143    0.714    0.000    0.000    0.000    0.000 
#    0.000    0.000    0.000    0.000    0.000    0.000 
#
# Total GULP energy -694103.755437 kJ/mol
# GULP energy per Si atom -12394.709919 kJ/mol
# Density = 2.064686 g / cm^3
# Si number density = 20.693962 Si / 1000 Ang^3
#
#
#
# Elastic Constant Matrix: (Units=GPa)
#
#
# Indices 1 2 3 4 5 6 
#
# 1 100.8744 49.5456 34.3874 0.0000 0.0000 0.0000
# 2 49.5456 164.3261 48.9025 0.0000 0.0000 0.0000
# 3 34.3874 48.9025 100.4269 0.0000 0.0000 0.0000
# 4 0.0000 0.0000 0.0000 28.5095 0.0000 0.0000
# 5 0.0000 0.0000 0.0000 0.0000 20.2961 0.0000
# 6 0.0000 0.0000 0.0000 0.0000 0.0000 36.5492
#
#
#
# Elastic Compliance Matrix: (Units=1/GPa)
#
#
# Indices 1 2 3 4 5 6 
#
# 1 0.012279 -0.002866 -0.002809 0.000000 0.000000 0.000000
# 2 -0.002866 0.007786 -0.002810 0.000000 0.000000 0.000000
# 3 -0.002809 -0.002810 0.012287 0.000000 0.000000 0.000000
# 4 0.000000 0.000000 0.000000 0.035076 0.000000 0.000000
# 5 0.000000 0.000000 0.000000 0.000000 0.049271 0.000000
# 6 0.000000 0.000000 0.000000 0.000000 0.000000 0.027360
#
#
# Mechanical properties :
#
#
# Convention : Reuss Voigt Hill
#
# Bulk Modulus (GPa) = 65.00931 70.14425 67.57678
# Shear Modulus (GPa) = 30.09227 32.59043 31.34135
#
# Velocity S-wave (km/s) = 3.81748 3.97278 3.89590
# Velocity P-wave (km/s) = 7.13538 7.41711 7.27761
#
# Compressibility (1/GPa) = 0.01538241
#
# Stress axis : x y z
#
# Youngs Moduli (GPa) = 81.44288 128.43810 81.38385
#
# Poissons Ratio (x) = 0.36814 0.22858
# Poissons Ratio (y) = 0.23344 0.22868
# Poissons Ratio (z) = 0.22874 0.36089
#
# Static dielectric constant tensor:
#      x y z
#    x 3.742040 0.000000 0.000000 
#    y 0.000000 4.309300 0.000000 
#    z 0.000000 0.000000 3.579820 
# 
# 
# High freq. dielectric constant tensor:
#      x y z
#    x 1.802200 0.000000 0.000000 
#    y 0.000000 1.832400 0.000000 
#    z 0.000000 0.000000 1.796190 
# 
# From -- ./inp_files/20548.got.cif
#   From: 2010.03.12/outbox.cif.g09.slc.cpg/sg54_11_cif.got.tgz:20548.got - 2010.04.16 15:00:50.
