data_PCOD8223048
_publ_section_title
;
Structure prediction by ZEFSAII (Michael W. Deem and Ramdas Pophale) SiO2 
 PCOD8223048
Probable space group: P C C A
;
_chemical_formula_sum "Si O2"
_cell_formula_units_Z 32
_cell_length_a 10.685794
_cell_length_b 4.931689
_cell_length_c 22.964673
_cell_angle_alpha 90.000000
_cell_angle_beta 90.000000
_cell_angle_gamma 90.000000
_cell_volume 1210.215595
_symmetry_space_group_name_H-M "P C C A"
_symmetry_group_IT_number 54
_symmetry_cell_setting 'orthorhombic'
loop_
_space_group_symop_operation_xyz
x,y,z
1/2-x,-y,z
1/2+x,-y,1/2-z
-x,y,1/2-z
-x,-y,-z
1/2+x,y,-z
1/2-x,y,1/2+z
x,-y,1/2+z
loop_
_atom_site_type_symbol
_atom_site_label
_atom_site_fract_x
_atom_site_fract_y
_atom_site_fract_z
Si Si1 0.750000 0.000000 0.372598
Si Si2 0.570740 0.607192 0.615167
Si Si3 0.750000 0.000000 0.564285
Si Si4 0.514030 0.114820 0.818007
Si Si5 0.630086 0.317953 0.472683
O O1 0.841402 0.187319 0.333205
O O2 0.659946 0.181897 0.411157
O O3 0.705713 0.741900 0.602231
O O4 0.579087 0.312980 0.645710
O O5 0.504875 0.556499 0.549453
O O6 0.507866 0.804977 0.662786
O O7 0.870557 0.905207 0.524771
O O8 0.500000 0.154706 0.750000
O O9 0.750000 0.500000 0.489069
#
# Coordination Sequence:
#
# PCOD8223048 Si02
#       5
#     4   8   4   8   8
#     4   9  20  41  64  98 128 173 234 287 332 426
#     4  11  25  44  65 102 137 179 232 291 352 436
#     4  11  26  39  64 102 144 175 218 293 364 422
#     4  11  24  44  71  97 132 181 238 293 359 423
#     4  10  20  40  67  93 131 185 227 274 345 434
#
# _framework density 26.441569000000001
#
# number of rings (size 3 to 8) (size 9 to 14) (size 15 to 20)
#    0.000    1.500    2.500    1.500    3.500    2.000 
#    0.000    5.000    0.000    0.000    0.000    0.000 
#    0.000    0.000    0.000    0.000    0.000    0.000 
#
# Total GULP energy -396483.133851 kJ/mol
# GULP energy per Si atom -12390.097933 kJ/mol
# Density = 2.638139 g / cm^3
# Si number density = 26.441569 Si / 1000 Ang^3
#
#
#
# Elastic Constant Matrix: (Units=GPa)
#
#
# Indices 1 2 3 4 5 6 
#
# 1 60.0958 -16.0169 -2.3208 0.0000 0.0000 0.0000
# 2 -16.0169 85.1703 4.8277 0.0000 0.0000 0.0000
# 3 -2.3208 4.8277 138.9674 0.0000 0.0000 0.0000
# 4 0.0000 0.0000 0.0000 16.7760 0.0000 0.0000
# 5 0.0000 0.0000 0.0000 0.0000 5.1149 0.0000
# 6 0.0000 0.0000 0.0000 0.0000 0.0000 15.2991
#
#
#
# Elastic Compliance Matrix: (Units=1/GPa)
#
#
# Indices 1 2 3 4 5 6 
#
# 1 0.017523 0.003285 0.000179 0.000000 0.000000 0.000000
# 2 0.003285 0.012380 -0.000375 0.000000 0.000000 0.000000
# 3 0.000179 -0.000375 0.007212 0.000000 0.000000 0.000000
# 4 0.000000 0.000000 0.000000 0.059609 0.000000 0.000000
# 5 0.000000 0.000000 0.000000 0.000000 0.195508 0.000000
# 6 0.000000 0.000000 0.000000 0.000000 0.000000 0.065363
#
#
# Mechanical properties :
#
#
# Convention : Reuss Voigt Hill
#
# Bulk Modulus (GPa) = 23.09919 28.57929 25.83924
# Shear Modulus (GPa) = 13.66686 27.28757 20.47721
#
# Velocity S-wave (km/s) = 2.27594 3.21595 2.78588
# Velocity P-wave (km/s) = 3.95746 4.96203 4.48794
#
# Compressibility (1/GPa) = 0.04329156
#
# Stress axis : x y z
#
# Youngs Moduli (GPa) = 57.06932 80.77380 138.65877
#
# Poissons Ratio (x) = -0.26535 -0.02475
# Poissons Ratio (y) = -0.18748 0.05203
# Poissons Ratio (z) = -0.01019 0.03031
#
# Static dielectric constant tensor:
#      x y z
#    x 5.118940 0.000000 0.000000 
#    y 0.000000 5.073140 0.000000 
#    z 0.000000 0.000000 4.698470 
# 
# 
# High freq. dielectric constant tensor:
#      x y z
#    x 2.068970 0.000000 0.000000 
#    y 0.000000 2.062240 0.000000 
#    z 0.000000 0.000000 2.058830 
# 
# From -- ./inp_files/20839.got.cif
#   From: 2010.03.12/outbox.cif.g09.slc.cpg/sg54_11_cif.got.tgz:20839.got - 2010.04.16 15:00:50.
