data_PCOD8223907
_publ_section_title
;
Structure prediction by ZEFSAII (Michael W. Deem and Ramdas Pophale) SiO2 
 PCOD8223907
Probable space group: P C C A
;
_chemical_formula_sum "Si O2"
_cell_formula_units_Z 48
_cell_length_a 16.824757
_cell_length_b 8.544929
_cell_length_c 14.354628
_cell_angle_alpha 90.000000
_cell_angle_beta 90.000000
_cell_angle_gamma 90.000000
_cell_volume 2063.712531
_symmetry_space_group_name_H-M "P C C A"
_symmetry_group_IT_number 54
_symmetry_cell_setting 'orthorhombic'
loop_
_space_group_symop_operation_xyz
x,y,z
1/2-x,-y,z
1/2+x,-y,1/2-z
-x,y,1/2-z
-x,-y,-z
1/2+x,y,-z
1/2-x,y,1/2+z
x,-y,1/2+z
loop_
_atom_site_type_symbol
_atom_site_label
_atom_site_fract_x
_atom_site_fract_y
_atom_site_fract_z
Si Si1 0.655256 0.997515 0.542078
Si Si2 0.661723 0.934267 0.748203
Si Si3 0.105760 0.654223 0.997856
Si Si4 0.775442 0.658370 0.351713
Si Si5 0.500581 0.489834 0.858264
Si Si6 0.109942 0.812700 0.624832
O O1 0.637250 0.922230 0.641555
O O2 0.602417 0.887873 0.476504
O O3 0.750000 0.000000 0.517917
O O4 0.616217 0.167887 0.534144
O O5 0.659981 0.760340 0.793873
O O6 0.750000 0.000000 0.755268
O O7 0.598892 0.049433 0.798804
O O8 0.085640 0.553033 0.904182
O O9 0.186909 0.601999 0.049234
O O10 0.037429 0.625150 0.076520
O O11 0.750000 0.500000 0.296600
O O12 0.700056 0.761222 0.369110
O O13 0.500000 0.544628 0.750000
O O14 0.549677 0.327936 0.861933
#
# Coordination Sequence:
#
# PCOD8223907 Si02
#       6
#     8   8   8   8   8   8
#     4  11  20  39  69  99 135 171 229 292 346 414
#     4   9  20  36  61  99 134 175 223 285 351 404
#     4  11  23  45  69  97 137 186 229 286 354 413
#     4  11  20  41  68  99 136 177 226 290 348 411
#     4  11  26  46  67  95 144 189 233 283 349 434
#     4  11  20  40  67  95 136 176 228 293 344 403
#
# _framework density 23.259052000000001
#
# number of rings (size 3 to 8) (size 9 to 14) (size 15 to 20)
#    0.000    1.333    5.000    1.500    0.000    0.667 
#    6.000    1.667    0.000    0.000    0.000    0.000 
#    0.000    0.000    0.000    0.000    0.000    0.000 
#
# Total GULP energy -594658.879085 kJ/mol
# GULP energy per Si atom -12388.726648 kJ/mol
# Density = 2.320611 g / cm^3
# Si number density = 23.259052 Si / 1000 Ang^3
#
#
#
# Elastic Constant Matrix: (Units=GPa)
#
#
# Indices 1 2 3 4 5 6 
#
# 1 38.1142 8.3650 4.0676 0.0000 0.0000 0.0000
# 2 8.3650 61.1815 3.0882 0.0000 0.0000 0.0000
# 3 4.0676 3.0882 110.1993 0.0000 0.0000 0.0000
# 4 0.0000 0.0000 0.0000 23.3635 0.0000 0.0000
# 5 0.0000 0.0000 0.0000 0.0000 27.2315 0.0000
# 6 0.0000 0.0000 0.0000 0.0000 0.0000 32.6020
#
#
#
# Elastic Compliance Matrix: (Units=1/GPa)
#
#
# Indices 1 2 3 4 5 6 
#
# 1 0.027137 -0.003665 -0.000899 0.000000 0.000000 0.000000
# 2 -0.003665 0.016863 -0.000337 0.000000 0.000000 0.000000
# 3 -0.000899 -0.000337 0.009117 0.000000 0.000000 0.000000
# 4 0.000000 0.000000 0.000000 0.042802 0.000000 0.000000
# 5 0.000000 0.000000 0.000000 0.000000 0.036722 0.000000
# 6 0.000000 0.000000 0.000000 0.000000 0.000000 0.030673
#
#
# Mechanical properties :
#
#
# Convention : Reuss Voigt Hill
#
# Bulk Modulus (GPa) = 23.08676 26.72628 24.90652
# Shear Modulus (GPa) = 26.65887 29.57102 28.11495
#
# Velocity S-wave (km/s) = 3.38919 3.56951 3.48052
# Velocity P-wave (km/s) = 5.02623 5.33893 5.18493
#
# Compressibility (1/GPa) = 0.04331488
#
# Stress axis : x y z
#
# Youngs Moduli (GPa) = 36.84977 59.30175 109.68400
#
# Poissons Ratio (x) = 0.21734 0.09860
# Poissons Ratio (y) = 0.13505 0.03699
# Poissons Ratio (z) = 0.03313 0.02000
#
# Static dielectric constant tensor:
#      x y z
#    x 4.079690 0.000000 0.000000 
#    y 0.000000 4.420350 0.000000 
#    z 0.000000 0.000000 4.579210 
# 
# 
# High freq. dielectric constant tensor:
#      x y z
#    x 1.896070 0.000000 0.000000 
#    y 0.000000 1.925150 0.000000 
#    z 0.000000 0.000000 1.920500 
# 
# From -- ./inp_files/14138.got.cif
#   From: 2010.03.12/outbox.cif.g09.slc.cpg/sg54_8_cif.got.tgz:14138.got - 2010.04.16 15:00:50.
