data_PCOD8223212
_publ_section_title
;
Structure prediction by ZEFSAII (Michael W. Deem and Ramdas Pophale) SiO2 
 PCOD8223212
Probable space group: P C C A
;
_chemical_formula_sum "Si O2"
_cell_formula_units_Z 64
_cell_length_a 9.618499
_cell_length_b 21.664888
_cell_length_c 15.077300
_cell_angle_alpha 90.000000
_cell_angle_beta 90.000000
_cell_angle_gamma 90.000000
_cell_volume 3141.863614
_symmetry_space_group_name_H-M "P C C A"
_symmetry_group_IT_number 54
_symmetry_cell_setting 'orthorhombic'
loop_
_space_group_symop_operation_xyz
x,y,z
1/2-x,-y,z
1/2+x,-y,1/2-z
-x,y,1/2-z
-x,-y,-z
1/2+x,y,-z
1/2-x,y,1/2+z
x,-y,1/2+z
loop_
_atom_site_type_symbol
_atom_site_label
_atom_site_fract_x
_atom_site_fract_y
_atom_site_fract_z
Si Si1 0.156000 0.055707 0.727111
Si Si2 0.656598 0.443414 0.783284
Si Si3 0.213904 0.071322 0.921415
Si Si4 0.875634 0.679255 0.047863
Si Si5 0.843483 0.669833 0.242257
Si Si6 0.867992 0.542691 0.989376
Si Si7 0.346888 0.266326 0.077192
Si Si8 0.414814 0.126582 0.057684
O O1 0.223859 0.084399 0.816033
O O2 0.158141 0.104746 0.648368
O O3 0.000000 0.032413 0.750000
O O4 0.250000 0.000000 0.692172
O O5 0.750000 0.500000 0.748808
O O6 0.500000 0.450735 0.750000
O O7 0.724983 0.381330 0.747381
O O8 0.659179 0.439071 0.888575
O O9 0.063006 0.093270 0.955672
O O10 0.250000 0.000000 0.942357
O O11 0.327648 0.111873 0.970302
O O12 0.828468 0.702103 0.145888
O O13 0.040229 0.687915 0.034612
O O14 0.860435 0.605641 0.044158
O O15 0.794941 0.720552 0.975738
O O16 0.820551 0.721086 0.318533
O O17 0.000000 0.641226 0.250000
O O18 0.750000 0.500000 0.030323
O O19 0.000000 0.500000 0.000000
O O20 0.417227 0.199823 0.065115
#
# Coordination Sequence:
#
# PCOD8223212 Si02
#       8
#     8   8   8   8   8   8   8   8
#     4   9  20  37  60  88 125 161 203 248 305 360
#     4  11  25  40  63  92 125 150 201 252 314 382
#     4  10  21  38  61  94 125 162 204 253 310 366
#     4  11  24  42  66  83 127 159 204 257 311 366
#     4  10  24  42  64  86 119 165 206 253 309 370
#     4  11  25  40  63  92 120 154 198 253 317 379
#     4  11  24  43  61  93 119 165 212 252 300 369
#     4  11  22  38  64  88 127 163 209 252 305 360
#
# _framework density 20.370076000000001
#
# number of rings (size 3 to 8) (size 9 to 14) (size 15 to 20)
#    0.000    1.500    1.250    2.625   10.500    7.500 
#    0.000    0.000    0.000    3.750    0.000    0.000 
#    0.000    0.000    0.000    0.000    0.000    0.000 
#
# Total GULP energy -793462.744132 kJ/mol
# GULP energy per Si atom -12397.855377 kJ/mol
# Density = 2.032371 g / cm^3
# Si number density = 20.370076 Si / 1000 Ang^3
#
#
#
# Elastic Constant Matrix: (Units=GPa)
#
#
# Indices 1 2 3 4 5 6 
#
# 1 98.1797 35.7945 37.1085 0.0000 0.0000 0.0000
# 2 35.7945 104.1757 28.7178 0.0000 0.0000 0.0000
# 3 37.1085 28.7178 94.8279 0.0000 0.0000 0.0000
# 4 0.0000 0.0000 0.0000 19.9620 0.0000 0.0000
# 5 0.0000 0.0000 0.0000 0.0000 35.7494 0.0000
# 6 0.0000 0.0000 0.0000 0.0000 0.0000 25.2769
#
#
#
# Elastic Compliance Matrix: (Units=1/GPa)
#
#
# Indices 1 2 3 4 5 6 
#
# 1 0.012930 -0.003325 -0.004053 0.000000 0.000000 0.000000
# 2 -0.003325 0.011329 -0.002130 0.000000 0.000000 0.000000
# 3 -0.004053 -0.002130 0.012776 0.000000 0.000000 0.000000
# 4 0.000000 0.000000 0.000000 0.050095 0.000000 0.000000
# 5 0.000000 0.000000 0.000000 0.000000 0.027973 0.000000
# 6 0.000000 0.000000 0.000000 0.000000 0.000000 0.039562
#
#
# Mechanical properties :
#
#
# Convention : Reuss Voigt Hill
#
# Bulk Modulus (GPa) = 55.49530 55.60278 55.54904
# Shear Modulus (GPa) = 27.82640 29.23515 28.53077
#
# Velocity S-wave (km/s) = 3.70001 3.79251 3.74655
# Velocity P-wave (km/s) = 6.74953 6.82152 6.78562
#
# Compressibility (1/GPa) = 0.01801954
#
# Stress axis : x y z
#
# Youngs Moduli (GPa) = 77.34247 88.27055 78.27046
#
# Poissons Ratio (x) = 0.29353 0.31720
# Poissons Ratio (y) = 0.25719 0.16668
# Poissons Ratio (z) = 0.31344 0.18797
#
# Static dielectric constant tensor:
#      x y z
#    x 3.808250 0.000000 0.000000 
#    y 0.000000 3.574660 0.000000 
#    z 0.000000 0.000000 3.850050 
# 
# 
# High freq. dielectric constant tensor:
#      x y z
#    x 1.801980 0.000000 0.000000 
#    y 0.000000 1.784550 0.000000 
#    z 0.000000 0.000000 1.809030 
# 
# From -- ./inp_files/11944.got.cif
#   From: 2010.03.12/outbox.cif.g09.slc.cpg/sg54_6_cif.got.tgz:11944.got - 2010.04.16 15:00:50.
