data_PCOD8223943
_publ_section_title
;
Structure prediction by ZEFSAII (Michael W. Deem and Ramdas Pophale) SiO2 
 PCOD8223943
Probable space group: P C C A
;
_chemical_formula_sum "Si O2"
_cell_formula_units_Z 24
_cell_length_a 16.931384
_cell_length_b 7.143020
_cell_length_c 6.911866
_cell_angle_alpha 90.000000
_cell_angle_beta 90.000000
_cell_angle_gamma 90.000000
_cell_volume 835.929469
_symmetry_space_group_name_H-M "P C C A"
_symmetry_group_IT_number 54
_symmetry_cell_setting 'orthorhombic'
loop_
_space_group_symop_operation_xyz
x,y,z
1/2-x,-y,z
1/2+x,-y,1/2-z
-x,y,1/2-z
-x,-y,-z
1/2+x,y,-z
1/2-x,y,1/2+z
x,-y,1/2+z
loop_
_atom_site_type_symbol
_atom_site_label
_atom_site_fract_x
_atom_site_fract_y
_atom_site_fract_z
Si Si1 0.848228 0.674082 0.733958
Si Si2 0.177513 0.252200 0.842722
Si Si3 0.948765 0.166850 0.917798
O O1 0.771662 0.780561 0.640835
O O2 0.833912 0.453618 0.761211
O O3 0.924555 0.705711 0.599362
O O4 0.863613 0.755770 0.947652
O O5 0.131530 0.104049 0.702320
O O6 0.000000 0.274819 0.750000
O O7 0.000000 0.000000 0.000000
#
# Coordination Sequence:
#
# PCOD8223943 Si02
#       3
#     8   8   8
#     4  11  21  46  85 119 146 196 272 330 391 456
#     4  11  21  46  85 119 145 197 268 337 380 467
#     4  12  30  49  68 113 167 202 251 323 399 475
#
# _framework density 28.710559
#
# number of rings (size 3 to 8) (size 9 to 14) (size 15 to 20)
#    0.000    0.667    6.667    2.000    4.667    1.333 
#    0.000    5.000    0.000    0.000    0.000    0.000 
#    0.000    0.000    0.000    0.000    0.000    0.000 
#
# Total GULP energy -297480.625080 kJ/mol
# GULP energy per Si atom -12395.026045 kJ/mol
# Density = 2.864521 g / cm^3
# Si number density = 28.710559 Si / 1000 Ang^3
#
#
#
# Elastic Constant Matrix: (Units=GPa)
#
#
# Indices 1 2 3 4 5 6 
#
# 1 136.9623 55.4253 61.0938 0.0000 0.0000 0.0000
# 2 55.4253 39.9142 42.7549 0.0000 0.0000 0.0000
# 3 61.0938 42.7549 207.9828 0.0000 0.0000 0.0000
# 4 0.0000 0.0000 0.0000 30.5703 0.0000 0.0000
# 5 0.0000 0.0000 0.0000 0.0000 91.1701 0.0000
# 6 0.0000 0.0000 0.0000 0.0000 0.0000 47.8535
#
#
#
# Elastic Compliance Matrix: (Units=1/GPa)
#
#
# Indices 1 2 3 4 5 6 
#
# 1 0.016672 -0.022962 -0.000177 0.000000 0.000000 0.000000
# 2 -0.022962 0.063752 -0.006361 0.000000 0.000000 0.000000
# 3 -0.000177 -0.006361 0.006168 0.000000 0.000000 0.000000
# 4 0.000000 0.000000 0.000000 0.032712 0.000000 0.000000
# 5 0.000000 0.000000 0.000000 0.000000 0.010969 0.000000
# 6 0.000000 0.000000 0.000000 0.000000 0.000000 0.020897
#
#
# Mechanical properties :
#
#
# Convention : Reuss Voigt Hill
#
# Bulk Modulus (GPa) = 36.24105 78.15636 57.19870
# Shear Modulus (GPa) = 22.79306 48.95779 35.87543
#
# Velocity S-wave (km/s) = 2.82066 4.13391 3.53874
# Velocity P-wave (km/s) = 4.82271 7.07580 6.05497
#
# Compressibility (1/GPa) = 0.02759302
#
# Stress axis : x y z
#
# Youngs Moduli (GPa) = 59.97978 15.68587 162.13549
#
# Poissons Ratio (x) = 0.36017 0.02873
# Poissons Ratio (y) = 1.37723 1.03127
# Poissons Ratio (z) = 0.01063 0.09977
#
# Static dielectric constant tensor:
#      x y z
#    x 5.843820 0.000000 0.000000 
#    y 0.000000 4.612410 0.000000 
#    z 0.000000 0.000000 5.819170 
# 
# 
# High freq. dielectric constant tensor:
#      x y z
#    x 2.179610 0.000000 0.000000 
#    y 0.000000 2.115550 0.000000 
#    z 0.000000 0.000000 2.195100 
# 
# From -- ./inp_files/3817.got.cif
#   From: 2010.03.12/outbox.cif.g09.slc.cpg/sg54_2_cif.got.tgz:3817.got - 2010.04.16 15:00:50.
