data_PCOD8223594
_publ_section_title
;
Structure prediction by ZEFSAII (Michael W. Deem and Ramdas Pophale) SiO2 
 PCOD8223594
Probable space group: P C C A
;
_chemical_formula_sum "Si O2"
_cell_formula_units_Z 64
_cell_length_a 15.293546
_cell_length_b 9.682416
_cell_length_c 20.127658
_cell_angle_alpha 90.000000
_cell_angle_beta 90.000000
_cell_angle_gamma 90.000000
_cell_volume 2980.472892
_symmetry_space_group_name_H-M "P C C A"
_symmetry_group_IT_number 54
_symmetry_cell_setting 'orthorhombic'
loop_
_space_group_symop_operation_xyz
x,y,z
1/2-x,-y,z
1/2+x,-y,1/2-z
-x,y,1/2-z
-x,-y,-z
1/2+x,y,-z
1/2-x,y,1/2+z
x,-y,1/2+z
loop_
_atom_site_type_symbol
_atom_site_label
_atom_site_fract_x
_atom_site_fract_y
_atom_site_fract_z
Si Si1 0.385312 0.179298 0.489283
Si Si2 0.377181 0.274550 0.852624
Si Si3 0.543187 0.080918 0.876914
Si Si4 0.538673 0.383050 0.453936
Si Si5 0.162277 0.931294 0.744880
Si Si6 0.460489 0.562039 0.822329
Si Si7 0.719408 0.652292 0.020390
Si Si8 0.085980 0.865530 0.350731
O O1 0.409059 0.082924 0.551457
O O2 0.473046 0.256982 0.465461
O O3 0.303276 0.272278 0.511978
O O4 0.360104 0.101454 0.419740
O O5 0.464783 0.192190 0.873297
O O6 0.326815 0.203846 0.791054
O O7 0.397192 0.433161 0.835129
O O8 0.309946 0.269931 0.913206
O O9 0.608625 0.120596 0.818248
O O10 0.512144 0.923521 0.864973
O O11 0.500000 0.500000 0.500000
O O12 0.536956 0.436147 0.377820
O O13 0.638925 0.346492 0.468978
O O14 0.250000 0.000000 0.717594
O O15 0.118140 0.049767 0.788146
O O16 0.500000 0.547881 0.750000
O O17 0.407692 0.705204 0.830354
O O18 0.750000 0.500000 0.038956
#
# Coordination Sequence:
#
# PCOD8223594 Si02
#       8
#     8   8   8   8   8   8   8   8
#     4  11  22  39  66  97 126 175 237 278 332 418
#     4  11  22  40  71  96 129 180 234 269 331 415
#     4  11  22  44  67  93 134 186 221 278 350 406
#     4  11  20  40  62  93 140 176 216 284 347 412
#     4  11  24  44  64  94 137 175 220 279 342 407
#     4  11  21  38  68 101 128 172 229 271 334 410
#     4  12  22  38  67  98 136 176 220 290 355 397
#     4  10  22  42  68  91 132 178 223 274 340 403
#
# _framework density 21.473102000000001
#
# number of rings (size 3 to 8) (size 9 to 14) (size 15 to 20)
#    0.000    1.000    3.750    4.875    0.000    0.000 
#    6.750    0.625    0.000    0.000    0.000    0.000 
#    0.000    0.000    0.000    0.000    0.000    0.000 
#
# Total GULP energy -793212.564503 kJ/mol
# GULP energy per Si atom -12393.946320 kJ/mol
# Density = 2.142423 g / cm^3
# Si number density = 21.473102 Si / 1000 Ang^3
#
#
#
# Elastic Constant Matrix: (Units=GPa)
#
#
# Indices 1 2 3 4 5 6 
#
# 1 112.8895 25.7771 27.1693 0.0000 0.0000 0.0000
# 2 25.7771 100.8152 12.8184 0.0000 0.0000 0.0000
# 3 27.1693 12.8184 123.3026 0.0000 0.0000 0.0000
# 4 0.0000 0.0000 0.0000 25.8228 0.0000 0.0000
# 5 0.0000 0.0000 0.0000 0.0000 30.6470 0.0000
# 6 0.0000 0.0000 0.0000 0.0000 0.0000 24.2422
#
#
#
# Elastic Compliance Matrix: (Units=1/GPa)
#
#
# Indices 1 2 3 4 5 6 
#
# 1 0.009842 -0.002271 -0.001933 0.000000 0.000000 0.000000
# 2 -0.002271 0.010576 -0.000599 0.000000 0.000000 0.000000
# 3 -0.001933 -0.000599 0.008598 0.000000 0.000000 0.000000
# 4 0.000000 0.000000 0.000000 0.038726 0.000000 0.000000
# 5 0.000000 0.000000 0.000000 0.000000 0.032630 0.000000
# 6 0.000000 0.000000 0.000000 0.000000 0.000000 0.041250
#
#
# Mechanical properties :
#
#
# Convention : Reuss Voigt Hill
#
# Bulk Modulus (GPa) = 51.51659 52.05966 51.78812
# Shear Modulus (GPa) = 31.70644 34.22522 32.96583
#
# Velocity S-wave (km/s) = 3.84678 3.99665 3.92243
# Velocity P-wave (km/s) = 6.61616 6.75236 6.68461
#
# Compressibility (1/GPa) = 0.01941122
#
# Stress axis : x y z
#
# Youngs Moduli (GPa) = 101.60724 94.55457 116.30283
#
# Poissons Ratio (x) = 0.21471 0.22476
# Poissons Ratio (y) = 0.23072 0.06968
# Poissons Ratio (z) = 0.19636 0.05665
#
# Static dielectric constant tensor:
#      x y z
#    x 4.104780 0.000000 0.000000 
#    y 0.000000 4.143020 0.000000 
#    z 0.000000 0.000000 4.023890 
# 
# 
# High freq. dielectric constant tensor:
#      x y z
#    x 1.827310 0.000000 0.000000 
#    y 0.000000 1.847320 0.000000 
#    z 0.000000 0.000000 1.853990 
# 
# From -- ./inp_files/21964.got.cif
#   From: 2010.03.12/outbox.cif.g09.slc.cpg/sg54_11_cif.got.tgz:21964.got - 2010.04.16 15:00:50.
