data_PCOD8223473
_publ_section_title
;
Structure prediction by ZEFSAII (Michael W. Deem and Ramdas Pophale) SiO2 
 PCOD8223473
Probable space group: P C C A
;
_chemical_formula_sum "Si O2"
_cell_formula_units_Z 64
_cell_length_a 15.059206
_cell_length_b 8.667938
_cell_length_c 24.367935
_cell_angle_alpha 90.000000
_cell_angle_beta 90.000000
_cell_angle_gamma 90.000000
_cell_volume 3180.801723
_symmetry_space_group_name_H-M "P C C A"
_symmetry_group_IT_number 54
_symmetry_cell_setting 'orthorhombic'
loop_
_space_group_symop_operation_xyz
x,y,z
1/2-x,-y,z
1/2+x,-y,1/2-z
-x,y,1/2-z
-x,-y,-z
1/2+x,y,-z
1/2-x,y,1/2+z
x,-y,1/2+z
loop_
_atom_site_type_symbol
_atom_site_label
_atom_site_fract_x
_atom_site_fract_y
_atom_site_fract_z
Si Si1 0.152677 0.933357 0.256495
Si Si2 0.846970 0.932170 0.364114
Si Si3 0.896958 0.592048 0.245839
Si Si4 0.653651 0.432353 0.636578
Si Si5 0.157066 0.431122 0.634963
Si Si6 0.848511 0.931581 0.634581
Si Si7 0.995023 0.066767 0.559898
Si Si8 0.504549 0.566395 0.560658
O O1 0.112676 0.971658 0.196450
O O2 0.155433 0.749711 0.267497
O O3 0.250000 0.000000 0.255338
O O4 0.104393 0.017216 0.307644
O O5 0.836577 0.750768 0.368619
O O6 0.918266 0.995044 0.407527
O O7 0.750000 0.000000 0.376048
O O8 0.879738 0.470623 0.197788
O O9 0.864048 0.515881 0.302673
O O10 0.000000 0.636040 0.250000
O O11 0.750000 0.500000 0.625898
O O12 0.654525 0.250506 0.629190
O O13 0.591711 0.505966 0.590576
O O14 0.250000 0.500000 0.615107
O O15 0.081020 0.493472 0.594381
O O16 0.750000 0.000000 0.630374
O O17 0.905365 0.002028 0.585745
O O18 0.992046 0.250101 0.559127
O O19 0.000000 0.000000 0.500000
O O20 0.500000 0.500000 0.500000
#
# Coordination Sequence:
#
# PCOD8223473 Si02
#       8
#     8   8   8   8   8   8   8   8
#     4   9  19  37  61  93 124 162 203 245 308 379
#     4   9  21  39  61  90 122 161 200 248 311 369
#     4  11  21  39  65  95 132 171 204 258 325 379
#     4  12  24  42  66  94 128 168 212 264 319 383
#     4  10  22  39  64  91 125 164 205 253 312 378
#     4  11  24  41  63  95 125 164 209 260 316 377
#     4  11  24  43  63  90 123 165 211 263 314 372
#     4  11  24  44  65  91 126 167 215 265 319 380
#
# _framework density 20.120714
#
# number of rings (size 3 to 8) (size 9 to 14) (size 15 to 20)
#    0.000    1.500    1.250    4.125    3.500    6.000 
#    2.250    2.500    0.000    0.000    0.000    0.000 
#    0.000    0.000    0.000    0.000    0.000    0.000 
#
# Total GULP energy -793613.300697 kJ/mol
# GULP energy per Si atom -12400.207823 kJ/mol
# Density = 2.007492 g / cm^3
# Si number density = 20.120714 Si / 1000 Ang^3
#
#
#
# Elastic Constant Matrix: (Units=GPa)
#
#
# Indices 1 2 3 4 5 6 
#
# 1 131.9456 47.5630 73.5066 0.0000 0.0000 0.0000
# 2 47.5630 95.6764 54.7276 0.0000 0.0000 0.0000
# 3 73.5066 54.7276 180.7398 0.0000 0.0000 0.0000
# 4 0.0000 0.0000 0.0000 35.9321 0.0000 0.0000
# 5 0.0000 0.0000 0.0000 0.0000 25.3142 0.0000
# 6 0.0000 0.0000 0.0000 0.0000 0.0000 33.0624
#
#
#
# Elastic Compliance Matrix: (Units=1/GPa)
#
#
# Indices 1 2 3 4 5 6 
#
# 1 0.010643 -0.003405 -0.003298 0.000000 0.000000 0.000000
# 2 -0.003405 0.013731 -0.002773 0.000000 0.000000 0.000000
# 3 -0.003298 -0.002773 0.007714 0.000000 0.000000 0.000000
# 4 0.000000 0.000000 0.000000 0.027830 0.000000 0.000000
# 5 0.000000 0.000000 0.000000 0.000000 0.039504 0.000000
# 6 0.000000 0.000000 0.000000 0.000000 0.000000 0.030246
#
#
# Mechanical properties :
#
#
# Convention : Reuss Voigt Hill
#
# Bulk Modulus (GPa) = 76.12150 84.43957 80.28054
# Shear Modulus (GPa) = 32.68044 34.36606 33.52325
#
# Velocity S-wave (km/s) = 4.03453 4.13727 4.08622
# Velocity P-wave (km/s) = 7.72126 8.05483 7.88981
#
# Compressibility (1/GPa) = 0.01313689
#
# Stress axis : x y z
#
# Youngs Moduli (GPa) = 93.95551 72.83006 129.64124
#
# Poissons Ratio (x) = 0.24797 0.42751
# Poissons Ratio (y) = 0.31990 0.35948
# Poissons Ratio (z) = 0.30983 0.20195
#
# Static dielectric constant tensor:
#      x y z
#    x 3.802000 0.000000 0.000000 
#    y 0.000000 2.473790 0.000000 
#    z 0.000000 0.000000 4.148610 
# 
# 
# High freq. dielectric constant tensor:
#      x y z
#    x 1.791990 0.000000 0.000000 
#    y 0.000000 1.785280 0.000000 
#    z 0.000000 0.000000 1.794970 
# 
# From -- ./inp_files/24492.got.cif
#   From: 2010.03.12/outbox.cif.g09.slc.cpg/sg54_13_cif.got.tgz:24492.got - 2010.04.16 15:00:50.
