data_PCOD8223023
_publ_section_title
;
Structure prediction by ZEFSAII (Michael W. Deem and Ramdas Pophale) SiO2 
 PCOD8223023
Probable space group: P C C A
;
_chemical_formula_sum "Si O2"
_cell_formula_units_Z 28
_cell_length_a 13.662926
_cell_length_b 8.403343
_cell_length_c 10.389507
_cell_angle_alpha 90.000000
_cell_angle_beta 90.000000
_cell_angle_gamma 90.000000
_cell_volume 1192.863491
_symmetry_space_group_name_H-M "P C C A"
_symmetry_group_IT_number 54
_symmetry_cell_setting 'orthorhombic'
loop_
_space_group_symop_operation_xyz
x,y,z
1/2-x,-y,z
1/2+x,-y,1/2-z
-x,y,1/2-z
-x,-y,-z
1/2+x,y,-z
1/2-x,y,1/2+z
x,-y,1/2+z
loop_
_atom_site_type_symbol
_atom_site_label
_atom_site_fract_x
_atom_site_fract_y
_atom_site_fract_z
Si Si1 0.592276 0.296917 0.547007
Si Si2 0.335384 0.125385 0.181444
Si Si3 0.923634 0.631565 0.138696
Si Si4 0.500000 0.914970 0.250000
O O1 0.675340 0.229484 0.449155
O O2 0.484585 0.301823 0.481995
O O3 0.630001 0.469768 0.593692
O O4 0.579418 0.185855 0.670921
O O5 0.344121 0.240858 0.307378
O O6 0.250000 0.000000 0.202515
O O7 0.436643 0.030465 0.159062
O O8 0.000000 0.585081 0.250000
#
# Coordination Sequence:
#
# PCOD8223023 Si02
#       4
#     8   8   8   4
#     4  10  20  39  71  95 132 184 228 285 352 419
#     4  11  24  41  67 105 141 179 234 295 352 415
#     4   9  18  40  70  98 129 179 237 281 353 418
#     4  12  22  40  66 102 140 182 234 286 358 410
#
# _framework density 23.472929000000001
#
# number of rings (size 3 to 8) (size 9 to 14) (size 15 to 20)
#    0.000    1.714    5.714    0.857    0.000    1.143 
#    0.000    1.429    6.286    0.000    0.000    0.000 
#    0.000    0.000    0.000    0.000    0.000    0.000 
#
# Total GULP energy -347133.525613 kJ/mol
# GULP energy per Si atom -12397.625915 kJ/mol
# Density = 2.341950 g / cm^3
# Si number density = 23.472929 Si / 1000 Ang^3
#
#
#
# Elastic Constant Matrix: (Units=GPa)
#
#
# Indices 1 2 3 4 5 6 
#
# 1 67.0462 56.3283 14.5329 0.0000 0.0000 0.0000
# 2 56.3283 186.8032 60.0191 0.0000 0.0000 0.0000
# 3 14.5329 60.0191 89.6466 0.0000 0.0000 0.0000
# 4 0.0000 0.0000 0.0000 30.2048 0.0000 0.0000
# 5 0.0000 0.0000 0.0000 0.0000 20.2341 0.0000
# 6 0.0000 0.0000 0.0000 0.0000 0.0000 45.5796
#
#
#
# Elastic Compliance Matrix: (Units=1/GPa)
#
#
# Indices 1 2 3 4 5 6 
#
# 1 0.020048 -0.006372 0.001016 0.000000 0.000000 0.000000
# 2 -0.006372 0.008845 -0.004889 0.000000 0.000000 0.000000
# 3 0.001016 -0.004889 0.014264 0.000000 0.000000 0.000000
# 4 0.000000 0.000000 0.000000 0.033107 0.000000 0.000000
# 5 0.000000 0.000000 0.000000 0.000000 0.049421 0.000000
# 6 0.000000 0.000000 0.000000 0.000000 0.000000 0.021940
#
#
# Mechanical properties :
#
#
# Convention : Reuss Voigt Hill
#
# Bulk Modulus (GPa) = 44.11696 67.25072 55.68384
# Shear Modulus (GPa) = 28.46233 33.37808 30.92021
#
# Velocity S-wave (km/s) = 3.48596 3.77501 3.63336
# Velocity P-wave (km/s) = 5.91931 6.90749 6.43240
#
# Compressibility (1/GPa) = 0.02266702
#
# Stress axis : x y z
#
# Youngs Moduli (GPa) = 49.88042 113.05373 70.10887
#
# Poissons Ratio (x) = 0.72033 -0.07122
# Poissons Ratio (y) = 0.31782 0.34277
# Poissons Ratio (z) = -0.05067 0.55273
#
# Static dielectric constant tensor:
#      x y z
#    x 3.814430 0.000000 0.000000 
#    y 0.000000 4.523690 0.000000 
#    z 0.000000 0.000000 4.328400 
# 
# 
# High freq. dielectric constant tensor:
#      x y z
#    x 1.876830 0.000000 0.000000 
#    y 0.000000 1.953240 0.000000 
#    z 0.000000 0.000000 1.928880 
# 
# From -- ./inp_files/7826.got.cif
#   From: 2010.03.12/outbox.cif.g09.slc.cpg/sg54_4_cif.got.tgz:7826.got - 2010.04.16 15:00:50.
