data_PCOD8223605
_publ_section_title
;
Structure prediction by ZEFSAII (Michael W. Deem and Ramdas Pophale) SiO2 
 PCOD8223605
Probable space group: P C C A
;
_chemical_formula_sum "Si O2"
_cell_formula_units_Z 40
_cell_length_a 11.487869
_cell_length_b 18.050951
_cell_length_c 8.523423
_cell_angle_alpha 90.000000
_cell_angle_beta 90.000000
_cell_angle_gamma 90.000000
_cell_volume 1767.476320
_symmetry_space_group_name_H-M "P C C A"
_symmetry_group_IT_number 54
_symmetry_cell_setting 'orthorhombic'
loop_
_space_group_symop_operation_xyz
x,y,z
1/2-x,-y,z
1/2+x,-y,1/2-z
-x,y,1/2-z
-x,-y,-z
1/2+x,y,-z
1/2-x,y,1/2+z
x,-y,1/2+z
loop_
_atom_site_type_symbol
_atom_site_label
_atom_site_fract_x
_atom_site_fract_y
_atom_site_fract_z
Si Si1 0.914095 0.567521 0.970710
Si Si2 0.250000 0.000000 0.171077
Si Si3 0.899130 0.682222 0.440342
Si Si4 0.593998 0.941876 0.566772
Si Si5 0.768275 0.611880 0.696723
Si Si6 0.500000 0.189485 0.250000
O O1 0.874737 0.570271 0.787026
O O2 0.796677 0.557910 0.073579
O O3 0.000000 0.500000 0.000000
O O4 0.975992 0.644467 0.024021
O O5 0.140664 0.971947 0.267968
O O6 0.300108 0.935004 0.057607
O O7 0.824685 0.682639 0.602758
O O8 0.827825 0.633012 0.320783
O O9 0.912303 0.761123 0.354177
O O10 0.552542 0.859860 0.608898
O O11 0.500000 0.000000 0.500000
#
# Coordination Sequence:
#
# PCOD8223605 Si02
#       6
#     8   4   8   8   8   4
#     4  11  24  45  72 102 144 181 242 297 355 418
#     4  10  22  42  72 104 140 182 236 282 350 442
#     4  11  24  45  66 103 140 183 239 287 360 424
#     4  11  22  44  68 105 140 182 236 286 351 428
#     4  10  24  45  71 101 141 186 240 288 359 436
#     4  12  24  44  74  98 156 182 228 314 346 430
#
# _framework density 22.631138
#
# number of rings (size 3 to 8) (size 9 to 14) (size 15 to 20)
#    0.000    1.200    4.000    0.600    0.000    9.600 
#    0.000    5.000    0.000    0.000    0.000    0.000 
#    0.000    0.000    0.000    0.000    0.000    0.000 
#
# Total GULP energy -495526.274974 kJ/mol
# GULP energy per Si atom -12388.156874 kJ/mol
# Density = 2.257963 g / cm^3
# Si number density = 22.631138 Si / 1000 Ang^3
#
#
#
# Elastic Constant Matrix: (Units=GPa)
#
#
# Indices 1 2 3 4 5 6 
#
# 1 117.4812 49.9344 67.3404 0.0000 0.0000 0.0000
# 2 49.9344 113.4202 49.3498 0.0000 0.0000 0.0000
# 3 67.3404 49.3498 151.3926 0.0000 0.0000 0.0000
# 4 0.0000 0.0000 0.0000 38.3783 0.0000 0.0000
# 5 0.0000 0.0000 0.0000 0.0000 47.7660 0.0000
# 6 0.0000 0.0000 0.0000 0.0000 0.0000 27.7630
#
#
#
# Elastic Compliance Matrix: (Units=1/GPa)
#
#
# Indices 1 2 3 4 5 6 
#
# 1 0.012581 -0.003617 -0.004417 0.000000 0.000000 0.000000
# 2 -0.003617 0.011314 -0.002079 0.000000 0.000000 0.000000
# 3 -0.004417 -0.002079 0.009248 0.000000 0.000000 0.000000
# 4 0.000000 0.000000 0.000000 0.026056 0.000000 0.000000
# 5 0.000000 0.000000 0.000000 0.000000 0.020935 0.000000
# 6 0.000000 0.000000 0.000000 0.000000 0.000000 0.036019
#
#
# Mechanical properties :
#
#
# Convention : Reuss Voigt Hill
#
# Bulk Modulus (GPa) = 77.42160 79.50479 78.46319
# Shear Modulus (GPa) = 35.54007 37.15943 36.34975
#
# Velocity S-wave (km/s) = 3.96713 4.05651 4.01207
# Velocity P-wave (km/s) = 7.43429 7.55958 7.49720
#
# Compressibility (1/GPa) = 0.01291629
#
# Stress axis : x y z
#
# Youngs Moduli (GPa) = 79.48260 88.38712 108.13310
#
# Poissons Ratio (x) = 0.31971 0.47764
# Poissons Ratio (y) = 0.28750 0.22482
# Poissons Ratio (z) = 0.35109 0.18376
#
# Static dielectric constant tensor:
#      x y z
#    x 4.515670 0.000000 0.000000 
#    y 0.000000 3.780270 0.000000 
#    z 0.000000 0.000000 4.772180 
# 
# 
# High freq. dielectric constant tensor:
#      x y z
#    x 1.915220 0.000000 0.000000 
#    y 0.000000 1.844650 0.000000 
#    z 0.000000 0.000000 1.925930 
# 
# From -- ./inp_files/2975.got.cif
#   From: 2010.03.12/outbox.cif.g09.slc.cpg/sg54_2_cif.got.tgz:2975.got - 2010.04.16 15:00:50.
