data_PCOD8223307
_publ_section_title
;
Structure prediction by ZEFSAII (Michael W. Deem and Ramdas Pophale) SiO2 
 PCOD8223307
Probable space group: P C C A
;
_chemical_formula_sum "Si O2"
_cell_formula_units_Z 32
_cell_length_a 4.925609
_cell_length_b 22.426496
_cell_length_c 12.800356
_cell_angle_alpha 90.000000
_cell_angle_beta 90.000000
_cell_angle_gamma 90.000000
_cell_volume 1413.980452
_symmetry_space_group_name_H-M "P C C A"
_symmetry_group_IT_number 54
_symmetry_cell_setting 'orthorhombic'
loop_
_space_group_symop_operation_xyz
x,y,z
1/2-x,-y,z
1/2+x,-y,1/2-z
-x,y,1/2-z
-x,-y,-z
1/2+x,y,-z
1/2-x,y,1/2+z
x,-y,1/2+z
loop_
_atom_site_type_symbol
_atom_site_label
_atom_site_fract_x
_atom_site_fract_y
_atom_site_fract_z
Si Si1 0.000000 0.284635 0.250000
Si Si2 0.319984 0.879808 0.568722
Si Si3 0.000000 0.207000 0.750000
Si Si4 0.750000 0.000000 0.318996
Si Si5 0.206984 0.628193 0.573967
Si Si6 0.250000 0.500000 0.574523
O O1 0.751259 0.245589 0.204755
O O2 0.861042 0.322903 0.340675
O O3 0.512856 0.870378 0.468930
O O4 0.381521 0.832336 0.657302
O O5 0.363850 0.946426 0.611169
O O6 0.500000 0.975542 0.250000
O O7 0.502634 0.635535 0.523221
O O8 0.217835 0.563275 0.635327
O O9 0.500000 0.500000 0.500000
#
# Coordination Sequence:
#
# PCOD8223307 Si02
#       6
#     4   8   4   4   8   4
#     4  12  26  42  66  96 130 182 230 268 330 396
#     4  12  26  46  72 101 133 180 224 274 342 404
#     4  12  28  46  64  96 138 176 230 282 318 390
#     4  12  24  44  76 104 142 172 210 286 348 396
#     4  10  21  40  65  93 129 168 214 273 330 391
#     4   8  16  34  60  90 122 158 202 264 332 386
#
# _framework density 22.631148
#
# number of rings (size 3 to 8) (size 9 to 14) (size 15 to 20)
#    0.000    1.000    1.250    5.250    1.750    6.000 
#    0.000    8.750    0.000    0.000    0.000    0.000 
#    0.000    0.000    0.000    0.000    0.000    0.000 
#
# Total GULP energy -396624.775732 kJ/mol
# GULP energy per Si atom -12394.524242 kJ/mol
# Density = 2.257964 g / cm^3
# Si number density = 22.631148 Si / 1000 Ang^3
#
#
#
# Elastic Constant Matrix: (Units=GPa)
#
#
# Indices 1 2 3 4 5 6 
#
# 1 119.2708 35.1577 13.8102 0.0000 0.0000 0.0000
# 2 35.1577 153.9085 48.6370 0.0000 0.0000 0.0000
# 3 13.8102 48.6370 76.3925 0.0000 0.0000 0.0000
# 4 0.0000 0.0000 0.0000 3.1640 0.0000 0.0000
# 5 0.0000 0.0000 0.0000 0.0000 38.0979 0.0000
# 6 0.0000 0.0000 0.0000 0.0000 0.0000 41.4025
#
#
#
# Elastic Compliance Matrix: (Units=1/GPa)
#
#
# Indices 1 2 3 4 5 6 
#
# 1 0.008999 -0.001930 -0.000398 0.000000 0.000000 0.000000
# 2 -0.001930 0.008548 -0.005093 0.000000 0.000000 0.000000
# 3 -0.000398 -0.005093 0.016405 0.000000 0.000000 0.000000
# 4 0.000000 0.000000 0.000000 0.316057 0.000000 0.000000
# 5 0.000000 0.000000 0.000000 0.000000 0.026248 0.000000
# 6 0.000000 0.000000 0.000000 0.000000 0.000000 0.024153
#
#
# Mechanical properties :
#
#
# Convention : Reuss Voigt Hill
#
# Bulk Modulus (GPa) = 52.33024 60.53129 56.43077
# Shear Modulus (GPa) = 11.85894 33.33067 22.59480
#
# Velocity S-wave (km/s) = 2.29161 3.84184 3.16317
# Velocity P-wave (km/s) = 5.49320 6.81796 6.19112
#
# Compressibility (1/GPa) = 0.01910941
#
# Stress axis : x y z
#
# Youngs Moduli (GPa) = 111.12019 116.98989 60.95700
#
# Poissons Ratio (x) = 0.22578 0.02427
# Poissons Ratio (y) = 0.21445 0.31047
# Poissons Ratio (z) = 0.04425 0.59586
#
# Static dielectric constant tensor:
#      x y z
#    x 4.208900 0.000000 0.000000 
#    y 0.000000 4.664750 0.000000 
#    z 0.000000 0.000000 3.653520 
# 
# 
# High freq. dielectric constant tensor:
#      x y z
#    x 1.920850 0.000000 0.000000 
#    y 0.000000 1.912330 0.000000 
#    z 0.000000 0.000000 1.862890 
# 
# From -- ./inp_files/6310.got.cif
#   From: 2010.03.12/outbox.cif.g09.slc.cpg/sg54_4_cif.got.tgz:6310.got - 2010.04.16 15:00:50.
