data_PCOD8223061
_publ_section_title
;
Structure prediction by ZEFSAII (Michael W. Deem and Ramdas Pophale) SiO2 
 PCOD8223061
Probable space group: P C C A
;
_chemical_formula_sum "Si O2"
_cell_formula_units_Z 44
_cell_length_a 15.933173
_cell_length_b 13.668308
_cell_length_c 9.095635
_cell_angle_alpha 90.000000
_cell_angle_beta 90.000000
_cell_angle_gamma 90.000000
_cell_volume 1980.842988
_symmetry_space_group_name_H-M "P C C A"
_symmetry_group_IT_number 54
_symmetry_cell_setting 'orthorhombic'
loop_
_space_group_symop_operation_xyz
x,y,z
1/2-x,-y,z
1/2+x,-y,1/2-z
-x,y,1/2-z
-x,-y,-z
1/2+x,y,-z
1/2-x,y,1/2+z
x,-y,1/2+z
loop_
_atom_site_type_symbol
_atom_site_label
_atom_site_fract_x
_atom_site_fract_y
_atom_site_fract_z
Si Si1 0.313251 0.085930 0.284988
Si Si2 0.437796 0.091468 0.026263
Si Si3 0.906769 0.206078 0.506597
Si Si4 0.167486 0.788430 0.799401
Si Si5 0.706240 0.364641 0.116711
Si Si6 0.250000 0.500000 0.635216
O O1 0.388610 0.065142 0.173543
O O2 0.354617 0.108279 0.445183
O O3 0.255410 0.174966 0.227373
O O4 0.250000 0.000000 0.311917
O O5 0.495435 0.188662 0.041581
O O6 0.371907 0.123789 0.899257
O O7 0.500000 0.000000 0.000000
O O8 0.895709 0.232196 0.334601
O O9 0.872481 0.291451 0.611639
O O10 0.200618 0.689496 0.881836
O O11 0.692261 0.433262 0.258433
O O12 0.696861 0.428283 0.968508
#
# Coordination Sequence:
#
# PCOD8223061 Si02
#       6
#     8   8   8   8   8   4
#     4  11  23  41  63  92 129 178 235 276 319 394
#     4  12  26  43  65  96 140 187 228 278 336 398
#     4  11  23  40  62  98 137 177 216 279 344 393
#     4  11  23  41  65  94 133 178 227 274 328 398
#     4  10  21  40  71 106 133 174 224 281 334 407
#     4  10  20  40  74 106 132 170 236 278 332 414
#
# _framework density 22.212766999999999
#
# number of rings (size 3 to 8) (size 9 to 14) (size 15 to 20)
#    0.000    1.091    1.818    5.455    2.545    2.909 
#    0.000    0.000    0.000    6.545    0.000    0.000 
#    0.000    0.000    0.000    0.000    0.000    0.000 
#
# Total GULP energy -545081.084595 kJ/mol
# GULP energy per Si atom -12388.206468 kJ/mol
# Density = 2.216221 g / cm^3
# Si number density = 22.212767 Si / 1000 Ang^3
#
#
#
# Elastic Constant Matrix: (Units=GPa)
#
#
# Indices 1 2 3 4 5 6 
#
# 1 113.4142 49.5058 37.5635 0.0000 0.0000 0.0000
# 2 49.5058 93.3845 50.0802 0.0000 0.0000 0.0000
# 3 37.5635 50.0802 118.3173 0.0000 0.0000 0.0000
# 4 0.0000 0.0000 0.0000 33.9585 0.0000 0.0000
# 5 0.0000 0.0000 0.0000 0.0000 32.9261 0.0000
# 6 0.0000 0.0000 0.0000 0.0000 0.0000 19.3319
#
#
#
# Elastic Compliance Matrix: (Units=1/GPa)
#
#
# Indices 1 2 3 4 5 6 
#
# 1 0.011649 -0.005423 -0.001403 0.000000 0.000000 0.000000
# 2 -0.005423 0.016378 -0.005210 0.000000 0.000000 0.000000
# 3 -0.001403 -0.005210 0.011103 0.000000 0.000000 0.000000
# 4 0.000000 0.000000 0.000000 0.029448 0.000000 0.000000
# 5 0.000000 0.000000 0.000000 0.000000 0.030371 0.000000
# 6 0.000000 0.000000 0.000000 0.000000 0.000000 0.051728
#
#
# Mechanical properties :
#
#
# Convention : Reuss Voigt Hill
#
# Bulk Modulus (GPa) = 66.41680 66.60163 66.50922
# Shear Modulus (GPa) = 27.81363 29.77440 28.79402
#
# Velocity S-wave (km/s) = 3.54241 3.66514 3.60430
# Velocity P-wave (km/s) = 6.83350 6.92529 6.87955
#
# Compressibility (1/GPa) = 0.01505643
#
# Stress axis : x y z
#
# Youngs Moduli (GPa) = 85.84323 61.05883 90.06854
#
# Poissons Ratio (x) = 0.33113 0.12636
# Poissons Ratio (y) = 0.46554 0.46929
# Poissons Ratio (z) = 0.12043 0.31814
#
# Static dielectric constant tensor:
#      x y z
#    x 4.184570 0.000000 0.000000 
#    y 0.000000 4.482640 0.000000 
#    z 0.000000 0.000000 3.971080 
# 
# 
# High freq. dielectric constant tensor:
#      x y z
#    x 1.857620 0.000000 0.000000 
#    y 0.000000 1.874200 0.000000 
#    z 0.000000 0.000000 1.877640 
# 
# From -- ./inp_files/4106.got.cif
#   From: 2010.03.12/outbox.cif.g09.slc.cpg/sg54_3_cif.got.tgz:4106.got - 2010.04.16 15:00:50.
