data_PCOD8223937
_publ_section_title
;
Structure prediction by ZEFSAII (Michael W. Deem and Ramdas Pophale) SiO2 
 PCOD8223937
Probable space group: P C C A
;
_chemical_formula_sum "Si O2"
_cell_formula_units_Z 44
_cell_length_a 15.477956
_cell_length_b 9.876637
_cell_length_c 14.118857
_cell_angle_alpha 90.000000
_cell_angle_beta 90.000000
_cell_angle_gamma 90.000000
_cell_volume 2158.351829
_symmetry_space_group_name_H-M "P C C A"
_symmetry_group_IT_number 54
_symmetry_cell_setting 'orthorhombic'
loop_
_space_group_symop_operation_xyz
x,y,z
1/2-x,-y,z
1/2+x,-y,1/2-z
-x,y,1/2-z
-x,-y,-z
1/2+x,y,-z
1/2-x,y,1/2+z
x,-y,1/2+z
loop_
_atom_site_type_symbol
_atom_site_label
_atom_site_fract_x
_atom_site_fract_y
_atom_site_fract_z
Si Si1 0.023489 0.626207 0.937679
Si Si2 0.500000 0.520699 0.750000
Si Si3 0.804720 0.136451 0.639274
Si Si4 0.636111 0.731376 0.819978
Si Si5 0.786038 0.648433 0.510264
Si Si6 0.012614 0.866737 0.441106
O O1 0.999158 0.587593 0.832927
O O2 0.123317 0.664612 0.937725
O O3 0.000000 0.500000 0.000000
O O4 0.969033 0.749818 0.981292
O O5 0.584361 0.615297 0.761603
O O6 0.800214 0.193700 0.746325
O O7 0.775480 0.240803 0.558177
O O8 0.905562 0.107620 0.624851
O O9 0.750000 0.000000 0.631022
O O10 0.701399 0.669727 0.897717
O O11 0.568505 0.830473 0.873426
O O12 0.750000 0.500000 0.529292
O O13 0.000000 0.000000 0.500000
#
# Coordination Sequence:
#
# PCOD8223937 Si02
#       6
#     8   4   8   8   8   8
#     4  11  21  42  68  97 127 175 224 265 325 406
#     4  12  20  40  74  96 126 172 234 270 320 396
#     4  12  25  44  66  97 137 174 221 279 340 403
#     4  11  23  43  70  94 133 181 221 275 340 402
#     4  11  24  41  66 100 137 168 214 283 338 384
#     4  11  23  45  69  93 132 180 224 273 333 403
#
# _framework density 20.385925
#
# number of rings (size 3 to 8) (size 9 to 14) (size 15 to 20)
#    0.000    0.727    5.455    4.364    0.000    4.364 
#    6.545    0.000    0.000    0.000    0.000    0.000 
#    0.000    0.000    0.000    0.000    0.000    0.000 
#
# Total GULP energy -545489.721309 kJ/mol
# GULP energy per Si atom -12397.493666 kJ/mol
# Density = 2.033953 g / cm^3
# Si number density = 20.385925 Si / 1000 Ang^3
#
#
#
# Elastic Constant Matrix: (Units=GPa)
#
#
# Indices 1 2 3 4 5 6 
#
# 1 58.5823 18.2274 17.6855 0.0000 0.0000 0.0000
# 2 18.2274 136.6684 54.3652 0.0000 0.0000 0.0000
# 3 17.6855 54.3652 126.4369 0.0000 0.0000 0.0000
# 4 0.0000 0.0000 0.0000 26.4193 0.0000 0.0000
# 5 0.0000 0.0000 0.0000 0.0000 28.2213 0.0000
# 6 0.0000 0.0000 0.0000 0.0000 0.0000 36.9237
#
#
#
# Elastic Compliance Matrix: (Units=1/GPa)
#
#
# Indices 1 2 3 4 5 6 
#
# 1 0.018145 -0.001701 -0.001806 0.000000 0.000000 0.000000
# 2 -0.001701 0.008986 -0.003626 0.000000 0.000000 0.000000
# 3 -0.001806 -0.003626 0.009721 0.000000 0.000000 0.000000
# 4 0.000000 0.000000 0.000000 0.037851 0.000000 0.000000
# 5 0.000000 0.000000 0.000000 0.000000 0.035434 0.000000
# 6 0.000000 0.000000 0.000000 0.000000 0.000000 0.027083
#
#
# Mechanical properties :
#
#
# Convention : Reuss Voigt Hill
#
# Bulk Modulus (GPa) = 44.27850 55.80486 50.04168
# Shear Modulus (GPa) = 31.44345 33.74016 32.59181
#
# Velocity S-wave (km/s) = 3.93161 4.07267 4.00276
# Velocity P-wave (km/s) = 6.50979 7.03912 6.77962
#
# Compressibility (1/GPa) = 0.02258432
#
# Stress axis : x y z
#
# Youngs Moduli (GPa) = 55.11241 111.28128 102.87185
#
# Poissons Ratio (x) = 0.18933 0.18583
# Poissons Ratio (y) = 0.09377 0.37300
# Poissons Ratio (z) = 0.09956 0.40350
#
# Static dielectric constant tensor:
#      x y z
#    x 3.875550 0.000000 0.000000 
#    y 0.000000 2.730710 0.000000 
#    z 0.000000 0.000000 4.419560 
# 
# 
# High freq. dielectric constant tensor:
#      x y z
#    x 1.793830 0.000000 0.000000 
#    y 0.000000 1.799710 0.000000 
#    z 0.000000 0.000000 1.810250 
# 
# From -- ./inp_files/13981.got.cif
#   From: 2010.03.12/outbox.cif.g09.slc.cpg/sg54_7_cif.got.tgz:13981.got - 2010.04.16 15:00:50.
