data_PCOD8223034
_publ_section_title
;
Structure prediction by ZEFSAII (Michael W. Deem and Ramdas Pophale) SiO2 
 PCOD8223034
Probable space group: P C C A
;
_chemical_formula_sum "Si O2"
_cell_formula_units_Z 64
_cell_length_a 26.261868
_cell_length_b 8.993557
_cell_length_c 13.456140
_cell_angle_alpha 90.000000
_cell_angle_beta 90.000000
_cell_angle_gamma 90.000000
_cell_volume 3178.173503
_symmetry_space_group_name_H-M "P C C A"
_symmetry_group_IT_number 54
_symmetry_cell_setting 'orthorhombic'
loop_
_space_group_symop_operation_xyz
x,y,z
1/2-x,-y,z
1/2+x,-y,1/2-z
-x,y,1/2-z
-x,-y,-z
1/2+x,y,-z
1/2-x,y,1/2+z
x,-y,1/2+z
loop_
_atom_site_type_symbol
_atom_site_label
_atom_site_fract_x
_atom_site_fract_y
_atom_site_fract_z
Si Si1 0.608734 0.541711 0.358047
Si Si2 0.305093 0.250590 0.675444
Si Si3 0.791982 0.889429 0.030325
Si Si4 0.892476 0.300113 0.709966
Si Si5 0.276738 0.348434 0.315844
Si Si6 0.445918 0.256706 0.786022
Si Si7 0.446016 0.483158 0.444652
Si Si8 0.365238 0.975278 0.313885
O O1 0.666070 0.589265 0.325914
O O2 0.590801 0.386670 0.309058
O O3 0.575923 0.679524 0.317058
O O4 0.599425 0.518157 0.474884
O O5 0.312712 0.197501 0.563739
O O6 0.247671 0.288885 0.711410
O O7 0.327401 0.119886 0.745086
O O8 0.763105 0.777466 0.103998
O O9 0.838033 0.977472 0.083716
O O10 0.750000 0.000000 0.988097
O O11 0.837266 0.368405 0.682807
O O12 0.934132 0.335063 0.622416
O O13 0.886144 0.126916 0.736635
O O14 0.250000 0.500000 0.350242
O O15 0.500000 0.196582 0.750000
O O16 0.443707 0.380308 0.870340
O O17 0.415104 0.121372 0.834303
O O18 0.500000 0.500000 0.500000
#
# Coordination Sequence:
#
# PCOD8223034 Si02
#       8
#     8   8   8   8   8   8   8   8
#     4  10  20  40  63  91 118 162 213 260 322 377
#     4  11  23  41  64  90 131 176 211 263 329 394
#     4  11  24  38  63  93 128 174 216 256 320 392
#     4  10  23  39  64  91 126 166 213 267 319 389
#     4  11  22  43  62  95 132 170 219 276 320 385
#     4  10  21  41  66  90 122 166 206 268 331 386
#     4  11  22  41  68  91 124 163 216 272 328 385
#     4  10  23  44  61  90 133 166 215 264 325 389
#
# _framework density 20.137353000000001
#
# number of rings (size 3 to 8) (size 9 to 14) (size 15 to 20)
#    0.000    1.500    3.750    1.500    3.500    1.500 
#    4.500    0.625    0.000    0.000    0.000    0.000 
#    0.000    0.000    0.000    0.000    0.000    0.000 
#
# Total GULP energy -792972.094606 kJ/mol
# GULP energy per Si atom -12390.188978 kJ/mol
# Density = 2.009152 g / cm^3
# Si number density = 20.137353 Si / 1000 Ang^3
#
#
#
# Elastic Constant Matrix: (Units=GPa)
#
#
# Indices 1 2 3 4 5 6 
#
# 1 90.6801 32.0536 24.3999 0.0000 0.0000 0.0000
# 2 32.0536 95.7367 21.1481 0.0000 0.0000 0.0000
# 3 24.3999 21.1481 106.5550 0.0000 0.0000 0.0000
# 4 0.0000 0.0000 0.0000 2.3263 0.0000 0.0000
# 5 0.0000 0.0000 0.0000 0.0000 25.9082 0.0000
# 6 0.0000 0.0000 0.0000 0.0000 0.0000 28.6887
#
#
#
# Elastic Compliance Matrix: (Units=1/GPa)
#
#
# Indices 1 2 3 4 5 6 
#
# 1 0.012986 -0.003860 -0.002208 0.000000 0.000000 0.000000
# 2 -0.003860 0.012072 -0.001512 0.000000 0.000000 0.000000
# 3 -0.002208 -0.001512 0.010190 0.000000 0.000000 0.000000
# 4 0.000000 0.000000 0.000000 0.429860 0.000000 0.000000
# 5 0.000000 0.000000 0.000000 0.000000 0.038598 0.000000
# 6 0.000000 0.000000 0.000000 0.000000 0.000000 0.034857
#
#
# Mechanical properties :
#
#
# Convention : Reuss Voigt Hill
#
# Bulk Modulus (GPa) = 49.77873 49.79722 49.78797
# Shear Modulus (GPa) = 8.92189 25.74266 17.33228
#
# Velocity S-wave (km/s) = 2.10716 3.57929 2.93696
# Velocity P-wave (km/s) = 5.54017 6.47025 6.02319
#
# Compressibility (1/GPa) = 0.02008890
#
# Stress axis : x y z
#
# Youngs Moduli (GPa) = 77.00418 82.83796 98.13152
#
# Poissons Ratio (x) = 0.31978 0.21663
# Poissons Ratio (y) = 0.29726 0.14837
# Poissons Ratio (z) = 0.16999 0.12525
#
# Static dielectric constant tensor:
#      x y z
#    x 3.767430 0.000000 0.000000 
#    y 0.000000 3.845680 0.000000 
#    z 0.000000 0.000000 3.617910 
# 
# 
# High freq. dielectric constant tensor:
#      x y z
#    x 1.782350 0.000000 0.000000 
#    y 0.000000 1.790530 0.000000 
#    z 0.000000 0.000000 1.781020 
# 
# From -- ./inp_files/10533.got.cif
#   From: 2010.03.12/outbox.cif.g09.slc.cpg/sg54_6_cif.got.tgz:10533.got - 2010.04.16 15:00:50.
