data_PCOD8223411
_publ_section_title
;
Structure prediction by ZEFSAII (Michael W. Deem and Ramdas Pophale) SiO2 
 PCOD8223411
Probable space group: P C C A
;
_chemical_formula_sum "Si O2"
_cell_formula_units_Z 48
_cell_length_a 8.753619
_cell_length_b 12.699457
_cell_length_c 21.200049
_cell_angle_alpha 90.000000
_cell_angle_beta 90.000000
_cell_angle_gamma 90.000000
_cell_volume 2356.729059
_symmetry_space_group_name_H-M "P C C A"
_symmetry_group_IT_number 54
_symmetry_cell_setting 'orthorhombic'
loop_
_space_group_symop_operation_xyz
x,y,z
1/2-x,-y,z
1/2+x,-y,1/2-z
-x,y,1/2-z
-x,-y,-z
1/2+x,y,-z
1/2-x,y,1/2+z
x,-y,1/2+z
loop_
_atom_site_type_symbol
_atom_site_label
_atom_site_fract_x
_atom_site_fract_y
_atom_site_fract_z
Si Si1 0.969056 0.264074 0.505735
Si Si2 0.154352 0.103199 0.789112
Si Si3 0.788494 0.621547 0.572814
Si Si4 0.873146 0.858518 0.891324
Si Si5 0.451765 0.088978 0.096845
Si Si6 0.904153 0.264344 0.193110
O O1 0.867701 0.315570 0.560601
O O2 0.870168 0.231064 0.444969
O O3 0.094750 0.348455 0.482993
O O4 0.043655 0.158192 0.533546
O O5 0.255082 0.207565 0.778391
O O6 0.000000 0.108311 0.750000
O O7 0.105207 0.101920 0.862548
O O8 0.250000 0.000000 0.770282
O O9 0.750000 0.500000 0.569922
O O10 0.856765 0.649025 0.641543
O O11 0.700849 0.873127 0.864564
O O12 0.987718 0.826721 0.835632
O O13 0.933075 0.967148 0.922050
O O14 0.000000 0.319513 0.250000
#
# Coordination Sequence:
#
# PCOD8223411 Si02
#       6
#     8   8   8   8   8   8
#     4  11  21  41  62  94 129 164 205 261 321 377
#     4  12  24  37  60  89 129 169 216 254 311 380
#     4  11  24  43  69  92 122 163 218 276 328 379
#     4  10  22  36  61  92 132 170 205 245 305 385
#     4  11  21  36  58  92 130 168 208 247 304 382
#     4  11  23  43  64  88 126 168 212 267 323 373
#
# _framework density 20.367214000000001
#
# number of rings (size 3 to 8) (size 9 to 14) (size 15 to 20)
#    0.000    1.000    5.000    2.500    2.333    0.000 
#    3.000    0.833    0.000    0.000    0.000    0.000 
#    0.000    0.000    0.000    0.000    0.000    0.000 
#
# Total GULP energy -595194.844915 kJ/mol
# GULP energy per Si atom -12399.892602 kJ/mol
# Density = 2.032086 g / cm^3
# Si number density = 20.367214 Si / 1000 Ang^3
#
#
#
# Elastic Constant Matrix: (Units=GPa)
#
#
# Indices 1 2 3 4 5 6 
#
# 1 106.3474 35.2034 41.5027 0.0000 0.0000 0.0000
# 2 35.2034 97.3523 36.7432 0.0000 0.0000 0.0000
# 3 41.5027 36.7432 89.2857 0.0000 0.0000 0.0000
# 4 0.0000 0.0000 0.0000 22.0783 0.0000 0.0000
# 5 0.0000 0.0000 0.0000 0.0000 43.3071 0.0000
# 6 0.0000 0.0000 0.0000 0.0000 0.0000 27.8498
#
#
#
# Elastic Compliance Matrix: (Units=1/GPa)
#
#
# Indices 1 2 3 4 5 6 
#
# 1 0.012039 -0.002653 -0.004504 0.000000 0.000000 0.000000
# 2 -0.002653 0.012746 -0.004012 0.000000 0.000000 0.000000
# 3 -0.004504 -0.004012 0.014945 0.000000 0.000000 0.000000
# 4 0.000000 0.000000 0.000000 0.045293 0.000000 0.000000
# 5 0.000000 0.000000 0.000000 0.000000 0.023091 0.000000
# 6 0.000000 0.000000 0.000000 0.000000 0.000000 0.035907
#
#
# Mechanical properties :
#
#
# Convention : Reuss Voigt Hill
#
# Bulk Modulus (GPa) = 57.50217 57.76488 57.63352
# Shear Modulus (GPa) = 29.04333 30.61611 29.82972
#
# Velocity S-wave (km/s) = 3.78032 3.88133 3.83115
# Velocity P-wave (km/s) = 6.88102 6.96488 6.92307
#
# Compressibility (1/GPa) = 0.01739065
#
# Stress axis : x y z
#
# Youngs Moduli (GPa) = 83.06108 78.45834 66.91364
#
# Poissons Ratio (x) = 0.20819 0.30140
# Poissons Ratio (y) = 0.22040 0.26844
# Poissons Ratio (z) = 0.37413 0.31475
#
# Static dielectric constant tensor:
#      x y z
#    x 3.926930 0.000000 0.000000 
#    y 0.000000 3.316460 0.000000 
#    z 0.000000 0.000000 3.579920 
# 
# 
# High freq. dielectric constant tensor:
#      x y z
#    x 1.814110 0.000000 0.000000 
#    y 0.000000 1.764500 0.000000 
#    z 0.000000 0.000000 1.791810 
# 
# From -- ./inp_files/23512.got.cif
#   From: 2010.03.12/outbox.cif.g09.slc.cpg/sg54_12_cif.got.tgz:23512.got - 2010.04.16 15:00:50.
