data_PCOD8223242
_publ_section_title
;
Structure prediction by ZEFSAII (Michael W. Deem and Ramdas Pophale) SiO2 
 PCOD8223242
Probable space group: P C C A
;
_chemical_formula_sum "Si O2"
_cell_formula_units_Z 56
_cell_length_a 15.315292
_cell_length_b 14.134614
_cell_length_c 12.924770
_cell_angle_alpha 90.000000
_cell_angle_beta 90.000000
_cell_angle_gamma 90.000000
_cell_volume 2797.899159
_symmetry_space_group_name_H-M "P C C A"
_symmetry_group_IT_number 54
_symmetry_cell_setting 'orthorhombic'
loop_
_space_group_symop_operation_xyz
x,y,z
1/2-x,-y,z
1/2+x,-y,1/2-z
-x,y,1/2-z
-x,-y,-z
1/2+x,y,-z
1/2-x,y,1/2+z
x,-y,1/2+z
loop_
_atom_site_type_symbol
_atom_site_label
_atom_site_fract_x
_atom_site_fract_y
_atom_site_fract_z
Si Si1 0.057732 0.530834 0.155651
Si Si2 0.599872 0.177528 0.946363
Si Si3 0.912810 0.384337 0.513848
Si Si4 0.792969 0.796590 0.740948
Si Si5 0.325261 0.071080 0.366900
Si Si6 0.204480 0.399103 0.793207
Si Si7 0.057362 0.900592 0.847211
O O1 0.127976 0.601629 0.207271
O O2 0.000000 0.485930 0.250000
O O3 0.998829 0.590588 0.077833
O O4 0.104046 0.450868 0.086064
O O5 0.663581 0.173935 0.848241
O O6 0.510539 0.115353 0.941062
O O7 0.569317 0.282977 0.966848
O O8 0.657028 0.140653 0.039683
O O9 0.829558 0.386283 0.589684
O O10 0.705721 0.861615 0.728174
O O11 0.771509 0.685322 0.733289
O O12 0.860621 0.827354 0.649425
O O13 0.250000 0.000000 0.402547
O O14 0.410509 0.009294 0.338064
O O15 0.250000 0.500000 0.785773
O O16 0.000000 0.871900 0.750000
#
# Coordination Sequence:
#
# PCOD8223242 Si02
#       7
#     8   8   8   8   8   8   8
#     4   9  21  40  60  86 124 161 201 252 307 357
#     4  11  21  38  63  89 120 161 208 241 311 371
#     4  10  21  39  61  89 122 159 205 251 302 370
#     4  10  22  40  60  88 126 157 198 259 299 360
#     4  10  21  41  60  88 125 153 204 259 302 355
#     4  11  22  39  61  89 125 161 205 249 306 363
#     4   9  21  39  61  86 118 162 202 243 310 367
#
# _framework density 20.015015999999999
#
# number of rings (size 3 to 8) (size 9 to 14) (size 15 to 20)
#    0.000    2.000    1.429    1.286    0.000    9.714 
#    7.714    0.000    0.000    0.000    0.000    0.000 
#    0.000    0.000    0.000    0.000    0.000    0.000 
#
# Total GULP energy -694129.997508 kJ/mol
# GULP energy per Si atom -12395.178527 kJ/mol
# Density = 1.996946 g / cm^3
# Si number density = 20.015016 Si / 1000 Ang^3
#
#
#
# Elastic Constant Matrix: (Units=GPa)
#
#
# Indices 1 2 3 4 5 6 
#
# 1 82.5131 50.3705 36.7993 0.0000 0.0000 0.0000
# 2 50.3705 128.6693 35.2225 0.0000 0.0000 0.0000
# 3 36.7993 35.2225 89.8847 0.0000 0.0000 0.0000
# 4 0.0000 0.0000 0.0000 27.8279 0.0000 0.0000
# 5 0.0000 0.0000 0.0000 0.0000 22.9496 0.0000
# 6 0.0000 0.0000 0.0000 0.0000 0.0000 31.6582
#
#
#
# Elastic Compliance Matrix: (Units=1/GPa)
#
#
# Indices 1 2 3 4 5 6 
#
# 1 0.017795 -0.005569 -0.005103 0.000000 0.000000 0.000000
# 2 -0.005569 0.010449 -0.001814 0.000000 0.000000 0.000000
# 3 -0.005103 -0.001814 0.013926 0.000000 0.000000 0.000000
# 4 0.000000 0.000000 0.000000 0.035935 0.000000 0.000000
# 5 0.000000 0.000000 0.000000 0.000000 0.043574 0.000000
# 6 0.000000 0.000000 0.000000 0.000000 0.000000 0.031587
#
#
# Mechanical properties :
#
#
# Convention : Reuss Voigt Hill
#
# Bulk Modulus (GPa) = 58.15319 60.65017 59.40168
# Shear Modulus (GPa) = 27.17821 28.39877 27.78849
#
# Velocity S-wave (km/s) = 3.68895 3.77088 3.73014
# Velocity P-wave (km/s) = 6.87476 7.02335 6.94946
#
# Compressibility (1/GPa) = 0.01719596
#
# Stress axis : x y z
#
# Youngs Moduli (GPa) = 56.19581 95.70501 71.81059
#
# Poissons Ratio (x) = 0.53301 0.36644
# Poissons Ratio (y) = 0.31297 0.13029
# Poissons Ratio (z) = 0.28676 0.17364
#
# Static dielectric constant tensor:
#      x y z
#    x 3.893190 0.000000 0.000000 
#    y 0.000000 3.632250 0.000000 
#    z 0.000000 0.000000 3.684550 
# 
# 
# High freq. dielectric constant tensor:
#      x y z
#    x 1.786670 0.000000 0.000000 
#    y 0.000000 1.781170 0.000000 
#    z 0.000000 0.000000 1.775830 
# 
# From -- ./inp_files/8453.got.cif
#   From: 2010.03.12/outbox.cif.g09.slc.cpg/sg54_5_cif.got.tgz:8453.got - 2010.04.16 15:00:50.
