data_PCOD8223178
_publ_section_title
;
Structure prediction by ZEFSAII (Michael W. Deem and Ramdas Pophale) SiO2 
 PCOD8223178
Probable space group: P C C A
;
_chemical_formula_sum "Si O2"
_cell_formula_units_Z 24
_cell_length_a 9.850921
_cell_length_b 8.322975
_cell_length_c 13.789554
_cell_angle_alpha 90.000000
_cell_angle_beta 90.000000
_cell_angle_gamma 90.000000
_cell_volume 1130.591318
_symmetry_space_group_name_H-M "P C C A"
_symmetry_group_IT_number 54
_symmetry_cell_setting 'orthorhombic'
loop_
_space_group_symop_operation_xyz
x,y,z
1/2-x,-y,z
1/2+x,-y,1/2-z
-x,y,1/2-z
-x,-y,-z
1/2+x,y,-z
1/2-x,y,1/2+z
x,-y,1/2+z
loop_
_atom_site_type_symbol
_atom_site_label
_atom_site_fract_x
_atom_site_fract_y
_atom_site_fract_z
Si Si1 0.291288 0.180720 0.279481
Si Si2 0.376855 0.390150 0.908986
Si Si3 0.038352 0.305671 0.611673
O O1 0.160477 0.273345 0.320686
O O2 0.413826 0.189059 0.357879
O O3 0.333475 0.267332 0.179614
O O4 0.250000 0.000000 0.256949
O O5 0.250000 0.500000 0.942126
O O6 0.497611 0.507125 0.873777
O O7 0.422930 0.279042 0.999455
#
# Coordination Sequence:
#
# PCOD8223178 Si02
#       3
#     8   8   8
#     4  10  21  37  58  87 118 150 189 240 300 352
#     4   9  19  38  63  84 110 150 195 243 289 345
#     4   9  20  39  57  82 114 149 198 240 285 350
#
# _framework density 21.227830000000001
#
# number of rings (size 3 to 8) (size 9 to 14) (size 15 to 20)
#    0.000    2.667    0.000    0.000    0.000    9.333 
#    0.000   36.667    0.000    0.000    0.000    0.000 
#    0.000    0.000    0.000    0.000    0.000    0.000 
#
# Total GULP energy -297582.400785 kJ/mol
# GULP energy per Si atom -12399.266699 kJ/mol
# Density = 2.117951 g / cm^3
# Si number density = 21.227830 Si / 1000 Ang^3
#
#
#
# Elastic Constant Matrix: (Units=GPa)
#
#
# Indices 1 2 3 4 5 6 
#
# 1 61.0631 56.8184 58.8333 0.0000 0.0000 0.0000
# 2 56.8184 118.9375 89.3677 0.0000 0.0000 0.0000
# 3 58.8333 89.3677 127.9315 0.0000 0.0000 0.0000
# 4 0.0000 0.0000 0.0000 13.6321 0.0000 0.0000
# 5 0.0000 0.0000 0.0000 0.0000 47.7797 0.0000
# 6 0.0000 0.0000 0.0000 0.0000 0.0000 33.7770
#
#
#
# Elastic Compliance Matrix: (Units=1/GPa)
#
#
# Indices 1 2 3 4 5 6 
#
# 1 0.033745 -0.009387 -0.008961 0.000000 0.000000 0.000000
# 2 -0.009387 0.020308 -0.009869 0.000000 0.000000 0.000000
# 3 -0.008961 -0.009869 0.018832 0.000000 0.000000 0.000000
# 4 0.000000 0.000000 0.000000 0.073356 0.000000 0.000000
# 5 0.000000 0.000000 0.000000 0.000000 0.020929 0.000000
# 6 0.000000 0.000000 0.000000 0.000000 0.000000 0.029606
#
#
# Mechanical properties :
#
#
# Convention : Reuss Voigt Hill
#
# Bulk Modulus (GPa) = 60.79164 79.77454 70.28309
# Shear Modulus (GPa) = 19.32777 25.89859 22.61318
#
# Velocity S-wave (km/s) = 3.02071 3.49668 3.26737
# Velocity P-wave (km/s) = 6.39266 7.34603 6.88586
#
# Compressibility (1/GPa) = 0.01644963
#
# Stress axis : x y z
#
# Youngs Moduli (GPa) = 29.63382 49.24224 53.10137
#
# Poissons Ratio (x) = 0.46226 0.47585
# Poissons Ratio (y) = 0.27818 0.52406
# Poissons Ratio (z) = 0.26555 0.48598
#
# Static dielectric constant tensor:
#      x y z
#    x 3.916820 0.000000 0.000000 
#    y 0.000000 3.562660 0.000000 
#    z 0.000000 0.000000 3.817700 
# 
# 
# High freq. dielectric constant tensor:
#      x y z
#    x 1.829620 0.000000 0.000000 
#    y 0.000000 1.807420 0.000000 
#    z 0.000000 0.000000 1.830030 
# 
# From -- ./inp_files/7105.got.cif
#   From: 2010.03.12/outbox.cif.g09.slc.cpg/sg54_4_cif.got.tgz:7105.got - 2010.04.16 15:00:50.
