data_PCOD8223645
_publ_section_title
;
Structure prediction by ZEFSAII (Michael W. Deem and Ramdas Pophale) SiO2 
 PCOD8223645
Probable space group: P C C A
;
_chemical_formula_sum "Si O2"
_cell_formula_units_Z 40
_cell_length_a 10.589224
_cell_length_b 17.282540
_cell_length_c 8.530155
_cell_angle_alpha 90.000000
_cell_angle_beta 90.000000
_cell_angle_gamma 90.000000
_cell_volume 1561.092469
_symmetry_space_group_name_H-M "P C C A"
_symmetry_group_IT_number 54
_symmetry_cell_setting 'orthorhombic'
loop_
_space_group_symop_operation_xyz
x,y,z
1/2-x,-y,z
1/2+x,-y,1/2-z
-x,y,1/2-z
-x,-y,-z
1/2+x,y,-z
1/2-x,y,1/2+z
x,-y,1/2+z
loop_
_atom_site_type_symbol
_atom_site_label
_atom_site_fract_x
_atom_site_fract_y
_atom_site_fract_z
Si Si1 0.357036 0.354521 0.526739
Si Si2 0.000000 0.932704 0.750000
Si Si3 0.500000 0.445641 0.750000
Si Si4 0.250000 0.000000 0.639599
Si Si5 0.297164 0.252538 0.251701
Si Si6 0.645395 0.148768 0.512360
Si Si7 0.750000 0.500000 0.857671
O O1 0.489329 0.391163 0.592593
O O2 0.370955 0.317989 0.353435
O O3 0.314100 0.290204 0.650619
O O4 0.251959 0.423621 0.531497
O O5 0.875845 0.986311 0.757189
O O6 0.984798 0.879284 0.594273
O O7 0.625322 0.499508 0.743716
O O8 0.229126 0.076114 0.538098
O O9 0.390442 0.206769 0.131252
O O10 0.231991 0.190220 0.360748
#
# Coordination Sequence:
#
# PCOD8223645 Si02
#       7
#     8   4   4   4   8   8   4
#     4   9  20  41  71 109 157 211 264 336 394 487
#     4  12  26  49  86 117 164 208 288 342 412 495
#     4   8  18  41  74 105 160 208 278 326 406 473
#     4  12  26  52  80 120 164 220 280 342 404 504
#     4  10  22  44  72 110 162 208 271 328 421 476
#     4  11  24  47  77 112 164 212 267 341 411 495
#     4   8  18  40  72 110 150 218 270 334 392 486
#
# _framework density 25.623080999999999
#
# number of rings (size 3 to 8) (size 9 to 14) (size 15 to 20)
#    1.200    0.800    2.000    1.200    0.000    1.600 
#    0.000    4.000    8.800    0.000    0.000    0.000 
#    0.000    0.000    0.000    0.100    0.000    0.200 
#
# Total GULP energy -495575.121356 kJ/mol
# GULP energy per Si atom -12389.378034 kJ/mol
# Density = 2.556476 g / cm^3
# Si number density = 25.623081 Si / 1000 Ang^3
#
#
#
# Elastic Constant Matrix: (Units=GPa)
#
#
# Indices 1 2 3 4 5 6 
#
# 1 141.0716 59.0860 63.2269 0.0000 0.0000 0.0000
# 2 59.0860 157.5132 77.5196 0.0000 0.0000 0.0000
# 3 63.2269 77.5196 155.5344 0.0000 0.0000 0.0000
# 4 0.0000 0.0000 0.0000 18.3044 0.0000 0.0000
# 5 0.0000 0.0000 0.0000 0.0000 38.6280 0.0000
# 6 0.0000 0.0000 0.0000 0.0000 0.0000 32.4049
#
#
#
# Elastic Compliance Matrix: (Units=1/GPa)
#
#
# Indices 1 2 3 4 5 6 
#
# 1 0.009177 -0.002128 -0.002670 0.000000 0.000000 0.000000
# 2 -0.002128 0.008906 -0.003573 0.000000 0.000000 0.000000
# 3 -0.002670 -0.003573 0.009296 0.000000 0.000000 0.000000
# 4 0.000000 0.000000 0.000000 0.054632 0.000000 0.000000
# 5 0.000000 0.000000 0.000000 0.000000 0.025888 0.000000
# 6 0.000000 0.000000 0.000000 0.000000 0.000000 0.030860
#
#
# Mechanical properties :
#
#
# Convention : Reuss Voigt Hill
#
# Bulk Modulus (GPa) = 94.02863 94.86491 94.44677
# Shear Modulus (GPa) = 31.43761 34.81991 33.12876
#
# Velocity S-wave (km/s) = 3.50655 3.69036 3.59963
# Velocity P-wave (km/s) = 7.29185 7.43384 7.36319
#
# Compressibility (1/GPa) = 0.01063506
#
# Stress axis : x y z
#
# Youngs Moduli (GPa) = 108.97349 112.28676 107.57672
#
# Poissons Ratio (x) = 0.23900 0.28718
# Poissons Ratio (y) = 0.23195 0.38442
# Poissons Ratio (z) = 0.29091 0.40125
#
# Static dielectric constant tensor:
#      x y z
#    x 4.131090 0.000000 0.000000 
#    y 0.000000 4.994420 0.000000 
#    z 0.000000 0.000000 4.769650 
# 
# 
# High freq. dielectric constant tensor:
#      x y z
#    x 1.988500 0.000000 0.000000 
#    y 0.000000 2.041370 0.000000 
#    z 0.000000 0.000000 2.027980 
# 
# From -- ./inp_files/2989.got.cif
#   From: 2010.03.12/outbox.cif.g09.slc.cpg/sg54_2_cif.got.tgz:2989.got - 2010.04.16 15:00:50.
