data_PCOD8223317
_publ_section_title
;
Structure prediction by ZEFSAII (Michael W. Deem and Ramdas Pophale) SiO2 
 PCOD8223317
Probable space group: P C C A
;
_chemical_formula_sum "Si O2"
_cell_formula_units_Z 56
_cell_length_a 7.469182
_cell_length_b 19.325951
_cell_length_c 14.299477
_cell_angle_alpha 90.000000
_cell_angle_beta 90.000000
_cell_angle_gamma 90.000000
_cell_volume 2064.115854
_symmetry_space_group_name_H-M "P C C A"
_symmetry_group_IT_number 54
_symmetry_cell_setting 'orthorhombic'
loop_
_space_group_symop_operation_xyz
x,y,z
1/2-x,-y,z
1/2+x,-y,1/2-z
-x,y,1/2-z
-x,-y,-z
1/2+x,y,-z
1/2-x,y,1/2+z
x,-y,1/2+z
loop_
_atom_site_type_symbol
_atom_site_label
_atom_site_fract_x
_atom_site_fract_y
_atom_site_fract_z
Si Si1 0.999027 0.855370 0.475607
Si Si2 0.733675 0.634016 0.861300
Si Si3 0.285874 0.387883 0.843133
Si Si4 0.814785 0.078687 0.125044
Si Si5 0.679624 0.072109 0.312071
Si Si6 0.024771 0.507292 0.109166
Si Si7 0.034654 0.696090 0.988752
O O1 0.997823 0.906053 0.568537
O O2 0.850080 0.875601 0.397175
O O3 0.190073 0.865836 0.429011
O O4 0.960884 0.777858 0.505672
O O5 0.764085 0.654458 0.753699
O O6 0.717278 0.549058 0.871832
O O7 0.865819 0.673870 0.928991
O O8 0.543345 0.661936 0.906201
O O9 0.127779 0.443379 0.848518
O O10 0.481808 0.430891 0.845131
O O11 0.292759 0.332661 0.928050
O O12 0.824223 0.099095 0.234891
O O13 0.750000 0.000000 0.111951
O O14 0.500000 0.058120 0.250000
O O15 0.750000 0.000000 0.354658
O O16 0.000000 0.500000 0.000000
#
# Coordination Sequence:
#
# PCOD8223317 Si02
#       7
#     8   8   8   8   8   8   8
#     4  11  23  42  68 101 146 191 238 287 359 423
#     4  12  27  50  75 108 153 193 248 305 372 445
#     4  11  27  49  76 114 144 190 248 309 376 442
#     4  10  21  40  69 104 140 183 239 301 357 416
#     4   9  20  39  66 103 142 184 235 300 361 424
#     4  11  25  50  81 109 143 184 240 317 378 427
#     4  12  27  47  71 104 150 206 241 300 361 451
#
# _framework density 27.130261000000001
#
# number of rings (size 3 to 8) (size 9 to 14) (size 15 to 20)
#    0.000    1.143    1.429    3.429    2.000    8.571 
#    0.000    5.714    0.000    0.000    0.000    0.000 
#    0.000    0.000    0.000    0.000    0.000    0.000 
#
# Total GULP energy -694046.453879 kJ/mol
# GULP energy per Si atom -12393.686676 kJ/mol
# Density = 2.706851 g / cm^3
# Si number density = 27.130261 Si / 1000 Ang^3
#
#
#
# Elastic Constant Matrix: (Units=GPa)
#
#
# Indices 1 2 3 4 5 6 
#
# 1 42.1878 25.2473 19.5824 0.0000 0.0000 0.0000
# 2 25.2473 173.3950 52.3724 0.0000 0.0000 0.0000
# 3 19.5824 52.3724 189.5792 0.0000 0.0000 0.0000
# 4 0.0000 0.0000 0.0000 25.3849 0.0000 0.0000
# 5 0.0000 0.0000 0.0000 0.0000 36.7454 0.0000
# 6 0.0000 0.0000 0.0000 0.0000 0.0000 31.5342
#
#
#
# Elastic Compliance Matrix: (Units=1/GPa)
#
#
# Indices 1 2 3 4 5 6 
#
# 1 0.026533 -0.003312 -0.001826 0.000000 0.000000 0.000000
# 2 -0.003312 0.006706 -0.001510 0.000000 0.000000 0.000000
# 3 -0.001826 -0.001510 0.005881 0.000000 0.000000 0.000000
# 4 0.000000 0.000000 0.000000 0.039393 0.000000 0.000000
# 5 0.000000 0.000000 0.000000 0.000000 0.027214 0.000000
# 6 0.000000 0.000000 0.000000 0.000000 0.000000 0.031712
#
#
# Mechanical properties :
#
#
# Convention : Reuss Voigt Hill
#
# Bulk Modulus (GPa) = 38.72483 66.61848 52.67166
# Shear Modulus (GPa) = 31.37896 39.26357 35.32127
#
# Velocity S-wave (km/s) = 3.40458 3.80837 3.61212
# Velocity P-wave (km/s) = 5.45523 6.62922 6.07067
#
# Compressibility (1/GPa) = 0.02582322
#
# Stress axis : x y z
#
# Youngs Moduli (GPa) = 37.68889 149.12898 170.04841
#
# Poissons Ratio (x) = 0.49390 0.31047
# Poissons Ratio (y) = 0.12482 0.25684
# Poissons Ratio (z) = 0.06881 0.22524
#
# Static dielectric constant tensor:
#      x y z
#    x 4.964430 0.000000 0.000000 
#    y 0.000000 4.815130 0.000000 
#    z 0.000000 0.000000 5.641200 
# 
# 
# High freq. dielectric constant tensor:
#      x y z
#    x 2.140830 0.000000 0.000000 
#    y 0.000000 2.064880 0.000000 
#    z 0.000000 0.000000 2.106210 
# 
# From -- ./inp_files/11878.got.cif
#   From: 2010.03.12/outbox.cif.g09.slc.cpg/sg54_6_cif.got.tgz:11878.got - 2010.04.16 15:00:50.
