data_PCOD8223360
_publ_section_title
;
Structure prediction by ZEFSAII (Michael W. Deem and Ramdas Pophale) SiO2 
 PCOD8223360
Probable space group: P C C A
;
_chemical_formula_sum "Si O2"
_cell_formula_units_Z 48
_cell_length_a 9.169735
_cell_length_b 8.655099
_cell_length_c 27.157059
_cell_angle_alpha 90.000000
_cell_angle_beta 90.000000
_cell_angle_gamma 90.000000
_cell_volume 2155.319016
_symmetry_space_group_name_H-M "P C C A"
_symmetry_group_IT_number 54
_symmetry_cell_setting 'orthorhombic'
loop_
_space_group_symop_operation_xyz
x,y,z
1/2-x,-y,z
1/2+x,-y,1/2-z
-x,y,1/2-z
-x,-y,-z
1/2+x,y,-z
1/2-x,y,1/2+z
x,-y,1/2+z
loop_
_atom_site_type_symbol
_atom_site_label
_atom_site_fract_x
_atom_site_fract_y
_atom_site_fract_z
Si Si1 0.273325 0.178990 0.317287
Si Si2 0.628348 0.896182 0.524334
Si Si3 0.659976 0.651788 0.270173
Si Si4 0.997248 0.337993 0.134114
Si Si5 0.717142 0.827062 0.421648
Si Si6 0.495259 0.692145 0.889027
O O1 0.248767 0.212994 0.258845
O O2 0.431290 0.229416 0.338849
O O3 0.156505 0.280644 0.346462
O O4 0.250000 0.000000 0.326593
O O5 0.721558 0.814433 0.480799
O O6 0.575344 0.767198 0.562311
O O7 0.750000 0.000000 0.552614
O O8 0.500000 0.000000 0.500000
O O9 0.750000 0.500000 0.260434
O O10 0.500000 0.622955 0.250000
O O11 0.632827 0.682755 0.327527
O O12 0.052089 0.225428 0.091007
O O13 0.970268 0.509671 0.114062
O O14 0.832497 0.716953 0.394265
O O15 0.750000 0.000000 0.403450
#
# Coordination Sequence:
#
# PCOD8223360 Si02
#       6
#     8   8   8   8   8   8
#     4  11  24  42  69  98 131 178 239 298 363 437
#     4  11  23  43  68 103 146 197 240 297 359 419
#     4  10  21  42  65  94 135 174 220 290 362 428
#     4  11  25  43  65  99 138 179 233 297 357 437
#     4  11  23  41  65  97 137 186 235 292 355 414
#     4  12  23  42  69 100 140 189 237 291 365 428
#
# _framework density 22.270485999999998
#
# number of rings (size 3 to 8) (size 9 to 14) (size 15 to 20)
#    0.000    1.000    3.333    5.500    2.333    1.333 
#    0.000   10.833    0.000    0.000    0.000    0.000 
#    0.000    0.000    0.000    0.000    0.000    0.000 
#
# Total GULP energy -594863.676153 kJ/mol
# GULP energy per Si atom -12392.993253 kJ/mol
# Density = 2.221980 g / cm^3
# Si number density = 22.270486 Si / 1000 Ang^3
#
#
#
# Elastic Constant Matrix: (Units=GPa)
#
#
# Indices 1 2 3 4 5 6 
#
# 1 73.1087 14.2845 36.3413 0.0000 0.0000 0.0000
# 2 14.2845 124.7529 36.1197 0.0000 0.0000 0.0000
# 3 36.3413 36.1197 84.6453 0.0000 0.0000 0.0000
# 4 0.0000 0.0000 0.0000 53.4701 0.0000 0.0000
# 5 0.0000 0.0000 0.0000 0.0000 173.4676 0.0000
# 6 0.0000 0.0000 0.0000 0.0000 0.0000 42.1218
#
#
#
# Elastic Compliance Matrix: (Units=1/GPa)
#
#
# Indices 1 2 3 4 5 6 
#
# 1 0.017394 0.000195 -0.007551 0.000000 0.000000 0.000000
# 2 0.000195 0.009148 -0.003987 0.000000 0.000000 0.000000
# 3 -0.007551 -0.003987 0.016757 0.000000 0.000000 0.000000
# 4 0.000000 0.000000 0.000000 0.018702 0.000000 0.000000
# 5 0.000000 0.000000 0.000000 0.000000 0.005765 0.000000
# 6 0.000000 0.000000 0.000000 0.000000 0.000000 0.023741
#
#
# Mechanical properties :
#
#
# Convention : Reuss Voigt Hill
#
# Bulk Modulus (GPa) = 48.51509 50.66644 49.59076
# Shear Modulus (GPa) = 41.30064 66.86266 54.08165
#
# Velocity S-wave (km/s) = 4.31106 5.48527 4.93323
# Velocity P-wave (km/s) = 6.82731 7.93205 7.40032
#
# Compressibility (1/GPa) = 0.02061214
#
# Stress axis : x y z
#
# Youngs Moduli (GPa) = 57.49244 109.31397 59.67593
#
# Poissons Ratio (x) = -0.02127 0.45060
# Poissons Ratio (y) = -0.01118 0.23794
# Poissons Ratio (z) = 0.43411 0.43585
#
# Static dielectric constant tensor:
#      x y z
#    x 4.364020 0.000000 0.000000 
#    y 0.000000 3.325460 0.000000 
#    z 0.000000 0.000000 4.536170 
# 
# 
# High freq. dielectric constant tensor:
#      x y z
#    x 1.893800 0.000000 0.000000 
#    y 0.000000 1.868790 0.000000 
#    z 0.000000 0.000000 1.880230 
# 
# From -- ./inp_files/27715.got.cif
#   From: 2010.03.12/outbox.cif.g09.slc.cpg/sg54_14_cif.got.tgz:27715.got - 2010.04.16 15:00:50.
