data_PCOD8223589
_publ_section_title
;
Structure prediction by ZEFSAII (Michael W. Deem and Ramdas Pophale) SiO2 
 PCOD8223589
Probable space group: P C C A
;
_chemical_formula_sum "Si O2"
_cell_formula_units_Z 48
_cell_length_a 28.716076
_cell_length_b 8.663846
_cell_length_c 8.675952
_cell_angle_alpha 90.000000
_cell_angle_beta 90.000000
_cell_angle_gamma 90.000000
_cell_volume 2158.504502
_symmetry_space_group_name_H-M "P C C A"
_symmetry_group_IT_number 54
_symmetry_cell_setting 'orthorhombic'
loop_
_space_group_symop_operation_xyz
x,y,z
1/2-x,-y,z
1/2+x,-y,1/2-z
-x,y,1/2-z
-x,-y,-z
1/2+x,y,-z
1/2-x,y,1/2+z
x,-y,1/2+z
loop_
_atom_site_type_symbol
_atom_site_label
_atom_site_fract_x
_atom_site_fract_y
_atom_site_fract_z
Si Si1 0.946489 0.382406 0.608568
Si Si2 0.779828 0.853755 0.555421
Si Si3 0.127148 0.220708 0.065979
Si Si4 0.617512 0.079121 0.598683
Si Si5 0.952860 0.691445 0.447648
Si Si6 0.725753 0.335683 0.841729
O O1 0.909775 0.351590 0.472056
O O2 0.954141 0.564493 0.583485
O O3 0.929258 0.360926 0.785155
O O4 0.992440 0.276194 0.583759
O O5 0.833277 0.885674 0.518764
O O6 0.778835 0.700457 0.661993
O O7 0.758787 0.802745 0.394371
O O8 0.750000 0.000000 0.619452
O O9 0.117779 0.127335 0.222919
O O10 0.176723 0.309865 0.068689
O O11 0.116413 0.105561 0.921695
O O12 0.574639 0.159387 0.510090
O O13 0.750000 0.500000 0.870515
#
# Coordination Sequence:
#
# PCOD8223589 Si02
#       6
#     8   8   8   8   8   8
#     4  10  22  42  67  98 132 175 214 275 332 404
#     4  11  23  43  66  91 131 177 219 274 338 404
#     4  11  24  42  63  97 131 171 227 272 340 399
#     4  11  24  40  64  96 126 177 219 274 333 402
#     4  10  22  42  68  96 134 173 219 267 339 401
#     4  11  25  42  64  96 130 172 222 280 337 399
#
# _framework density 22.237618999999999
#
# number of rings (size 3 to 8) (size 9 to 14) (size 15 to 20)
#    0.000    1.333    1.667    3.000    4.667    4.000 
#    0.000    0.000    0.000    0.000    0.000    0.000 
#    0.000    0.000    0.000    0.000    0.000    0.000 
#
# Total GULP energy -594663.283276 kJ/mol
# GULP energy per Si atom -12388.818402 kJ/mol
# Density = 2.218701 g / cm^3
# Si number density = 22.237619 Si / 1000 Ang^3
#
#
#
# Elastic Constant Matrix: (Units=GPa)
#
#
# Indices 1 2 3 4 5 6 
#
# 1 93.3362 33.1464 0.6453 0.0000 0.0000 0.0000
# 2 33.1464 91.4143 7.1111 0.0000 0.0000 0.0000
# 3 0.6453 7.1111 44.6136 0.0000 0.0000 0.0000
# 4 0.0000 0.0000 0.0000 29.1058 0.0000 0.0000
# 5 0.0000 0.0000 0.0000 0.0000 28.0205 0.0000
# 6 0.0000 0.0000 0.0000 0.0000 0.0000 39.7038
#
#
#
# Elastic Compliance Matrix: (Units=1/GPa)
#
#
# Indices 1 2 3 4 5 6 
#
# 1 0.012310 -0.004506 0.000540 0.000000 0.000000 0.000000
# 2 -0.004506 0.012726 -0.001963 0.000000 0.000000 0.000000
# 3 0.000540 -0.001963 0.022720 0.000000 0.000000 0.000000
# 4 0.000000 0.000000 0.000000 0.034357 0.000000 0.000000
# 5 0.000000 0.000000 0.000000 0.000000 0.035688 0.000000
# 6 0.000000 0.000000 0.000000 0.000000 0.000000 0.025186
#
#
# Mechanical properties :
#
#
# Convention : Reuss Voigt Hill
#
# Bulk Modulus (GPa) = 27.85652 34.57440 31.21546
# Shear Modulus (GPa) = 29.97397 31.93012 30.95204
#
# Velocity S-wave (km/s) = 3.67535 3.79339 3.73484
# Velocity P-wave (km/s) = 5.52855 5.89643 5.71545
#
# Compressibility (1/GPa) = 0.03589824
#
# Stress axis : x y z
#
# Youngs Moduli (GPa) = 81.23269 78.58141 44.01448
#
# Poissons Ratio (x) = 0.35406 -0.02377
# Poissons Ratio (y) = 0.36601 0.08641
# Poissons Ratio (z) = -0.04388 0.15427
#
# Static dielectric constant tensor:
#      x y z
#    x 4.126290 0.000000 0.000000 
#    y 0.000000 3.953370 0.000000 
#    z 0.000000 0.000000 3.869570 
# 
# 
# High freq. dielectric constant tensor:
#      x y z
#    x 1.879370 0.000000 0.000000 
#    y 0.000000 1.866400 0.000000 
#    z 0.000000 0.000000 1.880870 
# 
# From -- ./inp_files/5840.got.cif
#   From: 2010.03.12/outbox.cif.g09.slc.cpg/sg54_3_cif.got.tgz:5840.got - 2010.04.16 15:00:50.
