data_PCOD8223787
_publ_section_title
;
Structure prediction by ZEFSAII (Michael W. Deem and Ramdas Pophale) SiO2 
 PCOD8223787
Probable space group: P C C A
;
_chemical_formula_sum "Si O2"
_cell_formula_units_Z 28
_cell_length_a 21.570528
_cell_length_b 7.186311
_cell_length_c 8.398643
_cell_angle_alpha 90.000000
_cell_angle_beta 90.000000
_cell_angle_gamma 90.000000
_cell_volume 1301.894838
_symmetry_space_group_name_H-M "P C C A"
_symmetry_group_IT_number 54
_symmetry_cell_setting 'orthorhombic'
loop_
_space_group_symop_operation_xyz
x,y,z
1/2-x,-y,z
1/2+x,-y,1/2-z
-x,y,1/2-z
-x,-y,-z
1/2+x,y,-z
1/2-x,y,1/2+z
x,-y,1/2+z
loop_
_atom_site_type_symbol
_atom_site_label
_atom_site_fract_x
_atom_site_fract_y
_atom_site_fract_z
Si Si1 0.063515 0.612623 0.338217
Si Si2 0.565884 0.229112 0.802825
Si Si3 0.750000 0.000000 0.020518
Si Si4 0.340699 0.112662 0.225522
O O1 0.061630 0.683231 0.520010
O O2 0.078271 0.392692 0.326265
O O3 0.114924 0.713002 0.232157
O O4 0.000000 0.658889 0.250000
O O5 0.500000 0.136080 0.750000
O O6 0.620329 0.079113 0.790358
O O7 0.798406 0.879027 0.118613
O O8 0.707780 0.860716 0.917140
#
# Coordination Sequence:
#
# PCOD8223787 Si02
#       4
#     8   8   4   8
#     4  11  24  40  66  97 126 160 205 260 317 376
#     4  11  24  40  66  97 126 160 205 260 317 376
#     4  10  24  42  64  90 124 168 216 252 294 378
#     4  11  23  44  66  88 127 167 208 258 310 359
#
# _framework density 21.507111999999999
#
# number of rings (size 3 to 8) (size 9 to 14) (size 15 to 20)
#    0.000    1.143    2.857    4.286    8.000    2.286 
#    0.000    8.571    0.000    0.000    0.000    0.000 
#    0.000    0.000    0.000    0.000    0.000    0.000 
#
# Total GULP energy -347041.075700 kJ/mol
# GULP energy per Si atom -12394.324132 kJ/mol
# Density = 2.145816 g / cm^3
# Si number density = 21.507112 Si / 1000 Ang^3
#
#
#
# Elastic Constant Matrix: (Units=GPa)
#
#
# Indices 1 2 3 4 5 6 
#
# 1 144.6561 58.4076 43.7053 0.0000 0.0000 0.0000
# 2 58.4076 61.3722 18.1132 0.0000 0.0000 0.0000
# 3 43.7053 18.1132 105.4827 0.0000 0.0000 0.0000
# 4 0.0000 0.0000 0.0000 19.6220 0.0000 0.0000
# 5 0.0000 0.0000 0.0000 0.0000 67.3382 0.0000
# 6 0.0000 0.0000 0.0000 0.0000 0.0000 1.4800
#
#
#
# Elastic Compliance Matrix: (Units=1/GPa)
#
#
# Indices 1 2 3 4 5 6 
#
# 1 0.012184 -0.010645 -0.003220 0.000000 0.000000 0.000000
# 2 -0.010645 0.026464 -0.000134 0.000000 0.000000 0.000000
# 3 -0.003220 -0.000134 0.010838 0.000000 0.000000 0.000000
# 4 0.000000 0.000000 0.000000 0.050963 0.000000 0.000000
# 5 0.000000 0.000000 0.000000 0.000000 0.014850 0.000000
# 6 0.000000 0.000000 0.000000 0.000000 0.000000 0.675688
#
#
# Mechanical properties :
#
#
# Convention : Reuss Voigt Hill
#
# Bulk Modulus (GPa) = 46.53855 61.32926 53.93391
# Shear Modulus (GPa) = 6.05218 30.44036 18.24627
#
# Velocity S-wave (km/s) = 1.67933 3.76621 2.91586
# Velocity P-wave (km/s) = 5.04439 6.89131 6.03888
#
# Compressibility (1/GPa) = 0.02148756
#
# Stress axis : x y z
#
# Youngs Moduli (GPa) = 82.07451 37.78672 92.27216
#
# Poissons Ratio (x) = 0.40224 0.29715
# Poissons Ratio (y) = 0.87369 0.01234
# Poissons Ratio (z) = 0.26431 0.00505
#
# Static dielectric constant tensor:
#      x y z
#    x 4.188440 0.000000 0.000000 
#    y 0.000000 3.678360 0.000000 
#    z 0.000000 0.000000 4.299380 
# 
# 
# High freq. dielectric constant tensor:
#      x y z
#    x 1.865560 0.000000 0.000000 
#    y 0.000000 1.814480 0.000000 
#    z 0.000000 0.000000 1.865340 
# 
# From -- ./inp_files/3204.got.cif
#   From: 2010.03.12/outbox.cif.g09.slc.cpg/sg54_2_cif.got.tgz:3204.got - 2010.04.16 15:00:50.
