data_PCOD8223750
_publ_section_title
;
Structure prediction by ZEFSAII (Michael W. Deem and Ramdas Pophale) SiO2 
 PCOD8223750
Probable space group: P C C A
;
_chemical_formula_sum "Si O2"
_cell_formula_units_Z 36
_cell_length_a 7.728402
_cell_length_b 14.047538
_cell_length_c 15.583940
_cell_angle_alpha 90.000000
_cell_angle_beta 90.000000
_cell_angle_gamma 90.000000
_cell_volume 1691.870770
_symmetry_space_group_name_H-M "P C C A"
_symmetry_group_IT_number 54
_symmetry_cell_setting 'orthorhombic'
loop_
_space_group_symop_operation_xyz
x,y,z
1/2-x,-y,z
1/2+x,-y,1/2-z
-x,y,1/2-z
-x,-y,-z
1/2+x,y,-z
1/2-x,y,1/2+z
x,-y,1/2+z
loop_
_atom_site_type_symbol
_atom_site_label
_atom_site_fract_x
_atom_site_fract_y
_atom_site_fract_z
Si Si1 0.500000 0.287743 0.750000
Si Si2 0.638673 0.223109 0.086677
Si Si3 0.500000 0.132291 0.250000
Si Si4 0.250000 0.000000 0.661550
Si Si5 0.992865 0.843987 0.908002
Si Si6 0.676224 0.398032 0.192609
O O1 0.553549 0.222817 0.829504
O O2 0.327752 0.349685 0.753027
O O3 0.517759 0.196345 0.166174
O O4 0.799794 0.149580 0.090130
O O5 0.666296 0.336061 0.104043
O O6 0.549647 0.209752 0.996043
O O7 0.333647 0.070244 0.229546
O O8 0.393141 0.054225 0.601696
O O9 0.750000 0.500000 0.164570
O O10 0.500000 0.404301 0.250000
#
# Coordination Sequence:
#
# PCOD8223750 Si02
#       6
#     4   8   4   4   8   8
#     4  10  23  45  66  98 138 182 224 281 347 406
#     4  11  25  43  66  97 135 178 219 282 348 400
#     4  12  23  41  66  94 132 174 230 275 345 386
#     4  12  24  40  66  96 130 184 234 280 322 398
#     4  11  25  42  65  96 136 179 228 276 336 398
#     4  11  22  42  72 102 131 176 226 276 344 415
#
# _framework density 21.278222
#
# number of rings (size 3 to 8) (size 9 to 14) (size 15 to 20)
#    0.000    0.889    2.222    6.000    3.111    4.444 
#    0.000    5.556    0.000    0.000    0.000    0.000 
#    0.000    0.000    0.000    0.000    0.000    0.000 
#
# Total GULP energy -445976.064533 kJ/mol
# GULP energy per Si atom -12388.224015 kJ/mol
# Density = 2.122979 g / cm^3
# Si number density = 21.278222 Si / 1000 Ang^3
#
#
#
# Elastic Constant Matrix: (Units=GPa)
#
#
# Indices 1 2 3 4 5 6 
#
# 1 103.5900 40.2283 28.4069 0.0000 0.0000 0.0000
# 2 40.2283 117.6787 53.4809 0.0000 0.0000 0.0000
# 3 28.4069 53.4809 159.0874 0.0000 0.0000 0.0000
# 4 0.0000 0.0000 0.0000 -9.2462 0.0000 0.0000
# 5 0.0000 0.0000 0.0000 0.0000 30.7174 0.0000
# 6 0.0000 0.0000 0.0000 0.0000 0.0000 35.5668
#
#
#
# Elastic Compliance Matrix: (Units=1/GPa)
#
#
# Indices 1 2 3 4 5 6 
#
# 1 0.011226 -0.003454 -0.000843 0.000000 0.000000 0.000000
# 2 -0.003454 0.011093 -0.003112 0.000000 0.000000 0.000000
# 3 -0.000843 -0.003112 0.007483 0.000000 0.000000 0.000000
# 4 0.000000 0.000000 0.000000 -0.108152 0.000000 0.000000
# 5 0.000000 0.000000 0.000000 0.000000 0.032555 0.000000
# 6 0.000000 0.000000 0.000000 0.000000 0.000000 0.028116
#
#
# Mechanical properties :
#
#
# Convention : Reuss Voigt Hill
#
# Bulk Modulus (GPa) = 66.74743 69.39869 68.07306
# Shear Modulus (GPa) = 2342.47767 28.62361 1185.55064
#
# Velocity S-wave (km/s) = 33.21551 3.67169 23.62998
# Velocity P-wave (km/s) = 38.76163 7.11763 27.86687
#
# Compressibility (1/GPa) = 0.01498185
#
# Stress axis : x y z
#
# Youngs Moduli (GPa) = 89.07749 90.14651 133.64125
#
# Poissons Ratio (x) = 0.31140 0.11270
# Poissons Ratio (y) = 0.30771 0.41594
# Poissons Ratio (z) = 0.07512 0.28057
#
# Static dielectric constant tensor:
#      x y z
#    x 4.222630 0.000000 0.000000 
#    y 0.000000 4.185130 0.000000 
#    z 0.000000 0.000000 3.812270 
# 
# 
# High freq. dielectric constant tensor:
#      x y z
#    x 1.855770 0.000000 0.000000 
#    y 0.000000 1.833730 0.000000 
#    z 0.000000 0.000000 1.829770 
# 
# From -- ./inp_files/11446.got.cif
#   From: 2010.03.12/outbox.cif.g09.slc.cpg/sg54_6_cif.got.tgz:11446.got - 2010.04.16 15:00:50.
