data_PCOD8223866
_publ_section_title
;
Structure prediction by ZEFSAII (Michael W. Deem and Ramdas Pophale) SiO2 
 PCOD8223866
Probable space group: P C C A
;
_chemical_formula_sum "Si O2"
_cell_formula_units_Z 40
_cell_length_a 14.724621
_cell_length_b 8.740190
_cell_length_c 14.387796
_cell_angle_alpha 90.000000
_cell_angle_beta 90.000000
_cell_angle_gamma 90.000000
_cell_volume 1851.651581
_symmetry_space_group_name_H-M "P C C A"
_symmetry_group_IT_number 54
_symmetry_cell_setting 'orthorhombic'
loop_
_space_group_symop_operation_xyz
x,y,z
1/2-x,-y,z
1/2+x,-y,1/2-z
-x,y,1/2-z
-x,-y,-z
1/2+x,y,-z
1/2-x,y,1/2+z
x,-y,1/2+z
loop_
_atom_site_type_symbol
_atom_site_label
_atom_site_fract_x
_atom_site_fract_y
_atom_site_fract_z
Si Si1 0.869421 0.824583 0.398797
Si Si2 0.233027 0.677004 0.460330
Si Si3 0.525712 0.324886 0.999809
Si Si4 0.744166 0.180506 0.734455
Si Si5 0.565695 0.137591 0.832149
O O1 0.796429 0.787204 0.478564
O O2 0.829066 0.772744 0.299609
O O3 0.964677 0.744355 0.418651
O O4 0.891858 0.004082 0.395765
O O5 0.250000 0.500000 0.484069
O O6 0.129039 0.714386 0.478791
O O7 0.254124 0.711574 0.354049
O O8 0.506824 0.250625 0.898237
O O9 0.500000 0.500000 0.000000
O O10 0.651176 0.224462 0.787016
O O11 0.750000 0.000000 0.708967
O O12 0.500000 0.075975 0.750000
#
# Coordination Sequence:
#
# PCOD8223866 Si02
#       5
#     8   8   8   8   8
#     4  11  25  48  69 103 139 187 238 297 359 422
#     4  12  26  45  70 103 145 191 234 293 365 432
#     4  12  26  44  71 102 143 193 237 290 369 440
#     4  10  25  43  71 100 138 181 239 297 356 416
#     4  11  25  46  73 106 138 185 244 305 357 428
#
# _framework density 21.602336999999999
#
# number of rings (size 3 to 8) (size 9 to 14) (size 15 to 20)
#    0.000    0.800    4.000    1.800    8.400    2.400 
#    0.000    0.000    0.000    0.000    0.000    0.000 
#    0.000    0.000    0.000    0.000    0.000    0.000 
#
# Total GULP energy -496053.042231 kJ/mol
# GULP energy per Si atom -12401.326056 kJ/mol
# Density = 2.155317 g / cm^3
# Si number density = 21.602337 Si / 1000 Ang^3
#
#
#
# Elastic Constant Matrix: (Units=GPa)
#
#
# Indices 1 2 3 4 5 6 
#
# 1 146.7661 49.9468 51.8111 0.0000 0.0000 0.0000
# 2 49.9468 98.3739 75.4696 0.0000 0.0000 0.0000
# 3 51.8111 75.4696 125.8107 0.0000 0.0000 0.0000
# 4 0.0000 0.0000 0.0000 31.4403 0.0000 0.0000
# 5 0.0000 0.0000 0.0000 0.0000 43.2710 0.0000
# 6 0.0000 0.0000 0.0000 0.0000 0.0000 37.3152
#
#
#
# Elastic Compliance Matrix: (Units=1/GPa)
#
#
# Indices 1 2 3 4 5 6 
#
# 1 0.008423 -0.002993 -0.001673 0.000000 0.000000 0.000000
# 2 -0.002993 0.019895 -0.010702 0.000000 0.000000 0.000000
# 3 -0.001673 -0.010702 0.015057 0.000000 0.000000 0.000000
# 4 0.000000 0.000000 0.000000 0.031806 0.000000 0.000000
# 5 0.000000 0.000000 0.000000 0.000000 0.023110 0.000000
# 6 0.000000 0.000000 0.000000 0.000000 0.000000 0.026799
#
#
# Mechanical properties :
#
#
# Convention : Reuss Voigt Hill
#
# Bulk Modulus (GPa) = 79.11981 80.60063 79.86022
# Shear Modulus (GPa) = 31.24240 35.32019 33.28129
#
# Velocity S-wave (km/s) = 3.80709 4.04792 3.92935
# Velocity P-wave (km/s) = 7.48534 7.69673 7.59177
#
# Compressibility (1/GPa) = 0.01263906
#
# Stress axis : x y z
#
# Youngs Moduli (GPa) = 118.72597 50.26436 66.41306
#
# Poissons Ratio (x) = 0.15042 0.11114
# Poissons Ratio (y) = 0.35530 0.71074
# Poissons Ratio (z) = 0.19869 0.53792
#
# Static dielectric constant tensor:
#      x y z
#    x 3.921910 0.000000 0.000000 
#    y 0.000000 13.874990 0.000000 
#    z 0.000000 0.000000 4.254330 
# 
# 
# High freq. dielectric constant tensor:
#      x y z
#    x 1.870550 0.000000 0.000000 
#    y 0.000000 1.835650 0.000000 
#    z 0.000000 0.000000 1.853700 
# 
# From -- ./inp_files/13172.got.cif
#   From: 2010.03.12/outbox.cif.g09.slc.cpg/sg54_7_cif.got.tgz:13172.got - 2010.04.16 15:00:50.
