data_PCOD8223649
_publ_section_title
;
Structure prediction by ZEFSAII (Michael W. Deem and Ramdas Pophale) SiO2 
 PCOD8223649
Probable space group: P C C A
;
_chemical_formula_sum "Si O2"
_cell_formula_units_Z 64
_cell_length_a 29.383728
_cell_length_b 9.299444
_cell_length_c 11.173917
_cell_angle_alpha 90.000000
_cell_angle_beta 90.000000
_cell_angle_gamma 90.000000
_cell_volume 3053.298890
_symmetry_space_group_name_H-M "P C C A"
_symmetry_group_IT_number 54
_symmetry_cell_setting 'orthorhombic'
loop_
_space_group_symop_operation_xyz
x,y,z
1/2-x,-y,z
1/2+x,-y,1/2-z
-x,y,1/2-z
-x,-y,-z
1/2+x,y,-z
1/2-x,y,1/2+z
x,-y,1/2+z
loop_
_atom_site_type_symbol
_atom_site_label
_atom_site_fract_x
_atom_site_fract_y
_atom_site_fract_z
Si Si1 0.633566 0.541716 0.295257
Si Si2 0.782633 0.623244 0.179620
Si Si3 0.999454 0.899611 0.116041
Si Si4 0.591909 0.266106 0.369445
Si Si5 0.900498 0.103461 0.640496
Si Si6 0.670695 0.230162 0.969707
Si Si7 0.779147 0.139434 0.249784
Si Si8 0.369006 0.204400 0.879102
O O1 0.673368 0.441743 0.242699
O O2 0.592497 0.434952 0.332850
O O3 0.651467 0.624302 0.411502
O O4 0.615767 0.657588 0.199089
O O5 0.750000 0.500000 0.129694
O O6 0.793410 0.725977 0.069120
O O7 0.753515 0.723013 0.269445
O O8 0.949768 0.827172 0.110711
O O9 0.000000 0.975318 0.250000
O O10 0.039906 0.783239 0.106194
O O11 0.000000 0.000000 0.000000
O O12 0.616052 0.173160 0.264741
O O13 0.624075 0.244089 0.483272
O O14 0.869322 0.138838 0.528284
O O15 0.901109 0.930517 0.656421
O O16 0.693496 0.123232 0.873852
O O17 0.815923 0.165827 0.143804
O O18 0.750000 0.000000 0.218599
#
# Coordination Sequence:
#
# PCOD8223649 Si02
#       8
#     8   8   8   8   8   8   8   8
#     4  11  25  44  68 102 137 191 235 290 357 425
#     4  12  23  44  62  94 133 183 234 284 348 412
#     4  10  22  44  75 109 139 181 235 290 358 442
#     4  11  24  44  76 101 143 185 232 293 361 425
#     4  11  24  44  73 102 141 181 232 292 361 423
#     4  11  25  41  69  94 139 182 238 293 349 426
#     4  11  27  44  64 101 135 182 243 296 351 411
#     4  11  24  43  70 100 138 183 237 284 360 416
#
# _framework density 20.960934000000002
#
# number of rings (size 3 to 8) (size 9 to 14) (size 15 to 20)
#    0.000    1.000    5.000    1.500    5.250    1.500 
#    0.000    0.625    2.750    0.000    0.000    0.000 
#    0.000    0.000    0.000    0.000    0.000    0.000 
#
# Total GULP energy -793359.359868 kJ/mol
# GULP energy per Si atom -12396.239998 kJ/mol
# Density = 2.091323 g / cm^3
# Si number density = 20.960934 Si / 1000 Ang^3
#
#
#
# Elastic Constant Matrix: (Units=GPa)
#
#
# Indices 1 2 3 4 5 6 
#
# 1 121.1390 57.7275 59.0833 0.0000 0.0000 0.0000
# 2 57.7275 127.2762 48.5718 0.0000 0.0000 0.0000
# 3 59.0833 48.5718 139.8985 0.0000 0.0000 0.0000
# 4 0.0000 0.0000 0.0000 33.5472 0.0000 0.0000
# 5 0.0000 0.0000 0.0000 0.0000 29.5871 0.0000
# 6 0.0000 0.0000 0.0000 0.0000 0.0000 37.6915
#
#
#
# Elastic Compliance Matrix: (Units=1/GPa)
#
#
# Indices 1 2 3 4 5 6 
#
# 1 0.011956 -0.004030 -0.003650 0.000000 0.000000 0.000000
# 2 -0.004030 0.010415 -0.001914 0.000000 0.000000 0.000000
# 3 -0.003650 -0.001914 0.009354 0.000000 0.000000 0.000000
# 4 0.000000 0.000000 0.000000 0.029809 0.000000 0.000000
# 5 0.000000 0.000000 0.000000 0.000000 0.033798 0.000000
# 6 0.000000 0.000000 0.000000 0.000000 0.000000 0.026531
#
#
# Mechanical properties :
#
#
# Convention : Reuss Voigt Hill
#
# Bulk Modulus (GPa) = 79.76429 79.89765 79.83097
# Shear Modulus (GPa) = 34.42812 35.02724 34.72768
#
# Velocity S-wave (km/s) = 4.05716 4.09231 4.07477
# Velocity P-wave (km/s) = 7.75137 7.78007 7.76574
#
# Compressibility (1/GPa) = 0.01253694
#
# Stress axis : x y z
#
# Youngs Moduli (GPa) = 83.64347 96.01434 106.90377
#
# Poissons Ratio (x) = 0.38690 0.39021
# Poissons Ratio (y) = 0.33705 0.20464
# Poissons Ratio (z) = 0.30531 0.18379
#
# Static dielectric constant tensor:
#      x y z
#    x 3.924720 0.000000 0.000000 
#    y 0.000000 3.895790 0.000000 
#    z 0.000000 0.000000 3.980220 
# 
# 
# High freq. dielectric constant tensor:
#      x y z
#    x 1.817040 0.000000 0.000000 
#    y 0.000000 1.816740 0.000000 
#    z 0.000000 0.000000 1.832320 
# 
# From -- ./inp_files/10531.got.cif
#   From: 2010.03.12/outbox.cif.g09.slc.cpg/sg54_6_cif.got.tgz:10531.got - 2010.04.16 15:00:50.
