data_PCOD8223224
_publ_section_title
;
Structure prediction by ZEFSAII (Michael W. Deem and Ramdas Pophale) SiO2 
 PCOD8223224
Probable space group: P C C A
;
_chemical_formula_sum "Si O2"
_cell_formula_units_Z 40
_cell_length_a 23.603535
_cell_length_b 5.675847
_cell_length_c 13.167518
_cell_angle_alpha 90.000000
_cell_angle_beta 90.000000
_cell_angle_gamma 90.000000
_cell_volume 1764.053089
_symmetry_space_group_name_H-M "P C C A"
_symmetry_group_IT_number 54
_symmetry_cell_setting 'orthorhombic'
loop_
_space_group_symop_operation_xyz
x,y,z
1/2-x,-y,z
1/2+x,-y,1/2-z
-x,y,1/2-z
-x,-y,-z
1/2+x,y,-z
1/2-x,y,1/2+z
x,-y,1/2+z
loop_
_atom_site_type_symbol
_atom_site_label
_atom_site_fract_x
_atom_site_fract_y
_atom_site_fract_z
Si Si1 0.559164 0.547838 0.711830
Si Si2 0.125386 0.443021 0.103378
Si Si3 0.859330 0.748969 0.577718
Si Si4 0.282313 0.754729 0.236433
Si Si5 0.443378 0.129888 0.468004
O O1 0.500000 0.440170 0.750000
O O2 0.600477 0.609655 0.806795
O O3 0.588690 0.357550 0.640692
O O4 0.547036 0.780718 0.646614
O O5 0.167599 0.253278 0.153635
O O6 0.159421 0.589232 0.018053
O O7 0.069560 0.329989 0.051277
O O8 0.804973 0.785803 0.648679
O O9 0.884545 0.986824 0.531636
O O10 0.250000 0.500000 0.229708
O O11 0.250000 0.000000 0.211211
O O12 0.500000 0.000000 0.500000
#
# Coordination Sequence:
#
# PCOD8223224 Si02
#       5
#     8   8   8   8   8
#     4  10  21  38  64  98 144 182 231 281 354 433
#     4  10  24  44  68 100 140 185 234 299 361 434
#     4  10  24  43  68  97 144 179 234 301 355 433
#     4  11  28  49  75 104 140 189 251 305 366 421
#     4  11  23  40  70 106 140 186 233 290 367 442
#
# _framework density 22.675053999999999
#
# number of rings (size 3 to 8) (size 9 to 14) (size 15 to 20)
#    0.000    1.600    0.000    2.400   11.200    9.600 
#    0.000    0.000    0.000    0.000    0.000    0.000 
#    0.000    0.000    0.000    0.000    0.000    0.000 
#
# Total GULP energy -495753.056296 kJ/mol
# GULP energy per Si atom -12393.826407 kJ/mol
# Density = 2.262344 g / cm^3
# Si number density = 22.675054 Si / 1000 Ang^3
#
#
#
# Elastic Constant Matrix: (Units=GPa)
#
#
# Indices 1 2 3 4 5 6 
#
# 1 87.8729 29.5319 48.4651 0.0000 0.0000 0.0000
# 2 29.5319 92.6573 41.9693 0.0000 0.0000 0.0000
# 3 48.4651 41.9693 160.8889 0.0000 0.0000 0.0000
# 4 0.0000 0.0000 0.0000 20.4389 0.0000 0.0000
# 5 0.0000 0.0000 0.0000 0.0000 38.0134 0.0000
# 6 0.0000 0.0000 0.0000 0.0000 0.0000 38.5971
#
#
#
# Elastic Compliance Matrix: (Units=1/GPa)
#
#
# Indices 1 2 3 4 5 6 
#
# 1 0.014330 -0.002962 -0.003544 0.000000 0.000000 0.000000
# 2 -0.002962 0.012851 -0.002460 0.000000 0.000000 0.000000
# 3 -0.003544 -0.002460 0.007925 0.000000 0.000000 0.000000
# 4 0.000000 0.000000 0.000000 0.048926 0.000000 0.000000
# 5 0.000000 0.000000 0.000000 0.000000 0.026307 0.000000
# 6 0.000000 0.000000 0.000000 0.000000 0.000000 0.025909
#
#
# Mechanical properties :
#
#
# Convention : Reuss Voigt Hill
#
# Bulk Modulus (GPa) = 58.22899 64.59463 61.41181
# Shear Modulus (GPa) = 31.26876 34.17341 32.72108
#
# Velocity S-wave (km/s) = 3.71751 3.88634 3.80286
# Velocity P-wave (km/s) = 6.64545 6.97762 6.81356
#
# Compressibility (1/GPa) = 0.01717358
#
# Stress axis : x y z
#
# Youngs Moduli (GPa) = 69.78259 77.81628 126.18678
#
# Poissons Ratio (x) = 0.23050 0.44721
# Poissons Ratio (y) = 0.20670 0.31042
# Poissons Ratio (z) = 0.24731 0.19143
#
# Static dielectric constant tensor:
#      x y z
#    x 3.933840 0.000000 0.000000 
#    y 0.000000 3.913650 0.000000 
#    z 0.000000 0.000000 4.468190 
# 
# 
# High freq. dielectric constant tensor:
#      x y z
#    x 1.887100 0.000000 0.000000 
#    y 0.000000 1.877890 0.000000 
#    z 0.000000 0.000000 1.920400 
# 
# From -- ./inp_files/10132.got.cif
#   From: 2010.03.12/outbox.cif.g09.slc.cpg/sg54_6_cif.got.tgz:10132.got - 2010.04.16 15:00:50.
