data_PCOD8223980
_publ_section_title
;
Structure prediction by ZEFSAII (Michael W. Deem and Ramdas Pophale) SiO2 
 PCOD8223980
Probable space group: P C C A
;
_chemical_formula_sum "Si O2"
_cell_formula_units_Z 32
_cell_length_a 7.438530
_cell_length_b 10.578594
_cell_length_c 17.920032
_cell_angle_alpha 90.000000
_cell_angle_beta 90.000000
_cell_angle_gamma 90.000000
_cell_volume 1410.112782
_symmetry_space_group_name_H-M "P C C A"
_symmetry_group_IT_number 54
_symmetry_cell_setting 'orthorhombic'
loop_
_space_group_symop_operation_xyz
x,y,z
1/2-x,-y,z
1/2+x,-y,1/2-z
-x,y,1/2-z
-x,-y,-z
1/2+x,y,-z
1/2-x,y,1/2+z
x,-y,1/2+z
loop_
_atom_site_type_symbol
_atom_site_label
_atom_site_fract_x
_atom_site_fract_y
_atom_site_fract_z
Si Si1 0.960340 0.996910 0.165773
Si Si2 0.590764 0.753033 0.906398
Si Si3 0.939215 0.282711 0.332454
Si Si4 0.223512 0.640639 0.945936
O O1 0.000000 0.951277 0.250000
O O2 0.058447 0.900844 0.109755
O O3 0.750000 0.000000 0.149825
O O4 0.037972 0.134667 0.150793
O O5 0.401188 0.681657 0.901317
O O6 0.727250 0.690714 0.845719
O O7 0.681685 0.738421 0.987672
O O8 0.057046 0.364175 0.389394
O O9 0.000000 0.320550 0.250000
O O10 0.250000 0.500000 0.978954
#
# Coordination Sequence:
#
# PCOD8223980 Si02
#       4
#     8   8   8   8
#     4  11  22  43  71 104 143 179 224 295 361 421
#     4  12  25  45  74  99 139 188 230 288 354 416
#     4  11  25  47  71 107 141 177 234 293 356 420
#     4  12  27  48  70  99 141 191 238 289 344 410
#
# _framework density 22.693221999999999
#
# number of rings (size 3 to 8) (size 9 to 14) (size 15 to 20)
#    0.000    0.500    5.000    4.500    0.000    1.000 
#    9.000    0.000    0.000    0.000    0.000    0.000 
#    0.000    0.000    0.000    0.000    0.000    0.000 
#
# Total GULP energy -396934.282042 kJ/mol
# GULP energy per Si atom -12404.196314 kJ/mol
# Density = 2.264157 g / cm^3
# Si number density = 22.693222 Si / 1000 Ang^3
#
#
#
# Elastic Constant Matrix: (Units=GPa)
#
#
# Indices 1 2 3 4 5 6 
#
# 1 149.1533 6.7869 28.1368 0.0000 0.0000 0.0000
# 2 6.7869 83.2978 42.4862 0.0000 0.0000 0.0000
# 3 28.1368 42.4862 112.5783 0.0000 0.0000 0.0000
# 4 0.0000 0.0000 0.0000 23.4003 0.0000 0.0000
# 5 0.0000 0.0000 0.0000 0.0000 39.8453 0.0000
# 6 0.0000 0.0000 0.0000 0.0000 0.0000 14.8443
#
#
#
# Elastic Compliance Matrix: (Units=1/GPa)
#
#
# Indices 1 2 3 4 5 6 
#
# 1 0.007047 0.000401 -0.001913 0.000000 0.000000 0.000000
# 2 0.000401 0.014890 -0.005720 0.000000 0.000000 0.000000
# 3 -0.001913 -0.005720 0.011519 0.000000 0.000000 0.000000
# 4 0.000000 0.000000 0.000000 0.042734 0.000000 0.000000
# 5 0.000000 0.000000 0.000000 0.000000 0.025097 0.000000
# 6 0.000000 0.000000 0.000000 0.000000 0.000000 0.067366
#
#
# Mechanical properties :
#
#
# Convention : Reuss Voigt Hill
#
# Bulk Modulus (GPa) = 52.64762 55.53880 54.09321
# Shear Modulus (GPa) = 26.39261 33.45928 29.92595
#
# Velocity S-wave (km/s) = 3.41400 3.84398 3.63535
# Velocity P-wave (km/s) = 6.22821 6.65045 6.44279
#
# Compressibility (1/GPa) = 0.01899421
#
# Stress axis : x y z
#
# Youngs Moduli (GPa) = 141.90275 67.16045 86.81073
#
# Poissons Ratio (x) = -0.02696 0.16605
# Poissons Ratio (y) = -0.05697 0.49652
# Poissons Ratio (z) = 0.27143 0.38413
#
# Static dielectric constant tensor:
#      x y z
#    x 4.565660 0.000000 0.000000 
#    y 0.000000 3.980310 0.000000 
#    z 0.000000 0.000000 4.033980 
# 
# 
# High freq. dielectric constant tensor:
#      x y z
#    x 1.926040 0.000000 0.000000 
#    y 0.000000 1.880450 0.000000 
#    z 0.000000 0.000000 1.883680 
# 
# From -- ./inp_files/11239.got.cif
#   From: 2010.03.12/outbox.cif.g09.slc.cpg/sg54_6_cif.got.tgz:11239.got - 2010.04.16 15:00:50.
