data_PCOD8223765
_publ_section_title
;
Structure prediction by ZEFSAII (Michael W. Deem and Ramdas Pophale) SiO2 
 PCOD8223765
Probable space group: P C C A
;
_chemical_formula_sum "Si O2"
_cell_formula_units_Z 48
_cell_length_a 13.694744
_cell_length_b 14.334429
_cell_length_c 11.743683
_cell_angle_alpha 90.000000
_cell_angle_beta 90.000000
_cell_angle_gamma 90.000000
_cell_volume 2305.359375
_symmetry_space_group_name_H-M "P C C A"
_symmetry_group_IT_number 54
_symmetry_cell_setting 'orthorhombic'
loop_
_space_group_symop_operation_xyz
x,y,z
1/2-x,-y,z
1/2+x,-y,1/2-z
-x,y,1/2-z
-x,-y,-z
1/2+x,y,-z
1/2-x,y,1/2+z
x,-y,1/2+z
loop_
_atom_site_type_symbol
_atom_site_label
_atom_site_fract_x
_atom_site_fract_y
_atom_site_fract_z
Si Si1 0.500000 0.022915 0.750000
Si Si2 0.670733 0.079911 0.130642
Si Si3 0.904492 0.626793 0.309773
Si Si4 0.000000 0.551659 0.750000
Si Si5 0.404206 0.171215 0.591909
Si Si6 0.423916 0.307805 0.936184
Si Si7 0.265884 0.749700 0.268180
O O1 0.433265 0.959628 0.830610
O O2 0.429721 0.084900 0.672671
O O3 0.708499 0.152440 0.225334
O O4 0.750000 0.000000 0.111717
O O5 0.658130 0.134478 0.012970
O O6 0.901368 0.648478 0.442617
O O7 0.807796 0.664500 0.249511
O O8 0.000000 0.673781 0.250000
O O9 0.910017 0.514625 0.290881
O O10 0.967356 0.613136 0.644397
O O11 0.501806 0.222020 0.549619
O O12 0.340449 0.245880 0.662462
O O13 0.323771 0.267670 0.885118
#
# Coordination Sequence:
#
# PCOD8223765 Si02
#       7
#     4   8   8   4   8   8   8
#     4  12  25  45  64 100 138 176 232 283 353 412
#     4  12  27  42  70 102 137 186 234 292 339 421
#     4  10  26  43  70 106 136 179 235 283 352 418
#     4  10  23  47  72 104 138 182 234 287 361 426
#     4  12  24  45  70  96 137 182 229 281 357 412
#     4  12  22  49  73  98 143 184 227 293 357 426
#     4  12  24  45  67 104 138 181 236 284 354 420
#
# _framework density 20.82105
#
# number of rings (size 3 to 8) (size 9 to 14) (size 15 to 20)
#    0.500    0.000    5.000    3.000    5.833    0.667 
#    0.000    1.667    0.000    0.000    0.000    0.000 
#    0.000    0.000    0.000    0.000    0.000    0.000 
#
# Total GULP energy -595449.040149 kJ/mol
# GULP energy per Si atom -12405.188336 kJ/mol
# Density = 2.077366 g / cm^3
# Si number density = 20.821050 Si / 1000 Ang^3
#
#
#
# Elastic Constant Matrix: (Units=GPa)
#
#
# Indices 1 2 3 4 5 6 
#
# 1 107.0769 33.2384 28.7778 0.0000 0.0000 0.0000
# 2 33.2384 93.8754 21.5708 0.0000 0.0000 0.0000
# 3 28.7778 21.5708 97.7632 0.0000 0.0000 0.0000
# 4 0.0000 0.0000 0.0000 32.4070 0.0000 0.0000
# 5 0.0000 0.0000 0.0000 0.0000 32.2933 0.0000
# 6 0.0000 0.0000 0.0000 0.0000 0.0000 12.9771
#
#
#
# Elastic Compliance Matrix: (Units=1/GPa)
#
#
# Indices 1 2 3 4 5 6 
#
# 1 0.011051 -0.003334 -0.002517 0.000000 0.000000 0.000000
# 2 -0.003334 0.012227 -0.001716 0.000000 0.000000 0.000000
# 3 -0.002517 -0.001716 0.011348 0.000000 0.000000 0.000000
# 4 0.000000 0.000000 0.000000 0.030858 0.000000 0.000000
# 5 0.000000 0.000000 0.000000 0.000000 0.030966 0.000000
# 6 0.000000 0.000000 0.000000 0.000000 0.000000 0.077059
#
#
# Mechanical properties :
#
#
# Convention : Reuss Voigt Hill
#
# Bulk Modulus (GPa) = 51.30649 51.76550 51.53600
# Shear Modulus (GPa) = 25.62243 29.87738 27.74991
#
# Velocity S-wave (km/s) = 3.51180 3.79220 3.65469
# Velocity P-wave (km/s) = 6.41395 6.64006 6.52799
#
# Compressibility (1/GPa) = 0.01949071
#
# Stress axis : x y z
#
# Youngs Moduli (GPa) = 90.49273 81.78368 88.11756
#
# Poissons Ratio (x) = 0.27269 0.22181
# Poissons Ratio (y) = 0.30173 0.15124
# Poissons Ratio (z) = 0.22779 0.14037
#
# Static dielectric constant tensor:
#      x y z
#    x 3.874310 0.000000 0.000000 
#    y 0.000000 3.793910 0.000000 
#    z 0.000000 0.000000 3.763620 
# 
# 
# High freq. dielectric constant tensor:
#      x y z
#    x 1.822420 0.000000 0.000000 
#    y 0.000000 1.820500 0.000000 
#    z 0.000000 0.000000 1.819770 
# 
# From -- ./inp_files/8378.got.cif
#   From: 2010.03.12/outbox.cif.g09.slc.cpg/sg54_5_cif.got.tgz:8378.got - 2010.04.16 15:00:50.
