data_PCOD8223492
_publ_section_title
;
Structure prediction by ZEFSAII (Michael W. Deem and Ramdas Pophale) SiO2 
 PCOD8223492
Probable space group: P C C A
;
_chemical_formula_sum "Si O2"
_cell_formula_units_Z 60
_cell_length_a 30.195451
_cell_length_b 10.934163
_cell_length_c 8.613643
_cell_angle_alpha 90.000000
_cell_angle_beta 90.000000
_cell_angle_gamma 90.000000
_cell_volume 2843.897455
_symmetry_space_group_name_H-M "P C C A"
_symmetry_group_IT_number 54
_symmetry_cell_setting 'orthorhombic'
loop_
_space_group_symop_operation_xyz
x,y,z
1/2-x,-y,z
1/2+x,-y,1/2-z
-x,y,1/2-z
-x,-y,-z
1/2+x,y,-z
1/2-x,y,1/2+z
x,-y,1/2+z
loop_
_atom_site_type_symbol
_atom_site_label
_atom_site_fract_x
_atom_site_fract_y
_atom_site_fract_z
Si Si1 0.049098 0.673847 0.746852
Si Si2 0.725787 0.621006 0.705388
Si Si3 0.250000 0.000000 0.603111
Si Si4 0.082509 0.484346 0.974057
Si Si5 0.292257 0.761421 0.089462
Si Si6 0.364883 0.360639 0.210458
Si Si7 0.844819 0.092802 0.864022
Si Si8 0.629102 0.143882 0.716744
O O1 0.048743 0.559299 0.865732
O O2 0.058530 0.617714 0.577329
O O3 0.083181 0.781473 0.794182
O O4 0.000000 0.731947 0.750000
O O5 0.750000 0.500000 0.654591
O O6 0.702423 0.668210 0.549181
O O7 0.757934 0.718665 0.780562
O O8 0.685152 0.590446 0.820659
O O9 0.272895 0.112468 0.512446
O O10 0.206096 0.058263 0.689648
O O11 0.117690 0.411614 0.872287
O O12 0.106245 0.591831 0.069230
O O13 0.338345 0.773718 0.179036
O O14 0.362055 0.213686 0.222606
O O15 0.877559 0.984569 0.806962
O O16 0.849321 0.116160 0.048830
#
# Coordination Sequence:
#
# PCOD8223492 Si02
#       8
#     8   8   4   8   8   8   8   8
#     4  11  23  46  73 104 136 169 223 284 349 422
#     4  12  27  38  58  92 137 182 221 271 328 388
#     4  10  22  40  62  88 118 176 230 268 304 366
#     4  10  24  42  74 100 132 179 222 274 352 412
#     4  11  25  41  61  90 130 175 230 277 323 382
#     4  11  24  43  66  96 138 179 227 277 332 408
#     4  11  24  43  68  95 137 178 231 279 326 397
#     4  11  26  43  68  96 131 176 223 280 346 391
#
# _framework density 21.097805999999999
#
# number of rings (size 3 to 8) (size 9 to 14) (size 15 to 20)
#    0.000    1.067    2.667    2.400   13.067    2.667 
#    0.000    0.667    0.000    0.000    0.000    0.000 
#    0.000    0.000    0.000    0.000    0.000    0.000 
#
# Total GULP energy -743451.813695 kJ/mol
# GULP energy per Si atom -12390.863562 kJ/mol
# Density = 2.104979 g / cm^3
# Si number density = 21.097806 Si / 1000 Ang^3
#
#
#
# Elastic Constant Matrix: (Units=GPa)
#
#
# Indices 1 2 3 4 5 6 
#
# 1 129.8731 51.9200 25.6907 0.0000 0.0000 0.0000
# 2 51.9200 99.3823 29.8655 0.0000 0.0000 0.0000
# 3 25.6907 29.8655 72.2330 0.0000 0.0000 0.0000
# 4 0.0000 0.0000 0.0000 28.6632 0.0000 0.0000
# 5 0.0000 0.0000 0.0000 0.0000 14.5525 0.0000
# 6 0.0000 0.0000 0.0000 0.0000 0.0000 31.3640
#
#
#
# Elastic Compliance Matrix: (Units=1/GPa)
#
#
# Indices 1 2 3 4 5 6 
#
# 1 0.009887 -0.004692 -0.001577 0.000000 0.000000 0.000000
# 2 -0.004692 0.013716 -0.004002 0.000000 0.000000 0.000000
# 3 -0.001577 -0.004002 0.016060 0.000000 0.000000 0.000000
# 4 0.000000 0.000000 0.000000 0.034888 0.000000 0.000000
# 5 0.000000 0.000000 0.000000 0.000000 0.068717 0.000000
# 6 0.000000 0.000000 0.000000 0.000000 0.000000 0.031884
#
#
# Mechanical properties :
#
#
# Convention : Reuss Voigt Hill
#
# Bulk Modulus (GPa) = 52.29712 57.38230 54.83971
# Shear Modulus (GPa) = 24.74434 27.85009 26.29722
#
# Velocity S-wave (km/s) = 3.42839 3.63719 3.53433
# Velocity P-wave (km/s) = 6.36503 6.70046 6.53489
#
# Compressibility (1/GPa) = 0.01912151
#
# Stress axis : x y z
#
# Youngs Moduli (GPa) = 101.13994 72.90806 62.26756
#
# Poissons Ratio (x) = 0.34205 0.09818
# Poissons Ratio (y) = 0.47450 0.24922
# Poissons Ratio (z) = 0.15948 0.29181
#
# Static dielectric constant tensor:
#      x y z
#    x 3.633940 0.000000 0.000000 
#    y 0.000000 3.688210 0.000000 
#    z 0.000000 0.000000 3.787810 
# 
# 
# High freq. dielectric constant tensor:
#      x y z
#    x 1.805350 0.000000 0.000000 
#    y 0.000000 1.840900 0.000000 
#    z 0.000000 0.000000 1.828160 
# 
# From -- ./inp_files/5579.got.cif
#   From: 2010.03.12/outbox.cif.g09.slc.cpg/sg54_3_cif.got.tgz:5579.got - 2010.04.16 15:00:50.
