data_PCOD8223716
_publ_section_title
;
Structure prediction by ZEFSAII (Michael W. Deem and Ramdas Pophale) SiO2 
 PCOD8223716
Probable space group: P C C A
;
_chemical_formula_sum "Si O2"
_cell_formula_units_Z 60
_cell_length_a 10.684024
_cell_length_b 8.805910
_cell_length_c 28.681395
_cell_angle_alpha 90.000000
_cell_angle_beta 90.000000
_cell_angle_gamma 90.000000
_cell_volume 2698.418888
_symmetry_space_group_name_H-M "P C C A"
_symmetry_group_IT_number 54
_symmetry_cell_setting 'orthorhombic'
loop_
_space_group_symop_operation_xyz
x,y,z
1/2-x,-y,z
1/2+x,-y,1/2-z
-x,y,1/2-z
-x,-y,-z
1/2+x,y,-z
1/2-x,y,1/2+z
x,-y,1/2+z
loop_
_atom_site_type_symbol
_atom_site_label
_atom_site_fract_x
_atom_site_fract_y
_atom_site_fract_z
Si Si1 0.188453 0.274852 0.776139
Si Si2 0.606362 0.301236 0.879523
Si Si3 0.881779 0.914403 0.021241
Si Si4 0.525532 0.001064 0.116808
Si Si5 0.321422 0.843272 0.676116
Si Si6 0.933430 0.573030 0.702553
Si Si7 0.877814 0.417285 0.479603
Si Si8 0.250000 0.000000 0.827965
O O1 0.147189 0.258448 0.721914
O O2 0.337050 0.296432 0.782291
O O3 0.127446 0.408112 0.807139
O O4 0.162516 0.113087 0.798805
O O5 0.741076 0.267509 0.856995
O O6 0.518209 0.375858 0.840459
O O7 0.615077 0.414510 0.923201
O O8 0.558709 0.139733 0.899826
O O9 0.916267 0.898619 0.075505
O O10 0.750000 0.000000 0.012596
O O11 0.868365 0.749814 0.999802
O O12 0.000000 0.000000 0.000000
O O13 0.448737 0.116095 0.149719
O O14 0.643578 0.918387 0.141345
O O15 0.250000 0.000000 0.689897
O O16 0.000000 0.537377 0.750000
O O17 0.750000 0.500000 0.495047
O O18 0.000000 0.500000 0.500000
#
# Coordination Sequence:
#
# PCOD8223716 Si02
#       8
#     8   8   8   8   8   8   8   4
#     4  11  24  42  65 103 146 195 246 301 367 436
#     4  11  24  48  74 104 149 191 248 307 376 446
#     4  12  26  49  82 110 150 197 259 319 386 469
#     4  11  25  43  74 108 141 193 254 308 367 443
#     4  10  23  42  73 105 139 193 255 314 359 430
#     4  11  24  43  67  99 149 198 238 299 372 445
#     4  12  30  51  78 116 154 195 247 322 401 461
#     4  12  24  42  68 102 146 186 250 308 358 430
#
# _framework density 22.235242
#
# number of rings (size 3 to 8) (size 9 to 14) (size 15 to 20)
#    0.000    0.800    5.333    0.800    5.600    2.133 
#    2.400    0.000    0.000    0.000    0.000    0.000 
#    0.000    0.000    0.000    0.000    0.000    0.000 
#
# Total GULP energy -743598.911288 kJ/mol
# GULP energy per Si atom -12393.315188 kJ/mol
# Density = 2.218463 g / cm^3
# Si number density = 22.235242 Si / 1000 Ang^3
#
#
#
# Elastic Constant Matrix: (Units=GPa)
#
#
# Indices 1 2 3 4 5 6 
#
# 1 145.7017 49.8105 52.7364 0.0000 0.0000 0.0000
# 2 49.8105 113.7212 51.9782 0.0000 0.0000 0.0000
# 3 52.7364 51.9782 124.6624 0.0000 0.0000 0.0000
# 4 0.0000 0.0000 0.0000 37.1453 0.0000 0.0000
# 5 0.0000 0.0000 0.0000 0.0000 35.1122 0.0000
# 6 0.0000 0.0000 0.0000 0.0000 0.0000 42.1994
#
#
#
# Elastic Compliance Matrix: (Units=1/GPa)
#
#
# Indices 1 2 3 4 5 6 
#
# 1 0.008697 -0.002629 -0.002583 0.000000 0.000000 0.000000
# 2 -0.002629 0.011658 -0.003749 0.000000 0.000000 0.000000
# 3 -0.002583 -0.003749 0.010678 0.000000 0.000000 0.000000
# 4 0.000000 0.000000 0.000000 0.026921 0.000000 0.000000
# 5 0.000000 0.000000 0.000000 0.000000 0.028480 0.000000
# 6 0.000000 0.000000 0.000000 0.000000 0.000000 0.023697
#
#
# Mechanical properties :
#
#
# Convention : Reuss Voigt Hill
#
# Bulk Modulus (GPa) = 76.26941 77.01505 76.64223
# Shear Modulus (GPa) = 37.75780 38.19541 37.97660
#
# Velocity S-wave (km/s) = 4.12528 4.14912 4.13721
# Velocity P-wave (km/s) = 7.55422 7.59376 7.57401
#
# Compressibility (1/GPa) = 0.01311142
#
# Stress axis : x y z
#
# Youngs Moduli (GPa) = 114.98319 85.77565 93.65480
#
# Poissons Ratio (x) = 0.22548 0.24192
# Poissons Ratio (y) = 0.30225 0.35111
# Poissons Ratio (z) = 0.29701 0.32157
#
# Static dielectric constant tensor:
#      x y z
#    x 4.034940 0.000000 0.000000 
#    y 0.000000 4.009730 0.000000 
#    z 0.000000 0.000000 4.104980 
# 
# 
# High freq. dielectric constant tensor:
#      x y z
#    x 1.893190 0.000000 0.000000 
#    y 0.000000 1.875380 0.000000 
#    z 0.000000 0.000000 1.875750 
# 
# From -- ./inp_files/26291.got.cif
#   From: 2010.03.12/outbox.cif.g09.slc.cpg/sg54_14_cif.got.tgz:26291.got - 2010.04.16 15:00:50.
