data_PCOD8223822
_publ_section_title
;
Structure prediction by ZEFSAII (Michael W. Deem and Ramdas Pophale) SiO2 
 PCOD8223822
Probable space group: P C C A
;
_chemical_formula_sum "Si O2"
_cell_formula_units_Z 44
_cell_length_a 21.397386
_cell_length_b 10.049038
_cell_length_c 8.794326
_cell_angle_alpha 90.000000
_cell_angle_beta 90.000000
_cell_angle_gamma 90.000000
_cell_volume 1890.983635
_symmetry_space_group_name_H-M "P C C A"
_symmetry_group_IT_number 54
_symmetry_cell_setting 'orthorhombic'
loop_
_space_group_symop_operation_xyz
x,y,z
1/2-x,-y,z
1/2+x,-y,1/2-z
-x,y,1/2-z
-x,-y,-z
1/2+x,y,-z
1/2-x,y,1/2+z
x,-y,1/2+z
loop_
_atom_site_type_symbol
_atom_site_label
_atom_site_fract_x
_atom_site_fract_y
_atom_site_fract_z
Si Si1 0.250000 0.000000 0.785539
Si Si2 0.174827 0.335227 0.455855
Si Si3 0.632070 0.417374 0.854130
Si Si4 0.058772 0.161134 0.463853
Si Si5 0.000000 0.359826 0.250000
Si Si6 0.797600 0.812981 0.968151
Si Si7 0.500000 0.952568 0.750000
O O1 0.208596 0.899748 0.685385
O O2 0.298299 0.914101 0.889212
O O3 0.148739 0.448144 0.564340
O O4 0.179077 0.395432 0.286974
O O5 0.130847 0.204810 0.457097
O O6 0.241639 0.291930 0.515723
O O7 0.561492 0.442571 0.794538
O O8 0.640403 0.281414 0.956850
O O9 0.014034 0.276072 0.400936
O O10 0.042240 0.135893 0.639057
O O11 0.048483 0.034800 0.354355
#
# Coordination Sequence:
#
# PCOD8223822 Si02
#       7
#     4   8   8   8   4   8   4
#     4  10  24  44  70  98 138 168 214 278 342 416
#     4  11  25  41  67  96 133 173 222 275 332 398
#     4  11  25  44  68  96 138 179 228 280 327 408
#     4   9  20  39  59  95 124 172 217 269 324 387
#     4   9  22  45  62  94 132 173 229 276 334 387
#     4  11  23  46  66 104 129 174 217 277 347 403
#     4   9  18  39  62  90 134 173 217 268 324 397
#
# _framework density 23.268312999999999
#
# number of rings (size 3 to 8) (size 9 to 14) (size 15 to 20)
#    0.000    1.818    1.818    0.545    2.545    8.000 
#   16.364    0.000    0.000    0.000    0.000    0.000 
#    0.000    0.000    0.000    0.000    0.000    0.000 
#
# Total GULP energy -545503.746434 kJ/mol
# GULP energy per Si atom -12397.812419 kJ/mol
# Density = 2.321535 g / cm^3
# Si number density = 23.268313 Si / 1000 Ang^3
#
#
#
# Elastic Constant Matrix: (Units=GPa)
#
#
# Indices 1 2 3 4 5 6 
#
# 1 69.9219 24.6212 7.1289 0.0000 0.0000 0.0000
# 2 24.6212 89.7372 28.7118 0.0000 0.0000 0.0000
# 3 7.1289 28.7118 115.2302 0.0000 0.0000 0.0000
# 4 0.0000 0.0000 0.0000 16.4309 0.0000 0.0000
# 5 0.0000 0.0000 0.0000 0.0000 25.0072 0.0000
# 6 0.0000 0.0000 0.0000 0.0000 0.0000 22.4867
#
#
#
# Elastic Compliance Matrix: (Units=1/GPa)
#
#
# Indices 1 2 3 4 5 6 
#
# 1 0.015832 -0.004380 0.000112 0.000000 0.000000 0.000000
# 2 -0.004380 0.013321 -0.003048 0.000000 0.000000 0.000000
# 3 0.000112 -0.003048 0.009431 0.000000 0.000000 0.000000
# 4 0.000000 0.000000 0.000000 0.060861 0.000000 0.000000
# 5 0.000000 0.000000 0.000000 0.000000 0.039988 0.000000
# 6 0.000000 0.000000 0.000000 0.000000 0.000000 0.044471
#
#
# Mechanical properties :
#
#
# Convention : Reuss Voigt Hill
#
# Bulk Modulus (GPa) = 41.75051 43.97924 42.86488
# Shear Modulus (GPa) = 24.21071 27.08012 25.64541
#
# Velocity S-wave (km/s) = 3.22918 3.41518 3.32348
# Velocity P-wave (km/s) = 5.64672 5.87309 5.76102
#
# Compressibility (1/GPa) = 0.02395180
#
# Stress axis : x y z
#
# Youngs Moduli (GPa) = 63.16131 75.07182 106.03485
#
# Poissons Ratio (x) = 0.32879 -0.01185
# Poissons Ratio (y) = 0.27663 0.32321
# Poissons Ratio (z) = -0.00706 0.22883
#
# Static dielectric constant tensor:
#      x y z
#    x 4.337700 0.000000 0.000000 
#    y 0.000000 4.289570 0.000000 
#    z 0.000000 0.000000 4.473660 
# 
# 
# High freq. dielectric constant tensor:
#      x y z
#    x 1.901800 0.000000 0.000000 
#    y 0.000000 1.922340 0.000000 
#    z 0.000000 0.000000 1.933950 
# 
# From -- ./inp_files/5127.got.cif
#   From: 2010.03.12/outbox.cif.g09.slc.cpg/sg54_3_cif.got.tgz:5127.got - 2010.04.16 15:00:50.
