data_PCOD8223223
_publ_section_title
;
Structure prediction by ZEFSAII (Michael W. Deem and Ramdas Pophale) SiO2 
 PCOD8223223
Probable space group: P C C A
;
_chemical_formula_sum "Si O2"
_cell_formula_units_Z 40
_cell_length_a 9.894430
_cell_length_b 10.435464
_cell_length_c 18.543360
_cell_angle_alpha 90.000000
_cell_angle_beta 90.000000
_cell_angle_gamma 90.000000
_cell_volume 1914.656958
_symmetry_space_group_name_H-M "P C C A"
_symmetry_group_IT_number 54
_symmetry_cell_setting 'orthorhombic'
loop_
_space_group_symop_operation_xyz
x,y,z
1/2-x,-y,z
1/2+x,-y,1/2-z
-x,y,1/2-z
-x,-y,-z
1/2+x,y,-z
1/2-x,y,1/2+z
x,-y,1/2+z
loop_
_atom_site_type_symbol
_atom_site_label
_atom_site_fract_x
_atom_site_fract_y
_atom_site_fract_z
Si Si1 0.525555 0.623576 0.669277
Si Si2 0.512445 0.665391 0.148356
Si Si3 0.768495 0.736020 0.401855
Si Si4 0.753058 0.352891 0.055561
Si Si5 0.000000 0.116945 0.250000
Si Si6 0.250000 0.000000 0.670952
O O1 0.500000 0.684490 0.750000
O O2 0.549043 0.472364 0.682359
O O3 0.399684 0.652003 0.616882
O O4 0.656134 0.677342 0.624970
O O5 0.351992 0.674568 0.143650
O O6 0.591130 0.678621 0.073333
O O7 0.568910 0.785867 0.193352
O O8 0.722977 0.732397 0.485481
O O9 0.790599 0.882873 0.380423
O O10 0.750000 0.500000 0.031273
O O11 0.881403 0.027695 0.280666
#
# Coordination Sequence:
#
# PCOD8223223 Si02
#       6
#     8   8   8   8   4   4
#     4  11  23  36  66 101 128 160 212 266 329 387
#     4  10  21  38  64  91 127 159 202 266 336 374
#     4  11  23  41  62  87 131 171 213 259 312 386
#     4  10  22  39  62  96 132 164 202 257 335 391
#     4  10  22  42  60  88 122 162 214 276 310 374
#     4  10  26  42  64  84 128 174 226 254 316 362
#
# _framework density 20.891470999999999
#
# number of rings (size 3 to 8) (size 9 to 14) (size 15 to 20)
#    0.000    1.600    1.000    3.000    7.000    4.800 
#    0.000   10.000    0.000    0.000    0.000    0.000 
#    0.000    0.000    0.000    0.000    0.000    0.000 
#
# Total GULP energy -495716.435049 kJ/mol
# GULP energy per Si atom -12392.910876 kJ/mol
# Density = 2.084392 g / cm^3
# Si number density = 20.891471 Si / 1000 Ang^3
#
#
#
# Elastic Constant Matrix: (Units=GPa)
#
#
# Indices 1 2 3 4 5 6 
#
# 1 106.3722 44.6028 44.1443 0.0000 0.0000 0.0000
# 2 44.6028 98.9379 50.0221 0.0000 0.0000 0.0000
# 3 44.1443 50.0221 134.8301 0.0000 0.0000 0.0000
# 4 0.0000 0.0000 0.0000 -10.1776 0.0000 0.0000
# 5 0.0000 0.0000 0.0000 0.0000 35.5974 0.0000
# 6 0.0000 0.0000 0.0000 0.0000 0.0000 23.4472
#
#
#
# Elastic Compliance Matrix: (Units=1/GPa)
#
#
# Indices 1 2 3 4 5 6 
#
# 1 0.012194 -0.004282 -0.002404 0.000000 0.000000 0.000000
# 2 -0.004282 0.013945 -0.003772 0.000000 0.000000 0.000000
# 3 -0.002404 -0.003772 0.009603 0.000000 0.000000 0.000000
# 4 0.000000 0.000000 0.000000 -0.098255 0.000000 0.000000
# 5 0.000000 0.000000 0.000000 0.000000 0.028092 0.000000
# 6 0.000000 0.000000 0.000000 0.000000 0.000000 0.042649
#
#
# Mechanical properties :
#
#
# Convention : Reuss Voigt Hill
#
# Bulk Modulus (GPa) = 67.44418 68.63097 68.03758
# Shear Modulus (GPa) = 146.69382 23.19812 84.94597
#
# Velocity S-wave (km/s) = 8.38865 3.33590 6.38348
# Velocity P-wave (km/s) = 11.23295 6.91087 9.32575
#
# Compressibility (1/GPa) = 0.01482708
#
# Stress axis : x y z
#
# Youngs Moduli (GPa) = 82.00785 71.71263 104.13415
#
# Poissons Ratio (x) = 0.30707 0.25032
# Poissons Ratio (y) = 0.35115 0.39274
# Poissons Ratio (z) = 0.19713 0.27047
#
# Static dielectric constant tensor:
#      x y z
#    x 3.887210 0.000000 0.000000 
#    y 0.000000 3.622880 0.000000 
#    z 0.000000 0.000000 3.892380 
# 
# 
# High freq. dielectric constant tensor:
#      x y z
#    x 1.827520 0.000000 0.000000 
#    y 0.000000 1.798070 0.000000 
#    z 0.000000 0.000000 1.821180 
# 
# From -- ./inp_files/16369.got.cif
#   From: 2010.03.12/outbox.cif.g09.slc.cpg/sg54_9_cif.got.tgz:16369.got - 2010.04.16 15:00:50.
