data_PCOD8223917
_publ_section_title
;
Structure prediction by ZEFSAII (Michael W. Deem and Ramdas Pophale) SiO2 
 PCOD8223917
Probable space group: P C C A
;
_chemical_formula_sum "Si O2"
_cell_formula_units_Z 48
_cell_length_a 14.819416
_cell_length_b 14.800835
_cell_length_c 9.417603
_cell_angle_alpha 90.000000
_cell_angle_beta 90.000000
_cell_angle_gamma 90.000000
_cell_volume 2065.654509
_symmetry_space_group_name_H-M "P C C A"
_symmetry_group_IT_number 54
_symmetry_cell_setting 'orthorhombic'
loop_
_space_group_symop_operation_xyz
x,y,z
1/2-x,-y,z
1/2+x,-y,1/2-z
-x,y,1/2-z
-x,-y,-z
1/2+x,y,-z
1/2-x,y,1/2+z
x,-y,1/2+z
loop_
_atom_site_type_symbol
_atom_site_label
_atom_site_fract_x
_atom_site_fract_y
_atom_site_fract_z
Si Si1 0.895106 0.591954 0.910332
Si Si2 0.906849 0.756283 0.088417
Si Si3 0.382196 0.741790 0.592823
Si Si4 0.669421 0.061045 0.447377
Si Si5 0.110227 0.423611 0.409504
Si Si6 0.909506 0.949829 0.162217
O O1 0.854997 0.579176 0.752726
O O2 0.002644 0.583368 0.911034
O O3 0.864645 0.690751 0.968227
O O4 0.856055 0.515599 0.015950
O O5 0.875272 0.716841 0.240846
O O6 0.875252 0.860321 0.077191
O O7 0.013547 0.759723 0.062481
O O8 0.322850 0.830184 0.549997
O O9 0.346095 0.659191 0.497664
O O10 0.659872 0.025650 0.287279
O O11 0.750000 0.000000 0.514334
O O12 0.584687 0.032617 0.550411
O O13 0.000000 0.926524 0.250000
#
# Coordination Sequence:
#
# PCOD8223917 Si02
#       6
#     8   8   8   8   8   8
#     4   9  16  25  42  71 108 147 182 230 280 341
#     4   9  16  30  49  73 102 142 189 231 288 330
#     4   9  17  31  48  71 105 146 187 237 279 346
#     4  11  23  38  56  82 115 151 196 248 307 360
#     4   9  16  26  41  70 108 150 184 223 285 334
#     4  11  21  38  58  82 108 153 197 251 300 362
#
# _framework density 23.237186000000001
#
# number of rings (size 3 to 8) (size 9 to 14) (size 15 to 20)
#    0.000    2.333    3.333    2.000    0.000    5.333 
#    3.000    0.000    0.000    0.000    0.000    1.167 
#    0.000    8.000    0.000    0.000    0.000    0.000 
#
# Total GULP energy -594781.757660 kJ/mol
# GULP energy per Si atom -12391.286618 kJ/mol
# Density = 2.318430 g / cm^3
# Si number density = 23.237186 Si / 1000 Ang^3
#
#
#
# Elastic Constant Matrix: (Units=GPa)
#
#
# Indices 1 2 3 4 5 6 
#
# 1 17.5846 16.4795 2.5254 0.0000 0.0000 0.0000
# 2 16.4795 152.6137 89.6091 0.0000 0.0000 0.0000
# 3 2.5254 89.6091 148.8875 0.0000 0.0000 0.0000
# 4 0.0000 0.0000 0.0000 54.0331 0.0000 0.0000
# 5 0.0000 0.0000 0.0000 0.0000 12.0083 0.0000
# 6 0.0000 0.0000 0.0000 0.0000 0.0000 18.6212
#
#
#
# Elastic Compliance Matrix: (Units=1/GPa)
#
#
# Indices 1 2 3 4 5 6 
#
# 1 0.065471 -0.009925 0.004863 0.000000 0.000000 0.000000
# 2 -0.009925 0.011638 -0.006836 0.000000 0.000000 0.000000
# 3 0.004863 -0.006836 0.010748 0.000000 0.000000 0.000000
# 4 0.000000 0.000000 0.000000 0.018507 0.000000 0.000000
# 5 0.000000 0.000000 0.000000 0.000000 0.083276 0.000000
# 6 0.000000 0.000000 0.000000 0.000000 0.000000 0.053702
#
#
# Mechanical properties :
#
#
# Convention : Reuss Voigt Hill
#
# Bulk Modulus (GPa) = 15.61017 59.59041 37.60029
# Shear Modulus (GPa) = 17.33149 30.96398 24.14774
#
# Velocity S-wave (km/s) = 2.73399 3.65433 3.22714
# Velocity P-wave (km/s) = 4.08639 6.59588 5.48654
#
# Compressibility (1/GPa) = 0.06406079
#
# Stress axis : x y z
#
# Youngs Moduli (GPa) = 15.27402 85.92431 93.03712
#
# Poissons Ratio (x) = 0.85280 -0.45243
# Poissons Ratio (y) = 0.15159 0.63602
# Poissons Ratio (z) = -0.07428 0.58739
#
# Static dielectric constant tensor:
#      x y z
#    x 3.594990 0.000000 0.000000 
#    y 0.000000 4.241090 0.000000 
#    z 0.000000 0.000000 4.440980 
# 
# 
# High freq. dielectric constant tensor:
#      x y z
#    x 1.876040 0.000000 0.000000 
#    y 0.000000 1.920690 0.000000 
#    z 0.000000 0.000000 1.923410 
# 
# From -- ./inp_files/4196.got.cif
#   From: 2010.03.12/outbox.cif.g09.slc.cpg/sg54_3_cif.got.tgz:4196.got - 2010.04.16 15:00:50.
