data_PCOD8223237
_publ_section_title
;
Structure prediction by ZEFSAII (Michael W. Deem and Ramdas Pophale) SiO2 
 PCOD8223237
Probable space group: P C C A
;
_chemical_formula_sum "Si O2"
_cell_formula_units_Z 64
_cell_length_a 24.209816
_cell_length_b 9.586077
_cell_length_c 13.803711
_cell_angle_alpha 90.000000
_cell_angle_beta 90.000000
_cell_angle_gamma 90.000000
_cell_volume 3203.526051
_symmetry_space_group_name_H-M "P C C A"
_symmetry_group_IT_number 54
_symmetry_cell_setting 'orthorhombic'
loop_
_space_group_symop_operation_xyz
x,y,z
1/2-x,-y,z
1/2+x,-y,1/2-z
-x,y,1/2-z
-x,-y,-z
1/2+x,y,-z
1/2-x,y,1/2+z
x,-y,1/2+z
loop_
_atom_site_type_symbol
_atom_site_label
_atom_site_fract_x
_atom_site_fract_y
_atom_site_fract_z
Si Si1 0.937237 0.656277 0.466422
Si Si2 0.618536 0.439549 0.273843
Si Si3 0.766436 0.651943 0.308602
Si Si4 0.149499 0.754110 0.727097
Si Si5 0.639732 0.180377 0.992208
Si Si6 0.128952 0.883844 0.922256
Si Si7 0.442803 0.615423 0.913588
Si Si8 0.260341 0.843956 0.518227
O O1 0.896975 0.604613 0.382073
O O2 0.913549 0.795011 0.514555
O O3 0.943642 0.543493 0.551289
O O4 0.997741 0.688539 0.423051
O O5 0.678205 0.371911 0.244586
O O6 0.618174 0.606822 0.269706
O O7 0.574048 0.380056 0.198735
O O8 0.750000 0.500000 0.350359
O O9 0.714933 0.723869 0.252939
O O10 0.783834 0.748694 0.397067
O O11 0.140495 0.832834 0.624876
O O12 0.122112 0.855776 0.807456
O O13 0.702677 0.213734 0.025572
O O14 0.601450 0.307457 0.020093
O O15 0.617515 0.042497 0.046219
O O16 0.192726 0.842415 0.937453
O O17 0.250000 0.000000 0.558774
#
# Coordination Sequence:
#
# PCOD8223237 Si02
#       8
#     8   8   8   8   8   8   8   8
#     4  11  23  41  64  89 122 160 216 259 300 370
#     4  11  20  39  64  92 123 162 207 264 307 358
#     4   9  19  34  58  89 121 159 203 250 302 364
#     4  10  21  39  60  94 131 160 201 254 314 379
#     4  10  23  42  61  91 131 161 205 255 307 372
#     4  11  22  40  64  92 124 169 205 245 317 373
#     4  11  24  40  63  90 120 166 209 260 308 361
#     4   9  19  37  58  88 124 164 193 248 307 365
#
# _framework density 19.977986000000001
#
# number of rings (size 3 to 8) (size 9 to 14) (size 15 to 20)
#    0.000    1.750    3.750    0.375    1.750    1.500 
#    2.250    3.750    0.000    0.000    0.000    0.000 
#    0.000    0.000    0.000    0.000    0.000    0.000 
#
# Total GULP energy -793400.792583 kJ/mol
# GULP energy per Si atom -12396.887384 kJ/mol
# Density = 1.993252 g / cm^3
# Si number density = 19.977986 Si / 1000 Ang^3
#
#
#
# Elastic Constant Matrix: (Units=GPa)
#
#
# Indices 1 2 3 4 5 6 
#
# 1 81.5568 18.3591 3.0011 0.0000 0.0000 0.0000
# 2 18.3591 52.2991 5.0457 0.0000 0.0000 0.0000
# 3 3.0011 5.0457 64.9478 0.0000 0.0000 0.0000
# 4 0.0000 0.0000 0.0000 29.2463 0.0000 0.0000
# 5 0.0000 0.0000 0.0000 0.0000 26.8257 0.0000
# 6 0.0000 0.0000 0.0000 0.0000 0.0000 26.0622
#
#
#
# Elastic Compliance Matrix: (Units=1/GPa)
#
#
# Indices 1 2 3 4 5 6 
#
# 1 0.013318 -0.004651 -0.000254 0.000000 0.000000 0.000000
# 2 -0.004651 0.020889 -0.001408 0.000000 0.000000 0.000000
# 3 -0.000254 -0.001408 0.015518 0.000000 0.000000 0.000000
# 4 0.000000 0.000000 0.000000 0.034192 0.000000 0.000000
# 5 0.000000 0.000000 0.000000 0.000000 0.037278 0.000000
# 6 0.000000 0.000000 0.000000 0.000000 0.000000 0.038370
#
#
# Mechanical properties :
#
#
# Convention : Reuss Voigt Hill
#
# Bulk Modulus (GPa) = 26.95437 27.95729 27.45583
# Shear Modulus (GPa) = 27.09198 27.92000 27.50599
#
# Velocity S-wave (km/s) = 3.68651 3.74242 3.71457
# Velocity P-wave (km/s) = 5.62510 5.71828 5.67188
#
# Compressibility (1/GPa) = 0.03709974
#
# Stress axis : x y z
#
# Youngs Moduli (GPa) = 75.08848 47.87170 64.44089
#
# Poissons Ratio (x) = 0.22263 0.01637
# Poissons Ratio (y) = 0.34920 0.09073
# Poissons Ratio (z) = 0.01908 0.06740
#
# Static dielectric constant tensor:
#      x y z
#    x 3.776370 0.000000 0.000000 
#    y 0.000000 3.517980 0.000000 
#    z 0.000000 0.000000 3.396120 
# 
# 
# High freq. dielectric constant tensor:
#      x y z
#    x 1.781820 0.000000 0.000000 
#    y 0.000000 1.772000 0.000000 
#    z 0.000000 0.000000 1.767440 
# 
# From -- ./inp_files/15008.got.cif
#   From: 2010.03.12/outbox.cif.g09.slc.cpg/sg54_8_cif.got.tgz:15008.got - 2010.04.16 15:00:50.
