data_PCOD8223276
_publ_section_title
;
Structure prediction by ZEFSAII (Michael W. Deem and Ramdas Pophale) SiO2 
 PCOD8223276
Probable space group: P C C A
;
_chemical_formula_sum "Si O2"
_cell_formula_units_Z 32
_cell_length_a 8.484828
_cell_length_b 7.494649
_cell_length_c 19.958766
_cell_angle_alpha 90.000000
_cell_angle_beta 90.000000
_cell_angle_gamma 90.000000
_cell_volume 1269.194050
_symmetry_space_group_name_H-M "P C C A"
_symmetry_group_IT_number 54
_symmetry_cell_setting 'orthorhombic'
loop_
_space_group_symop_operation_xyz
x,y,z
1/2-x,-y,z
1/2+x,-y,1/2-z
-x,y,1/2-z
-x,-y,-z
1/2+x,y,-z
1/2-x,y,1/2+z
x,-y,1/2+z
loop_
_atom_site_type_symbol
_atom_site_label
_atom_site_fract_x
_atom_site_fract_y
_atom_site_fract_z
Si Si1 0.579797 0.244803 0.816566
Si Si2 0.920235 0.825431 0.316858
Si Si3 0.927642 0.164851 0.541466
Si Si4 0.874796 0.341416 0.055631
O O1 0.500000 0.326557 0.750000
O O2 0.763372 0.297107 0.827432
O O3 0.471810 0.308721 0.877021
O O4 0.602341 0.034663 0.807512
O O5 0.000000 0.745394 0.250000
O O6 0.029054 0.809532 0.381520
O O7 0.737077 0.167756 0.539650
O O8 0.999415 0.344571 0.505533
O O9 0.000000 0.000000 0.500000
O O10 0.750000 0.500000 0.063081
#
# Coordination Sequence:
#
# PCOD8223276 Si02
#       4
#     8   8   8   8
#     4  10  21  40  67 100 139 180 234 290 357 422
#     4  10  21  39  69 104 134 173 234 308 350 409
#     4  12  24  41  70 100 133 179 240 293 351 424
#     4  12  26  44  66 102 148 189 230 294 363 431
#
# _framework density 25.212852000000002
#
# number of rings (size 3 to 8) (size 9 to 14) (size 15 to 20)
#    0.000    1.000    2.500    4.500    3.500    2.000 
#    0.000    3.750    0.000    1.500    0.000    0.000 
#    0.000    0.000    0.000    0.000    0.000    0.000 
#
# Total GULP energy -396418.078804 kJ/mol
# GULP energy per Si atom -12388.064963 kJ/mol
# Density = 2.515547 g / cm^3
# Si number density = 25.212852 Si / 1000 Ang^3
#
#
#
# Elastic Constant Matrix: (Units=GPa)
#
#
# Indices 1 2 3 4 5 6 
#
# 1 173.9672 -17.0791 78.5794 0.0000 0.0000 0.0000
# 2 -17.0791 31.7691 -5.9477 0.0000 0.0000 0.0000
# 3 78.5794 -5.9477 212.0492 0.0000 0.0000 0.0000
# 4 0.0000 0.0000 0.0000 -1.6564 0.0000 0.0000
# 5 0.0000 0.0000 0.0000 0.0000 52.6334 0.0000
# 6 0.0000 0.0000 0.0000 0.0000 0.0000 22.5268
#
#
#
# Elastic Compliance Matrix: (Units=1/GPa)
#
#
# Indices 1 2 3 4 5 6 
#
# 1 0.007254 0.003415 -0.002593 0.000000 0.000000 0.000000
# 2 0.003415 0.033251 -0.000333 0.000000 0.000000 0.000000
# 3 -0.002593 -0.000333 0.005667 0.000000 0.000000 0.000000
# 4 0.000000 0.000000 0.000000 -0.603705 0.000000 0.000000
# 5 0.000000 0.000000 0.000000 0.000000 0.018999 0.000000
# 6 0.000000 0.000000 0.000000 0.000000 0.000000 0.044392
#
#
# Mechanical properties :
#
#
# Convention : Reuss Voigt Hill
#
# Bulk Modulus (GPa) = 21.20844 58.76564 39.98704
# Shear Modulus (GPa) = -10.42962 38.84962 14.21000
#
# Velocity S-wave (km/s) = -2.03608 3.92964 2.37660
# Velocity P-wave (km/s) = 1.70368 6.62932 4.83996
#
# Compressibility (1/GPa) = 0.04715104
#
# Stress axis : x y z
#
# Youngs Moduli (GPa) = 137.84628 30.07469 176.45189
#
# Poissons Ratio (x) = -0.10269 0.45745
# Poissons Ratio (y) = -0.47069 0.05871
# Poissons Ratio (z) = 0.35737 0.01001
#
# Static dielectric constant tensor:
#      x y z
#    x 5.733250 0.000000 0.000000 
#    y 0.000000 4.905800 0.000000 
#    z 0.000000 0.000000 4.520490 
# 
# 
# High freq. dielectric constant tensor:
#      x y z
#    x 2.037260 0.000000 0.000000 
#    y 0.000000 2.001990 0.000000 
#    z 0.000000 0.000000 2.008930 
# 
# From -- ./inp_files/20028.got.cif
#   From: 2010.03.12/outbox.cif.g09.slc.cpg/sg54_11_cif.got.tgz:20028.got - 2010.04.16 15:00:50.
