data_PCOD8223215
_publ_section_title
;
Structure prediction by ZEFSAII (Michael W. Deem and Ramdas Pophale) SiO2 
 PCOD8223215
Probable space group: P C C A
;
_chemical_formula_sum "Si O2"
_cell_formula_units_Z 60
_cell_length_a 15.844998
_cell_length_b 19.682682
_cell_length_c 9.559253
_cell_angle_alpha 90.000000
_cell_angle_beta 90.000000
_cell_angle_gamma 90.000000
_cell_volume 2981.263896
_symmetry_space_group_name_H-M "P C C A"
_symmetry_group_IT_number 54
_symmetry_cell_setting 'orthorhombic'
loop_
_space_group_symop_operation_xyz
x,y,z
1/2-x,-y,z
1/2+x,-y,1/2-z
-x,y,1/2-z
-x,-y,-z
1/2+x,y,-z
1/2-x,y,1/2+z
x,-y,1/2+z
loop_
_atom_site_type_symbol
_atom_site_label
_atom_site_fract_x
_atom_site_fract_y
_atom_site_fract_z
Si Si1 0.847700 0.727590 0.355704
Si Si2 0.211476 0.071165 0.988581
Si Si3 0.099805 0.433791 0.240699
Si Si4 0.369306 0.439588 0.423247
Si Si5 0.654196 0.121703 0.300369
Si Si6 0.224695 0.332917 0.362430
Si Si7 0.056707 0.009519 0.131181
Si Si8 0.000000 0.640652 0.250000
O O1 0.881782 0.804244 0.336549
O O2 0.775289 0.716827 0.240221
O O3 0.807899 0.710863 0.506387
O O4 0.930465 0.682770 0.333684
O O5 0.275394 0.111544 0.083322
O O6 0.250000 0.000000 0.932058
O O7 0.133637 0.057809 0.092310
O O8 0.189736 0.118134 0.857125
O O9 0.140183 0.489876 0.342292
O O10 0.143895 0.362596 0.280045
O O11 0.000000 0.424728 0.250000
O O12 0.121664 0.457298 0.085037
O O13 0.286430 0.393877 0.406705
O O14 0.454439 0.404214 0.367527
O O15 0.583307 0.064339 0.312358
O O16 0.000000 0.045763 0.250000
O O17 0.000000 0.000000 0.000000
#
# Coordination Sequence:
#
# PCOD8223215 Si02
#       8
#     8   8   8   8   8   8   8   4
#     4  11  24  44  65  89 128 174 221 260 313 392
#     4  10  21  38  62  93 128 162 205 261 323 374
#     4  12  24  39  68  95 130 160 216 269 331 383
#     4  11  24  41  63  99 124 167 208 269 330 384
#     4  11  23  39  65  91 124 171 216 251 314 389
#     4  11  24  43  64  91 130 171 213 263 319 380
#     4  11  22  38  63  95 130 159 203 265 325 365
#     4  10  24  42  66  88 132 166 216 266 330 384
#
# _framework density 20.125692999999998
#
# number of rings (size 3 to 8) (size 9 to 14) (size 15 to 20)
#    0.000    1.067    3.333    3.600    6.533    1.067 
#    0.000    0.000    0.000    0.000    0.000    0.000 
#    0.000    0.000    0.000    0.000    0.000    0.000 
#
# Total GULP energy -744113.105965 kJ/mol
# GULP energy per Si atom -12401.885099 kJ/mol
# Density = 2.007989 g / cm^3
# Si number density = 20.125693 Si / 1000 Ang^3
#
#
#
# Elastic Constant Matrix: (Units=GPa)
#
#
# Indices 1 2 3 4 5 6 
#
# 1 63.4468 12.9371 27.1172 0.0000 0.0000 0.0000
# 2 12.9371 68.4707 20.6799 0.0000 0.0000 0.0000
# 3 27.1172 20.6799 141.2214 0.0000 0.0000 0.0000
# 4 0.0000 0.0000 0.0000 44.5905 0.0000 0.0000
# 5 0.0000 0.0000 0.0000 0.0000 32.8242 0.0000
# 6 0.0000 0.0000 0.0000 0.0000 0.0000 15.2927
#
#
#
# Elastic Compliance Matrix: (Units=1/GPa)
#
#
# Indices 1 2 3 4 5 6 
#
# 1 0.017540 -0.002403 -0.003016 0.000000 0.000000 0.000000
# 2 -0.002403 0.015610 -0.001824 0.000000 0.000000 0.000000
# 3 -0.003016 -0.001824 0.007927 0.000000 0.000000 0.000000
# 4 0.000000 0.000000 0.000000 0.022426 0.000000 0.000000
# 5 0.000000 0.000000 0.000000 0.000000 0.030465 0.000000
# 6 0.000000 0.000000 0.000000 0.000000 0.000000 0.065391
#
#
# Mechanical properties :
#
#
# Convention : Reuss Voigt Hill
#
# Bulk Modulus (GPa) = 37.60792 43.84525 40.72659
# Shear Modulus (GPa) = 27.36568 32.70181 30.03374
#
# Velocity S-wave (km/s) = 3.69146 4.03535 3.86723
# Velocity P-wave (km/s) = 6.07423 6.59887 6.34198
#
# Compressibility (1/GPa) = 0.02659015
#
# Stress axis : x y z
#
# Youngs Moduli (GPa) = 57.01138 64.06201 126.14484
#
# Poissons Ratio (x) = 0.15395 0.38047
# Poissons Ratio (y) = 0.13701 0.23014
# Poissons Ratio (z) = 0.17196 0.11687
#
# Static dielectric constant tensor:
#      x y z
#    x 3.802400 0.000000 0.000000 
#    y 0.000000 3.570550 0.000000 
#    z 0.000000 0.000000 3.729010 
# 
# 
# High freq. dielectric constant tensor:
#      x y z
#    x 1.799960 0.000000 0.000000 
#    y 0.000000 1.769480 0.000000 
#    z 0.000000 0.000000 1.802930 
# 
# From -- ./inp_files/4376.got.cif
#   From: 2010.03.12/outbox.cif.g09.slc.cpg/sg54_3_cif.got.tgz:4376.got - 2010.04.16 15:00:50.
