data_PCOD8223581
_publ_section_title
;
Structure prediction by ZEFSAII (Michael W. Deem and Ramdas Pophale) SiO2 
 PCOD8223581
Probable space group: P C C A
;
_chemical_formula_sum "Si O2"
_cell_formula_units_Z 56
_cell_length_a 9.271705
_cell_length_b 14.929121
_cell_length_c 19.975171
_cell_angle_alpha 90.000000
_cell_angle_beta 90.000000
_cell_angle_gamma 90.000000
_cell_volume 2764.931326
_symmetry_space_group_name_H-M "P C C A"
_symmetry_group_IT_number 54
_symmetry_cell_setting 'orthorhombic'
loop_
_space_group_symop_operation_xyz
x,y,z
1/2-x,-y,z
1/2+x,-y,1/2-z
-x,y,1/2-z
-x,-y,-z
1/2+x,y,-z
1/2-x,y,1/2+z
x,-y,1/2+z
loop_
_atom_site_type_symbol
_atom_site_label
_atom_site_fract_x
_atom_site_fract_y
_atom_site_fract_z
Si Si1 0.201025 0.593502 0.802934
Si Si2 0.065117 0.406787 0.022747
Si Si3 0.650597 0.239081 0.151871
Si Si4 0.116743 0.627002 0.662697
Si Si5 0.795877 0.282003 0.021811
Si Si6 0.683192 0.783988 0.875093
Si Si7 0.336104 0.088515 0.240198
O O1 0.250000 0.500000 0.837367
O O2 0.326403 0.664351 0.814754
O O3 0.176617 0.570854 0.724759
O O4 0.056637 0.638177 0.832825
O O5 0.143233 0.425757 0.093724
O O6 0.953754 0.324054 0.028800
O O7 0.190305 0.369044 0.975145
O O8 0.000000 0.500000 0.000000
O O9 0.748762 0.222153 0.085521
O O10 0.482056 0.243432 0.135267
O O11 0.698985 0.165136 0.205519
O O12 0.201194 0.720825 0.661543
O O13 0.783761 0.219170 0.955151
O O14 0.700449 0.879042 0.836262
O O15 0.500000 0.060725 0.250000
O O16 0.250000 0.000000 0.257485
#
# Coordination Sequence:
#
# PCOD8223581 Si02
#       7
#     8   8   8   8   8   8   8
#     4  11  24  37  58  89 128 169 222 269 312 373
#     4  11  23  37  57  84 125 172 230 268 305 367
#     4  11  22  42  66  90 133 170 213 267 327 384
#     4  10  23  39  56  88 121 171 221 259 326 364
#     4  11  22  39  60  89 127 175 212 265 323 371
#     4  10  22  42  66  92 128 166 212 263 331 388
#     4  10  23  45  72 101 124 161 208 265 335 401
#
# _framework density 20.253667
#
# number of rings (size 3 to 8) (size 9 to 14) (size 15 to 20)
#    0.000    1.429    4.286    0.429    2.000    5.714 
#    0.000    0.714    0.000    3.429    0.000    0.000 
#    0.000    0.000    0.000    0.000    0.000    0.000 
#
# Total GULP energy -693865.727495 kJ/mol
# GULP energy per Si atom -12390.459420 kJ/mol
# Density = 2.020757 g / cm^3
# Si number density = 20.253667 Si / 1000 Ang^3
#
#
#
# Elastic Constant Matrix: (Units=GPa)
#
#
# Indices 1 2 3 4 5 6 
#
# 1 81.3604 43.9826 18.7398 0.0000 0.0000 0.0000
# 2 43.9826 114.7912 45.1687 0.0000 0.0000 0.0000
# 3 18.7398 45.1687 107.8464 0.0000 0.0000 0.0000
# 4 0.0000 0.0000 0.0000 10.4787 0.0000 0.0000
# 5 0.0000 0.0000 0.0000 0.0000 24.6797 0.0000
# 6 0.0000 0.0000 0.0000 0.0000 0.0000 30.7846
#
#
#
# Elastic Compliance Matrix: (Units=1/GPa)
#
#
# Indices 1 2 3 4 5 6 
#
# 1 0.015507 -0.005845 -0.000247 0.000000 0.000000 0.000000
# 2 -0.005845 0.012633 -0.004276 0.000000 0.000000 0.000000
# 3 -0.000247 -0.004276 0.011106 0.000000 0.000000 0.000000
# 4 0.000000 0.000000 0.000000 0.095432 0.000000 0.000000
# 5 0.000000 0.000000 0.000000 0.000000 0.040519 0.000000
# 6 0.000000 0.000000 0.000000 0.000000 0.000000 0.032484
#
#
# Mechanical properties :
#
#
# Convention : Reuss Voigt Hill
#
# Bulk Modulus (GPa) = 54.01657 57.75336 55.88496
# Shear Modulus (GPa) = 21.31413 26.26239 23.78826
#
# Velocity S-wave (km/s) = 3.24753 3.60484 3.43084
# Velocity P-wave (km/s) = 6.38669 6.77521 6.58382
#
# Compressibility (1/GPa) = 0.01851284
#
# Stress axis : x y z
#
# Youngs Moduli (GPa) = 64.48549 79.15652 90.04130
#
# Poissons Ratio (x) = 0.46264 0.02222
# Poissons Ratio (y) = 0.37689 0.38497
# Poissons Ratio (z) = 0.01591 0.33843
#
# Static dielectric constant tensor:
#      x y z
#    x 3.824830 0.000000 0.000000 
#    y 0.000000 3.243120 0.000000 
#    z 0.000000 0.000000 4.163800 
# 
# 
# High freq. dielectric constant tensor:
#      x y z
#    x 1.806210 0.000000 0.000000 
#    y 0.000000 1.743740 0.000000 
#    z 0.000000 0.000000 1.812540 
# 
# From -- ./inp_files/20531.got.cif
#   From: 2010.03.12/outbox.cif.g09.slc.cpg/sg54_11_cif.got.tgz:20531.got - 2010.04.16 15:00:50.
