data_PCOD8223487
_publ_section_title
;
Structure prediction by ZEFSAII (Michael W. Deem and Ramdas Pophale) SiO2 
 PCOD8223487
Probable space group: P C C A
;
_chemical_formula_sum "Si O2"
_cell_formula_units_Z 64
_cell_length_a 20.267933
_cell_length_b 8.635642
_cell_length_c 18.358608
_cell_angle_alpha 90.000000
_cell_angle_beta 90.000000
_cell_angle_gamma 90.000000
_cell_volume 3213.244986
_symmetry_space_group_name_H-M "P C C A"
_symmetry_group_IT_number 54
_symmetry_cell_setting 'orthorhombic'
loop_
_space_group_symop_operation_xyz
x,y,z
1/2-x,-y,z
1/2+x,-y,1/2-z
-x,y,1/2-z
-x,-y,-z
1/2+x,y,-z
1/2-x,y,1/2+z
x,-y,1/2+z
loop_
_atom_site_type_symbol
_atom_site_label
_atom_site_fract_x
_atom_site_fract_y
_atom_site_fract_z
Si Si1 0.562873 0.570164 0.961065
Si Si2 0.565503 0.428886 0.291069
Si Si3 0.679781 0.931766 0.202907
Si Si4 0.820760 0.932921 0.048382
Si Si5 0.679240 0.432920 0.048382
Si Si6 0.937127 0.070164 0.961065
Si Si7 0.565503 0.928886 0.791069
Si Si8 0.179781 0.568234 0.797093
O O1 0.554520 0.542038 0.875795
O O2 0.568845 0.750000 0.980674
O O3 0.500000 0.500000 0.000000
O O4 0.628147 0.482880 0.986883
O O5 0.500000 0.485791 0.250000
O O6 0.580351 0.250000 0.273298
O O7 0.626986 0.530492 0.264931
O O8 0.687380 0.750000 0.192632
O O9 0.750000 0.000000 0.227310
O O10 0.655801 0.004389 0.126686
O O11 0.626986 0.969508 0.264931
O O12 0.816298 0.750000 0.052457
O O13 0.750000 0.000000 0.026278
O O14 0.871853 0.982880 0.986883
O O15 0.750000 0.500000 0.026278
O O16 0.655801 0.495611 0.126686
O O17 0.945480 0.042039 0.875795
O O18 0.000000 0.000000 0.000000
O O19 0.500000 0.985791 0.750000
O O20 0.250000 0.500000 0.772689
#
# Coordination Sequence:
#
# PCOD8223487 Si02
#       8
#     8   8   8   8   8   8   8   8
#     4  11  23  39  61  89 121 156 196 243 295 351
#     4  10  22  40  61  86 118 155 194 240 293 346
#     4  11  22  38  62  89 119 154 195 241 291 350
#     4  11  22  39  62  87 119 156 197 243 293 350
#     4  11  22  39  62  87 119 156 197 243 293 350
#     4  11  23  39  61  89 121 156 196 243 295 351
#     4  10  22  40  61  86 118 155 194 240 293 346
#     4  11  22  38  62  89 119 154 195 241 291 350
#
# _framework density 19.917560000000002
#
# number of rings (size 3 to 8) (size 9 to 14) (size 15 to 20)
#    0.000    1.250    0.000    8.250    0.000    5.500 
#    0.000    0.000    0.000    0.000    0.000    0.000 
#    0.000    0.000    0.000    0.000    0.000    0.000 
#
# Total GULP energy -794075.056113 kJ/mol
# GULP energy per Si atom -12407.422752 kJ/mol
# Density = 1.987223 g / cm^3
# Si number density = 19.917560 Si / 1000 Ang^3
#
#
#
# Elastic Constant Matrix: (Units=GPa)
#
#
# Indices 1 2 3 4 5 6 
#
# 1 134.8229 63.7480 70.8806 0.0000 0.0000 0.0000
# 2 63.7480 168.6152 57.8021 0.0000 0.0000 0.0000
# 3 70.8806 57.8021 97.8411 0.0000 0.0000 0.0000
# 4 0.0000 0.0000 0.0000 30.3443 0.0000 0.0000
# 5 0.0000 0.0000 0.0000 0.0000 42.9219 0.0000
# 6 0.0000 0.0000 0.0000 0.0000 0.0000 37.7479
#
#
#
# Elastic Compliance Matrix: (Units=1/GPa)
#
#
# Indices 1 2 3 4 5 6 
#
# 1 0.012513 -0.002035 -0.007863 0.000000 0.000000 0.000000
# 2 -0.002035 0.007768 -0.003114 0.000000 0.000000 0.000000
# 3 -0.007863 -0.003114 0.017757 0.000000 0.000000 0.000000
# 4 0.000000 0.000000 0.000000 0.032955 0.000000 0.000000
# 5 0.000000 0.000000 0.000000 0.000000 0.023298 0.000000
# 6 0.000000 0.000000 0.000000 0.000000 0.000000 0.026492
#
#
# Mechanical properties :
#
#
# Convention : Reuss Voigt Hill
#
# Bulk Modulus (GPa) = 83.24615 87.34896 85.29755
# Shear Modulus (GPa) = 33.15390 36.12605 34.63998
#
# Velocity S-wave (km/s) = 4.08432 4.26347 4.17486
# Velocity P-wave (km/s) = 8.00802 8.25752 8.13373
#
# Compressibility (1/GPa) = 0.01201257
#
# Stress axis : x y z
#
# Youngs Moduli (GPa) = 79.91564 128.73539 56.31694
#
# Poissons Ratio (x) = 0.26204 0.44280
# Poissons Ratio (y) = 0.16267 0.17540
# Poissons Ratio (z) = 0.62835 0.40094
#
# Static dielectric constant tensor:
#      x y z
#    x 3.766220 0.000000 0.000000 
#    y 0.000000 3.741970 0.000000 
#    z 0.000000 0.000000 3.602700 
# 
# 
# High freq. dielectric constant tensor:
#      x y z
#    x 1.790370 0.000000 0.000000 
#    y 0.000000 1.790200 0.000000 
#    z 0.000000 0.000000 1.777740 
# 
# From -- ./inp_files/18975.got.cif
#   From: 2010.03.12/outbox.cif.g09.slc.cpg/sg54_10_cif.got.tgz:18975.got - 2010.04.16 15:00:50.
