data_PCOD8223051
_publ_section_title
;
Structure prediction by ZEFSAII (Michael W. Deem and Ramdas Pophale) SiO2 
 PCOD8223051
Probable space group: P C C A
;
_chemical_formula_sum "Si O2"
_cell_formula_units_Z 64
_cell_length_a 16.075318
_cell_length_b 15.671794
_cell_length_c 10.607037
_cell_angle_alpha 90.000000
_cell_angle_beta 90.000000
_cell_angle_gamma 90.000000
_cell_volume 2672.220990
_symmetry_space_group_name_H-M "P C C A"
_symmetry_group_IT_number 54
_symmetry_cell_setting 'orthorhombic'
loop_
_space_group_symop_operation_xyz
x,y,z
1/2-x,-y,z
1/2+x,-y,1/2-z
-x,y,1/2-z
-x,-y,-z
1/2+x,y,-z
1/2-x,y,1/2+z
x,-y,1/2+z
loop_
_atom_site_type_symbol
_atom_site_label
_atom_site_fract_x
_atom_site_fract_y
_atom_site_fract_z
Si Si1 0.695360 0.812529 0.918461
Si Si2 0.576704 0.676240 0.018005
Si Si3 0.408735 0.737808 0.978622
Si Si4 0.358320 0.085717 0.497891
Si Si5 0.222572 0.674345 0.287235
Si Si6 0.843172 0.028533 0.776986
Si Si7 0.399158 0.640949 0.222341
Si Si8 0.159554 0.468752 0.628101
O O1 0.635685 0.760941 0.015904
O O2 0.766716 0.868323 0.989609
O O3 0.730830 0.740761 0.826641
O O4 0.641759 0.876258 0.829910
O O5 0.617888 0.587851 0.979244
O O6 0.494675 0.694048 0.931347
O O7 0.536040 0.658769 0.160549
O O8 0.423857 0.839152 0.972609
O O9 0.390556 0.715736 0.122830
O O10 0.324592 0.712671 0.906365
O O11 0.363938 0.024026 0.373162
O O12 0.389233 0.036213 0.624676
O O13 0.316746 0.645922 0.315548
O O14 0.169956 0.590658 0.250310
O O15 0.750000 0.000000 0.795802
O O16 0.401394 0.547707 0.158695
O O17 0.250000 0.500000 0.578916
#
# Coordination Sequence:
#
# PCOD8223051 Si02
#       8
#     8   8   8   8   8   8   8   8
#     4  10  20  40  68  97 131 177 229 295 347 424
#     4  11  26  43  66 101 141 187 234 286 366 435
#     4  12  25  43  67 100 141 187 234 287 361 441
#     4  11  22  41  69 102 137 177 237 301 358 431
#     4  10  21  41  69  97 127 180 237 289 341 419
#     4  10  21  37  65 104 133 171 233 302 358 416
#     4  11  24  42  67  95 139 182 239 291 353 418
#     4   9  23  42  68  99 131 178 229 293 345 412
#
# _framework density 23.950113999999999
#
# number of rings (size 3 to 8) (size 9 to 14) (size 15 to 20)
#    0.000    1.500    2.500    2.250    5.250    4.000 
#    2.250    0.625    0.000    3.000    0.000    0.000 
#    0.000    0.000    0.000    0.000    0.000    0.000 
#
# Total GULP energy -792918.495470 kJ/mol
# GULP energy per Si atom -12389.351492 kJ/mol
# Density = 2.389560 g / cm^3
# Si number density = 23.950114 Si / 1000 Ang^3
#
#
#
# Elastic Constant Matrix: (Units=GPa)
#
#
# Indices 1 2 3 4 5 6 
#
# 1 54.4412 29.6545 24.9394 0.0000 0.0000 0.0000
# 2 29.6545 120.0454 42.4083 0.0000 0.0000 0.0000
# 3 24.9394 42.4083 134.8441 0.0000 0.0000 0.0000
# 4 0.0000 0.0000 0.0000 28.5046 0.0000 0.0000
# 5 0.0000 0.0000 0.0000 0.0000 13.0728 0.0000
# 6 0.0000 0.0000 0.0000 0.0000 0.0000 23.5431
#
#
#
# Elastic Compliance Matrix: (Units=1/GPa)
#
#
# Indices 1 2 3 4 5 6 
#
# 1 0.022041 -0.004505 -0.002660 0.000000 0.000000 0.000000
# 2 -0.004505 0.010292 -0.002404 0.000000 0.000000 0.000000
# 3 -0.002660 -0.002404 0.008664 0.000000 0.000000 0.000000
# 4 0.000000 0.000000 0.000000 0.035082 0.000000 0.000000
# 5 0.000000 0.000000 0.000000 0.000000 0.076495 0.000000
# 6 0.000000 0.000000 0.000000 0.000000 0.000000 0.042475
#
#
# Mechanical properties :
#
#
# Convention : Reuss Voigt Hill
#
# Bulk Modulus (GPa) = 45.74555 55.92610 50.83583
# Shear Modulus (GPa) = 22.57620 27.17934 24.87777
#
# Velocity S-wave (km/s) = 3.07357 3.37238 3.22643
# Velocity P-wave (km/s) = 5.63361 6.21013 5.92888
#
# Compressibility (1/GPa) = 0.02186005
#
# Stress axis : x y z
#
# Youngs Moduli (GPa) = 45.37052 97.16087 115.42262
#
# Poissons Ratio (x) = 0.43772 0.30698
# Poissons Ratio (y) = 0.20440 0.27744
# Poissons Ratio (z) = 0.12067 0.23354
#
# Static dielectric constant tensor:
#      x y z
#    x 4.397620 0.000000 0.000000 
#    y 0.000000 4.652070 0.000000 
#    z 0.000000 0.000000 4.494980 
# 
# 
# High freq. dielectric constant tensor:
#      x y z
#    x 1.938810 0.000000 0.000000 
#    y 0.000000 1.957430 0.000000 
#    z 0.000000 0.000000 1.954260 
# 
# From -- ./inp_files/9087.got.cif
#   From: 2010.03.12/outbox.cif.g09.slc.cpg/sg54_5_cif.got.tgz:9087.got - 2010.04.16 15:00:50.
