data_PCOD8223214
_publ_section_title
;
Structure prediction by ZEFSAII (Michael W. Deem and Ramdas Pophale) SiO2 
 PCOD8223214
Probable space group: P C C A
;
_chemical_formula_sum "Si O2"
_cell_formula_units_Z 32
_cell_length_a 8.714249
_cell_length_b 10.844942
_cell_length_c 16.374540
_cell_angle_alpha 90.000000
_cell_angle_beta 90.000000
_cell_angle_gamma 90.000000
_cell_volume 1547.484499
_symmetry_space_group_name_H-M "P C C A"
_symmetry_group_IT_number 54
_symmetry_cell_setting 'orthorhombic'
loop_
_space_group_symop_operation_xyz
x,y,z
1/2-x,-y,z
1/2+x,-y,1/2-z
-x,y,1/2-z
-x,-y,-z
1/2+x,y,-z
1/2-x,y,1/2+z
x,-y,1/2+z
loop_
_atom_site_type_symbol
_atom_site_label
_atom_site_fract_x
_atom_site_fract_y
_atom_site_fract_z
Si Si1 0.033799 0.302716 0.898283
Si Si2 0.250000 0.000000 0.147486
Si Si3 0.691341 0.762171 0.440543
Si Si4 0.578813 0.451032 0.834359
Si Si5 0.500000 0.856662 0.750000
O O1 0.869654 0.260214 0.929334
O O2 0.027154 0.449309 0.881674
O O3 0.081968 0.233110 0.815308
O O4 0.158569 0.262479 0.964643
O O5 0.161385 0.097824 0.089242
O O6 0.373285 0.061218 0.206664
O O7 0.584019 0.671621 0.388275
O O8 0.750000 0.500000 0.818097
O O9 0.500000 0.414664 0.750000
#
# Coordination Sequence:
#
# PCOD8223214 Si02
#       5
#     8   4   8   8   4
#     4  10  21  41  60  89 122 159 202 258 307 361
#     4  10  24  40  58  94 120 166 210 246 302 372
#     4  10  23  38  61  89 124 158 208 249 306 366
#     4  10  21  38  62  92 124 155 204 255 310 366
#     4  10  22  40  62  82 126 160 208 256 304 366
#
# _framework density 20.678719999999998
#
# number of rings (size 3 to 8) (size 9 to 14) (size 15 to 20)
#    0.000    2.000    1.250    0.750    1.750    9.000 
#    0.000    0.000    0.000    0.000    0.000    0.000 
#    0.000    0.000    0.000    0.000    0.000    0.000 
#
# Total GULP energy -396835.375667 kJ/mol
# GULP energy per Si atom -12401.105490 kJ/mol
# Density = 2.063165 g / cm^3
# Si number density = 20.678720 Si / 1000 Ang^3
#
#
#
# Elastic Constant Matrix: (Units=GPa)
#
#
# Indices 1 2 3 4 5 6 
#
# 1 19.1027 11.9640 16.4701 0.0000 0.0000 0.0000
# 2 11.9640 147.2634 52.7604 0.0000 0.0000 0.0000
# 3 16.4701 52.7604 141.5561 0.0000 0.0000 0.0000
# 4 0.0000 0.0000 0.0000 23.2508 0.0000 0.0000
# 5 0.0000 0.0000 0.0000 0.0000 35.4758 0.0000
# 6 0.0000 0.0000 0.0000 0.0000 0.0000 8.5798
#
#
#
# Elastic Compliance Matrix: (Units=1/GPa)
#
#
# Indices 1 2 3 4 5 6 
#
# 1 0.059100 -0.002698 -0.005871 0.000000 0.000000 0.000000
# 2 -0.002698 0.007960 -0.002653 0.000000 0.000000 0.000000
# 3 -0.005871 -0.002653 0.008736 0.000000 0.000000 0.000000
# 4 0.000000 0.000000 0.000000 0.043009 0.000000 0.000000
# 5 0.000000 0.000000 0.000000 0.000000 0.028188 0.000000
# 6 0.000000 0.000000 0.000000 0.000000 0.000000 0.116553
#
#
# Mechanical properties :
#
#
# Convention : Reuss Voigt Hill
#
# Bulk Modulus (GPa) = 18.74314 52.25681 35.49997
# Shear Modulus (GPa) = 16.45958 28.57646 22.51802
#
# Velocity S-wave (km/s) = 2.82435 3.72146 3.30350
# Velocity P-wave (km/s) = 4.44067 6.61750 5.63520
#
# Compressibility (1/GPa) = 0.05335284
#
# Stress axis : x y z
#
# Youngs Moduli (GPa) = 16.92050 125.62428 114.46612
#
# Poissons Ratio (x) = 0.33895 0.67199
# Poissons Ratio (y) = 0.04565 0.30368
# Poissons Ratio (z) = 0.09933 0.33328
#
# Static dielectric constant tensor:
#      x y z
#    x 3.515110 0.000000 0.000000 
#    y 0.000000 4.136470 0.000000 
#    z 0.000000 0.000000 3.935660 
# 
# 
# High freq. dielectric constant tensor:
#      x y z
#    x 1.790810 0.000000 0.000000 
#    y 0.000000 1.820470 0.000000 
#    z 0.000000 0.000000 1.821320 
# 
# From -- ./inp_files/7305.got.cif
#   From: 2010.03.12/outbox.cif.g09.slc.cpg/sg54_4_cif.got.tgz:7305.got - 2010.04.16 15:00:50.
