data_PCOD8223474
_publ_section_title
;
Structure prediction by ZEFSAII (Michael W. Deem and Ramdas Pophale) SiO2 
 PCOD8223474
Probable space group: P C C A
;
_chemical_formula_sum "Si O2"
_cell_formula_units_Z 52
_cell_length_a 5.163168
_cell_length_b 25.443352
_cell_length_c 17.889207
_cell_angle_alpha 90.000000
_cell_angle_beta 90.000000
_cell_angle_gamma 90.000000
_cell_volume 2350.074727
_symmetry_space_group_name_H-M "P C C A"
_symmetry_group_IT_number 54
_symmetry_cell_setting 'orthorhombic'
loop_
_space_group_symop_operation_xyz
x,y,z
1/2-x,-y,z
1/2+x,-y,1/2-z
-x,y,1/2-z
-x,-y,-z
1/2+x,y,-z
1/2-x,y,1/2+z
x,-y,1/2+z
loop_
_atom_site_type_symbol
_atom_site_label
_atom_site_fract_x
_atom_site_fract_y
_atom_site_fract_z
Si Si1 0.750000 0.000000 0.548949
Si Si2 0.327339 0.552839 0.046648
Si Si3 0.181258 0.101592 0.867057
Si Si4 0.500000 0.964801 0.750000
Si Si5 0.368212 0.744541 0.677279
Si Si6 0.229994 0.331078 0.051336
Si Si7 0.414560 0.799999 0.952676
Si Si8 0.500000 0.830041 0.250000
O O1 0.682797 0.051325 0.597374
O O2 0.500000 0.000000 0.500000
O O3 0.250000 0.500000 0.095240
O O4 0.275913 0.609359 0.084384
O O5 0.628428 0.549879 0.024052
O O6 0.371452 0.133490 0.812705
O O7 0.947835 0.075177 0.819280
O O8 0.076211 0.138205 0.933853
O O9 0.750000 0.000000 0.737155
O O10 0.500000 0.717034 0.750000
O O11 0.206656 0.703526 0.626847
O O12 0.597111 0.768208 0.625186
O O13 0.199918 0.793598 0.705014
O O14 0.496435 0.319760 0.006347
O O15 0.173743 0.783608 0.003441
#
# Coordination Sequence:
#
# PCOD8223474 Si02
#       8
#     4   8   8   4   8   8   8   4
#     4  12  30  48  70  98 128 162 200 258 332 396
#     4   8  14  28  53  90 131 172 222 279 335 394
#     4  12  26  49  73  99 132 163 213 263 329 400
#     4  12  27  46  74 102 128 166 203 252 312 390
#     4  12  26  45  67  99 135 182 230 285 333 409
#     4  10  22  39  65 100 137 180 230 288 346 396
#     4  12  26  46  71  98 131 171 214 271 333 395
#     4  12  27  50  72 102 132 182 229 274 340 408
#
# _framework density 22.126957000000001
#
# number of rings (size 3 to 8) (size 9 to 14) (size 15 to 20)
#    0.000    0.923    2.308    4.154    3.231    2.462 
#    0.000    0.000    0.000    0.000    2.000    0.000 
#    0.000    0.000    0.000    0.000    0.000    0.000 
#
# Total GULP energy -644195.427487 kJ/mol
# GULP energy per Si atom -12388.373606 kJ/mol
# Density = 2.207660 g / cm^3
# Si number density = 22.126957 Si / 1000 Ang^3
#
#
#
# Elastic Constant Matrix: (Units=GPa)
#
#
# Indices 1 2 3 4 5 6 
#
# 1 119.9824 28.3265 47.6472 0.0000 0.0000 0.0000
# 2 28.3265 134.5922 63.9432 0.0000 0.0000 0.0000
# 3 47.6472 63.9432 127.9276 0.0000 0.0000 0.0000
# 4 0.0000 0.0000 0.0000 23.5659 0.0000 0.0000
# 5 0.0000 0.0000 0.0000 0.0000 27.6964 0.0000
# 6 0.0000 0.0000 0.0000 0.0000 0.0000 22.2113
#
#
#
# Elastic Compliance Matrix: (Units=1/GPa)
#
#
# Indices 1 2 3 4 5 6 
#
# 1 0.009800 -0.000431 -0.003435 0.000000 0.000000 0.000000
# 2 -0.000431 0.009763 -0.004719 0.000000 0.000000 0.000000
# 3 -0.003435 -0.004719 0.011455 0.000000 0.000000 0.000000
# 4 0.000000 0.000000 0.000000 0.042434 0.000000 0.000000
# 5 0.000000 0.000000 0.000000 0.000000 0.036106 0.000000
# 6 0.000000 0.000000 0.000000 0.000000 0.000000 0.045022
#
#
# Mechanical properties :
#
#
# Convention : Reuss Voigt Hill
#
# Bulk Modulus (GPa) = 72.21133 73.59290 72.90211
# Shear Modulus (GPa) = 28.35015 30.86708 29.60861
#
# Velocity S-wave (km/s) = 3.58334 3.73902 3.66201
# Velocity P-wave (km/s) = 7.05877 7.20916 7.13436
#
# Compressibility (1/GPa) = 0.01384824
#
# Stress axis : x y z
#
# Youngs Moduli (GPa) = 102.03778 102.43184 87.29698
#
# Poissons Ratio (x) = 0.04412 0.29985
# Poissons Ratio (y) = 0.04395 0.41198
# Poissons Ratio (z) = 0.35049 0.48341
#
# Static dielectric constant tensor:
#      x y z
#    x 3.918320 0.000000 0.000000 
#    y 0.000000 4.711020 0.000000 
#    z 0.000000 0.000000 3.018660 
# 
# 
# High freq. dielectric constant tensor:
#      x y z
#    x 1.871300 0.000000 0.000000 
#    y 0.000000 1.894460 0.000000 
#    z 0.000000 0.000000 1.846950 
# 
# From -- ./inp_files/15967.got.cif
#   From: 2010.03.12/outbox.cif.g09.slc.cpg/sg54_8_cif.got.tgz:15967.got - 2010.04.16 15:00:50.
