data_PCOD8223761
_publ_section_title
;
Structure prediction by ZEFSAII (Michael W. Deem and Ramdas Pophale) SiO2 
 PCOD8223761
Probable space group: P C C A
;
_chemical_formula_sum "Si O2"
_cell_formula_units_Z 40
_cell_length_a 10.383524
_cell_length_b 8.660948
_cell_length_c 18.884146
_cell_angle_alpha 90.000000
_cell_angle_beta 90.000000
_cell_angle_gamma 90.000000
_cell_volume 1698.273182
_symmetry_space_group_name_H-M "P C C A"
_symmetry_group_IT_number 54
_symmetry_cell_setting 'orthorhombic'
loop_
_space_group_symop_operation_xyz
x,y,z
1/2-x,-y,z
1/2+x,-y,1/2-z
-x,y,1/2-z
-x,-y,-z
1/2+x,y,-z
1/2-x,y,1/2+z
x,-y,1/2+z
loop_
_atom_site_type_symbol
_atom_site_label
_atom_site_fract_x
_atom_site_fract_y
_atom_site_fract_z
Si Si1 0.867457 0.389043 0.093673
Si Si2 0.019570 0.310663 0.870586
Si Si3 0.762236 0.822439 0.867028
Si Si4 0.463094 0.178634 0.512033
Si Si5 0.244327 0.179074 0.793175
O O1 0.750000 0.500000 0.071269
O O2 0.977851 0.503831 0.124410
O O3 0.838438 0.273440 0.157216
O O4 0.910458 0.284581 0.026931
O O5 0.097194 0.244372 0.801994
O O6 0.873231 0.260285 0.877054
O O7 0.097192 0.237326 0.938191
O O8 0.870863 0.772263 0.922785
O O9 0.800687 0.795148 0.785550
O O10 0.750000 0.000000 0.884410
O O11 0.500000 0.000000 0.500000
O O12 0.250000 0.000000 0.813982
#
# Coordination Sequence:
#
# PCOD8223761 Si02
#       5
#     8   8   8   8   8
#     4  10  25  47  72 107 150 194 245 311 384 441
#     4  11  24  46  72 104 152 187 244 313 377 442
#     4  11  25  44  72 112 143 195 253 305 372 449
#     4  12  25  45  76 109 144 196 254 307 370 450
#     4  10  23  46  74 100 147 198 248 301 370 457
#
# _framework density 23.553336999999999
#
# number of rings (size 3 to 8) (size 9 to 14) (size 15 to 20)
#    0.000    1.200    2.000    2.400    5.600    2.400 
#   18.000    0.000    0.000    0.000    0.000    0.000 
#    0.000    0.000    0.000    0.000    0.000    0.000 
#
# Total GULP energy -495720.957376 kJ/mol
# GULP energy per Si atom -12393.023934 kJ/mol
# Density = 2.349973 g / cm^3
# Si number density = 23.553337 Si / 1000 Ang^3
#
#
#
# Elastic Constant Matrix: (Units=GPa)
#
#
# Indices 1 2 3 4 5 6 
#
# 1 87.2001 44.1279 20.3786 0.0000 0.0000 0.0000
# 2 44.1279 165.3764 39.9445 0.0000 0.0000 0.0000
# 3 20.3786 39.9445 63.6073 0.0000 0.0000 0.0000
# 4 0.0000 0.0000 0.0000 33.2844 0.0000 0.0000
# 5 0.0000 0.0000 0.0000 0.0000 47.7179 0.0000
# 6 0.0000 0.0000 0.0000 0.0000 0.0000 41.7718
#
#
#
# Elastic Compliance Matrix: (Units=1/GPa)
#
#
# Indices 1 2 3 4 5 6 
#
# 1 0.013573 -0.003031 -0.002445 0.000000 0.000000 0.000000
# 2 -0.003031 0.007805 -0.003930 0.000000 0.000000 0.000000
# 3 -0.002445 -0.003930 0.018973 0.000000 0.000000 0.000000
# 4 0.000000 0.000000 0.000000 0.030044 0.000000 0.000000
# 5 0.000000 0.000000 0.000000 0.000000 0.020956 0.000000
# 6 0.000000 0.000000 0.000000 0.000000 0.000000 0.023940
#
#
# Mechanical properties :
#
#
# Convention : Reuss Voigt Hill
#
# Bulk Modulus (GPa) = 46.42934 58.34286 52.38610
# Shear Modulus (GPa) = 35.38979 38.67036 37.03008
#
# Velocity S-wave (km/s) = 3.88046 4.05633 3.96937
# Velocity P-wave (km/s) = 6.31130 6.83833 6.58010
#
# Compressibility (1/GPa) = 0.02153810
#
# Stress axis : x y z
#
# Youngs Moduli (GPa) = 73.67437 128.12398 52.70666
#
# Poissons Ratio (x) = 0.38837 0.12887
# Poissons Ratio (y) = 0.22332 0.20715
# Poissons Ratio (z) = 0.18014 0.50356
#
# Static dielectric constant tensor:
#      x y z
#    x 4.116890 0.000000 0.000000 
#    y 0.000000 6.280250 0.000000 
#    z 0.000000 0.000000 4.501170 
# 
# 
# High freq. dielectric constant tensor:
#      x y z
#    x 1.924340 0.000000 0.000000 
#    y 0.000000 1.948110 0.000000 
#    z 0.000000 0.000000 1.941320 
# 
# From -- ./inp_files/17076.got.cif
#   From: 2010.03.12/outbox.cif.g09.slc.cpg/sg54_9_cif.got.tgz:17076.got - 2010.04.16 15:00:50.
