data_PCOD8223326
_publ_section_title
;
Structure prediction by ZEFSAII (Michael W. Deem and Ramdas Pophale) SiO2 
 PCOD8223326
Probable space group: P C C A
;
_chemical_formula_sum "Si O2"
_cell_formula_units_Z 48
_cell_length_a 15.139269
_cell_length_b 16.777012
_cell_length_c 9.362952
_cell_angle_alpha 90.000000
_cell_angle_beta 90.000000
_cell_angle_gamma 90.000000
_cell_volume 2378.112074
_symmetry_space_group_name_H-M "P C C A"
_symmetry_group_IT_number 54
_symmetry_cell_setting 'orthorhombic'
loop_
_space_group_symop_operation_xyz
x,y,z
1/2-x,-y,z
1/2+x,-y,1/2-z
-x,y,1/2-z
-x,-y,-z
1/2+x,y,-z
1/2-x,y,1/2+z
x,-y,1/2+z
loop_
_atom_site_type_symbol
_atom_site_label
_atom_site_fract_x
_atom_site_fract_y
_atom_site_fract_z
Si Si1 0.093999 0.910387 0.291640
Si Si2 0.659899 0.046047 0.899915
Si Si3 0.100171 0.576200 0.078078
Si Si4 0.397409 0.417322 0.409308
Si Si5 0.245495 0.301647 0.502200
Si Si6 0.741009 0.191912 0.748668
O O1 0.106643 0.930852 0.458297
O O2 0.161137 0.842999 0.242858
O O3 0.000000 0.873079 0.250000
O O4 0.101256 0.990315 0.198983
O O5 0.674168 0.124540 0.803344
O O6 0.750000 0.000000 0.944086
O O7 0.118930 0.562495 0.244331
O O8 0.161141 0.641619 0.003598
O O9 0.999175 0.604566 0.056319
O O10 0.126310 0.494169 0.002046
O O11 0.334383 0.343989 0.448080
O O12 0.265950 0.272388 0.660835
O O13 0.221358 0.221774 0.411915
#
# Coordination Sequence:
#
# PCOD8223326 Si02
#       6
#     8   8   8   8   8   8
#     4  11  23  40  65  90 120 157 206 253 303 361
#     4  10  21  41  63  87 119 161 202 247 301 372
#     4  10  23  42  65  90 124 162 210 253 305 363
#     4  10  23  42  64  91 122 164 208 256 301 368
#     4  12  23  41  64  91 124 169 201 253 312 369
#     4  11  24  40  62  88 126 160 204 247 310 368
#
# _framework density 20.184078
#
# number of rings (size 3 to 8) (size 9 to 14) (size 15 to 20)
#    0.000    1.333    3.333    2.500    4.667    2.667 
#    0.000    0.000    0.000    0.000    0.000    0.000 
#    0.000    0.000    0.000    0.000    0.000    0.000 
#
# Total GULP energy -595276.064852 kJ/mol
# GULP energy per Si atom -12401.584684 kJ/mol
# Density = 2.013814 g / cm^3
# Si number density = 20.184078 Si / 1000 Ang^3
#
#
#
# Elastic Constant Matrix: (Units=GPa)
#
#
# Indices 1 2 3 4 5 6 
#
# 1 79.2406 33.5909 35.4658 0.0000 0.0000 0.0000
# 2 33.5909 86.6516 27.9624 0.0000 0.0000 0.0000
# 3 35.4658 27.9624 83.1025 0.0000 0.0000 0.0000
# 4 0.0000 0.0000 0.0000 37.9929 0.0000 0.0000
# 5 0.0000 0.0000 0.0000 0.0000 23.6485 0.0000
# 6 0.0000 0.0000 0.0000 0.0000 0.0000 18.8645
#
#
#
# Elastic Compliance Matrix: (Units=1/GPa)
#
#
# Indices 1 2 3 4 5 6 
#
# 1 0.017232 -0.004831 -0.005728 0.000000 0.000000 0.000000
# 2 -0.004831 0.014301 -0.002750 0.000000 0.000000 0.000000
# 3 -0.005728 -0.002750 0.015403 0.000000 0.000000 0.000000
# 4 0.000000 0.000000 0.000000 0.026321 0.000000 0.000000
# 5 0.000000 0.000000 0.000000 0.000000 0.042286 0.000000
# 6 0.000000 0.000000 0.000000 0.000000 0.000000 0.053010
#
#
# Mechanical properties :
#
#
# Convention : Reuss Voigt Hill
#
# Bulk Modulus (GPa) = 49.22152 49.22587 49.22370
# Shear Modulus (GPa) = 24.75936 26.23290 25.49613
#
# Velocity S-wave (km/s) = 3.50620 3.60902 3.55798
# Velocity P-wave (km/s) = 6.38987 6.46592 6.42801
#
# Compressibility (1/GPa) = 0.02031632
#
# Stress axis : x y z
#
# Youngs Moduli (GPa) = 58.03254 69.92602 64.92095
#
# Poissons Ratio (x) = 0.33784 0.37189
# Poissons Ratio (y) = 0.28038 0.17853
# Poissons Ratio (z) = 0.33243 0.19230
#
# Static dielectric constant tensor:
#      x y z
#    x 3.595900 0.000000 0.000000 
#    y 0.000000 3.691040 0.000000 
#    z 0.000000 0.000000 3.778190 
# 
# 
# High freq. dielectric constant tensor:
#      x y z
#    x 1.779950 0.000000 0.000000 
#    y 0.000000 1.792330 0.000000 
#    z 0.000000 0.000000 1.804430 
# 
# From -- ./inp_files/3583.got.cif
#   From: 2010.03.12/outbox.cif.g09.slc.cpg/sg54_2_cif.got.tgz:3583.got - 2010.04.16 15:00:50.
