data_PCOD8223845
_publ_section_title
;
Structure prediction by ZEFSAII (Michael W. Deem and Ramdas Pophale) SiO2 
 PCOD8223845
Probable space group: P C C A
;
_chemical_formula_sum "Si O2"
_cell_formula_units_Z 36
_cell_length_a 14.396791
_cell_length_b 11.739212
_cell_length_c 9.272820
_cell_angle_alpha 90.000000
_cell_angle_beta 90.000000
_cell_angle_gamma 90.000000
_cell_volume 1567.171320
_symmetry_space_group_name_H-M "P C C A"
_symmetry_group_IT_number 54
_symmetry_cell_setting 'orthorhombic'
loop_
_space_group_symop_operation_xyz
x,y,z
1/2-x,-y,z
1/2+x,-y,1/2-z
-x,y,1/2-z
-x,-y,-z
1/2+x,y,-z
1/2-x,y,1/2+z
x,-y,1/2+z
loop_
_atom_site_type_symbol
_atom_site_label
_atom_site_fract_x
_atom_site_fract_y
_atom_site_fract_z
Si Si1 0.372292 0.137093 0.394485
Si Si2 0.317242 0.608880 0.605028
Si Si3 0.399608 0.943850 0.201735
Si Si4 0.202964 0.740490 0.832359
Si Si5 0.000000 0.683151 0.250000
O O1 0.399284 0.059856 0.530062
O O2 0.275763 0.196156 0.436331
O O3 0.451028 0.233044 0.365584
O O4 0.343457 0.054064 0.260099
O O5 0.250000 0.500000 0.612280
O O6 0.260219 0.702149 0.692774
O O7 0.335936 0.640692 0.436603
O O8 0.421206 0.600937 0.676157
O O9 0.500000 0.982793 0.250000
O O10 0.377689 0.823246 0.277235
#
# Coordination Sequence:
#
# PCOD8223845 Si02
#       5
#     8   8   8   8   4
#     4  11  24  41  65 104 139 191 223 277 347 417
#     4  11  24  48  71  99 132 184 238 299 354 412
#     4  12  24  39  66 101 141 180 227 274 345 421
#     4  11  24  43  68  97 142 176 236 286 345 415
#     4  10  24  46  74 100 146 180 232 296 356 414
#
# _framework density 22.971323999999999
#
# number of rings (size 3 to 8) (size 9 to 14) (size 15 to 20)
#    0.000    0.889    3.333    3.333    6.222    1.778 
#    2.000    5.556    0.000    0.000    0.000    0.000 
#    0.000    0.000    0.000    0.000    0.000    0.000 
#
# Total GULP energy -446041.294432 kJ/mol
# GULP energy per Si atom -12390.035956 kJ/mol
# Density = 2.291904 g / cm^3
# Si number density = 22.971324 Si / 1000 Ang^3
#
#
#
# Elastic Constant Matrix: (Units=GPa)
#
#
# Indices 1 2 3 4 5 6 
#
# 1 80.4708 36.8018 24.2856 0.0000 0.0000 0.0000
# 2 36.8018 85.5660 22.1862 0.0000 0.0000 0.0000
# 3 24.2856 22.1862 106.5891 0.0000 0.0000 0.0000
# 4 0.0000 0.0000 0.0000 15.1282 0.0000 0.0000
# 5 0.0000 0.0000 0.0000 0.0000 23.4742 0.0000
# 6 0.0000 0.0000 0.0000 0.0000 0.0000 30.8538
#
#
#
# Elastic Compliance Matrix: (Units=1/GPa)
#
#
# Indices 1 2 3 4 5 6 
#
# 1 0.016003 -0.006276 -0.002340 0.000000 0.000000 0.000000
# 2 -0.006276 0.014815 -0.001654 0.000000 0.000000 0.000000
# 3 -0.002340 -0.001654 0.010259 0.000000 0.000000 0.000000
# 4 0.000000 0.000000 0.000000 0.066102 0.000000 0.000000
# 5 0.000000 0.000000 0.000000 0.000000 0.042600 0.000000
# 6 0.000000 0.000000 0.000000 0.000000 0.000000 0.032411
#
#
# Mechanical properties :
#
#
# Convention : Reuss Voigt Hill
#
# Bulk Modulus (GPa) = 48.69056 48.79700 48.74378
# Shear Modulus (GPa) = 23.85770 26.51472 25.18621
#
# Velocity S-wave (km/s) = 3.22621 3.40112 3.31481
# Velocity P-wave (km/s) = 5.92622 6.05905 5.99301
#
# Compressibility (1/GPa) = 0.02053786
#
# Stress axis : x y z
#
# Youngs Moduli (GPa) = 62.48676 67.49858 97.47387
#
# Poissons Ratio (x) = 0.42364 0.22807
# Poissons Ratio (y) = 0.39219 0.16119
# Poissons Ratio (z) = 0.14621 0.11162
#
# Static dielectric constant tensor:
#      x y z
#    x 4.332870 0.000000 0.000000 
#    y 0.000000 3.933720 0.000000 
#    z 0.000000 0.000000 4.178780 
# 
# 
# High freq. dielectric constant tensor:
#      x y z
#    x 1.911670 0.000000 0.000000 
#    y 0.000000 1.893890 0.000000 
#    z 0.000000 0.000000 1.913190 
# 
# From -- ./inp_files/8159.got.cif
#   From: 2010.03.12/outbox.cif.g09.slc.cpg/sg54_5_cif.got.tgz:8159.got - 2010.04.16 15:00:50.
