data_PCOD8223029
_publ_section_title
;
Structure prediction by ZEFSAII (Michael W. Deem and Ramdas Pophale) SiO2 
 PCOD8223029
Probable space group: P C C A
;
_chemical_formula_sum "Si O2"
_cell_formula_units_Z 52
_cell_length_a 23.578700
_cell_length_b 5.319294
_cell_length_c 18.071118
_cell_angle_alpha 90.000000
_cell_angle_beta 90.000000
_cell_angle_gamma 90.000000
_cell_volume 2266.516438
_symmetry_space_group_name_H-M "P C C A"
_symmetry_group_IT_number 54
_symmetry_cell_setting 'orthorhombic'
loop_
_space_group_symop_operation_xyz
x,y,z
1/2-x,-y,z
1/2+x,-y,1/2-z
-x,y,1/2-z
-x,-y,-z
1/2+x,y,-z
1/2-x,y,1/2+z
x,-y,1/2+z
loop_
_atom_site_type_symbol
_atom_site_label
_atom_site_fract_x
_atom_site_fract_y
_atom_site_fract_z
Si Si1 0.138886 0.167826 0.309712
Si Si2 0.401521 0.697327 0.159624
Si Si3 0.000000 0.435679 0.250000
Si Si4 0.549664 0.203542 0.132066
Si Si5 0.750000 0.000000 0.140116
Si Si6 0.750000 0.500000 0.546786
Si Si7 0.577093 0.183717 0.420890
Si Si8 0.871630 0.460796 0.047339
O O1 0.141639 0.286840 0.227913
O O2 0.147435 0.381717 0.370627
O O3 0.078798 0.034487 0.328443
O O4 0.192786 0.981463 0.311126
O O5 0.464221 0.736852 0.194344
O O6 0.397085 0.425141 0.122011
O O7 0.391084 0.926076 0.102268
O O8 0.957094 0.599483 0.199565
O O9 0.489401 0.146122 0.093770
O O10 0.588587 0.297528 0.062760
O O11 0.750774 0.245649 0.091568
O O12 0.688569 0.511758 0.503040
O O13 0.591169 0.243840 0.506648
#
# Coordination Sequence:
#
# PCOD8223029 Si02
#       8
#     8   8   4   8   4   4   8   8
#     4  11  22  40  69  91 125 169 220 267 319 378
#     4  11  23  42  60  92 130 169 205 254 319 385
#     4  10  20  40  60  96 124 176 202 260 318 394
#     4  11  21  39  64  93 130 163 214 258 326 378
#     4  10  22  38  64  98 118 156 222 280 308 362
#     4  10  22  42  64  90 126 162 218 266 322 374
#     4  11  27  39  62  94 137 164 207 259 326 390
#     4  11  24  42  64  95 122 170 214 268 313 378
#
# _framework density 22.942699000000001
#
# number of rings (size 3 to 8) (size 9 to 14) (size 15 to 20)
#    0.000    1.231    3.077    3.231    4.308    1.231 
#    0.000    1.538    0.000    0.000    0.000    0.000 
#    0.000    0.000    0.000    0.000    0.000    0.000 
#
# Total GULP energy -644247.308179 kJ/mol
# GULP energy per Si atom -12389.371311 kJ/mol
# Density = 2.289048 g / cm^3
# Si number density = 22.942699 Si / 1000 Ang^3
#
#
#
# Elastic Constant Matrix: (Units=GPa)
#
#
# Indices 1 2 3 4 5 6 
#
# 1 118.1951 2.5234 7.5517 0.0000 0.0000 0.0000
# 2 2.5234 80.5619 -8.5960 0.0000 0.0000 0.0000
# 3 7.5517 -8.5960 46.4347 0.0000 0.0000 0.0000
# 4 0.0000 0.0000 0.0000 29.7940 0.0000 0.0000
# 5 0.0000 0.0000 0.0000 0.0000 17.5624 0.0000
# 6 0.0000 0.0000 0.0000 0.0000 0.0000 23.8394
#
#
#
# Elastic Compliance Matrix: (Units=1/GPa)
#
#
# Indices 1 2 3 4 5 6 
#
# 1 0.008564 -0.000425 -0.001471 0.000000 0.000000 0.000000
# 2 -0.000425 0.012684 0.002417 0.000000 0.000000 0.000000
# 3 -0.001471 0.002417 0.022222 0.000000 0.000000 0.000000
# 4 0.000000 0.000000 0.000000 0.033564 0.000000 0.000000
# 5 0.000000 0.000000 0.000000 0.000000 0.056940 0.000000
# 6 0.000000 0.000000 0.000000 0.000000 0.000000 0.041947
#
#
# Mechanical properties :
#
#
# Convention : Reuss Voigt Hill
#
# Bulk Modulus (GPa) = 22.46622 27.57221 25.01922
# Shear Modulus (GPa) = 26.35503 30.48667 28.42085
#
# Velocity S-wave (km/s) = 3.39297 3.64925 3.52344
# Velocity P-wave (km/s) = 5.01630 5.45894 5.24229
#
# Compressibility (1/GPa) = 0.04451127
#
# Stress axis : x y z
#
# Youngs Moduli (GPa) = 116.77224 78.83915 44.99962
#
# Poissons Ratio (x) = 0.03353 0.06621
# Poissons Ratio (y) = 0.04966 -0.10877
# Poissons Ratio (z) = 0.17182 -0.19057
#
# Static dielectric constant tensor:
#      x y z
#    x 4.933220 0.000000 0.000000 
#    y 0.000000 3.967500 0.000000 
#    z 0.000000 0.000000 4.099200 
# 
# 
# High freq. dielectric constant tensor:
#      x y z
#    x 1.906790 0.000000 0.000000 
#    y 0.000000 1.910060 0.000000 
#    z 0.000000 0.000000 1.883660 
# 
# From -- ./inp_files/19222.got.cif
#   From: 2010.03.12/outbox.cif.g09.slc.cpg/sg54_10_cif.got.tgz:19222.got - 2010.04.16 15:00:50.
