data_PCOD8223906
_publ_section_title
;
Structure prediction by ZEFSAII (Michael W. Deem and Ramdas Pophale) SiO2 
 PCOD8223906
Probable space group: P C C A
;
_chemical_formula_sum "Si O2"
_cell_formula_units_Z 40
_cell_length_a 8.445454
_cell_length_b 17.960321
_cell_length_c 10.679364
_cell_angle_alpha 90.000000
_cell_angle_beta 90.000000
_cell_angle_gamma 90.000000
_cell_volume 1619.878662
_symmetry_space_group_name_H-M "P C C A"
_symmetry_group_IT_number 54
_symmetry_cell_setting 'orthorhombic'
loop_
_space_group_symop_operation_xyz
x,y,z
1/2-x,-y,z
1/2+x,-y,1/2-z
-x,y,1/2-z
-x,-y,-z
1/2+x,y,-z
1/2-x,y,1/2+z
x,-y,1/2+z
loop_
_atom_site_type_symbol
_atom_site_label
_atom_site_fract_x
_atom_site_fract_y
_atom_site_fract_z
Si Si1 0.000000 0.290045 0.750000
Si Si2 0.250000 0.000000 0.075683
Si Si3 0.698191 0.343743 0.461943
Si Si4 0.280383 0.199341 0.402112
Si Si5 0.989561 0.439524 0.390229
Si Si6 0.504038 0.897896 0.065700
O O1 0.045641 0.340185 0.630853
O O2 0.151607 0.238037 0.778359
O O3 0.370118 0.044555 0.988691
O O4 0.132049 0.057999 0.150849
O O5 0.758333 0.260810 0.489276
O O6 0.826505 0.394933 0.395661
O O7 0.635476 0.382356 0.589453
O O8 0.109860 0.163687 0.362506
O O9 0.407067 0.139428 0.451776
O O10 0.000000 0.474285 0.250000
O O11 0.000000 0.500000 0.500000
#
# Coordination Sequence:
#
# PCOD8223906 Si02
#       6
#     4   4   8   8   8   8
#     4  12  24  40  74 102 144 184 238 314 368 436
#     4   8  16  30  60  94 130 188 236 292 356 438
#     4  12  25  47  72 105 145 186 243 305 371 435
#     4  11  20  38  65  99 135 182 240 302 365 432
#     4  12  29  48  76 107 148 196 246 296 369 444
#     4   9  17  33  60  98 130 183 241 288 369 421
#
# _framework density 24.693207999999998
#
# number of rings (size 3 to 8) (size 9 to 14) (size 15 to 20)
#    0.000    1.200    4.000    1.800    1.400    1.600 
#    0.000    0.000    0.000    7.200    0.000    0.000 
#    0.000    0.000    0.000    0.000    0.000    0.000 
#
# Total GULP energy -495575.525912 kJ/mol
# GULP energy per Si atom -12389.388148 kJ/mol
# Density = 2.463700 g / cm^3
# Si number density = 24.693208 Si / 1000 Ang^3
#
#
#
# Elastic Constant Matrix: (Units=GPa)
#
#
# Indices 1 2 3 4 5 6 
#
# 1 154.0859 65.7032 33.5616 0.0000 0.0000 0.0000
# 2 65.7032 123.5325 42.2069 0.0000 0.0000 0.0000
# 3 33.5616 42.2069 108.1689 0.0000 0.0000 0.0000
# 4 0.0000 0.0000 0.0000 18.9117 0.0000 0.0000
# 5 0.0000 0.0000 0.0000 0.0000 33.5361 0.0000
# 6 0.0000 0.0000 0.0000 0.0000 0.0000 46.0050
#
#
#
# Elastic Compliance Matrix: (Units=1/GPa)
#
#
# Indices 1 2 3 4 5 6 
#
# 1 0.008487 -0.004170 -0.001006 0.000000 0.000000 0.000000
# 2 -0.004170 0.011389 -0.003150 0.000000 0.000000 0.000000
# 3 -0.001006 -0.003150 0.010786 0.000000 0.000000 0.000000
# 4 0.000000 0.000000 0.000000 0.052877 0.000000 0.000000
# 5 0.000000 0.000000 0.000000 0.000000 0.029819 0.000000
# 6 0.000000 0.000000 0.000000 0.000000 0.000000 0.021737
#
#
# Mechanical properties :
#
#
# Convention : Reuss Voigt Hill
#
# Bulk Modulus (GPa) = 71.37958 74.30342 72.84150
# Shear Modulus (GPa) = 31.96549 35.97827 33.97188
#
# Velocity S-wave (km/s) = 3.60183 3.82122 3.71315
# Velocity P-wave (km/s) = 6.80197 7.04450 6.92430
#
# Compressibility (1/GPa) = 0.01400961
#
# Stress axis : x y z
#
# Youngs Moduli (GPa) = 117.82297 87.80060 92.71169
#
# Poissons Ratio (x) = 0.36616 0.09328
# Poissons Ratio (y) = 0.49137 0.29206
# Poissons Ratio (z) = 0.11854 0.27658
#
# Static dielectric constant tensor:
#      x y z
#    x 5.151080 0.000000 0.000000 
#    y 0.000000 5.016260 0.000000 
#    z 0.000000 0.000000 3.845900 
# 
# 
# High freq. dielectric constant tensor:
#      x y z
#    x 2.014480 0.000000 0.000000 
#    y 0.000000 2.000590 0.000000 
#    z 0.000000 0.000000 1.934790 
# 
# From -- ./inp_files/6922.got.cif
#   From: 2010.03.12/outbox.cif.g09.slc.cpg/sg54_4_cif.got.tgz:6922.got - 2010.04.16 15:00:50.
