data_PCOD8223704
_publ_section_title
;
Structure prediction by ZEFSAII (Michael W. Deem and Ramdas Pophale) SiO2 
 PCOD8223704
Probable space group: P C C A
;
_chemical_formula_sum "Si O2"
_cell_formula_units_Z 60
_cell_length_a 7.717295
_cell_length_b 19.708053
_cell_length_c 16.763641
_cell_angle_alpha 90.000000
_cell_angle_beta 90.000000
_cell_angle_gamma 90.000000
_cell_volume 2549.630085
_symmetry_space_group_name_H-M "P C C A"
_symmetry_group_IT_number 54
_symmetry_cell_setting 'orthorhombic'
loop_
_space_group_symop_operation_xyz
x,y,z
1/2-x,-y,z
1/2+x,-y,1/2-z
-x,y,1/2-z
-x,-y,-z
1/2+x,y,-z
1/2-x,y,1/2+z
x,-y,1/2+z
loop_
_atom_site_type_symbol
_atom_site_label
_atom_site_fract_x
_atom_site_fract_y
_atom_site_fract_z
Si Si1 0.001428 0.513496 0.657906
Si Si2 0.007674 0.286188 0.841349
Si Si3 0.118972 0.174618 0.565234
Si Si4 0.809330 0.632486 0.912251
Si Si5 0.827782 0.925974 0.305373
Si Si6 0.488860 0.233047 0.592932
Si Si7 0.000000 0.162261 0.250000
Si Si8 0.304027 0.599604 0.907894
O O1 0.982125 0.445699 0.602924
O O2 0.839763 0.561477 0.641149
O O3 0.000000 0.491501 0.750000
O O4 0.164027 0.561551 0.635950
O O5 0.031311 0.216417 0.889462
O O6 0.840819 0.328871 0.867012
O O7 0.000000 0.266927 0.750000
O O8 0.177899 0.327985 0.864669
O O9 0.120296 0.099066 0.604035
O O10 0.292441 0.210971 0.589851
O O11 0.091289 0.185545 0.471094
O O12 0.980011 0.683954 0.918762
O O13 0.755668 0.610240 0.000619
O O14 0.671088 0.881470 0.269528
O O15 0.000000 0.925012 0.250000
O O16 0.750000 0.000000 0.315257
O O17 0.561664 0.211822 0.678819
#
# Coordination Sequence:
#
# PCOD8223704 Si02
#       8
#     8   8   8   8   8   8   4   8
#     4  11  25  41  61  92 123 168 223 275 340 416
#     4  11  22  40  64  95 131 170 223 284 342 408
#     4  10  23  42  65 105 136 183 231 282 349 420
#     4  11  23  41  64  96 127 178 222 278 352 415
#     4  11  23  45  74 106 146 195 240 290 353 428
#     4  10  23  42  68 101 144 180 231 293 348 416
#     4  10  24  46  70 106 146 188 242 296 352 418
#     4  11  23  42  63  88 126 171 216 282 338 409
#
# _framework density 23.532826
#
# number of rings (size 3 to 8) (size 9 to 14) (size 15 to 20)
#    0.000    1.333    2.000    2.800    4.667    2.667 
#    2.400    3.333    0.000    0.000    0.000    0.000 
#    0.000    0.000    0.000    0.000    0.000    0.000 
#
# Total GULP energy -743472.053470 kJ/mol
# GULP energy per Si atom -12391.200891 kJ/mol
# Density = 2.347926 g / cm^3
# Si number density = 23.532826 Si / 1000 Ang^3
#
#
#
# Elastic Constant Matrix: (Units=GPa)
#
#
# Indices 1 2 3 4 5 6 
#
# 1 25.3255 -7.2675 2.4451 0.0000 0.0000 0.0000
# 2 -7.2675 95.4469 35.6045 0.0000 0.0000 0.0000
# 3 2.4451 35.6045 160.7821 0.0000 0.0000 0.0000
# 4 0.0000 0.0000 0.0000 29.3010 0.0000 0.0000
# 5 0.0000 0.0000 0.0000 0.0000 30.3679 0.0000
# 6 0.0000 0.0000 0.0000 0.0000 0.0000 11.1564
#
#
#
# Elastic Compliance Matrix: (Units=1/GPa)
#
#
# Indices 1 2 3 4 5 6 
#
# 1 0.040664 0.003626 -0.001421 0.000000 0.000000 0.000000
# 2 0.003626 0.011744 -0.002656 0.000000 0.000000 0.000000
# 3 -0.001421 -0.002656 0.006829 0.000000 0.000000 0.000000
# 4 0.000000 0.000000 0.000000 0.034128 0.000000 0.000000
# 5 0.000000 0.000000 0.000000 0.000000 0.032930 0.000000
# 6 0.000000 0.000000 0.000000 0.000000 0.000000 0.089635
#
#
# Mechanical properties :
#
#
# Convention : Reuss Voigt Hill
#
# Bulk Modulus (GPa) = 17.14225 38.12433 27.63329
# Shear Modulus (GPa) = 21.16163 30.88321 26.02242
#
# Velocity S-wave (km/s) = 3.00198 3.62656 3.32895
# Velocity P-wave (km/s) = 4.39501 5.81133 5.15207
#
# Compressibility (1/GPa) = 0.05833539
#
# Stress axis : x y z
#
# Youngs Moduli (GPa) = 24.59188 85.15109 146.42738
#
# Poissons Ratio (x) = -0.30880 0.20814
# Poissons Ratio (y) = -0.08918 0.38888
# Poissons Ratio (z) = 0.03496 0.22614
#
# Static dielectric constant tensor:
#      x y z
#    x 4.733500 0.000000 0.000000 
#    y 0.000000 5.068100 0.000000 
#    z 0.000000 0.000000 4.122060 
# 
# 
# High freq. dielectric constant tensor:
#      x y z
#    x 1.946620 0.000000 0.000000 
#    y 0.000000 1.929730 0.000000 
#    z 0.000000 0.000000 1.929010 
# 
# From -- ./inp_files/16807.got.cif
#   From: 2010.03.12/outbox.cif.g09.slc.cpg/sg54_9_cif.got.tgz:16807.got - 2010.04.16 15:00:50.
