data_PCOD8223705
_publ_section_title
;
Structure prediction by ZEFSAII (Michael W. Deem and Ramdas Pophale) SiO2 
 PCOD8223705
Probable space group: P C C A
;
_chemical_formula_sum "Si O2"
_cell_formula_units_Z 48
_cell_length_a 17.398847
_cell_length_b 9.007772
_cell_length_c 14.642149
_cell_angle_alpha 90.000000
_cell_angle_beta 90.000000
_cell_angle_gamma 90.000000
_cell_volume 2294.788559
_symmetry_space_group_name_H-M "P C C A"
_symmetry_group_IT_number 54
_symmetry_cell_setting 'orthorhombic'
loop_
_space_group_symop_operation_xyz
x,y,z
1/2-x,-y,z
1/2+x,-y,1/2-z
-x,y,1/2-z
-x,-y,-z
1/2+x,y,-z
1/2-x,y,1/2+z
x,-y,1/2+z
loop_
_atom_site_type_symbol
_atom_site_label
_atom_site_fract_x
_atom_site_fract_y
_atom_site_fract_z
Si Si1 0.458801 0.653600 0.018799
Si Si2 0.048974 0.916618 0.925428
Si Si3 0.289102 0.653119 0.067774
Si Si4 0.214120 0.151486 0.422408
Si Si5 0.233781 0.673363 0.264249
Si Si6 0.066444 0.796677 0.321661
O O1 0.505759 0.759245 0.089878
O O2 0.379533 0.623129 0.071210
O O3 0.500000 0.500000 0.000000
O O4 0.448612 0.727539 0.920205
O O5 0.131439 0.873093 0.968142
O O6 0.063357 0.022342 0.836311
O O7 0.000000 0.000000 0.000000
O O8 0.250000 0.500000 0.038195
O O9 0.255936 0.717353 0.161828
O O10 0.273069 0.777451 0.993169
O O11 0.205780 0.251716 0.332478
O O12 0.250000 0.000000 0.387644
O O13 0.250000 0.500000 0.277196
O O14 0.147332 0.732172 0.284477
O O15 0.000000 0.751610 0.250000
#
# Coordination Sequence:
#
# PCOD8223705 Si02
#       6
#     8   8   8   8   8   8
#     4  11  24  44  70 105 137 185 235 290 362 427
#     4  10  23  42  65  96 135 176 227 278 355 422
#     4  11  25  44  69 101 140 183 235 289 355 420
#     4  12  22  44  70  97 135 182 230 291 348 420
#     4  11  26  44  67 102 137 181 238 288 352 421
#     4  11  25  45  67  98 141 180 232 293 362 426
#
# _framework density 20.916958999999999
#
# number of rings (size 3 to 8) (size 9 to 14) (size 15 to 20)
#    0.000    1.000    3.333    2.500   11.667    2.000 
#    0.000    0.833    0.000    0.000    0.000    0.000 
#    0.000    0.000    0.000    0.000    0.000    0.000 
#
# Total GULP energy -594938.791480 kJ/mol
# GULP energy per Si atom -12394.558156 kJ/mol
# Density = 2.086935 g / cm^3
# Si number density = 20.916959 Si / 1000 Ang^3
#
#
#
# Elastic Constant Matrix: (Units=GPa)
#
#
# Indices 1 2 3 4 5 6 
#
# 1 167.5492 56.0761 25.7487 0.0000 0.0000 0.0000
# 2 56.0761 127.8645 45.9725 0.0000 0.0000 0.0000
# 3 25.7487 45.9725 94.1074 0.0000 0.0000 0.0000
# 4 0.0000 0.0000 0.0000 -22.4128 0.0000 0.0000
# 5 0.0000 0.0000 0.0000 0.0000 28.6486 0.0000
# 6 0.0000 0.0000 0.0000 0.0000 0.0000 41.4038
#
#
#
# Elastic Compliance Matrix: (Units=1/GPa)
#
#
# Indices 1 2 3 4 5 6 
#
# 1 0.007015 -0.002895 -0.000505 0.000000 0.000000 0.000000
# 2 -0.002895 0.010682 -0.004426 0.000000 0.000000 0.000000
# 3 -0.000505 -0.004426 0.012927 0.000000 0.000000 0.000000
# 4 0.000000 0.000000 0.000000 -0.044617 0.000000 0.000000
# 5 0.000000 0.000000 0.000000 0.000000 0.034906 0.000000
# 6 0.000000 0.000000 0.000000 0.000000 0.000000 0.024152
#
#
# Mechanical properties :
#
#
# Convention : Reuss Voigt Hill
#
# Bulk Modulus (GPa) = 66.79586 71.67952 69.23769
# Shear Modulus (GPa) = 76.09621 26.97617 51.53619
#
# Velocity S-wave (km/s) = 6.03814 3.59511 4.96910
# Velocity P-wave (km/s) = 8.97860 7.18165 8.12993
#
# Compressibility (1/GPa) = 0.01497099
#
# Stress axis : x y z
#
# Youngs Moduli (GPa) = 142.55418 93.61826 77.36006
#
# Poissons Ratio (x) = 0.27101 0.03908
# Poissons Ratio (y) = 0.41267 0.34240
# Poissons Ratio (z) = 0.07202 0.41436
#
# Static dielectric constant tensor:
#      x y z
#    x 4.128080 0.000000 0.000000 
#    y 0.000000 4.775750 0.000000 
#    z 0.000000 0.000000 3.755380 
# 
# 
# High freq. dielectric constant tensor:
#      x y z
#    x 1.835600 0.000000 0.000000 
#    y 0.000000 1.836410 0.000000 
#    z 0.000000 0.000000 1.802870 
# 
# From -- ./inp_files/14108.got.cif
#   From: 2010.03.12/outbox.cif.g09.slc.cpg/sg54_8_cif.got.tgz:14108.got - 2010.04.16 15:00:50.
