data_PCOD8223425
_publ_section_title
;
Structure prediction by ZEFSAII (Michael W. Deem and Ramdas Pophale) SiO2 
 PCOD8223425
Probable space group: P C C A
;
_chemical_formula_sum "Si O2"
_cell_formula_units_Z 64
_cell_length_a 24.654380
_cell_length_b 13.542018
_cell_length_c 9.330926
_cell_angle_alpha 90.000000
_cell_angle_beta 90.000000
_cell_angle_gamma 90.000000
_cell_volume 3115.316802
_symmetry_space_group_name_H-M "P C C A"
_symmetry_group_IT_number 54
_symmetry_cell_setting 'orthorhombic'
loop_
_space_group_symop_operation_xyz
x,y,z
1/2-x,-y,z
1/2+x,-y,1/2-z
-x,y,1/2-z
-x,-y,-z
1/2+x,y,-z
1/2-x,y,1/2+z
x,-y,1/2+z
loop_
_atom_site_type_symbol
_atom_site_label
_atom_site_fract_x
_atom_site_fract_y
_atom_site_fract_z
Si Si1 0.410525 0.051517 0.516262
Si Si2 0.101538 0.630990 0.451446
Si Si3 0.817258 0.802411 0.055727
Si Si4 0.512398 0.203391 0.085858
Si Si5 0.262413 0.886382 0.219485
Si Si6 0.877492 0.103090 0.186193
Si Si7 0.552737 0.276377 0.651992
Si Si8 0.563839 0.521587 0.259713
O O1 0.366544 0.121395 0.440406
O O2 0.469203 0.099099 0.483769
O O3 0.397748 0.035965 0.682322
O O4 0.405477 0.941540 0.454117
O O5 0.159628 0.689101 0.456244
O O6 0.055643 0.712669 0.446898
O O7 0.099673 0.567821 0.303799
O O8 0.087238 0.558388 0.586235
O O9 0.785082 0.824529 0.203147
O O10 0.778217 0.824532 0.921388
O O11 0.500000 0.186275 0.250000
O O12 0.457528 0.239581 0.009327
O O13 0.312919 0.892700 0.329392
O O14 0.250000 0.000000 0.176740
O O15 0.898231 0.213541 0.218571
O O16 0.500000 0.261304 0.750000
O O17 0.571250 0.388949 0.647863
O O18 0.500000 0.490538 0.250000
#
# Coordination Sequence:
#
# PCOD8223425 Si02
#       8
#     8   8   8   8   8   8   8   8
#     4  10  22  38  55  87 125 167 203 255 309 371
#     4  11  23  42  64  95 128 160 208 266 316 371
#     4  10  23  42  64  93 129 156 206 269 318 368
#     4  11  23  38  56  87 129 166 207 251 305 378
#     4  11  21  40  68  94 121 161 211 259 310 370
#     4  11  23  37  61  87 126 164 212 256 313 377
#     4  11  21  41  58  85 128 169 204 252 315 368
#     4  11  21  38  68  94 124 168 209 256 308 373
#
# _framework density 20.543658000000001
#
# number of rings (size 3 to 8) (size 9 to 14) (size 15 to 20)
#    0.000    1.250    5.000    2.625    5.250    1.000 
#    2.250    1.250    0.000    6.000    0.000    0.000 
#    0.000    0.000    0.000    0.000    0.000    0.000 
#
# Total GULP energy -793257.347489 kJ/mol
# GULP energy per Si atom -12394.646055 kJ/mol
# Density = 2.049690 g / cm^3
# Si number density = 20.543658 Si / 1000 Ang^3
#
#
#
# Elastic Constant Matrix: (Units=GPa)
#
#
# Indices 1 2 3 4 5 6 
#
# 1 54.7915 39.5648 28.0094 0.0000 0.0000 0.0000
# 2 39.5648 96.0125 24.7307 0.0000 0.0000 0.0000
# 3 28.0094 24.7307 73.4978 0.0000 0.0000 0.0000
# 4 0.0000 0.0000 0.0000 27.7112 0.0000 0.0000
# 5 0.0000 0.0000 0.0000 0.0000 21.1635 0.0000
# 6 0.0000 0.0000 0.0000 0.0000 0.0000 25.9350
#
#
#
# Elastic Compliance Matrix: (Units=1/GPa)
#
#
# Indices 1 2 3 4 5 6 
#
# 1 0.029623 -0.010182 -0.007863 0.000000 0.000000 0.000000
# 2 -0.010182 0.014903 -0.001135 0.000000 0.000000 0.000000
# 3 -0.007863 -0.001135 0.016984 0.000000 0.000000 0.000000
# 4 0.000000 0.000000 0.000000 0.036087 0.000000 0.000000
# 5 0.000000 0.000000 0.000000 0.000000 0.047251 0.000000
# 6 0.000000 0.000000 0.000000 0.000000 0.000000 0.038558
#
#
# Mechanical properties :
#
#
# Convention : Reuss Voigt Hill
#
# Bulk Modulus (GPa) = 43.19339 45.43463 44.31401
# Shear Modulus (GPa) = 21.78831 23.76174 22.77503
#
# Velocity S-wave (km/s) = 3.26020 3.40464 3.33320
# Velocity P-wave (km/s) = 5.93655 6.13348 6.03582
#
# Compressibility (1/GPa) = 0.02315169
#
# Stress axis : x y z
#
# Youngs Moduli (GPa) = 33.75800 67.09989 58.87852
#
# Poissons Ratio (x) = 0.68318 0.46296
# Poissons Ratio (y) = 0.34371 0.06680
# Poissons Ratio (z) = 0.26544 0.07613
#
# Static dielectric constant tensor:
#      x y z
#    x 3.714120 0.000000 0.000000 
#    y 0.000000 3.844850 0.000000 
#    z 0.000000 0.000000 3.792520 
# 
# 
# High freq. dielectric constant tensor:
#      x y z
#    x 1.779850 0.000000 0.000000 
#    y 0.000000 1.799830 0.000000 
#    z 0.000000 0.000000 1.807760 
# 
# From -- ./inp_files/5292.got.cif
#   From: 2010.03.12/outbox.cif.g09.slc.cpg/sg54_3_cif.got.tgz:5292.got - 2010.04.16 15:00:50.
