data_PCOD8223232
_publ_section_title
;
Structure prediction by ZEFSAII (Michael W. Deem and Ramdas Pophale) SiO2 
 PCOD8223232
Probable space group: P C C A
;
_chemical_formula_sum "Si O2"
_cell_formula_units_Z 52
_cell_length_a 8.046030
_cell_length_b 11.338943
_cell_length_c 28.500038
_cell_angle_alpha 90.000000
_cell_angle_beta 90.000000
_cell_angle_gamma 90.000000
_cell_volume 2600.157520
_symmetry_space_group_name_H-M "P C C A"
_symmetry_group_IT_number 54
_symmetry_cell_setting 'orthorhombic'
loop_
_space_group_symop_operation_xyz
x,y,z
1/2-x,-y,z
1/2+x,-y,1/2-z
-x,y,1/2-z
-x,-y,-z
1/2+x,y,-z
1/2-x,y,1/2+z
x,-y,1/2+z
loop_
_atom_site_type_symbol
_atom_site_label
_atom_site_fract_x
_atom_site_fract_y
_atom_site_fract_z
Si Si1 0.429849 0.641612 0.948158
Si Si2 0.482129 0.433538 0.618479
Si Si3 0.261217 0.747476 0.865216
Si Si4 0.750000 0.000000 0.612453
Si Si5 0.297568 0.307426 0.544682
Si Si6 0.419316 0.427060 0.299626
Si Si7 0.067425 0.951173 0.548535
O O1 0.425279 0.519139 0.918953
O O2 0.328329 0.737485 0.918493
O O3 0.602218 0.710145 0.956839
O O4 0.349455 0.617002 0.998880
O O5 0.587744 0.320523 0.634317
O O6 0.319915 0.385284 0.592207
O O7 0.448706 0.503942 0.666861
O O8 0.250637 0.885865 0.853960
O O9 0.381790 0.695974 0.825219
O O10 0.577106 0.011434 0.584149
O O11 0.408643 0.189932 0.546195
O O12 0.250000 0.500000 0.293923
O O13 0.500000 0.400393 0.250000
O O14 0.250000 0.000000 0.562397
O O15 0.000000 0.000000 0.500000
#
# Coordination Sequence:
#
# PCOD8223232 Si02
#       7
#     8   8   8   4   8   8   8
#     4  11  23  34  54  81 118 159 197 248 301 350
#     4  10  21  39  56  85 118 151 191 241 306 370
#     4  10  21  40  59  86 116 159 202 245 300 368
#     4  12  22  40  64  80 122 170 208 258 306 342
#     4  12  22  36  52  82 118 157 207 248 295 355
#     4   9  20  38  65  93 118 143 185 242 309 379
#     4  12  24  37  54  82 119 170 225 258 291 351
#
# _framework density 19.998788000000001
#
# number of rings (size 3 to 8) (size 9 to 14) (size 15 to 20)
#    0.000    1.231    2.308    6.000    0.000    3.692 
#    0.000    0.000    0.000    3.692    0.000    0.000 
#    0.000    0.000    0.000    0.000    0.000    0.000 
#
# Total GULP energy -644393.067456 kJ/mol
# GULP energy per Si atom -12392.174374 kJ/mol
# Density = 1.995327 g / cm^3
# Si number density = 19.998788 Si / 1000 Ang^3
#
#
#
# Elastic Constant Matrix: (Units=GPa)
#
#
# Indices 1 2 3 4 5 6 
#
# 1 78.3355 8.9329 28.0534 0.0000 0.0000 0.0000
# 2 8.9329 124.5758 32.8712 0.0000 0.0000 0.0000
# 3 28.0534 32.8712 124.4899 0.0000 0.0000 0.0000
# 4 0.0000 0.0000 0.0000 15.2351 0.0000 0.0000
# 5 0.0000 0.0000 0.0000 0.0000 26.3578 0.0000
# 6 0.0000 0.0000 0.0000 0.0000 0.0000 24.3771
#
#
#
# Elastic Compliance Matrix: (Units=1/GPa)
#
#
# Indices 1 2 3 4 5 6 
#
# 1 0.013890 -0.000183 -0.003082 0.000000 0.000000 0.000000
# 2 -0.000183 0.008631 -0.002238 0.000000 0.000000 0.000000
# 3 -0.003082 -0.002238 0.009318 0.000000 0.000000 0.000000
# 4 0.000000 0.000000 0.000000 0.065638 0.000000 0.000000
# 5 0.000000 0.000000 0.000000 0.000000 0.037939 0.000000
# 6 0.000000 0.000000 0.000000 0.000000 0.000000 0.041022
#
#
# Mechanical properties :
#
#
# Convention : Reuss Voigt Hill
#
# Bulk Modulus (GPa) = 47.99783 51.90180 49.94981
# Shear Modulus (GPa) = 25.72179 30.36361 28.04270
#
# Velocity S-wave (km/s) = 3.59021 3.90073 3.74869
# Velocity P-wave (km/s) = 6.42173 6.80415 6.61570
#
# Compressibility (1/GPa) = 0.02083428
#
# Stress axis : x y z
#
# Youngs Moduli (GPa) = 71.99369 115.86395 107.31771
#
# Poissons Ratio (x) = 0.02118 0.33073
# Poissons Ratio (y) = 0.01316 0.24015
# Poissons Ratio (z) = 0.22187 0.25927
#
# Static dielectric constant tensor:
#      x y z
#    x 3.784270 0.000000 0.000000 
#    y 0.000000 3.789700 0.000000 
#    z 0.000000 0.000000 3.500220 
# 
# 
# High freq. dielectric constant tensor:
#      x y z
#    x 1.786090 0.000000 0.000000 
#    y 0.000000 1.784320 0.000000 
#    z 0.000000 0.000000 1.747330 
# 
# From -- ./inp_files/25885.got.cif
#   From: 2010.03.12/outbox.cif.g09.slc.cpg/sg54_13_cif.got.tgz:25885.got - 2010.04.16 15:00:50.
