data_PCOD8223453
_publ_section_title
;
Structure prediction by ZEFSAII (Michael W. Deem and Ramdas Pophale) SiO2 
 PCOD8223453
Probable space group: P C C A
;
_chemical_formula_sum "Si O2"
_cell_formula_units_Z 48
_cell_length_a 8.709114
_cell_length_b 8.346196
_cell_length_c 31.178008
_cell_angle_alpha 90.000000
_cell_angle_beta 90.000000
_cell_angle_gamma 90.000000
_cell_volume 2266.266186
_symmetry_space_group_name_H-M "P C C A"
_symmetry_group_IT_number 54
_symmetry_cell_setting 'orthorhombic'
loop_
_space_group_symop_operation_xyz
x,y,z
1/2-x,-y,z
1/2+x,-y,1/2-z
-x,y,1/2-z
-x,-y,-z
1/2+x,y,-z
1/2-x,y,1/2+z
x,-y,1/2+z
loop_
_atom_site_type_symbol
_atom_site_label
_atom_site_fract_x
_atom_site_fract_y
_atom_site_fract_z
Si Si1 0.250000 0.000000 0.709641
Si Si2 0.897202 0.604119 0.078134
Si Si3 0.240149 0.813901 0.983075
Si Si4 0.000000 0.217491 0.750000
Si Si5 0.520277 0.596008 0.833509
Si Si6 0.147573 0.265717 0.151419
Si Si7 0.927101 0.308474 0.443587
O O1 0.351756 0.888741 0.740099
O O2 0.134851 0.894880 0.679964
O O3 0.750000 0.500000 0.066091
O O4 0.873802 0.768136 0.051681
O O5 0.900736 0.639674 0.128834
O O6 0.046120 0.499992 0.063457
O O7 0.071092 0.774076 0.966585
O O8 0.250000 0.000000 0.992884
O O9 0.277089 0.717858 0.027089
O O10 0.955326 0.331823 0.710388
O O11 0.677950 0.677008 0.847657
O O12 0.538786 0.404049 0.828619
O O13 0.098414 0.226468 0.102794
#
# Coordination Sequence:
#
# PCOD8223453 Si02
#       7
#     4   8   8   4   8   8   8
#     4  10  22  42  64  94 124 156 198 252 316 366
#     4   9  20  40  56  84 118 157 201 252 305 356
#     4  11  23  36  56  87 120 153 206 252 301 351
#     4  10  22  42  62  96 120 156 204 248 308 376
#     4   9  19  40  62  86 116 158 204 243 302 374
#     4   9  20  38  64  85 121 163 197 240 308 370
#     4  10  22  39  59  85 118 162 204 244 299 360
#
# _framework density 21.180212000000001
#
# number of rings (size 3 to 8) (size 9 to 14) (size 15 to 20)
#    0.000    2.333    0.000    1.000    3.500    3.333 
#   22.500    0.000    0.000    0.000    0.000    0.000 
#    0.000    0.000    0.000    0.000    0.000    0.000 
#
# Total GULP energy -595164.113341 kJ/mol
# GULP energy per Si atom -12399.252361 kJ/mol
# Density = 2.113200 g / cm^3
# Si number density = 21.180212 Si / 1000 Ang^3
#
#
#
# Elastic Constant Matrix: (Units=GPa)
#
#
# Indices 1 2 3 4 5 6 
#
# 1 48.4239 23.4237 52.4835 0.0000 0.0000 0.0000
# 2 23.4237 94.2699 75.8730 0.0000 0.0000 0.0000
# 3 52.4835 75.8730 176.8738 0.0000 0.0000 0.0000
# 4 0.0000 0.0000 0.0000 24.2251 0.0000 0.0000
# 5 0.0000 0.0000 0.0000 0.0000 39.5450 0.0000
# 6 0.0000 0.0000 0.0000 0.0000 0.0000 23.7777
#
#
#
# Elastic Compliance Matrix: (Units=1/GPa)
#
#
# Indices 1 2 3 4 5 6 
#
# 1 0.030453 -0.000449 -0.008844 0.000000 0.000000 0.000000
# 2 -0.000449 0.016208 -0.006820 0.000000 0.000000 0.000000
# 3 -0.008844 -0.006820 0.011203 0.000000 0.000000 0.000000
# 4 0.000000 0.000000 0.000000 0.041280 0.000000 0.000000
# 5 0.000000 0.000000 0.000000 0.000000 0.025288 0.000000
# 6 0.000000 0.000000 0.000000 0.000000 0.000000 0.042056
#
#
# Mechanical properties :
#
#
# Convention : Reuss Voigt Hill
#
# Bulk Modulus (GPa) = 39.00126 69.23645 54.11886
# Shear Modulus (GPa) = 24.12437 28.69539 26.40988
#
# Velocity S-wave (km/s) = 3.37858 3.68478 3.53500
# Velocity P-wave (km/s) = 5.80290 7.13188 6.50144
#
# Compressibility (1/GPa) = 0.02564019
#
# Stress axis : x y z
#
# Youngs Moduli (GPa) = 32.83711 61.69766 89.25946
#
# Poissons Ratio (x) = 0.02770 0.78939
# Poissons Ratio (y) = 0.01474 0.60871
# Poissons Ratio (z) = 0.29040 0.42075
#
# Static dielectric constant tensor:
#      x y z
#    x 3.705150 0.000000 0.000000 
#    y 0.000000 4.007550 0.000000 
#    z 0.000000 0.000000 3.938460 
# 
# 
# High freq. dielectric constant tensor:
#      x y z
#    x 1.816630 0.000000 0.000000 
#    y 0.000000 1.824040 0.000000 
#    z 0.000000 0.000000 1.837230 
# 
# From -- ./inp_files/27831.got.cif
#   From: 2010.03.12/outbox.cif.g09.slc.cpg/sg54_14_cif.got.tgz:27831.got - 2010.04.16 15:00:50.
