data_PCOD8223436
_publ_section_title
;
Structure prediction by ZEFSAII (Michael W. Deem and Ramdas Pophale) SiO2 
 PCOD8223436
Probable space group: P C C A
;
_chemical_formula_sum "Si O2"
_cell_formula_units_Z 44
_cell_length_a 32.058303
_cell_length_b 7.244058
_cell_length_c 8.724147
_cell_angle_alpha 90.000000
_cell_angle_beta 90.000000
_cell_angle_gamma 90.000000
_cell_volume 2026.027906
_symmetry_space_group_name_H-M "P C C A"
_symmetry_group_IT_number 54
_symmetry_cell_setting 'orthorhombic'
loop_
_space_group_symop_operation_xyz
x,y,z
1/2-x,-y,z
1/2+x,-y,1/2-z
-x,y,1/2-z
-x,-y,-z
1/2+x,y,-z
1/2-x,y,1/2+z
x,-y,1/2+z
loop_
_atom_site_type_symbol
_atom_site_label
_atom_site_fract_x
_atom_site_fract_y
_atom_site_fract_z
Si Si1 0.190699 0.105833 0.210237
Si Si2 0.750000 0.000000 0.539574
Si Si3 0.960190 0.753014 0.309879
Si Si4 0.129233 0.378020 0.334168
Si Si5 0.537251 0.624444 0.151466
Si Si6 0.867733 0.243534 0.823606
O O1 0.220402 0.127195 0.357480
O O2 0.158363 0.271757 0.213947
O O3 0.166783 0.909463 0.211854
O O4 0.220136 0.129263 0.062893
O O5 0.960776 0.594272 0.180501
O O6 0.970091 0.661047 0.473135
O O7 0.914521 0.848573 0.312795
O O8 0.000000 0.880592 0.250000
O O9 0.082782 0.302524 0.297237
O O10 0.140331 0.332213 0.509931
O O11 0.135237 0.595938 0.303905
O O12 0.500000 0.718809 0.250000
#
# Coordination Sequence:
#
# PCOD8223436 Si02
#       6
#     8   4   8   8   8   8
#     4  11  22  46  63  88 118 154 195 242 306 357
#     4  10  24  42  70  82 118 156 188 246 306 370
#     4   9  16  29  49  80 117 156 194 234 281 333
#     4  10  22  38  62  91 122 158 199 242 292 350
#     4   9  16  29  49  80 117 156 194 234 281 333
#     4  10  22  38  62  91 122 158 199 242 292 350
#
# _framework density 21.717372999999998
#
# number of rings (size 3 to 8) (size 9 to 14) (size 15 to 20)
#    0.000    2.182    1.818    2.182    2.545    1.455 
#    0.000    6.364    0.000    4.364    0.000    0.000 
#    0.000    0.000    0.000    0.000    0.000    0.000 
#
# Total GULP energy -545075.746205 kJ/mol
# GULP energy per Si atom -12388.085141 kJ/mol
# Density = 2.166794 g / cm^3
# Si number density = 21.717373 Si / 1000 Ang^3
#
#
#
# Elastic Constant Matrix: (Units=GPa)
#
#
# Indices 1 2 3 4 5 6 
#
# 1 151.0394 37.4683 53.0153 0.0000 0.0000 0.0000
# 2 37.4683 51.1017 16.0845 0.0000 0.0000 0.0000
# 3 53.0153 16.0845 85.2891 0.0000 0.0000 0.0000
# 4 0.0000 0.0000 0.0000 12.2830 0.0000 0.0000
# 5 0.0000 0.0000 0.0000 0.0000 0.2813 0.0000
# 6 0.0000 0.0000 0.0000 0.0000 0.0000 4.4190
#
#
#
# Elastic Compliance Matrix: (Units=1/GPa)
#
#
# Indices 1 2 3 4 5 6 
#
# 1 0.009767 -0.005582 -0.005018 0.000000 0.000000 0.000000
# 2 -0.005582 0.023993 -0.001055 0.000000 0.000000 0.000000
# 3 -0.005018 -0.001055 0.015043 0.000000 0.000000 0.000000
# 4 0.000000 0.000000 0.000000 0.081413 0.000000 0.000000
# 5 0.000000 0.000000 0.000000 0.000000 3.554997 0.000000
# 6 0.000000 0.000000 0.000000 0.000000 0.000000 0.226294
#
#
# Mechanical properties :
#
#
# Convention : Reuss Voigt Hill
#
# Bulk Modulus (GPa) = 39.22673 55.61848 47.42260
# Shear Modulus (GPa) = 1.26797 15.45414 8.36106
#
# Velocity S-wave (km/s) = 0.76493 2.67048 1.96425
# Velocity P-wave (km/s) = 4.34531 5.93080 5.19885
#
# Compressibility (1/GPa) = 0.02549282
#
# Stress axis : x y z
#
# Youngs Moduli (GPa) = 102.38668 41.67798 66.47482
#
# Poissons Ratio (x) = 0.23263 0.33360
# Poissons Ratio (y) = 0.57148 0.07016
# Poissons Ratio (z) = 0.51382 0.04399
#
# Static dielectric constant tensor:
#      x y z
#    x 0.707610 0.000000 0.000000 
#    y 0.000000 3.229110 0.000000 
#    z 0.000000 0.000000 3.977630 
# 
# 
# High freq. dielectric constant tensor:
#      x y z
#    x 1.886320 0.000000 0.000000 
#    y 0.000000 1.788630 0.000000 
#    z 0.000000 0.000000 1.862930 
# 
# From -- ./inp_files/5790.got.cif
#   From: 2010.03.12/outbox.cif.g09.slc.cpg/sg54_3_cif.got.tgz:5790.got - 2010.04.16 15:00:50.
