data_PCOD8223346
_publ_section_title
;
Structure prediction by ZEFSAII (Michael W. Deem and Ramdas Pophale) SiO2 
 PCOD8223346
Probable space group: P C C A
;
_chemical_formula_sum "Si O2"
_cell_formula_units_Z 64
_cell_length_a 22.905880
_cell_length_b 9.156141
_cell_length_c 14.174606
_cell_angle_alpha 90.000000
_cell_angle_beta 90.000000
_cell_angle_gamma 90.000000
_cell_volume 2972.832561
_symmetry_space_group_name_H-M "P C C A"
_symmetry_group_IT_number 54
_symmetry_cell_setting 'orthorhombic'
loop_
_space_group_symop_operation_xyz
x,y,z
1/2-x,-y,z
1/2+x,-y,1/2-z
-x,y,1/2-z
-x,-y,-z
1/2+x,y,-z
1/2-x,y,1/2+z
x,-y,1/2+z
loop_
_atom_site_type_symbol
_atom_site_label
_atom_site_fract_x
_atom_site_fract_y
_atom_site_fract_z
Si Si1 0.464276 0.145219 0.342916
Si Si2 0.634491 0.484350 0.565722
Si Si3 0.248583 0.824807 0.704544
Si Si4 0.936121 0.307586 0.929048
Si Si5 0.607649 0.974150 0.020424
Si Si6 0.316416 0.231584 0.519591
Si Si7 0.130790 0.669741 0.253680
Si Si8 0.706835 0.786520 0.099743
O O1 0.500000 0.092972 0.250000
O O2 0.496454 0.278221 0.400103
O O3 0.447981 0.009753 0.411447
O O4 0.402103 0.205511 0.311750
O O5 0.574649 0.409316 0.522116
O O6 0.652501 0.616025 0.499376
O O7 0.632272 0.529869 0.675997
O O8 0.684966 0.364344 0.555133
O O9 0.222662 0.753250 0.611576
O O10 0.309199 0.743121 0.723003
O O11 0.205604 0.780369 0.787907
O O12 0.250000 0.000000 0.692787
O O13 0.903398 0.380608 0.840078
O O14 0.912108 0.143063 0.943386
O O15 0.663675 0.917382 0.076175
O O16 0.630677 0.117497 0.966415
O O17 0.272987 0.184504 0.434712
#
# Coordination Sequence:
#
# PCOD8223346 Si02
#       8
#     8   8   8   8   8   8   8   8
#     4  10  21  41  70  96 124 177 224 280 345 393
#     4  11  24  42  60  94 132 175 219 267 323 403
#     4  12  23  37  64  96 128 174 218 268 333 401
#     4  10  24  41  68  93 127 172 225 283 332 393
#     4  11  21  42  65  97 134 166 220 281 332 400
#     4  12  23  40  63  96 134 176 215 265 332 406
#     4  11  22  42  64  92 130 175 219 267 339 406
#     4  11  23  39  60  91 133 170 210 266 328 399
#
# _framework density 21.528289000000001
#
# number of rings (size 3 to 8) (size 9 to 14) (size 15 to 20)
#    0.000    1.000    2.500    5.625    1.750    1.500 
#    0.000    0.000    0.000    3.000    0.000    0.000 
#    0.000    0.000    0.000    0.000    0.000    0.000 
#
# Total GULP energy -793330.326572 kJ/mol
# GULP energy per Si atom -12395.786353 kJ/mol
# Density = 2.147929 g / cm^3
# Si number density = 21.528289 Si / 1000 Ang^3
#
#
#
# Elastic Constant Matrix: (Units=GPa)
#
#
# Indices 1 2 3 4 5 6 
#
# 1 62.7715 31.3924 21.4684 0.0000 0.0000 0.0000
# 2 31.3924 94.6765 40.6727 0.0000 0.0000 0.0000
# 3 21.4684 40.6727 103.5752 0.0000 0.0000 0.0000
# 4 0.0000 0.0000 0.0000 30.7064 0.0000 0.0000
# 5 0.0000 0.0000 0.0000 0.0000 38.9836 0.0000
# 6 0.0000 0.0000 0.0000 0.0000 0.0000 22.7530
#
#
#
# Elastic Compliance Matrix: (Units=1/GPa)
#
#
# Indices 1 2 3 4 5 6 
#
# 1 0.019371 -0.005652 -0.001796 0.000000 0.000000 0.000000
# 2 -0.005652 0.014355 -0.004465 0.000000 0.000000 0.000000
# 3 -0.001796 -0.004465 0.011781 0.000000 0.000000 0.000000
# 4 0.000000 0.000000 0.000000 0.032566 0.000000 0.000000
# 5 0.000000 0.000000 0.000000 0.000000 0.025652 0.000000
# 6 0.000000 0.000000 0.000000 0.000000 0.000000 0.043950
#
#
# Mechanical properties :
#
#
# Convention : Reuss Voigt Hill
#
# Bulk Modulus (GPa) = 46.12387 49.78781 47.95584
# Shear Modulus (GPa) = 27.97551 29.65459 28.81505
#
# Velocity S-wave (km/s) = 3.60874 3.71546 3.66248
# Velocity P-wave (km/s) = 6.23179 6.44849 6.34107
#
# Compressibility (1/GPa) = 0.02168075
#
# Stress axis : x y z
#
# Youngs Moduli (GPa) = 51.62253 69.66437 84.88557
#
# Poissons Ratio (x) = 0.39371 0.15244
# Poissons Ratio (y) = 0.29175 0.37905
# Poissons Ratio (z) = 0.09271 0.31108
#
# Static dielectric constant tensor:
#      x y z
#    x 3.940030 0.000000 0.000000 
#    y 0.000000 3.797420 0.000000 
#    z 0.000000 0.000000 4.112580 
# 
# 
# High freq. dielectric constant tensor:
#      x y z
#    x 1.844800 0.000000 0.000000 
#    y 0.000000 1.836630 0.000000 
#    z 0.000000 0.000000 1.853090 
# 
# From -- ./inp_files/14984.got.cif
#   From: 2010.03.12/outbox.cif.g09.slc.cpg/sg54_8_cif.got.tgz:14984.got - 2010.04.16 15:00:50.
