data_PCOD8223342
_publ_section_title
;
Structure prediction by ZEFSAII (Michael W. Deem and Ramdas Pophale) SiO2 
 PCOD8223342
Probable space group: P C C A
;
_chemical_formula_sum "Si O2"
_cell_formula_units_Z 48
_cell_length_a 19.465735
_cell_length_b 8.237784
_cell_length_c 13.732203
_cell_angle_alpha 90.000000
_cell_angle_beta 90.000000
_cell_angle_gamma 90.000000
_cell_volume 2202.020825
_symmetry_space_group_name_H-M "P C C A"
_symmetry_group_IT_number 54
_symmetry_cell_setting 'orthorhombic'
loop_
_space_group_symop_operation_xyz
x,y,z
1/2-x,-y,z
1/2+x,-y,1/2-z
-x,y,1/2-z
-x,-y,-z
1/2+x,y,-z
1/2-x,y,1/2+z
x,-y,1/2+z
loop_
_atom_site_type_symbol
_atom_site_label
_atom_site_fract_x
_atom_site_fract_y
_atom_site_fract_z
Si Si1 0.978356 0.316637 0.021552
Si Si2 0.618082 0.202392 0.915249
Si Si3 0.927644 0.158536 0.210377
Si Si4 0.684074 0.896338 0.711284
Si Si5 0.233826 0.679734 0.464363
Si Si6 0.644256 0.828352 0.916843
O O1 0.938444 0.290215 0.124599
O O2 0.048061 0.213424 0.023205
O O3 0.930421 0.249831 0.935489
O O4 0.000000 0.500000 0.000000
O O5 0.607735 0.249113 0.801922
O O6 0.645208 0.021230 0.928646
O O7 0.675177 0.328132 0.952975
O O8 0.000000 0.085692 0.250000
O O9 0.879072 0.010682 0.175616
O O10 0.703284 0.778025 0.624930
O O11 0.663220 0.788428 0.805086
O O12 0.750000 0.000000 0.742551
O O13 0.250000 0.500000 0.428131
O O14 0.302260 0.761020 0.505184
#
# Coordination Sequence:
#
# PCOD8223342 Si02
#       6
#     8   8   8   8   8   8
#     4  11  22  40  65  96 131 164 202 259 322 376
#     4  10  21  41  67  91 121 167 213 256 304 368
#     4   9  20  39  67  94 121 163 212 260 305 364
#     4  11  23  41  66  93 122 166 218 263 307 371
#     4  12  25  41  63  94 131 166 203 261 325 375
#     4  11  23  42  67  92 122 166 218 259 305 374
#
# _framework density 21.798158000000001
#
# number of rings (size 3 to 8) (size 9 to 14) (size 15 to 20)
#    0.000    1.333    0.000    7.000    0.000    3.333 
#    0.000   16.667    0.000    0.000    0.000    0.000 
#    0.000    0.000    0.000    0.000    0.000    0.000 
#
# Total GULP energy -595264.967116 kJ/mol
# GULP energy per Si atom -12401.353482 kJ/mol
# Density = 2.174854 g / cm^3
# Si number density = 21.798158 Si / 1000 Ang^3
#
#
#
# Elastic Constant Matrix: (Units=GPa)
#
#
# Indices 1 2 3 4 5 6 
#
# 1 113.8310 44.5528 43.5734 0.0000 0.0000 0.0000
# 2 44.5528 102.3457 66.8915 0.0000 0.0000 0.0000
# 3 43.5734 66.8915 103.8704 0.0000 0.0000 0.0000
# 4 0.0000 0.0000 0.0000 11.7127 0.0000 0.0000
# 5 0.0000 0.0000 0.0000 0.0000 41.4023 0.0000
# 6 0.0000 0.0000 0.0000 0.0000 0.0000 36.1574
#
#
#
# Elastic Compliance Matrix: (Units=1/GPa)
#
#
# Indices 1 2 3 4 5 6 
#
# 1 0.010993 -0.003059 -0.002642 0.000000 0.000000 0.000000
# 2 -0.003059 0.017724 -0.010131 0.000000 0.000000 0.000000
# 3 -0.002642 -0.010131 0.017260 0.000000 0.000000 0.000000
# 4 0.000000 0.000000 0.000000 0.085378 0.000000 0.000000
# 5 0.000000 0.000000 0.000000 0.000000 0.024153 0.000000
# 6 0.000000 0.000000 0.000000 0.000000 0.000000 0.027657
#
#
# Mechanical properties :
#
#
# Convention : Reuss Voigt Hill
#
# Bulk Modulus (GPa) = 69.86189 70.00916 69.93552
# Shear Modulus (GPa) = 22.76883 28.85645 25.81264
#
# Velocity S-wave (km/s) = 3.23543 3.64236 3.44490
# Velocity P-wave (km/s) = 6.78795 7.06228 6.92647
#
# Compressibility (1/GPa) = 0.01431396
#
# Stress axis : x y z
#
# Youngs Moduli (GPa) = 90.96298 56.42187 57.93886
#
# Poissons Ratio (x) = 0.17260 0.15306
# Poissons Ratio (y) = 0.27826 0.58695
# Poissons Ratio (z) = 0.24030 0.57159
#
# Static dielectric constant tensor:
#      x y z
#    x 4.414560 0.000000 0.000000 
#    y 0.000000 3.647570 0.000000 
#    z 0.000000 0.000000 4.263640 
# 
# 
# High freq. dielectric constant tensor:
#      x y z
#    x 1.884730 0.000000 0.000000 
#    y 0.000000 1.826400 0.000000 
#    z 0.000000 0.000000 1.866070 
# 
# From -- ./inp_files/14145.got.cif
#   From: 2010.03.12/outbox.cif.g09.slc.cpg/sg54_8_cif.got.tgz:14145.got - 2010.04.16 15:00:50.
