data_PCOD8223418
_publ_section_title
;
Structure prediction by ZEFSAII (Michael W. Deem and Ramdas Pophale) SiO2 
 PCOD8223418
Probable space group: P C C A
;
_chemical_formula_sum "Si O2"
_cell_formula_units_Z 48
_cell_length_a 16.903934
_cell_length_b 14.490648
_cell_length_c 9.997033
_cell_angle_alpha 90.000000
_cell_angle_beta 90.000000
_cell_angle_gamma 90.000000
_cell_volume 2448.762811
_symmetry_space_group_name_H-M "P C C A"
_symmetry_group_IT_number 54
_symmetry_cell_setting 'orthorhombic'
loop_
_space_group_symop_operation_xyz
x,y,z
1/2-x,-y,z
1/2+x,-y,1/2-z
-x,y,1/2-z
-x,-y,-z
1/2+x,y,-z
1/2-x,y,1/2+z
x,-y,1/2+z
loop_
_atom_site_type_symbol
_atom_site_label
_atom_site_fract_x
_atom_site_fract_y
_atom_site_fract_z
Si Si1 0.333927 0.548314 0.034878
Si Si2 0.588560 0.547250 0.195186
Si Si3 0.795708 0.247612 0.409984
Si Si4 0.398692 0.933459 0.099116
Si Si5 0.664502 0.736915 0.119716
Si Si6 0.581306 0.078429 0.603470
O O1 0.250000 0.500000 0.996012
O O2 0.357652 0.512433 0.181588
O O3 0.336975 0.659164 0.037970
O O4 0.400488 0.526344 0.923534
O O5 0.500000 0.556416 0.250000
O O6 0.617785 0.641616 0.127186
O O7 0.848688 0.157450 0.440337
O O8 0.779574 0.253222 0.250660
O O9 0.712552 0.246199 0.484434
O O10 0.393876 0.965154 0.253376
O O11 0.489822 0.917347 0.064766
O O12 0.369918 0.019586 0.007049
O O13 0.598960 0.814492 0.114731
#
# Coordination Sequence:
#
# PCOD8223418 Si02
#       6
#     8   8   8   8   8   8
#     4  11  22  40  62  86 120 159 197 246 300 362
#     4  11  24  39  61  89 119 156 201 250 303 363
#     4  10  22  37  59  85 115 155 193 242 291 356
#     4   9  19  37  59  84 114 151 198 232 295 348
#     4  10  22  37  59  85 115 153 194 239 295 349
#     4   9  19  36  60  83 113 154 188 242 286 350
#
# _framework density 19.601735000000001
#
# number of rings (size 3 to 8) (size 9 to 14) (size 15 to 20)
#    0.000    2.000    1.667    1.000    9.333    2.000 
#    0.000    3.333    3.667    0.000    0.000    0.000 
#    0.000    0.000    0.000    0.000    0.000    0.000 
#
# Total GULP energy -594819.326966 kJ/mol
# GULP energy per Si atom -12392.069312 kJ/mol
# Density = 1.955712 g / cm^3
# Si number density = 19.601735 Si / 1000 Ang^3
#
#
#
# Elastic Constant Matrix: (Units=GPa)
#
#
# Indices 1 2 3 4 5 6 
#
# 1 61.9241 10.8061 17.3564 0.0000 0.0000 0.0000
# 2 10.8061 50.5205 18.4330 0.0000 0.0000 0.0000
# 3 17.3564 18.4330 61.1312 0.0000 0.0000 0.0000
# 4 0.0000 0.0000 0.0000 30.5294 0.0000 0.0000
# 5 0.0000 0.0000 0.0000 0.0000 31.1857 0.0000
# 6 0.0000 0.0000 0.0000 0.0000 0.0000 23.9624
#
#
#
# Elastic Compliance Matrix: (Units=1/GPa)
#
#
# Indices 1 2 3 4 5 6 
#
# 1 0.017760 -0.002201 -0.004379 0.000000 0.000000 0.000000
# 2 -0.002201 0.022514 -0.006164 0.000000 0.000000 0.000000
# 3 -0.004379 -0.006164 0.019460 0.000000 0.000000 0.000000
# 4 0.000000 0.000000 0.000000 0.032755 0.000000 0.000000
# 5 0.000000 0.000000 0.000000 0.000000 0.032066 0.000000
# 6 0.000000 0.000000 0.000000 0.000000 0.000000 0.041732
#
#
# Mechanical properties :
#
#
# Convention : Reuss Voigt Hill
#
# Bulk Modulus (GPa) = 29.19986 29.64076 29.42031
# Shear Modulus (GPa) = 24.60753 25.60086 25.10419
#
# Velocity S-wave (km/s) = 3.54697 3.61785 3.58259
# Velocity P-wave (km/s) = 5.63059 5.71018 5.67053
#
# Compressibility (1/GPa) = 0.03424674
#
# Stress axis : x y z
#
# Youngs Moduli (GPa) = 56.30559 44.41759 51.38747
#
# Poissons Ratio (x) = 0.09777 0.22501
# Poissons Ratio (y) = 0.12394 0.31673
# Poissons Ratio (z) = 0.24655 0.27377
#
# Static dielectric constant tensor:
#      x y z
#    x 3.375740 0.000000 0.000000 
#    y 0.000000 3.717070 0.000000 
#    z 0.000000 0.000000 4.084970 
# 
# 
# High freq. dielectric constant tensor:
#      x y z
#    x 1.744830 0.000000 0.000000 
#    y 0.000000 1.768550 0.000000 
#    z 0.000000 0.000000 1.776100 
# 
# From -- ./inp_files/4208.got.cif
#   From: 2010.03.12/outbox.cif.g09.slc.cpg/sg54_3_cif.got.tgz:4208.got - 2010.04.16 15:00:50.
