data_PCOD8223709
_publ_section_title
;
Structure prediction by ZEFSAII (Michael W. Deem and Ramdas Pophale) SiO2 
 PCOD8223709
Probable space group: P C C A
;
_chemical_formula_sum "Si O2"
_cell_formula_units_Z 64
_cell_length_a 15.205354
_cell_length_b 21.320409
_cell_length_c 9.161415
_cell_angle_alpha 90.000000
_cell_angle_beta 90.000000
_cell_angle_gamma 90.000000
_cell_volume 2969.987516
_symmetry_space_group_name_H-M "P C C A"
_symmetry_group_IT_number 54
_symmetry_cell_setting 'orthorhombic'
loop_
_space_group_symop_operation_xyz
x,y,z
1/2-x,-y,z
1/2+x,-y,1/2-z
-x,y,1/2-z
-x,-y,-z
1/2+x,y,-z
1/2-x,y,1/2+z
x,-y,1/2+z
loop_
_atom_site_type_symbol
_atom_site_label
_atom_site_fract_x
_atom_site_fract_y
_atom_site_fract_z
Si Si1 0.096521 0.968454 0.773278
Si Si2 0.096139 0.183107 0.773196
Si Si3 0.656715 0.861457 0.416904
Si Si4 0.243200 0.740845 0.682280
Si Si5 0.339087 0.072842 0.084770
Si Si6 0.607871 0.560711 0.598918
Si Si7 0.408556 0.433563 0.060862
Si Si8 0.267297 0.654421 0.433185
O O1 0.095276 0.903062 0.685546
O O2 0.000000 0.998462 0.750000
O O3 0.166345 0.017943 0.706523
O O4 0.116243 0.956568 0.942171
O O5 0.162906 0.239914 0.748311
O O6 0.105382 0.129950 0.650192
O O7 0.000000 0.212520 0.750000
O O8 0.107123 0.154585 0.934373
O O9 0.678118 0.800230 0.318169
O O10 0.743425 0.901283 0.457163
O O11 0.249449 0.719539 0.515642
O O12 0.211295 0.678707 0.770042
O O13 0.625345 0.492877 0.530592
O O14 0.611972 0.552549 0.771728
O O15 0.511923 0.582870 0.541674
O O16 0.683512 0.608776 0.551460
O O17 0.354762 0.375037 0.000838
#
# Coordination Sequence:
#
# PCOD8223709 Si02
#       8
#     8   8   8   8   8   8   8   8
#     4  12  24  40  64  96 126 156 206 261 320 381
#     4  11  23  43  68  90 125 169 215 271 328 375
#     4  11  24  44  62  90 125 168 211 259 316 383
#     4  11  25  42  64  91 129 168 225 261 316 389
#     4  11  23  40  65  92 126 163 207 258 319 392
#     4  10  23  42  66  98 131 171 213 270 327 397
#     4  10  23  42  67  97 133 168 217 265 333 389
#     4  12  23  43  67  94 130 176 218 273 317 390
#
# _framework density 21.548911
#
# number of rings (size 3 to 8) (size 9 to 14) (size 15 to 20)
#    0.000    1.000    2.500    4.500    3.500    3.000 
#    0.000    0.000    0.000    0.000    0.000    0.000 
#    0.000    0.000    0.000    0.000    0.000    0.000 
#
# Total GULP energy -793736.810577 kJ/mol
# GULP energy per Si atom -12402.137665 kJ/mol
# Density = 2.149986 g / cm^3
# Si number density = 21.548911 Si / 1000 Ang^3
#
#
#
# Elastic Constant Matrix: (Units=GPa)
#
#
# Indices 1 2 3 4 5 6 
#
# 1 82.6298 29.1499 31.5692 0.0000 0.0000 0.0000
# 2 29.1499 86.0388 28.9663 0.0000 0.0000 0.0000
# 3 31.5692 28.9663 105.6514 0.0000 0.0000 0.0000
# 4 0.0000 0.0000 0.0000 46.7431 0.0000 0.0000
# 5 0.0000 0.0000 0.0000 0.0000 23.9276 0.0000
# 6 0.0000 0.0000 0.0000 0.0000 0.0000 25.0662
#
#
#
# Elastic Compliance Matrix: (Units=1/GPa)
#
#
# Indices 1 2 3 4 5 6 
#
# 1 0.014745 -0.003870 -0.003345 0.000000 0.000000 0.000000
# 2 -0.003870 0.013820 -0.002633 0.000000 0.000000 0.000000
# 3 -0.003345 -0.002633 0.011186 0.000000 0.000000 0.000000
# 4 0.000000 0.000000 0.000000 0.021394 0.000000 0.000000
# 5 0.000000 0.000000 0.000000 0.000000 0.041793 0.000000
# 6 0.000000 0.000000 0.000000 0.000000 0.000000 0.039894
#
#
# Mechanical properties :
#
#
# Convention : Reuss Voigt Hill
#
# Bulk Modulus (GPa) = 49.85792 50.41008 50.13400
# Shear Modulus (GPa) = 29.54861 31.45635 30.50248
#
# Velocity S-wave (km/s) = 3.70704 3.82483 3.76639
# Velocity P-wave (km/s) = 6.44284 6.55362 6.49846
#
# Compressibility (1/GPa) = 0.02005699
#
# Stress axis : x y z
#
# Youngs Moduli (GPa) = 67.81843 72.35881 89.39392
#
# Poissons Ratio (x) = 0.27999 0.29903
# Poissons Ratio (y) = 0.26242 0.23536
# Poissons Ratio (z) = 0.22686 0.19051
#
# Static dielectric constant tensor:
#      x y z
#    x 3.841230 0.000000 0.000000 
#    y 0.000000 3.856510 0.000000 
#    z 0.000000 0.000000 3.900620 
# 
# 
# High freq. dielectric constant tensor:
#      x y z
#    x 1.841020 0.000000 0.000000 
#    y 0.000000 1.849530 0.000000 
#    z 0.000000 0.000000 1.859330 
# 
# From -- ./inp_files/3744.got.cif
#   From: 2010.03.12/outbox.cif.g09.slc.cpg/sg54_2_cif.got.tgz:3744.got - 2010.04.16 15:00:50.
