data_PCOD8223640
_publ_section_title
;
Structure prediction by ZEFSAII (Michael W. Deem and Ramdas Pophale) SiO2 
 PCOD8223640
Probable space group: P C C A
;
_chemical_formula_sum "Si O2"
_cell_formula_units_Z 64
_cell_length_a 21.089429
_cell_length_b 9.893648
_cell_length_c 14.525387
_cell_angle_alpha 90.000000
_cell_angle_beta 90.000000
_cell_angle_gamma 90.000000
_cell_volume 3030.742145
_symmetry_space_group_name_H-M "P C C A"
_symmetry_group_IT_number 54
_symmetry_cell_setting 'orthorhombic'
loop_
_space_group_symop_operation_xyz
x,y,z
1/2-x,-y,z
1/2+x,-y,1/2-z
-x,y,1/2-z
-x,-y,-z
1/2+x,y,-z
1/2-x,y,1/2+z
x,-y,1/2+z
loop_
_atom_site_type_symbol
_atom_site_label
_atom_site_fract_x
_atom_site_fract_y
_atom_site_fract_z
Si Si1 0.097990 0.204478 0.350935
Si Si2 0.063478 0.481322 0.290991
Si Si3 0.039610 0.672966 0.449670
Si Si4 0.305115 0.821648 0.188558
Si Si5 0.663026 0.117607 0.310617
Si Si6 0.554572 0.916624 0.675685
Si Si7 0.892029 0.688261 0.457894
Si Si8 0.127524 0.415432 0.105839
O O1 0.052120 0.328998 0.325984
O O2 0.157365 0.197963 0.283133
O O3 0.127695 0.233058 0.450549
O O4 0.052788 0.073846 0.353000
O O5 0.079453 0.578541 0.377518
O O6 0.113381 0.476415 0.207696
O O7 0.000000 0.544704 0.250000
O O8 0.045090 0.827881 0.415792
O O9 0.069040 0.655647 0.551629
O O10 0.965198 0.636378 0.456042
O O11 0.230738 0.815239 0.210299
O O12 0.319538 0.701166 0.116089
O O13 0.326464 0.966946 0.147280
O O14 0.624349 0.113006 0.215693
O O15 0.620824 0.206140 0.377878
O O16 0.500000 0.886203 0.750000
O O17 0.850194 0.550093 0.449125
#
# Coordination Sequence:
#
# PCOD8223640 Si02
#       8
#     8   8   8   8   8   8   8   8
#     4  10  23  38  62  93 130 166 216 259 320 382
#     4  11  19  37  61  86 127 176 203 251 321 392
#     4  12  23  38  60 101 136 163 211 267 331 393
#     4   9  23  47  64  90 120 176 221 262 316 385
#     4  10  22  44  70  86 126 169 217 265 326 382
#     4  11  22  41  63  98 132 168 206 269 329 391
#     4  12  22  39  63  97 129 168 205 270 325 387
#     4  11  23  38  65  92 128 167 218 260 319 386
#
# _framework density 21.11694
#
# number of rings (size 3 to 8) (size 9 to 14) (size 15 to 20)
#    0.000    1.250    3.750    2.625    1.750    3.000 
#    2.250    1.250    0.000    0.000    0.000    0.000 
#    0.000    0.000    0.000    0.000    0.000    0.000 
#
# Total GULP energy -793254.283375 kJ/mol
# GULP energy per Si atom -12394.598178 kJ/mol
# Density = 2.106888 g / cm^3
# Si number density = 21.116940 Si / 1000 Ang^3
#
#
#
# Elastic Constant Matrix: (Units=GPa)
#
#
# Indices 1 2 3 4 5 6 
#
# 1 82.7569 28.0674 15.8091 0.0000 0.0000 0.0000
# 2 28.0674 123.2777 39.1726 0.0000 0.0000 0.0000
# 3 15.8091 39.1726 79.0116 0.0000 0.0000 0.0000
# 4 0.0000 0.0000 0.0000 28.9267 0.0000 0.0000
# 5 0.0000 0.0000 0.0000 0.0000 18.1654 0.0000
# 6 0.0000 0.0000 0.0000 0.0000 0.0000 27.4626
#
#
#
# Elastic Compliance Matrix: (Units=1/GPa)
#
#
# Indices 1 2 3 4 5 6 
#
# 1 0.013218 -0.002575 -0.001368 0.000000 0.000000 0.000000
# 2 -0.002575 0.010130 -0.004507 0.000000 0.000000 0.000000
# 3 -0.001368 -0.004507 0.015165 0.000000 0.000000 0.000000
# 4 0.000000 0.000000 0.000000 0.034570 0.000000 0.000000
# 5 0.000000 0.000000 0.000000 0.000000 0.055050 0.000000
# 6 0.000000 0.000000 0.000000 0.000000 0.000000 0.036413
#
#
# Mechanical properties :
#
#
# Convention : Reuss Voigt Hill
#
# Bulk Modulus (GPa) = 46.26901 50.12716 48.19809
# Shear Modulus (GPa) = 26.50403 28.37742 27.44072
#
# Velocity S-wave (km/s) = 3.54659 3.66980 3.60872
# Velocity P-wave (km/s) = 6.22330 6.46111 6.34332
#
# Compressibility (1/GPa) = 0.02161274
#
# Stress axis : x y z
#
# Youngs Moduli (GPa) = 75.65330 98.71503 65.94246
#
# Poissons Ratio (x) = 0.25416 0.09023
# Poissons Ratio (y) = 0.19478 0.29722
# Poissons Ratio (z) = 0.10352 0.44493
#
# Static dielectric constant tensor:
#      x y z
#    x 3.489930 0.000000 0.000000 
#    y 0.000000 4.196400 0.000000 
#    z 0.000000 0.000000 3.928890 
# 
# 
# High freq. dielectric constant tensor:
#      x y z
#    x 1.789870 0.000000 0.000000 
#    y 0.000000 1.852980 0.000000 
#    z 0.000000 0.000000 1.823840 
# 
# From -- ./inp_files/15003.got.cif
#   From: 2010.03.12/outbox.cif.g09.slc.cpg/sg54_8_cif.got.tgz:15003.got - 2010.04.16 15:00:50.
