data_PCOD8223383
_publ_section_title
;
Structure prediction by ZEFSAII (Michael W. Deem and Ramdas Pophale) SiO2 
 PCOD8223383
Probable space group: P C C A
;
_chemical_formula_sum "Si O2"
_cell_formula_units_Z 48
_cell_length_a 13.440533
_cell_length_b 9.669600
_cell_length_c 17.322462
_cell_angle_alpha 90.000000
_cell_angle_beta 90.000000
_cell_angle_gamma 90.000000
_cell_volume 2251.306462
_symmetry_space_group_name_H-M "P C C A"
_symmetry_group_IT_number 54
_symmetry_cell_setting 'orthorhombic'
loop_
_space_group_symop_operation_xyz
x,y,z
1/2-x,-y,z
1/2+x,-y,1/2-z
-x,y,1/2-z
-x,-y,-z
1/2+x,y,-z
1/2-x,y,1/2+z
x,-y,1/2+z
loop_
_atom_site_type_symbol
_atom_site_label
_atom_site_fract_x
_atom_site_fract_y
_atom_site_fract_z
Si Si1 0.840360 0.210075 0.174164
Si Si2 0.244677 0.157382 0.677986
Si Si3 0.181408 0.625417 0.566044
Si Si4 0.410174 0.923868 0.799639
Si Si5 0.866039 0.693628 0.100390
Si Si6 0.011440 0.440469 0.338976
O O1 0.836448 0.208595 0.268227
O O2 0.744924 0.278050 0.132972
O O3 0.938988 0.290533 0.149446
O O4 0.851782 0.046300 0.155522
O O5 0.244950 0.264477 0.607627
O O6 0.152648 0.164395 0.736981
O O7 0.250000 0.000000 0.646160
O O8 0.250000 0.500000 0.537523
O O9 0.134474 0.701111 0.492191
O O10 0.095112 0.562085 0.619672
O O11 0.500000 0.986297 0.750000
O O12 0.439151 0.813863 0.866424
O O13 0.910758 0.546985 0.124004
O O14 0.000000 0.482383 0.250000
#
# Coordination Sequence:
#
# PCOD8223383 Si02
#       6
#     8   8   8   8   8   8
#     4  10  21  43  68  96 128 174 217 275 328 396
#     4   9  21  39  65  92 126 169 219 270 324 392
#     4  12  27  43  62  96 138 174 223 278 336 398
#     4  10  22  41  72 100 129 168 230 274 330 400
#     4  11  25  43  64  96 135 177 212 276 336 401
#     4  12  24  40  69  96 130 174 228 271 331 395
#
# _framework density 21.320952999999999
#
# number of rings (size 3 to 8) (size 9 to 14) (size 15 to 20)
#    0.000    1.333    1.667    4.500    9.333    1.333 
#    0.000    0.833    0.000    0.000    0.000    0.000 
#    0.000    0.000    0.000    0.000    0.000    0.000 
#
# Total GULP energy -594758.505020 kJ/mol
# GULP energy per Si atom -12390.802188 kJ/mol
# Density = 2.127243 g / cm^3
# Si number density = 21.320953 Si / 1000 Ang^3
#
#
#
# Elastic Constant Matrix: (Units=GPa)
#
#
# Indices 1 2 3 4 5 6 
#
# 1 86.9860 33.6155 25.0233 0.0000 0.0000 0.0000
# 2 33.6155 115.6372 53.4520 0.0000 0.0000 0.0000
# 3 25.0233 53.4520 119.6392 0.0000 0.0000 0.0000
# 4 0.0000 0.0000 0.0000 15.7350 0.0000 0.0000
# 5 0.0000 0.0000 0.0000 0.0000 24.6451 0.0000
# 6 0.0000 0.0000 0.0000 0.0000 0.0000 32.3735
#
#
#
# Elastic Compliance Matrix: (Units=1/GPa)
#
#
# Indices 1 2 3 4 5 6 
#
# 1 0.013112 -0.003206 -0.001310 0.000000 0.000000 0.000000
# 2 -0.003206 0.011682 -0.004549 0.000000 0.000000 0.000000
# 3 -0.001310 -0.004549 0.010665 0.000000 0.000000 0.000000
# 4 0.000000 0.000000 0.000000 0.063552 0.000000 0.000000
# 5 0.000000 0.000000 0.000000 0.000000 0.040576 0.000000
# 6 0.000000 0.000000 0.000000 0.000000 0.000000 0.030889
#
#
# Mechanical properties :
#
#
# Convention : Reuss Voigt Hill
#
# Bulk Modulus (GPa) = 57.70608 60.71599 59.21103
# Shear Modulus (GPa) = 25.72235 28.56215 27.14225
#
# Velocity S-wave (km/s) = 3.47715 3.66406 3.57183
# Velocity P-wave (km/s) = 6.57609 6.81465 6.69643
#
# Compressibility (1/GPa) = 0.01732920
#
# Stress axis : x y z
#
# Youngs Moduli (GPa) = 76.26632 85.59887 93.76645
#
# Poissons Ratio (x) = 0.27444 0.12284
# Poissons Ratio (y) = 0.24451 0.42653
# Poissons Ratio (z) = 0.09991 0.38938
#
# Static dielectric constant tensor:
#      x y z
#    x 3.840900 0.000000 0.000000 
#    y 0.000000 3.979430 0.000000 
#    z 0.000000 0.000000 3.768360 
# 
# 
# High freq. dielectric constant tensor:
#      x y z
#    x 1.833560 0.000000 0.000000 
#    y 0.000000 1.847940 0.000000 
#    z 0.000000 0.000000 1.818360 
# 
# From -- ./inp_files/18031.got.cif
#   From: 2010.03.12/outbox.cif.g09.slc.cpg/sg54_10_cif.got.tgz:18031.got - 2010.04.16 15:00:50.
