data_PCOD8223286
_publ_section_title
;
Structure prediction by ZEFSAII (Michael W. Deem and Ramdas Pophale) SiO2 
 PCOD8223286
Probable space group: P C C A
;
_chemical_formula_sum "Si O2"
_cell_formula_units_Z 40
_cell_length_a 4.982616
_cell_length_b 28.605065
_cell_length_c 13.075470
_cell_angle_alpha 90.000000
_cell_angle_beta 90.000000
_cell_angle_gamma 90.000000
_cell_volume 1863.621301
_symmetry_space_group_name_H-M "P C C A"
_symmetry_group_IT_number 54
_symmetry_cell_setting 'orthorhombic'
loop_
_space_group_symop_operation_xyz
x,y,z
1/2-x,-y,z
1/2+x,-y,1/2-z
-x,y,1/2-z
-x,-y,-z
1/2+x,y,-z
1/2-x,y,1/2+z
x,-y,1/2+z
loop_
_atom_site_type_symbol
_atom_site_label
_atom_site_fract_x
_atom_site_fract_y
_atom_site_fract_z
Si Si1 0.000000 0.832418 0.750000
Si Si2 0.126947 0.599789 0.067296
Si Si3 0.000000 0.468578 0.750000
Si Si4 0.250000 0.000000 0.571959
Si Si5 0.807837 0.899494 0.927367
Si Si6 0.944703 0.295310 0.932228
Si Si7 0.500000 0.228129 0.250000
O O1 0.868761 0.862298 0.840514
O O2 0.751322 0.801950 0.708187
O O3 0.089427 0.652153 0.111287
O O4 0.079981 0.562941 0.155134
O O5 0.428183 0.591929 0.027917
O O6 0.250000 0.500000 0.783586
O O7 0.214090 0.950540 0.631501
O O8 0.500000 0.000000 0.500000
O O9 0.522192 0.893052 0.981922
O O10 0.885350 0.259593 0.841434
O O11 0.742761 0.286786 0.025905
#
# Coordination Sequence:
#
# PCOD8223286 Si02
#       7
#     4   8   4   4   8   8   4
#     4  12  26  38  58  92 122 162 194 230 308 364
#     4  10  22  41  63  87 117 154 202 252 294 346
#     4  12  25  38  59  90 124 163 196 235 302 362
#     4   8  16  34  60  82 104 144 190 234 280 324
#     4  10  21  40  61  84 118 153 194 243 286 342
#     4  10  22  41  65  88 113 155 203 250 300 342
#     4  12  25  40  59  88 124 153 198 245 288 368
#
# _framework density 21.46359
#
# number of rings (size 3 to 8) (size 9 to 14) (size 15 to 20)
#    0.000    1.600    0.000    4.200    0.000    7.200 
#    0.000   15.000    0.000    0.000    0.000    0.000 
#    0.000    0.000    0.000    0.000    0.000    0.000 
#
# Total GULP energy -495812.383425 kJ/mol
# GULP energy per Si atom -12395.309586 kJ/mol
# Density = 2.141474 g / cm^3
# Si number density = 21.463590 Si / 1000 Ang^3
#
#
#
# Elastic Constant Matrix: (Units=GPa)
#
#
# Indices 1 2 3 4 5 6 
#
# 1 96.5803 24.9167 -5.6158 0.0000 0.0000 0.0000
# 2 24.9167 124.8123 48.5470 0.0000 0.0000 0.0000
# 3 -5.6158 48.5470 57.2428 0.0000 0.0000 0.0000
# 4 0.0000 0.0000 0.0000 35.2304 0.0000 0.0000
# 5 0.0000 0.0000 0.0000 0.0000 21.9563 0.0000
# 6 0.0000 0.0000 0.0000 0.0000 0.0000 33.8061
#
#
#
# Elastic Compliance Matrix: (Units=1/GPa)
#
#
# Indices 1 2 3 4 5 6 
#
# 1 0.011696 -0.004150 0.004667 0.000000 0.000000 0.000000
# 2 -0.004150 0.013429 -0.011796 0.000000 0.000000 0.000000
# 3 0.004667 -0.011796 0.027931 0.000000 0.000000 0.000000
# 4 0.000000 0.000000 0.000000 0.028385 0.000000 0.000000
# 5 0.000000 0.000000 0.000000 0.000000 0.045545 0.000000
# 6 0.000000 0.000000 0.000000 0.000000 0.000000 0.029580
#
#
# Mechanical properties :
#
#
# Convention : Reuss Voigt Hill
#
# Bulk Modulus (GPa) = 32.78866 46.03680 39.41273
# Shear Modulus (GPa) = 26.41445 32.25106 29.33276
#
# Velocity S-wave (km/s) = 3.51189 3.88054 3.70080
# Velocity P-wave (km/s) = 5.63507 6.44775 6.05506
#
# Compressibility (1/GPa) = 0.03049835
#
# Stress axis : x y z
#
# Youngs Moduli (GPa) = 85.49779 74.46728 35.80209
#
# Poissons Ratio (x) = 0.30907 -0.16710
# Poissons Ratio (y) = 0.35485 0.42232
# Poissons Ratio (z) = -0.39905 0.87841
#
# Static dielectric constant tensor:
#      x y z
#    x 4.090440 0.000000 0.000000 
#    y 0.000000 4.448290 0.000000 
#    z 0.000000 0.000000 3.268780 
# 
# 
# High freq. dielectric constant tensor:
#      x y z
#    x 1.866470 0.000000 0.000000 
#    y 0.000000 1.863340 0.000000 
#    z 0.000000 0.000000 1.811410 
# 
# From -- ./inp_files/6483.got.cif
#   From: 2010.03.12/outbox.cif.g09.slc.cpg/sg54_4_cif.got.tgz:6483.got - 2010.04.16 15:00:50.
