data_PCOD8223939
_publ_section_title
;
Structure prediction by ZEFSAII (Michael W. Deem and Ramdas Pophale) SiO2 
 PCOD8223939
Probable space group: P C C A
;
_chemical_formula_sum "Si O2"
_cell_formula_units_Z 40
_cell_length_a 14.238139
_cell_length_b 8.360751
_cell_length_c 14.891293
_cell_angle_alpha 90.000000
_cell_angle_beta 90.000000
_cell_angle_gamma 90.000000
_cell_volume 1772.682375
_symmetry_space_group_name_H-M "P C C A"
_symmetry_group_IT_number 54
_symmetry_cell_setting 'orthorhombic'
loop_
_space_group_symop_operation_xyz
x,y,z
1/2-x,-y,z
1/2+x,-y,1/2-z
-x,y,1/2-z
-x,-y,-z
1/2+x,y,-z
1/2-x,y,1/2+z
x,-y,1/2+z
loop_
_atom_site_type_symbol
_atom_site_label
_atom_site_fract_x
_atom_site_fract_y
_atom_site_fract_z
Si Si1 0.619101 0.311685 0.609774
Si Si2 0.565644 0.352542 0.168570
Si Si3 0.246541 0.691486 0.240222
Si Si4 0.761084 0.308211 0.459959
Si Si5 0.465629 0.819700 0.000350
O O1 0.615318 0.503217 0.614940
O O2 0.663358 0.244377 0.702768
O O3 0.680395 0.246207 0.526360
O O4 0.513318 0.256820 0.588906
O O5 0.500000 0.414932 0.250000
O O6 0.651081 0.249416 0.210923
O O7 0.503355 0.253039 0.096858
O O8 0.250000 0.500000 0.236619
O O9 0.247741 0.761507 0.140111
O O10 0.750000 0.500000 0.460412
O O11 0.856416 0.226177 0.494693
O O12 0.500000 0.000000 0.000000
#
# Coordination Sequence:
#
# PCOD8223939 Si02
#       5
#     8   8   8   8   8
#     4  11  22  42  70  98 136 181 235 296 356 424
#     4  11  22  42  69 106 136 179 244 308 357 427
#     4   9  20  36  66 103 130 165 230 303 348 410
#     4  11  21  42  71 100 134 178 238 294 357 426
#     4  12  27  43  67 102 146 194 234 293 379 455
#
# _framework density 22.564672999999999
#
# number of rings (size 3 to 8) (size 9 to 14) (size 15 to 20)
#    0.000    1.200    4.000    2.400    8.400    0.800 
#    3.600    0.000    0.000    0.000    0.000    0.000 
#    0.000    0.000    0.000    0.000    0.000    0.000 
#
# Total GULP energy -495594.841695 kJ/mol
# GULP energy per Si atom -12389.871042 kJ/mol
# Density = 2.251332 g / cm^3
# Si number density = 22.564673 Si / 1000 Ang^3
#
#
#
# Elastic Constant Matrix: (Units=GPa)
#
#
# Indices 1 2 3 4 5 6 
#
# 1 97.9215 28.3773 39.3833 0.0000 0.0000 0.0000
# 2 28.3773 61.3400 33.1550 0.0000 0.0000 0.0000
# 3 39.3833 33.1550 166.9587 0.0000 0.0000 0.0000
# 4 0.0000 0.0000 0.0000 6.9185 0.0000 0.0000
# 5 0.0000 0.0000 0.0000 0.0000 42.6669 0.0000
# 6 0.0000 0.0000 0.0000 0.0000 0.0000 24.9412
#
#
#
# Elastic Compliance Matrix: (Units=1/GPa)
#
#
# Indices 1 2 3 4 5 6 
#
# 1 0.012359 -0.004640 -0.001994 0.000000 0.000000 0.000000
# 2 -0.004640 0.020005 -0.002878 0.000000 0.000000 0.000000
# 3 -0.001994 -0.002878 0.007031 0.000000 0.000000 0.000000
# 4 0.000000 0.000000 0.000000 0.144540 0.000000 0.000000
# 5 0.000000 0.000000 0.000000 0.000000 0.023437 0.000000
# 6 0.000000 0.000000 0.000000 0.000000 0.000000 0.040094
#
#
# Mechanical properties :
#
#
# Convention : Reuss Voigt Hill
#
# Bulk Modulus (GPa) = 49.08858 58.67238 53.88048
# Shear Modulus (GPa) = 18.29623 29.92565 24.11094
#
# Velocity S-wave (km/s) = 2.85061 3.64568 3.27238
# Velocity P-wave (km/s) = 5.71283 6.61662 6.18126
#
# Compressibility (1/GPa) = 0.02037134
#
# Stress axis : x y z
#
# Youngs Moduli (GPa) = 80.91427 49.98829 142.21956
#
# Poissons Ratio (x) = 0.23193 0.28357
# Poissons Ratio (y) = 0.37542 0.40933
# Poissons Ratio (z) = 0.16133 0.14387
#
# Static dielectric constant tensor:
#      x y z
#    x 4.203330 0.000000 0.000000 
#    y 0.000000 3.399570 0.000000 
#    z 0.000000 0.000000 4.809450 
# 
# 
# High freq. dielectric constant tensor:
#      x y z
#    x 1.897980 0.000000 0.000000 
#    y 0.000000 1.821880 0.000000 
#    z 0.000000 0.000000 1.915980 
# 
# From -- ./inp_files/13167.got.cif
#   From: 2010.03.12/outbox.cif.g09.slc.cpg/sg54_7_cif.got.tgz:13167.got - 2010.04.16 15:00:50.
