data_PCOD8223873
_publ_section_title
;
Structure prediction by ZEFSAII (Michael W. Deem and Ramdas Pophale) SiO2 
 PCOD8223873
Probable space group: P C C A
;
_chemical_formula_sum "Si O2"
_cell_formula_units_Z 48
_cell_length_a 16.185023
_cell_length_b 11.564706
_cell_length_c 11.627555
_cell_angle_alpha 90.000000
_cell_angle_beta 90.000000
_cell_angle_gamma 90.000000
_cell_volume 2176.387986
_symmetry_space_group_name_H-M "P C C A"
_symmetry_group_IT_number 54
_symmetry_cell_setting 'orthorhombic'
loop_
_space_group_symop_operation_xyz
x,y,z
1/2-x,-y,z
1/2+x,-y,1/2-z
-x,y,1/2-z
-x,-y,-z
1/2+x,y,-z
1/2-x,y,1/2+z
x,-y,1/2+z
loop_
_atom_site_type_symbol
_atom_site_label
_atom_site_fract_x
_atom_site_fract_y
_atom_site_fract_z
Si Si1 0.670330 0.348906 0.712061
Si Si2 0.161112 0.054707 0.894716
Si Si3 0.925136 0.172267 0.062990
Si Si4 0.360834 0.601452 0.829521
Si Si5 0.392448 0.257613 0.550195
Si Si6 0.413308 0.808940 0.703405
O O1 0.641225 0.251744 0.624989
O O2 0.764321 0.373297 0.682462
O O3 0.618823 0.466782 0.690134
O O4 0.659140 0.305587 0.842507
O O5 0.157729 0.123006 0.773685
O O6 0.250000 0.000000 0.909445
O O7 0.088037 0.959013 0.894446
O O8 0.150101 0.143159 0.000089
O O9 0.015882 0.220769 0.090521
O O10 0.903196 0.170629 0.929625
O O11 0.407448 0.672170 0.729676
O O12 0.395196 0.642047 0.953786
O O13 0.500000 0.857166 0.750000
#
# Coordination Sequence:
#
# PCOD8223873 Si02
#       6
#     8   8   8   8   8   8
#     4  11  27  43  75 102 138 184 235 286 341 417
#     4  11  26  46  69 102 139 187 230 286 346 414
#     4  12  25  44  71 104 138 183 230 286 349 413
#     4  10  25  47  67 103 139 186 226 285 346 405
#     4  11  25  48  67 106 142 176 236 286 348 414
#     4  11  24  44  69  99 140 181 224 284 350 411
#
# _framework density 22.054891999999999
#
# number of rings (size 3 to 8) (size 9 to 14) (size 15 to 20)
#    0.000    1.000    3.333    3.000    9.333    4.000 
#    0.000    0.000    0.000    0.000    0.000    0.000 
#    0.000    0.000    0.000    0.000    0.000    0.000 
#
# Total GULP energy -595345.533413 kJ/mol
# GULP energy per Si atom -12403.031946 kJ/mol
# Density = 2.200469 g / cm^3
# Si number density = 22.054892 Si / 1000 Ang^3
#
#
#
# Elastic Constant Matrix: (Units=GPa)
#
#
# Indices 1 2 3 4 5 6 
#
# 1 50.6098 6.3807 0.2575 0.0000 0.0000 0.0000
# 2 6.3807 140.3856 39.6751 0.0000 0.0000 0.0000
# 3 0.2575 39.6751 76.8622 0.0000 0.0000 0.0000
# 4 0.0000 0.0000 0.0000 23.2270 0.0000 0.0000
# 5 0.0000 0.0000 0.0000 0.0000 24.4606 0.0000
# 6 0.0000 0.0000 0.0000 0.0000 0.0000 37.7146
#
#
#
# Elastic Compliance Matrix: (Units=1/GPa)
#
#
# Indices 1 2 3 4 5 6 
#
# 1 0.019887 -0.001036 0.000468 0.000000 0.000000 0.000000
# 2 -0.001036 0.008394 -0.004329 0.000000 0.000000 0.000000
# 3 0.000468 -0.004329 0.015243 0.000000 0.000000 0.000000
# 4 0.000000 0.000000 0.000000 0.043053 0.000000 0.000000
# 5 0.000000 0.000000 0.000000 0.000000 0.040882 0.000000
# 6 0.000000 0.000000 0.000000 0.000000 0.000000 0.026515
#
#
# Mechanical properties :
#
#
# Convention : Reuss Voigt Hill
#
# Bulk Modulus (GPa) = 29.64715 40.05379 34.85047
# Shear Modulus (GPa) = 28.56934 31.85007 30.20971
#
# Velocity S-wave (km/s) = 3.60304 3.80429 3.70503
# Velocity P-wave (km/s) = 5.54804 6.12350 5.84286
#
# Compressibility (1/GPa) = 0.03373005
#
# Stress axis : x y z
#
# Youngs Moduli (GPa) = 50.28334 119.13457 65.60187
#
# Poissons Ratio (x) = 0.12345 -0.03072
# Poissons Ratio (y) = 0.05211 0.28401
# Poissons Ratio (z) = -0.02355 0.51577
#
# Static dielectric constant tensor:
#      x y z
#    x 3.993210 0.000000 0.000000 
#    y 0.000000 4.466730 0.000000 
#    z 0.000000 0.000000 4.337180 
# 
# 
# High freq. dielectric constant tensor:
#      x y z
#    x 1.870120 0.000000 0.000000 
#    y 0.000000 1.885000 0.000000 
#    z 0.000000 0.000000 1.868540 
# 
# From -- ./inp_files/8962.got.cif
#   From: 2010.03.12/outbox.cif.g09.slc.cpg/sg54_5_cif.got.tgz:8962.got - 2010.04.16 15:00:50.
