data_PCOD8223821
_publ_section_title
;
Structure prediction by ZEFSAII (Michael W. Deem and Ramdas Pophale) SiO2 
 PCOD8223821
Probable space group: P C C A
;
_chemical_formula_sum "Si O2"
_cell_formula_units_Z 40
_cell_length_a 9.796959
_cell_length_b 9.239538
_cell_length_c 21.511744
_cell_angle_alpha 90.000000
_cell_angle_beta 90.000000
_cell_angle_gamma 90.000000
_cell_volume 1947.229621
_symmetry_space_group_name_H-M "P C C A"
_symmetry_group_IT_number 54
_symmetry_cell_setting 'orthorhombic'
loop_
_space_group_symop_operation_xyz
x,y,z
1/2-x,-y,z
1/2+x,-y,1/2-z
-x,y,1/2-z
-x,-y,-z
1/2+x,y,-z
1/2-x,y,1/2+z
x,-y,1/2+z
loop_
_atom_site_type_symbol
_atom_site_label
_atom_site_fract_x
_atom_site_fract_y
_atom_site_fract_z
Si Si1 0.527411 0.093350 0.062590
Si Si2 0.750000 0.500000 0.807992
Si Si3 0.000000 0.339427 0.250000
Si Si4 0.272606 0.266981 0.093276
Si Si5 0.527908 0.816935 0.124122
Si Si6 0.756588 0.662208 0.544242
O O1 0.383889 0.142965 0.089337
O O2 0.629311 0.229826 0.057260
O O3 0.582962 0.981135 0.114878
O O4 0.500000 0.000000 0.000000
O O5 0.872727 0.558728 0.766115
O O6 0.687677 0.624959 0.851284
O O7 0.050143 0.236763 0.305853
O O8 0.129922 0.190035 0.105978
O O9 0.273949 0.354688 0.029130
O O10 0.605986 0.719639 0.074454
O O11 0.750000 0.500000 0.572209
#
# Coordination Sequence:
#
# PCOD8223821 Si02
#       6
#     8   4   4   8   8   8
#     4  12  24  41  68 103 144 179 221 287 354 421
#     4  10  24  44  70 100 138 184 232 292 340 408
#     4  10  26  48  66  96 140 186 238 276 332 418
#     4  11  22  40  69 100 136 176 225 277 359 406
#     4  11  25  44  69  96 143 181 227 284 341 416
#     4  12  25  39  68 108 141 174 225 289 354 416
#
# _framework density 20.542005
#
# number of rings (size 3 to 8) (size 9 to 14) (size 15 to 20)
#    0.000    0.800    5.000    1.200    7.000    1.600 
#    0.000    9.000    0.000    0.000    0.000    0.000 
#    0.000    0.000    0.000    0.000    0.000    0.000 
#
# Total GULP energy -495828.473630 kJ/mol
# GULP energy per Si atom -12395.711841 kJ/mol
# Density = 2.049525 g / cm^3
# Si number density = 20.542005 Si / 1000 Ang^3
#
#
#
# Elastic Constant Matrix: (Units=GPa)
#
#
# Indices 1 2 3 4 5 6 
#
# 1 111.9476 74.0463 64.4736 0.0000 0.0000 0.0000
# 2 74.0463 180.2871 63.5535 0.0000 0.0000 0.0000
# 3 64.4736 63.5535 128.7877 0.0000 0.0000 0.0000
# 4 0.0000 0.0000 0.0000 34.5331 0.0000 0.0000
# 5 0.0000 0.0000 0.0000 0.0000 35.5390 0.0000
# 6 0.0000 0.0000 0.0000 0.0000 0.0000 41.5545
#
#
#
# Elastic Compliance Matrix: (Units=1/GPa)
#
#
# Indices 1 2 3 4 5 6 
#
# 1 0.014772 -0.004189 -0.005328 0.000000 0.000000 0.000000
# 2 -0.004189 0.007903 -0.001803 0.000000 0.000000 0.000000
# 3 -0.005328 -0.001803 0.011322 0.000000 0.000000 0.000000
# 4 0.000000 0.000000 0.000000 0.028958 0.000000 0.000000
# 5 0.000000 0.000000 0.000000 0.000000 0.028138 0.000000
# 6 0.000000 0.000000 0.000000 0.000000 0.000000 0.024065
#
#
# Mechanical properties :
#
#
# Convention : Reuss Voigt Hill
#
# Bulk Modulus (GPa) = 88.05146 91.68547 89.86846
# Shear Modulus (GPa) = 35.31530 36.92193 36.11861
#
# Velocity S-wave (km/s) = 4.15079 4.24416 4.19773
# Velocity P-wave (km/s) = 8.11968 8.29140 8.20599
#
# Compressibility (1/GPa) = 0.01135700
#
# Stress axis : x y z
#
# Youngs Moduli (GPa) = 67.69577 126.54059 88.32654
#
# Poissons Ratio (x) = 0.53006 0.47061
# Poissons Ratio (y) = 0.28357 0.15923
# Poissons Ratio (z) = 0.36069 0.22812
#
# Static dielectric constant tensor:
#      x y z
#    x 3.569530 0.000000 0.000000 
#    y 0.000000 4.127780 0.000000 
#    z 0.000000 0.000000 2.963590 
# 
# 
# High freq. dielectric constant tensor:
#      x y z
#    x 1.809760 0.000000 0.000000 
#    y 0.000000 1.820710 0.000000 
#    z 0.000000 0.000000 1.791810 
# 
# From -- ./inp_files/23316.got.cif
#   From: 2010.03.12/outbox.cif.g09.slc.cpg/sg54_12_cif.got.tgz:23316.got - 2010.04.16 15:00:50.
