data_PCOD8223177
_publ_section_title
;
Structure prediction by ZEFSAII (Michael W. Deem and Ramdas Pophale) SiO2 
 PCOD8223177
Probable space group: P C C A
;
_chemical_formula_sum "Si O2"
_cell_formula_units_Z 32
_cell_length_a 7.982746
_cell_length_b 11.926415
_cell_length_c 14.456059
_cell_angle_alpha 90.000000
_cell_angle_beta 90.000000
_cell_angle_gamma 90.000000
_cell_volume 1376.296927
_symmetry_space_group_name_H-M "P C C A"
_symmetry_group_IT_number 54
_symmetry_cell_setting 'orthorhombic'
loop_
_space_group_symop_operation_xyz
x,y,z
1/2-x,-y,z
1/2+x,-y,1/2-z
-x,y,1/2-z
-x,-y,-z
1/2+x,y,-z
1/2-x,y,1/2+z
x,-y,1/2+z
loop_
_atom_site_type_symbol
_atom_site_label
_atom_site_fract_x
_atom_site_fract_y
_atom_site_fract_z
Si Si1 0.603470 0.744063 0.070704
Si Si2 0.900736 0.922942 0.835179
Si Si3 0.771522 0.624042 0.910717
Si Si4 0.815340 0.263156 0.742301
O O1 0.525782 0.871497 0.085118
O O2 0.467853 0.649002 0.091154
O O3 0.763248 0.718962 0.136415
O O4 0.676263 0.723296 0.968263
O O5 0.822471 0.815868 0.787014
O O6 0.000000 0.985620 0.750000
O O7 0.750000 0.000000 0.876690
O O8 0.750000 0.500000 0.953324
O O9 0.693215 0.625197 0.806708
O O10 0.000000 0.210946 0.750000
#
# Coordination Sequence:
#
# PCOD8223177 Si02
#       4
#     8   8   8   8
#     4  10  22  39  57  87 122 155 204 256 300 366
#     4   9  18  35  60  87 116 154 199 246 305 368
#     4  11  22  37  58  83 118 163 203 252 309 363
#     4  10  21  37  58  85 117 154 199 254 305 363
#
# _framework density 23.250796000000001
#
# number of rings (size 3 to 8) (size 9 to 14) (size 15 to 20)
#    0.000    2.000    0.000    5.250    0.000    3.000 
#    0.000    5.000    0.000   15.000    0.000   21.000 
#    0.000    0.000    0.000    0.000    0.000    0.000 
#
# Total GULP energy -396450.054075 kJ/mol
# GULP energy per Si atom -12389.064190 kJ/mol
# Density = 2.319788 g / cm^3
# Si number density = 23.250796 Si / 1000 Ang^3
#
#
#
# Elastic Constant Matrix: (Units=GPa)
#
#
# Indices 1 2 3 4 5 6 
#
# 1 130.4566 25.1647 27.3358 0.0000 0.0000 0.0000
# 2 25.1647 80.3970 25.2737 0.0000 0.0000 0.0000
# 3 27.3358 25.2737 70.7786 0.0000 0.0000 0.0000
# 4 0.0000 0.0000 0.0000 12.9085 0.0000 0.0000
# 5 0.0000 0.0000 0.0000 0.0000 35.8552 0.0000
# 6 0.0000 0.0000 0.0000 0.0000 0.0000 29.0637
#
#
#
# Elastic Compliance Matrix: (Units=1/GPa)
#
#
# Indices 1 2 3 4 5 6 
#
# 1 0.008578 -0.001851 -0.002652 0.000000 0.000000 0.000000
# 2 -0.001851 0.014411 -0.004431 0.000000 0.000000 0.000000
# 3 -0.002652 -0.004431 0.016735 0.000000 0.000000 0.000000
# 4 0.000000 0.000000 0.000000 0.077469 0.000000 0.000000
# 5 0.000000 0.000000 0.000000 0.000000 0.027890 0.000000
# 6 0.000000 0.000000 0.000000 0.000000 0.000000 0.034407
#
#
# Mechanical properties :
#
#
# Convention : Reuss Voigt Hill
#
# Bulk Modulus (GPa) = 45.75478 48.57564 47.16521
# Shear Modulus (GPa) = 24.43284 29.15601 26.79443
#
# Velocity S-wave (km/s) = 3.24518 3.54500 3.39840
# Velocity P-wave (km/s) = 5.81060 6.13950 5.97731
#
# Compressibility (1/GPa) = 0.02185564
#
# Stress axis : x y z
#
# Youngs Moduli (GPa) = 116.57463 69.39332 59.75525
#
# Poissons Ratio (x) = 0.12847 0.15847
# Poissons Ratio (y) = 0.21582 0.26476
# Poissons Ratio (z) = 0.30915 0.30746
#
# Static dielectric constant tensor:
#      x y z
#    x 4.781030 0.000000 0.000000 
#    y 0.000000 3.850830 0.000000 
#    z 0.000000 0.000000 4.538140 
# 
# 
# High freq. dielectric constant tensor:
#      x y z
#    x 1.937700 0.000000 0.000000 
#    y 0.000000 1.885490 0.000000 
#    z 0.000000 0.000000 1.905610 
# 
# From -- ./inp_files/6793.got.cif
#   From: 2010.03.12/outbox.cif.g09.slc.cpg/sg54_4_cif.got.tgz:6793.got - 2010.04.16 15:00:50.
