data_PCOD8223338
_publ_section_title
;
Structure prediction by ZEFSAII (Michael W. Deem and Ramdas Pophale) SiO2 
 PCOD8223338
Probable space group: P C C A
;
_chemical_formula_sum "Si O2"
_cell_formula_units_Z 64
_cell_length_a 15.129836
_cell_length_b 22.217332
_cell_length_c 9.159675
_cell_angle_alpha 90.000000
_cell_angle_beta 90.000000
_cell_angle_gamma 90.000000
_cell_volume 3078.975193
_symmetry_space_group_name_H-M "P C C A"
_symmetry_group_IT_number 54
_symmetry_cell_setting 'orthorhombic'
loop_
_space_group_symop_operation_xyz
x,y,z
1/2-x,-y,z
1/2+x,-y,1/2-z
-x,y,1/2-z
-x,-y,-z
1/2+x,y,-z
1/2-x,y,1/2+z
x,-y,1/2+z
loop_
_atom_site_type_symbol
_atom_site_label
_atom_site_fract_x
_atom_site_fract_y
_atom_site_fract_z
Si Si1 0.591960 0.565920 0.689116
Si Si2 0.105697 0.060055 0.909587
Si Si3 0.603826 0.181854 0.929154
Si Si4 0.162618 0.536175 0.614525
Si Si5 0.100931 0.825542 0.914286
Si Si6 0.745002 0.733682 0.039113
Si Si7 0.741635 0.649157 0.790971
Si Si8 0.603449 0.054403 0.418369
O O1 0.500000 0.589980 0.750000
O O2 0.612227 0.504512 0.771552
O O3 0.596411 0.551270 0.517523
O O4 0.655183 0.621283 0.720944
O O5 0.144137 0.060262 0.744568
O O6 0.001335 0.051102 0.904606
O O7 0.134044 0.121783 0.987135
O O8 0.144405 0.004650 0.004038
O O9 0.499332 0.193577 0.953432
O O10 0.620411 0.172777 0.757807
O O11 0.660129 0.236900 0.997313
O O12 0.250000 0.500000 0.557394
O O13 0.184115 0.597326 0.702792
O O14 0.165456 0.778961 0.993818
O O15 0.128173 0.889614 0.979841
O O16 0.736356 0.711057 0.205739
O O17 0.727281 0.671312 0.955195
#
# Coordination Sequence:
#
# PCOD8223338 Si02
#       8
#     8   8   8   8   8   8   8   8
#     4  11  23  40  65  98 128 156 204 257 305 356
#     4   9  17  31  55  86 118 156 198 258 313 378
#     4  10  22  40  62  86 123 161 209 256 312 373
#     4  10  21  41  65  91 125 166 199 245 307 370
#     4  10  22  40  61  88 119 165 207 257 312 371
#     4  12  24  43  63  90 124 171 208 258 303 365
#     4  11  24  42  65  86 126 167 209 244 307 368
#     4   9  17  31  55  86 119 154 203 252 319 373
#
# _framework density 20.786137
#
# number of rings (size 3 to 8) (size 9 to 14) (size 15 to 20)
#    0.000    1.750    2.500    2.250    3.500    4.000 
#    0.000    0.625    0.000    3.000    0.000    0.000 
#    0.000    0.000    0.000    0.000    0.000    0.000 
#
# Total GULP energy -793501.941058 kJ/mol
# GULP energy per Si atom -12398.467829 kJ/mol
# Density = 2.073883 g / cm^3
# Si number density = 20.786137 Si / 1000 Ang^3
#
#
#
# Elastic Constant Matrix: (Units=GPa)
#
#
# Indices 1 2 3 4 5 6 
#
# 1 53.0998 32.9925 33.0981 0.0000 0.0000 0.0000
# 2 32.9925 117.2727 42.6115 0.0000 0.0000 0.0000
# 3 33.0981 42.6115 96.4368 0.0000 0.0000 0.0000
# 4 0.0000 0.0000 0.0000 36.6356 0.0000 0.0000
# 5 0.0000 0.0000 0.0000 0.0000 21.4048 0.0000
# 6 0.0000 0.0000 0.0000 0.0000 0.0000 20.4368
#
#
#
# Elastic Compliance Matrix: (Units=1/GPa)
#
#
# Indices 1 2 3 4 5 6 
#
# 1 0.026101 -0.004870 -0.006806 0.000000 0.000000 0.000000
# 2 -0.004870 0.011067 -0.003219 0.000000 0.000000 0.000000
# 3 -0.006806 -0.003219 0.014128 0.000000 0.000000 0.000000
# 4 0.000000 0.000000 0.000000 0.027296 0.000000 0.000000
# 5 0.000000 0.000000 0.000000 0.000000 0.046718 0.000000
# 6 0.000000 0.000000 0.000000 0.000000 0.000000 0.048931
#
#
# Mechanical properties :
#
#
# Convention : Reuss Voigt Hill
#
# Bulk Modulus (GPa) = 46.49927 53.80150 50.15039
# Shear Modulus (GPa) = 23.67442 26.23593 24.95518
#
# Velocity S-wave (km/s) = 3.37850 3.55658 3.46868
# Velocity P-wave (km/s) = 6.13497 6.54257 6.34205
#
# Compressibility (1/GPa) = 0.02150571
#
# Stress axis : x y z
#
# Youngs Moduli (GPa) = 38.31311 90.36167 70.78353
#
# Poissons Ratio (x) = 0.44005 0.48177
# Poissons Ratio (y) = 0.18658 0.22782
# Poissons Ratio (z) = 0.26077 0.29083
#
# Static dielectric constant tensor:
#      x y z
#    x 3.555980 0.000000 0.000000 
#    y 0.000000 3.749280 0.000000 
#    z 0.000000 0.000000 4.029770 
# 
# 
# High freq. dielectric constant tensor:
#      x y z
#    x 1.787660 0.000000 0.000000 
#    y 0.000000 1.822490 0.000000 
#    z 0.000000 0.000000 1.826700 
# 
# From -- ./inp_files/3747.got.cif
#   From: 2010.03.12/outbox.cif.g09.slc.cpg/sg54_2_cif.got.tgz:3747.got - 2010.04.16 15:00:50.
