data_PCOD8223462
_publ_section_title
;
Structure prediction by ZEFSAII (Michael W. Deem and Ramdas Pophale) SiO2 
 PCOD8223462
Probable space group: P C C A
;
_chemical_formula_sum "Si O2"
_cell_formula_units_Z 36
_cell_length_a 9.405105
_cell_length_b 7.124143
_cell_length_c 27.422944
_cell_angle_alpha 90.000000
_cell_angle_beta 90.000000
_cell_angle_gamma 90.000000
_cell_volume 1837.428099
_symmetry_space_group_name_H-M "P C C A"
_symmetry_group_IT_number 54
_symmetry_cell_setting 'orthorhombic'
loop_
_space_group_symop_operation_xyz
x,y,z
1/2-x,-y,z
1/2+x,-y,1/2-z
-x,y,1/2-z
-x,-y,-z
1/2+x,y,-z
1/2-x,y,1/2+z
x,-y,1/2+z
loop_
_atom_site_type_symbol
_atom_site_label
_atom_site_fract_x
_atom_site_fract_y
_atom_site_fract_z
Si Si1 0.258807 0.224701 0.595279
Si Si2 0.835816 0.190848 0.195093
Si Si3 0.250000 0.500000 0.879889
Si Si4 0.526912 0.502806 0.943141
Si Si5 0.335445 0.812385 0.198666
O O1 0.124851 0.319701 0.569856
O O2 0.401670 0.303530 0.570301
O O3 0.263598 0.290773 0.652326
O O4 0.250000 0.000000 0.589870
O O5 0.771034 0.321404 0.154022
O O6 0.822488 0.291731 0.248812
O O7 0.000926 0.145993 0.184952
O O8 0.750000 0.000000 0.192168
O O9 0.382787 0.534632 0.914375
O O10 0.500000 0.500000 0.000000
O O11 0.250000 0.000000 0.207394
#
# Coordination Sequence:
#
# PCOD8223462 Si02
#       5
#     8   8   4   8   8
#     4  10  22  43  68  89 117 171 206 243 312 378
#     4  10  22  39  60  95 131 160 201 255 299 364
#     4  12  24  38  62  96 120 164 204 254 318 362
#     4  11  25  44  63  90 127 155 208 271 309 359
#     4   9  19  40  63  90 126 165 206 242 300 369
#
# _framework density 19.592606
#
# number of rings (size 3 to 8) (size 9 to 14) (size 15 to 20)
#    0.000    1.778    2.222    1.333    6.222    2.667 
#    0.000    2.222    0.000    0.000    0.000    0.000 
#    0.000    0.000    0.000    0.000    0.000    0.000 
#
# Total GULP energy -446121.530440 kJ/mol
# GULP energy per Si atom -12392.264734 kJ/mol
# Density = 1.954801 g / cm^3
# Si number density = 19.592606 Si / 1000 Ang^3
#
#
#
# Elastic Constant Matrix: (Units=GPa)
#
#
# Indices 1 2 3 4 5 6 
#
# 1 144.4259 53.0701 76.5923 0.0000 0.0000 0.0000
# 2 53.0701 103.1650 58.8469 0.0000 0.0000 0.0000
# 3 76.5923 58.8469 199.2535 0.0000 0.0000 0.0000
# 4 0.0000 0.0000 0.0000 27.6722 0.0000 0.0000
# 5 0.0000 0.0000 0.0000 0.0000 61.1484 0.0000
# 6 0.0000 0.0000 0.0000 0.0000 0.0000 32.9714
#
#
#
# Elastic Compliance Matrix: (Units=1/GPa)
#
#
# Indices 1 2 3 4 5 6 
#
# 1 0.009599 -0.003407 -0.002684 0.000000 0.000000 0.000000
# 2 -0.003407 0.012866 -0.002490 0.000000 0.000000 0.000000
# 3 -0.002684 -0.002490 0.006786 0.000000 0.000000 0.000000
# 4 0.000000 0.000000 0.000000 0.036137 0.000000 0.000000
# 5 0.000000 0.000000 0.000000 0.000000 0.016354 0.000000
# 6 0.000000 0.000000 0.000000 0.000000 0.000000 0.030329
#
#
# Mechanical properties :
#
#
# Convention : Reuss Voigt Hill
#
# Bulk Modulus (GPa) = 82.71809 91.54032 87.12920
# Shear Modulus (GPa) = 37.51968 41.58075 39.55021
#
# Velocity S-wave (km/s) = 4.38081 4.61180 4.49779
# Velocity P-wave (km/s) = 8.24011 8.67073 8.45816
#
# Compressibility (1/GPa) = 0.01208925
#
# Stress axis : x y z
#
# Youngs Moduli (GPa) = 104.17596 77.72177 147.36779
#
# Poissons Ratio (x) = 0.26482 0.39548
# Poissons Ratio (y) = 0.35495 0.36698
# Poissons Ratio (z) = 0.27957 0.19354
#
# Static dielectric constant tensor:
#      x y z
#    x 3.653110 0.000000 0.000000 
#    y 0.000000 3.393190 0.000000 
#    z 0.000000 0.000000 4.053270 
# 
# 
# High freq. dielectric constant tensor:
#      x y z
#    x 1.777370 0.000000 0.000000 
#    y 0.000000 1.741400 0.000000 
#    z 0.000000 0.000000 1.785880 
# 
# From -- ./inp_files/25674.got.cif
#   From: 2010.03.12/outbox.cif.g09.slc.cpg/sg54_13_cif.got.tgz:25674.got - 2010.04.16 15:00:50.
