data_PCOD8223772
_publ_section_title
;
Structure prediction by ZEFSAII (Michael W. Deem and Ramdas Pophale) SiO2 
 PCOD8223772
Probable space group: P C C A
;
_chemical_formula_sum "Si O2"
_cell_formula_units_Z 28
_cell_length_a 8.712764
_cell_length_b 14.267324
_cell_length_c 9.880416
_cell_angle_alpha 90.000000
_cell_angle_beta 90.000000
_cell_angle_gamma 90.000000
_cell_volume 1228.213042
_symmetry_space_group_name_H-M "P C C A"
_symmetry_group_IT_number 54
_symmetry_cell_setting 'orthorhombic'
loop_
_space_group_symop_operation_xyz
x,y,z
1/2-x,-y,z
1/2+x,-y,1/2-z
-x,y,1/2-z
-x,-y,-z
1/2+x,y,-z
1/2-x,y,1/2+z
x,-y,1/2+z
loop_
_atom_site_type_symbol
_atom_site_label
_atom_site_fract_x
_atom_site_fract_y
_atom_site_fract_z
Si Si1 0.781946 0.105980 0.812033
Si Si2 0.919932 0.174443 0.548931
Si Si3 0.750000 0.500000 0.508002
Si Si4 0.506890 0.371980 0.397514
O O1 0.795281 0.166410 0.672350
O O2 0.934776 0.113316 0.903642
O O3 0.750000 0.000000 0.767567
O O4 0.641188 0.139148 0.905119
O O5 0.968969 0.281712 0.511845
O O6 0.675625 0.415294 0.422216
O O7 0.615899 0.543901 0.598038
O O8 0.500000 0.327458 0.250000
#
# Coordination Sequence:
#
# PCOD8223772 Si02
#       4
#     8   8   4   8
#     4  11  23  42  65  94 131 167 217 258 318 374
#     4  11  24  42  66  96 129 171 209 268 311 383
#     4  10  24  38  66  90 120 166 202 266 312 378
#     4  11  21  42  62  91 126 158 212 255 319 373
#
# _framework density 22.797349000000001
#
# number of rings (size 3 to 8) (size 9 to 14) (size 15 to 20)
#    0.000    1.143    2.857    4.286    0.000    3.429 
#    0.000    0.000    0.000    0.000    0.000    0.000 
#    0.000    0.000    0.000    0.000    0.000    0.000 
#
# Total GULP energy -347090.570127 kJ/mol
# GULP energy per Si atom -12396.091790 kJ/mol
# Density = 2.274546 g / cm^3
# Si number density = 22.797349 Si / 1000 Ang^3
#
#
#
# Elastic Constant Matrix: (Units=GPa)
#
#
# Indices 1 2 3 4 5 6 
#
# 1 74.1659 36.1559 4.4913 0.0000 0.0000 0.0000
# 2 36.1559 143.1922 23.2335 0.0000 0.0000 0.0000
# 3 4.4913 23.2335 53.1381 0.0000 0.0000 0.0000
# 4 0.0000 0.0000 0.0000 0.2600 0.0000 0.0000
# 5 0.0000 0.0000 0.0000 0.0000 33.0164 0.0000
# 6 0.0000 0.0000 0.0000 0.0000 0.0000 37.7048
#
#
#
# Elastic Compliance Matrix: (Units=1/GPa)
#
#
# Indices 1 2 3 4 5 6 
#
# 1 0.015385 -0.003954 0.000429 0.000000 0.000000 0.000000
# 2 -0.003954 0.008533 -0.003397 0.000000 0.000000 0.000000
# 3 0.000429 -0.003397 0.020268 0.000000 0.000000 0.000000
# 4 0.000000 0.000000 0.000000 3.846235 0.000000 0.000000
# 5 0.000000 0.000000 0.000000 0.000000 0.030288 0.000000
# 6 0.000000 0.000000 0.000000 0.000000 0.000000 0.026522
#
#
# Mechanical properties :
#
#
# Convention : Reuss Voigt Hill
#
# Bulk Modulus (GPa) = 32.95852 44.25085 38.60468
# Shear Modulus (GPa) = 1.25907 27.97061 14.61484
#
# Velocity S-wave (km/s) = 0.74397 3.50655 2.53470
# Velocity P-wave (km/s) = 3.90212 5.98725 5.05340
#
# Compressibility (1/GPa) = 0.03034117
#
# Stress axis : x y z
#
# Youngs Moduli (GPa) = 64.99821 117.18938 49.33933
#
# Poissons Ratio (x) = 0.46340 -0.02114
# Poissons Ratio (y) = 0.25702 0.16759
# Poissons Ratio (z) = -0.02785 0.39806
#
# Static dielectric constant tensor:
#      x y z
#    x 4.281470 0.000000 0.000000 
#    y 0.000000 4.005830 0.000000 
#    z 0.000000 0.000000 3.917900 
# 
# 
# High freq. dielectric constant tensor:
#      x y z
#    x 1.901900 0.000000 0.000000 
#    y 0.000000 1.910830 0.000000 
#    z 0.000000 0.000000 1.882110 
# 
# From -- ./inp_files/2458.got.cif
#   From: 2010.03.12/outbox.cif.g09.slc.cpg/sg54_2_cif.got.tgz:2458.got - 2010.04.16 15:00:50.
