data_PCOD8223036
_publ_section_title
;
Structure prediction by ZEFSAII (Michael W. Deem and Ramdas Pophale) SiO2 
 PCOD8223036
Probable space group: P C C A
;
_chemical_formula_sum "Si O2"
_cell_formula_units_Z 32
_cell_length_a 9.026285
_cell_length_b 7.623447
_cell_length_c 21.629518
_cell_angle_alpha 90.000000
_cell_angle_beta 90.000000
_cell_angle_gamma 90.000000
_cell_volume 1488.357530
_symmetry_space_group_name_H-M "P C C A"
_symmetry_group_IT_number 54
_symmetry_cell_setting 'orthorhombic'
loop_
_space_group_symop_operation_xyz
x,y,z
1/2-x,-y,z
1/2+x,-y,1/2-z
-x,y,1/2-z
-x,-y,-z
1/2+x,y,-z
1/2-x,y,1/2+z
x,-y,1/2+z
loop_
_atom_site_type_symbol
_atom_site_label
_atom_site_fract_x
_atom_site_fract_y
_atom_site_fract_z
Si Si1 0.657246 0.269672 0.602956
Si Si2 0.124365 0.125355 0.526908
Si Si3 0.482211 0.612294 0.875651
Si Si4 0.750000 0.000000 0.192499
Si Si5 0.500000 0.230182 0.250000
O O1 0.689105 0.227824 0.531650
O O2 0.810129 0.344942 0.627960
O O3 0.516390 0.403594 0.608240
O O4 0.632101 0.101327 0.647192
O O5 0.070533 0.269648 0.575541
O O6 0.250000 0.000000 0.557251
O O7 0.000000 0.000000 0.500000
O O8 0.547573 0.647060 0.807609
O O9 0.645787 0.116318 0.235750
#
# Coordination Sequence:
#
# PCOD8223036 Si02
#       5
#     8   8   8   4   4
#     4  10  20  41  62  87 123 170 201 260 337 379
#     4  12  21  38  64  92 123 160 209 256 319 388
#     4  10  22  38  63  90 129 161 211 263 319 386
#     4  10  20  40  64  84 120 170 212 258 322 398
#     4  10  22  40  60  92 118 168 208 254 320 392
#
# _framework density 21.500209999999999
#
# number of rings (size 3 to 8) (size 9 to 14) (size 15 to 20)
#    0.000    1.500    3.750    2.250    1.750    1.000 
#    0.000    0.000    0.000    0.000    0.000    0.000 
#    0.000    0.000    0.000    0.000    0.000    0.000 
#
# Total GULP energy -396537.923175 kJ/mol
# GULP energy per Si atom -12391.810099 kJ/mol
# Density = 2.145127 g / cm^3
# Si number density = 21.500210 Si / 1000 Ang^3
#
#
#
# Elastic Constant Matrix: (Units=GPa)
#
#
# Indices 1 2 3 4 5 6 
#
# 1 66.3824 42.4544 31.6817 0.0000 0.0000 0.0000
# 2 42.4544 137.0093 64.2921 0.0000 0.0000 0.0000
# 3 31.6817 64.2921 154.3079 0.0000 0.0000 0.0000
# 4 0.0000 0.0000 0.0000 24.8461 0.0000 0.0000
# 5 0.0000 0.0000 0.0000 0.0000 32.4220 0.0000
# 6 0.0000 0.0000 0.0000 0.0000 0.0000 37.8542
#
#
#
# Elastic Compliance Matrix: (Units=1/GPa)
#
#
# Indices 1 2 3 4 5 6 
#
# 1 0.019189 -0.005093 -0.001818 0.000000 0.000000 0.000000
# 2 -0.005093 0.010424 -0.003298 0.000000 0.000000 0.000000
# 3 -0.001818 -0.003298 0.008228 0.000000 0.000000 0.000000
# 4 0.000000 0.000000 0.000000 0.040248 0.000000 0.000000
# 5 0.000000 0.000000 0.000000 0.000000 0.030843 0.000000
# 6 0.000000 0.000000 0.000000 0.000000 0.000000 0.026417
#
#
# Mechanical properties :
#
#
# Convention : Reuss Voigt Hill
#
# Bulk Modulus (GPa) = 57.39136 70.50623 63.94879
# Shear Modulus (GPa) = 30.94557 33.64256 32.29406
#
# Velocity S-wave (km/s) = 3.79795 3.95999 3.87981
# Velocity P-wave (km/s) = 6.78114 7.33302 7.06247
#
# Compressibility (1/GPa) = 0.01742422
#
# Stress axis : x y z
#
# Youngs Moduli (GPa) = 52.11328 95.92943 121.54043
#
# Poissons Ratio (x) = 0.48857 0.22094
# Poissons Ratio (y) = 0.26541 0.40079
# Poissons Ratio (z) = 0.09473 0.31634
#
# Static dielectric constant tensor:
#      x y z
#    x 3.710010 0.000000 0.000000 
#    y 0.000000 4.886640 0.000000 
#    z 0.000000 0.000000 4.455290 
# 
# 
# High freq. dielectric constant tensor:
#      x y z
#    x 1.819240 0.000000 0.000000 
#    y 0.000000 1.857400 0.000000 
#    z 0.000000 0.000000 1.848570 
# 
# From -- ./inp_files/20077.got.cif
#   From: 2010.03.12/outbox.cif.g09.slc.cpg/sg54_11_cif.got.tgz:20077.got - 2010.04.16 15:00:50.
