data_PCOD8223348
_publ_section_title
;
Structure prediction by ZEFSAII (Michael W. Deem and Ramdas Pophale) SiO2 
 PCOD8223348
Probable space group: P C C A
;
_chemical_formula_sum "Si O2"
_cell_formula_units_Z 36
_cell_length_a 13.419388
_cell_length_b 5.675467
_cell_length_c 22.216837
_cell_angle_alpha 90.000000
_cell_angle_beta 90.000000
_cell_angle_gamma 90.000000
_cell_volume 1692.063049
_symmetry_space_group_name_H-M "P C C A"
_symmetry_group_IT_number 54
_symmetry_cell_setting 'orthorhombic'
loop_
_space_group_symop_operation_xyz
x,y,z
1/2-x,-y,z
1/2+x,-y,1/2-z
-x,y,1/2-z
-x,-y,-z
1/2+x,y,-z
1/2-x,y,1/2+z
x,-y,1/2+z
loop_
_atom_site_type_symbol
_atom_site_label
_atom_site_fract_x
_atom_site_fract_y
_atom_site_fract_z
Si Si1 0.004418 0.645833 0.361656
Si Si2 0.000000 0.650756 0.750000
Si Si3 0.808790 0.249994 0.565366
Si Si4 0.648996 0.640515 0.431517
Si Si5 0.140327 0.036032 0.178341
O O1 0.100068 0.779123 0.388257
O O2 0.044115 0.482899 0.307929
O O3 0.948848 0.513827 0.416647
O O4 0.924876 0.803754 0.326603
O O5 0.093880 0.797438 0.728132
O O6 0.750000 0.500000 0.577769
O O7 0.855568 0.265607 0.499163
O O8 0.750000 0.000000 0.571110
O O9 0.750000 0.500000 0.418380
O O10 0.646976 0.864741 0.388877
O O11 0.250000 0.000000 0.204311
#
# Coordination Sequence:
#
# PCOD8223348 Si02
#       5
#     8   4   8   8   8
#     4  11  24  46  67 100 138 189 235 293 351 422
#     4  10  26  44  64 100 134 176 252 290 354 414
#     4  11  27  46  69 108 150 188 229 291 360 429
#     4  10  21  41  72 105 136 175 233 286 354 428
#     4  11  22  43  71  99 132 181 236 294 345 420
#
# _framework density 21.275801999999999
#
# number of rings (size 3 to 8) (size 9 to 14) (size 15 to 20)
#    0.000    1.333    2.222    2.000    9.333    0.889 
#    8.000    0.000    0.000    0.000    0.000    0.000 
#    0.000    0.000    0.000    0.000    0.000    0.000 
#
# Total GULP energy -446198.381937 kJ/mol
# GULP energy per Si atom -12394.399498 kJ/mol
# Density = 2.122738 g / cm^3
# Si number density = 21.275802 Si / 1000 Ang^3
#
#
#
# Elastic Constant Matrix: (Units=GPa)
#
#
# Indices 1 2 3 4 5 6 
#
# 1 142.6567 65.7463 88.2004 0.0000 0.0000 0.0000
# 2 65.7463 124.0068 47.0109 0.0000 0.0000 0.0000
# 3 88.2004 47.0109 113.0417 0.0000 0.0000 0.0000
# 4 0.0000 0.0000 0.0000 -23.6417 0.0000 0.0000
# 5 0.0000 0.0000 0.0000 0.0000 502.1722 0.0000
# 6 0.0000 0.0000 0.0000 0.0000 0.0000 60.2523
#
#
#
# Elastic Compliance Matrix: (Units=1/GPa)
#
#
# Indices 1 2 3 4 5 6 
#
# 1 0.015209 -0.004232 -0.010107 0.000000 0.000000 0.000000
# 2 -0.004232 0.010751 -0.001169 0.000000 0.000000 0.000000
# 3 -0.010107 -0.001169 0.017218 0.000000 0.000000 0.000000
# 4 0.000000 0.000000 0.000000 -0.042298 0.000000 0.000000
# 5 0.000000 0.000000 0.000000 0.000000 0.001991 0.000000
# 6 0.000000 0.000000 0.000000 0.000000 0.000000 0.016597
#
#
# Mechanical properties :
#
#
# Convention : Reuss Voigt Hill
#
# Bulk Modulus (GPa) = 82.21951 86.84673 84.53312
# Shear Modulus (GPa) = 91.67894 119.67306 105.67600
#
# Velocity S-wave (km/s) = 6.57147 7.50803 7.05531
# Velocity P-wave (km/s) = 9.81364 10.77352 10.30476
#
# Compressibility (1/GPa) = 0.01216256
#
# Stress axis : x y z
#
# Youngs Moduli (GPa) = 65.75057 93.01453 58.07806
#
# Poissons Ratio (x) = 0.39365 0.58698
# Poissons Ratio (y) = 0.27826 0.06789
# Poissons Ratio (z) = 0.66453 0.10873
#
# Static dielectric constant tensor:
#      x y z
#    x 3.934890 0.000000 0.000000 
#    y 0.000000 4.144400 0.000000 
#    z 0.000000 0.000000 4.784790 
# 
# 
# High freq. dielectric constant tensor:
#      x y z
#    x 1.838050 0.000000 0.000000 
#    y 0.000000 1.840890 0.000000 
#    z 0.000000 0.000000 1.840530 
# 
# From -- ./inp_files/23832.got.cif
#   From: 2010.03.12/outbox.cif.g09.slc.cpg/sg54_12_cif.got.tgz:23832.got - 2010.04.16 15:00:50.
