data_PCOD8223390
_publ_section_title
;
Structure prediction by ZEFSAII (Michael W. Deem and Ramdas Pophale) SiO2 
 PCOD8223390
Probable space group: P C C A
;
_chemical_formula_sum "Si O2"
_cell_formula_units_Z 60
_cell_length_a 17.924781
_cell_length_b 16.470167
_cell_length_c 9.447772
_cell_angle_alpha 90.000000
_cell_angle_beta 90.000000
_cell_angle_gamma 90.000000
_cell_volume 2789.210331
_symmetry_space_group_name_H-M "P C C A"
_symmetry_group_IT_number 54
_symmetry_cell_setting 'orthorhombic'
loop_
_space_group_symop_operation_xyz
x,y,z
1/2-x,-y,z
1/2+x,-y,1/2-z
-x,y,1/2-z
-x,-y,-z
1/2+x,y,-z
1/2-x,y,1/2+z
x,-y,1/2+z
loop_
_atom_site_type_symbol
_atom_site_label
_atom_site_fract_x
_atom_site_fract_y
_atom_site_fract_z
Si Si1 0.689588 0.183650 0.667225
Si Si2 0.492889 0.584208 0.580067
Si Si3 0.674769 0.796668 0.486170
Si Si4 0.958328 0.888265 0.116832
Si Si5 0.640106 0.635687 0.110391
Si Si6 0.250000 0.500000 0.976347
Si Si7 0.058540 0.064714 0.368286
Si Si8 0.633611 0.377159 0.923314
O O1 0.770182 0.165711 0.601735
O O2 0.668379 0.272588 0.609497
O O3 0.630932 0.119063 0.615232
O O4 0.695098 0.168323 0.833884
O O5 0.500000 0.575856 0.750000
O O6 0.500000 0.500000 0.500000
O O7 0.416025 0.624934 0.523502
O O8 0.565242 0.632971 0.531204
O O9 0.592368 0.822804 0.536398
O O10 0.683595 0.699948 0.465128
O O11 0.000000 0.845497 0.250000
O O12 0.915651 0.971511 0.163760
O O13 0.022639 0.923997 0.019962
O O14 0.709364 0.571801 0.111046
O O15 0.600728 0.623409 0.263413
O O16 0.316213 0.541656 0.066233
O O17 0.000000 0.096364 0.250000
#
# Coordination Sequence:
#
# PCOD8223390 Si02
#       8
#     8   8   8   8   8   4   8   8
#     4  11  25  43  67  98 137 176 223 278 341 405
#     4  12  26  42  65  95 126 165 222 277 334 397
#     4  11  25  44  64 101 135 174 224 275 343 401
#     4  10  23  42  70 100 133 174 225 272 333 408
#     4  11  25  43  67  96 131 177 220 278 340 393
#     4  12  22  42  68  94 134 174 226 270 334 396
#     4  10  21  44  69  98 132 177 221 273 336 403
#     4  11  25  43  67  94 131 174 223 278 333 401
#
# _framework density 21.511464
#
# number of rings (size 3 to 8) (size 9 to 14) (size 15 to 20)
#    0.000    1.067    4.000    1.600    3.733    3.200 
#    0.000    1.333    0.000    0.000    0.000    0.000 
#    0.000    0.000    0.000    0.000    0.000    0.000 
#
# Total GULP energy -743517.537497 kJ/mol
# GULP energy per Si atom -12391.958958 kJ/mol
# Density = 2.146250 g / cm^3
# Si number density = 21.511464 Si / 1000 Ang^3
#
#
#
# Elastic Constant Matrix: (Units=GPa)
#
#
# Indices 1 2 3 4 5 6 
#
# 1 82.3415 22.0168 46.6623 0.0000 0.0000 0.0000
# 2 22.0168 85.3108 24.8119 0.0000 0.0000 0.0000
# 3 46.6623 24.8119 154.5955 0.0000 0.0000 0.0000
# 4 0.0000 0.0000 0.0000 24.8235 0.0000 0.0000
# 5 0.0000 0.0000 0.0000 0.0000 42.2663 0.0000
# 6 0.0000 0.0000 0.0000 0.0000 0.0000 21.4638
#
#
#
# Elastic Compliance Matrix: (Units=1/GPa)
#
#
# Indices 1 2 3 4 5 6 
#
# 1 0.015229 -0.002720 -0.004160 0.000000 0.000000 0.000000
# 2 -0.002720 0.012782 -0.001230 0.000000 0.000000 0.000000
# 3 -0.004160 -0.001230 0.007922 0.000000 0.000000 0.000000
# 4 0.000000 0.000000 0.000000 0.040284 0.000000 0.000000
# 5 0.000000 0.000000 0.000000 0.000000 0.023660 0.000000
# 6 0.000000 0.000000 0.000000 0.000000 0.000000 0.046590
#
#
# Mechanical properties :
#
#
# Convention : Reuss Voigt Hill
#
# Bulk Modulus (GPa) = 50.73290 56.58108 53.65699
# Shear Modulus (GPa) = 29.54052 32.96116 31.25084
#
# Velocity S-wave (km/s) = 3.70975 3.91866 3.81563
# Velocity P-wave (km/s) = 6.47958 6.84356 6.66406
#
# Compressibility (1/GPa) = 0.01971107
#
# Stress axis : x y z
#
# Youngs Moduli (GPa) = 65.66212 78.23651 126.23660
#
# Poissons Ratio (x) = 0.21284 0.52517
# Poissons Ratio (y) = 0.17863 0.15531
# Poissons Ratio (z) = 0.27317 0.09625
#
# Static dielectric constant tensor:
#      x y z
#    x 3.256180 0.000000 0.000000 
#    y 0.000000 4.017410 0.000000 
#    z 0.000000 0.000000 4.087870 
# 
# 
# High freq. dielectric constant tensor:
#      x y z
#    x 1.835740 0.000000 0.000000 
#    y 0.000000 1.846020 0.000000 
#    z 0.000000 0.000000 1.851860 
# 
# From -- ./inp_files/4367.got.cif
#   From: 2010.03.12/outbox.cif.g09.slc.cpg/sg54_3_cif.got.tgz:4367.got - 2010.04.16 15:00:50.
