data_PCOD8223529
_publ_section_title
;
Structure prediction by ZEFSAII (Michael W. Deem and Ramdas Pophale) SiO2 
 PCOD8223529
Probable space group: P C C A
;
_chemical_formula_sum "Si O2"
_cell_formula_units_Z 36
_cell_length_a 18.129512
_cell_length_b 5.540164
_cell_length_c 15.711943
_cell_angle_alpha 90.000000
_cell_angle_beta 90.000000
_cell_angle_gamma 90.000000
_cell_volume 1578.114935
_symmetry_space_group_name_H-M "P C C A"
_symmetry_group_IT_number 54
_symmetry_cell_setting 'orthorhombic'
loop_
_space_group_symop_operation_xyz
x,y,z
1/2-x,-y,z
1/2+x,-y,1/2-z
-x,y,1/2-z
-x,-y,-z
1/2+x,y,-z
1/2-x,y,1/2+z
x,-y,1/2+z
loop_
_atom_site_type_symbol
_atom_site_label
_atom_site_fract_x
_atom_site_fract_y
_atom_site_fract_z
Si Si1 0.750000 0.500000 0.619060
Si Si2 0.883888 0.130469 0.329866
Si Si3 0.986770 0.753284 0.410678
Si Si4 0.500000 0.436654 0.750000
Si Si5 0.881735 0.390581 0.494150
Si Si6 0.750000 0.000000 0.724492
O O1 0.819889 0.469029 0.559392
O O2 0.757529 0.748669 0.672986
O O3 0.922944 0.293332 0.258645
O O4 0.846747 0.281496 0.407337
O O5 0.952328 0.988224 0.369704
O O6 0.821736 0.969229 0.284685
O O7 0.014068 0.585005 0.334667
O O8 0.927029 0.630462 0.471978
O O9 0.061446 0.806981 0.464565
#
# Coordination Sequence:
#
# PCOD8223529 Si02
#       6
#     4   8   8   4   8   4
#     4  12  30  50  74 108 154 196 248 308 370 454
#     4  11  25  43  75 102 146 191 245 304 367 444
#     4  10  22  43  70 103 140 187 246 301 366 438
#     4  10  22  40  70 108 138 190 232 312 352 446
#     4  10  25  43  72 101 144 189 248 298 375 431
#     4  12  32  46  74 108 152 196 246 304 380 434
#
# _framework density 22.812027
#
# number of rings (size 3 to 8) (size 9 to 14) (size 15 to 20)
#    0.000    1.333    0.000    2.667   18.667    0.000 
#    0.000    0.000    0.000    0.000    0.000    0.000 
#    0.000    0.000    0.000    0.000    0.000    0.000 
#
# Total GULP energy -446257.412941 kJ/mol
# GULP energy per Si atom -12396.039248 kJ/mol
# Density = 2.276011 g / cm^3
# Si number density = 22.812027 Si / 1000 Ang^3
#
#
#
# Elastic Constant Matrix: (Units=GPa)
#
#
# Indices 1 2 3 4 5 6 
#
# 1 115.1099 34.6940 76.4386 0.0000 0.0000 0.0000
# 2 34.6940 100.8684 45.6763 0.0000 0.0000 0.0000
# 3 76.4386 45.6763 127.6166 0.0000 0.0000 0.0000
# 4 0.0000 0.0000 0.0000 -133.1614 0.0000 0.0000
# 5 0.0000 0.0000 0.0000 0.0000 41.4915 0.0000
# 6 0.0000 0.0000 0.0000 0.0000 0.0000 1.1038
#
#
#
# Elastic Compliance Matrix: (Units=1/GPa)
#
#
# Indices 1 2 3 4 5 6 
#
# 1 0.014558 -0.001263 -0.008268 0.000000 0.000000 0.000000
# 2 -0.001263 0.011941 -0.003517 0.000000 0.000000 0.000000
# 3 -0.008268 -0.003517 0.014047 0.000000 0.000000 0.000000
# 4 0.000000 0.000000 0.000000 -0.007510 0.000000 0.000000
# 5 0.000000 0.000000 0.000000 0.000000 0.024101 0.000000
# 6 0.000000 0.000000 0.000000 0.000000 0.000000 0.905947
#
#
# Mechanical properties :
#
#
# Convention : Reuss Voigt Hill
#
# Bulk Modulus (GPa) = 69.20595 73.02362 71.11479
# Shear Modulus (GPa) = 5.03019 -5.66080 -0.31531
#
# Velocity S-wave (km/s) = 1.48656 -1.57699 -0.37218
# Velocity P-wave (km/s) = 5.77493 5.36327 5.57290
#
# Compressibility (1/GPa) = 0.01444962
#
# Stress axis : x y z
#
# Youngs Moduli (GPa) = 68.68885 83.74385 71.18947
#
# Poissons Ratio (x) = 0.10581 0.58858
# Poissons Ratio (y) = 0.08679 0.25039
# Poissons Ratio (z) = 0.56791 0.29454
#
# Static dielectric constant tensor:
#      x y z
#    x 2.867100 0.000000 0.000000 
#    y 0.000000 4.078810 0.000000 
#    z 0.000000 0.000000 5.027240 
# 
# 
# High freq. dielectric constant tensor:
#      x y z
#    x 1.898550 0.000000 0.000000 
#    y 0.000000 1.892420 0.000000 
#    z 0.000000 0.000000 1.928300 
# 
# From -- ./inp_files/14482.got.cif
#   From: 2010.03.12/outbox.cif.g09.slc.cpg/sg54_8_cif.got.tgz:14482.got - 2010.04.16 15:00:50.
