data_PCOD8223174
_publ_section_title
;
Structure prediction by ZEFSAII (Michael W. Deem and Ramdas Pophale) SiO2 
 PCOD8223174
Probable space group: P C C A
;
_chemical_formula_sum "Si O2"
_cell_formula_units_Z 56
_cell_length_a 9.168278
_cell_length_b 22.090627
_cell_length_c 13.072545
_cell_angle_alpha 90.000000
_cell_angle_beta 90.000000
_cell_angle_gamma 90.000000
_cell_volume 2647.621881
_symmetry_space_group_name_H-M "P C C A"
_symmetry_group_IT_number 54
_symmetry_cell_setting 'orthorhombic'
loop_
_space_group_symop_operation_xyz
x,y,z
1/2-x,-y,z
1/2+x,-y,1/2-z
-x,y,1/2-z
-x,-y,-z
1/2+x,y,-z
1/2-x,y,1/2+z
x,-y,1/2+z
loop_
_atom_site_type_symbol
_atom_site_label
_atom_site_fract_x
_atom_site_fract_y
_atom_site_fract_z
Si Si1 0.511001 0.427061 0.990914
Si Si2 0.155330 0.941594 0.205274
Si Si3 0.775497 0.620682 0.377240
Si Si4 0.935237 0.846863 0.451065
Si Si5 0.754620 0.158491 0.638949
Si Si6 0.142451 0.451294 0.302938
Si Si7 0.654189 0.746428 0.796577
O O1 0.672251 0.400119 0.972188
O O2 0.416392 0.407114 0.891340
O O3 0.500000 0.500000 0.000000
O O4 0.441638 0.394149 0.089215
O O5 0.129279 0.908080 0.097759
O O6 0.239316 0.898634 0.285406
O O7 0.000000 0.961571 0.250000
O O8 0.250000 0.000000 0.181384
O O9 0.741580 0.582281 0.278007
O O10 0.757199 0.690289 0.344241
O O11 0.892292 0.843573 0.570940
O O12 0.867792 0.790785 0.391018
O O13 0.109750 0.844304 0.439962
O O14 0.755847 0.219961 0.706377
O O15 0.250000 0.500000 0.355095
O O16 0.000000 0.481735 0.250000
O O17 0.500000 0.724838 0.750000
#
# Coordination Sequence:
#
# PCOD8223174 Si02
#       7
#     8   8   8   8   8   8   8
#     4  11  23  40  59  85 117 148 189 238 291 355
#     4   9  19  35  55  83 121 157 196 242 290 349
#     4  11  23  38  60  87 114 150 191 238 292 353
#     4   9  19  37  59  82 114 155 195 241 298 347
#     4   9  19  38  59  82 114 154 195 244 296 347
#     4  10  21  37  57  82 112 145 185 233 288 350
#     4   9  21  39  58  83 114 149 193 242 294 351
#
# _framework density 21.151057000000002
#
# number of rings (size 3 to 8) (size 9 to 14) (size 15 to 20)
#    0.000    2.286    0.000    4.714    0.000    8.000 
#    0.000    7.857    0.000    0.000    0.000    0.000 
#    0.000    0.000    0.000    0.000    0.000    0.000 
#
# Total GULP energy -694155.656814 kJ/mol
# GULP energy per Si atom -12395.636729 kJ/mol
# Density = 2.110292 g / cm^3
# Si number density = 21.151057 Si / 1000 Ang^3
#
#
#
# Elastic Constant Matrix: (Units=GPa)
#
#
# Indices 1 2 3 4 5 6 
#
# 1 44.8963 39.7731 11.5795 0.0000 0.0000 0.0000
# 2 39.7731 119.1628 19.4688 0.0000 0.0000 0.0000
# 3 11.5795 19.4688 63.3370 0.0000 0.0000 0.0000
# 4 0.0000 0.0000 0.0000 23.4424 0.0000 0.0000
# 5 0.0000 0.0000 0.0000 0.0000 46.7203 0.0000
# 6 0.0000 0.0000 0.0000 0.0000 0.0000 25.2830
#
#
#
# Elastic Compliance Matrix: (Units=1/GPa)
#
#
# Indices 1 2 3 4 5 6 
#
# 1 0.032060 -0.010258 -0.002708 0.000000 0.000000 0.000000
# 2 -0.010258 0.012118 -0.001849 0.000000 0.000000 0.000000
# 3 -0.002708 -0.001849 0.016852 0.000000 0.000000 0.000000
# 4 0.000000 0.000000 0.000000 0.042658 0.000000 0.000000
# 5 0.000000 0.000000 0.000000 0.000000 0.021404 0.000000
# 6 0.000000 0.000000 0.000000 0.000000 0.000000 0.039552
#
#
# Mechanical properties :
#
#
# Convention : Reuss Voigt Hill
#
# Bulk Modulus (GPa) = 31.84874 41.00430 36.42652
# Shear Modulus (GPa) = 24.42112 29.52746 26.97429
#
# Velocity S-wave (km/s) = 3.40163 3.74040 3.57503
# Velocity P-wave (km/s) = 5.52436 6.17111 5.85667
#
# Compressibility (1/GPa) = 0.03139842
#
# Stress axis : x y z
#
# Youngs Moduli (GPa) = 31.19195 82.52257 59.33963
#
# Poissons Ratio (x) = 0.84652 0.16069
# Poissons Ratio (y) = 0.31997 0.10974
# Poissons Ratio (z) = 0.08447 0.15262
#
# Static dielectric constant tensor:
#      x y z
#    x 3.995960 0.000000 0.000000 
#    y 0.000000 3.657010 0.000000 
#    z 0.000000 0.000000 3.882420 
# 
# 
# High freq. dielectric constant tensor:
#      x y z
#    x 1.824830 0.000000 0.000000 
#    y 0.000000 1.808800 0.000000 
#    z 0.000000 0.000000 1.836190 
# 
# From -- ./inp_files/11884.got.cif
#   From: 2010.03.12/outbox.cif.g09.slc.cpg/sg54_6_cif.got.tgz:11884.got - 2010.04.16 15:00:50.
