data_PCOD8223966
_publ_section_title
;
Structure prediction by ZEFSAII (Michael W. Deem and Ramdas Pophale) SiO2 
 PCOD8223966
Probable space group: P C C A
;
_chemical_formula_sum "Si O2"
_cell_formula_units_Z 24
_cell_length_a 9.073771
_cell_length_b 8.758047
_cell_length_c 13.331610
_cell_angle_alpha 90.000000
_cell_angle_beta 90.000000
_cell_angle_gamma 90.000000
_cell_volume 1059.443221
_symmetry_space_group_name_H-M "P C C A"
_symmetry_group_IT_number 54
_symmetry_cell_setting 'orthorhombic'
loop_
_space_group_symop_operation_xyz
x,y,z
1/2-x,-y,z
1/2+x,-y,1/2-z
-x,y,1/2-z
-x,-y,-z
1/2+x,y,-z
1/2-x,y,1/2+z
x,-y,1/2+z
loop_
_atom_site_type_symbol
_atom_site_label
_atom_site_fract_x
_atom_site_fract_y
_atom_site_fract_z
Si Si1 0.642562 0.629665 0.185405
Si Si2 0.340108 0.150780 0.199630
Si Si3 0.628233 0.113887 0.524557
O O1 0.750000 0.500000 0.136363
O O2 0.500000 0.571630 0.250000
O O3 0.756989 0.704287 0.259939
O O4 0.588029 0.749931 0.100937
O O5 0.500000 0.133200 0.250000
O O6 0.250000 0.000000 0.225503
O O7 0.334030 0.188304 0.081672
O O8 0.750000 0.000000 0.571607
O O9 0.500000 0.000000 0.500000
#
# Coordination Sequence:
#
# PCOD8223966 Si02
#       3
#     8   8   8
#     4  12  26  44  65  95 135 177 221 278 347 412
#     4  11  22  41  68  98 131 172 223 278 333 401
#     4  11  23  41  69  99 128 173 229 280 332 401
#
# _framework density 22.653407000000001
#
# number of rings (size 3 to 8) (size 9 to 14) (size 15 to 20)
#    0.000    0.667    0.000   11.000    0.000    1.333 
#    0.000   10.000    0.000    0.000    0.000    0.000 
#    0.000    0.000    0.000    0.000    0.000    0.000 
#
# Total GULP energy -297347.542953 kJ/mol
# GULP energy per Si atom -12389.480956 kJ/mol
# Density = 2.260185 g / cm^3
# Si number density = 22.653407 Si / 1000 Ang^3
#
#
#
# Elastic Constant Matrix: (Units=GPa)
#
#
# Indices 1 2 3 4 5 6 
#
# 1 156.4649 46.5132 27.6014 0.0000 0.0000 0.0000
# 2 46.5132 100.1586 39.5197 0.0000 0.0000 0.0000
# 3 27.6014 39.5197 111.1391 0.0000 0.0000 0.0000
# 4 0.0000 0.0000 0.0000 71.8981 0.0000 0.0000
# 5 0.0000 0.0000 0.0000 0.0000 29.1942 0.0000
# 6 0.0000 0.0000 0.0000 0.0000 0.0000 40.7360
#
#
#
# Elastic Compliance Matrix: (Units=1/GPa)
#
#
# Indices 1 2 3 4 5 6 
#
# 1 0.007464 -0.003181 -0.000723 0.000000 0.000000 0.000000
# 2 -0.003181 0.012969 -0.003822 0.000000 0.000000 0.000000
# 3 -0.000723 -0.003822 0.010536 0.000000 0.000000 0.000000
# 4 0.000000 0.000000 0.000000 0.013909 0.000000 0.000000
# 5 0.000000 0.000000 0.000000 0.000000 0.034253 0.000000
# 6 0.000000 0.000000 0.000000 0.000000 0.000000 0.024548
#
#
# Mechanical properties :
#
#
# Convention : Reuss Voigt Hill
#
# Bulk Modulus (GPa) = 64.43774 66.11458 65.27616
# Shear Modulus (GPa) = 40.22383 45.30755 42.76569
#
# Velocity S-wave (km/s) = 4.21838 4.47702 4.34963
# Velocity P-wave (km/s) = 7.22725 7.48155 7.35550
#
# Compressibility (1/GPa) = 0.01551886
#
# Stress axis : x y z
#
# Youngs Moduli (GPa) = 133.96916 77.10402 94.91156
#
# Poissons Ratio (x) = 0.24529 0.06858
# Poissons Ratio (y) = 0.42620 0.36272
# Poissons Ratio (z) = 0.09680 0.29467
#
# Static dielectric constant tensor:
#      x y z
#    x 4.450610 0.000000 0.000000 
#    y 0.000000 4.155960 0.000000 
#    z 0.000000 0.000000 3.726570 
# 
# 
# High freq. dielectric constant tensor:
#      x y z
#    x 1.912560 0.000000 0.000000 
#    y 0.000000 1.886050 0.000000 
#    z 0.000000 0.000000 1.904480 
# 
# From -- ./inp_files/11093.got.cif
#   From: 2010.03.12/outbox.cif.g09.slc.cpg/sg54_6_cif.got.tgz:11093.got - 2010.04.16 15:00:50.
