data_PCOD8223647
_publ_section_title
;
Structure prediction by ZEFSAII (Michael W. Deem and Ramdas Pophale) SiO2 
 PCOD8223647
Probable space group: P C C A
;
_chemical_formula_sum "Si O2"
_cell_formula_units_Z 60
_cell_length_a 16.918795
_cell_length_b 17.524811
_cell_length_c 9.485717
_cell_angle_alpha 90.000000
_cell_angle_beta 90.000000
_cell_angle_gamma 90.000000
_cell_volume 2812.502614
_symmetry_space_group_name_H-M "P C C A"
_symmetry_group_IT_number 54
_symmetry_cell_setting 'orthorhombic'
loop_
_space_group_symop_operation_xyz
x,y,z
1/2-x,-y,z
1/2+x,-y,1/2-z
-x,y,1/2-z
-x,-y,-z
1/2+x,y,-z
1/2-x,y,1/2+z
x,-y,1/2+z
loop_
_atom_site_type_symbol
_atom_site_label
_atom_site_fract_x
_atom_site_fract_y
_atom_site_fract_z
Si Si1 0.296441 0.898052 0.080238
Si Si2 0.703847 0.749956 0.948540
Si Si3 0.554450 0.197435 0.863372
Si Si4 0.838801 0.528976 0.781521
Si Si5 0.025410 0.283815 0.600547
Si Si6 0.326637 0.306390 0.759032
Si Si7 0.564777 0.556877 0.554400
Si Si8 0.750000 0.000000 0.669843
O O1 0.221010 0.839828 0.085920
O O2 0.376675 0.852182 0.072403
O O3 0.301020 0.947791 0.223578
O O4 0.300136 0.947610 0.937248
O O5 0.620353 0.713803 0.902193
O O6 0.768623 0.696920 0.874446
O O7 0.713865 0.741815 0.116250
O O8 0.500000 0.152251 0.750000
O O9 0.588591 0.271536 0.781719
O O10 0.498329 0.220669 0.989452
O O11 0.750000 0.500000 0.795033
O O12 0.839479 0.606741 0.689486
O O13 0.896816 0.468142 0.704975
O O14 0.866900 0.555333 0.936811
O O15 0.000000 0.251254 0.750000
O O16 0.978771 0.362595 0.572853
O O17 0.500000 0.500000 0.500000
#
# Coordination Sequence:
#
# PCOD8223647 Si02
#       8
#     8   8   8   8   8   8   8   4
#     4  10  23  43  74 105 138 183 224 265 332 405
#     4  11  25  42  72 101 134 174 235 282 337 405
#     4  11  23  45  70 100 138 177 226 284 345 401
#     4  12  28  43  66  92 135 184 239 294 359 425
#     4  12  27  42  68 100 135 176 233 295 352 408
#     4  11  25  42  68  96 133 179 233 295 343 406
#     4  12  27  47  64  94 134 184 232 294 366 426
#     4  10  22  44  74 102 146 182 218 260 328 416
#
# _framework density 21.333314000000001
#
# number of rings (size 3 to 8) (size 9 to 14) (size 15 to 20)
#    0.000    0.800    2.667    4.000   13.067    0.000 
#    0.000    0.667    0.000    0.000    0.000    0.000 
#    0.000    0.000    0.000    0.000    0.000    0.000 
#
# Total GULP energy -743778.263850 kJ/mol
# GULP energy per Si atom -12396.304398 kJ/mol
# Density = 2.128476 g / cm^3
# Si number density = 21.333314 Si / 1000 Ang^3
#
#
#
# Elastic Constant Matrix: (Units=GPa)
#
#
# Indices 1 2 3 4 5 6 
#
# 1 96.5257 14.4916 21.6940 0.0000 0.0000 0.0000
# 2 14.4916 87.0667 15.8814 0.0000 0.0000 0.0000
# 3 21.6940 15.8814 124.3650 0.0000 0.0000 0.0000
# 4 0.0000 0.0000 0.0000 20.6633 0.0000 0.0000
# 5 0.0000 0.0000 0.0000 0.0000 27.4811 0.0000
# 6 0.0000 0.0000 0.0000 0.0000 0.0000 4.0850
#
#
#
# Elastic Compliance Matrix: (Units=1/GPa)
#
#
# Indices 1 2 3 4 5 6 
#
# 1 0.010974 -0.001513 -0.001721 0.000000 0.000000 0.000000
# 2 -0.001513 0.011968 -0.001264 0.000000 0.000000 0.000000
# 3 -0.001721 -0.001264 0.008503 0.000000 0.000000 0.000000
# 4 0.000000 0.000000 0.000000 0.048395 0.000000 0.000000
# 5 0.000000 0.000000 0.000000 0.000000 0.036389 0.000000
# 6 0.000000 0.000000 0.000000 0.000000 0.000000 0.244796
#
#
# Mechanical properties :
#
#
# Convention : Reuss Voigt Hill
#
# Bulk Modulus (GPa) = 44.54741 45.78792 45.16766
# Shear Modulus (GPa) = 13.24493 27.50525 20.37509
#
# Velocity S-wave (km/s) = 2.49440 3.59459 3.09379
# Velocity P-wave (km/s) = 5.40583 6.22397 5.82927
#
# Compressibility (1/GPa) = 0.02244800
#
# Stress axis : x y z
#
# Youngs Moduli (GPa) = 91.12588 83.55720 117.61192
#
# Poissons Ratio (x) = 0.12639 0.20242
# Poissons Ratio (y) = 0.13783 0.14871
# Poissons Ratio (z) = 0.15684 0.10565
#
# Static dielectric constant tensor:
#      x y z
#    x 3.871500 0.000000 0.000000 
#    y 0.000000 3.746430 0.000000 
#    z 0.000000 0.000000 4.257170 
# 
# 
# High freq. dielectric constant tensor:
#      x y z
#    x 1.838230 0.000000 0.000000 
#    y 0.000000 1.826260 0.000000 
#    z 0.000000 0.000000 1.857050 
# 
# From -- ./inp_files/4352.got.cif
#   From: 2010.03.12/outbox.cif.g09.slc.cpg/sg54_3_cif.got.tgz:4352.got - 2010.04.16 15:00:50.
