data_PCOD8223583
_publ_section_title
;
Structure prediction by ZEFSAII (Michael W. Deem and Ramdas Pophale) SiO2 
 PCOD8223583
Probable space group: P C C A
;
_chemical_formula_sum "Si O2"
_cell_formula_units_Z 40
_cell_length_a 9.055208
_cell_length_b 8.922557
_cell_length_c 21.886319
_cell_angle_alpha 90.000000
_cell_angle_beta 90.000000
_cell_angle_gamma 90.000000
_cell_volume 1768.318484
_symmetry_space_group_name_H-M "P C C A"
_symmetry_group_IT_number 54
_symmetry_cell_setting 'orthorhombic'
loop_
_space_group_symop_operation_xyz
x,y,z
1/2-x,-y,z
1/2+x,-y,1/2-z
-x,y,1/2-z
-x,-y,-z
1/2+x,y,-z
1/2-x,y,1/2+z
x,-y,1/2+z
loop_
_atom_site_type_symbol
_atom_site_label
_atom_site_fract_x
_atom_site_fract_y
_atom_site_fract_z
Si Si1 0.793508 0.171606 0.300703
Si Si2 0.750000 0.000000 0.583568
Si Si3 0.731679 0.674505 0.920871
Si Si4 0.628547 0.757973 0.173189
Si Si5 0.575961 0.252365 0.024785
Si Si6 0.250000 0.500000 0.898359
O O1 0.703265 0.257355 0.353646
O O2 0.759899 0.229726 0.231868
O O3 0.964421 0.202606 0.309028
O O4 0.750000 0.000000 0.306038
O O5 0.670597 0.122335 0.623307
O O6 0.874669 0.085470 0.544096
O O7 0.750000 0.500000 0.912453
O O8 0.598796 0.724847 0.966082
O O9 0.882652 0.733347 0.952916
O O10 0.638692 0.591529 0.145410
O O11 0.656379 0.386595 0.060750
#
# Coordination Sequence:
#
# PCOD8223583 Si02
#       6
#     8   4   8   8   8   4
#     4  11  24  42  66  96 132 170 221 272 336 398
#     4  10  22  42  66  94 132 170 218 270 336 394
#     4  12  26  42  66  97 134 175 222 277 332 404
#     4  10  22  43  68  93 130 173 217 275 332 403
#     4  11  25  42  67  95 134 174 222 274 335 397
#     4  10  22  44  66  94 128 174 220 274 334 398
#
# _framework density 22.620359000000001
#
# number of rings (size 3 to 8) (size 9 to 14) (size 15 to 20)
#    0.000    1.200    2.000    3.000    8.400    0.800 
#    0.000    0.000    0.000    0.000    0.000    0.000 
#    0.000    0.000    0.000    0.000    0.000    0.000 
#
# Total GULP energy -495949.475894 kJ/mol
# GULP energy per Si atom -12398.736897 kJ/mol
# Density = 2.256887 g / cm^3
# Si number density = 22.620359 Si / 1000 Ang^3
#
#
#
# Elastic Constant Matrix: (Units=GPa)
#
#
# Indices 1 2 3 4 5 6 
#
# 1 63.0651 18.8468 -0.1533 0.0000 0.0000 0.0000
# 2 18.8468 120.2801 42.4590 0.0000 0.0000 0.0000
# 3 -0.1533 42.4590 100.5933 0.0000 0.0000 0.0000
# 4 0.0000 0.0000 0.0000 -13.0437 0.0000 0.0000
# 5 0.0000 0.0000 0.0000 0.0000 42.7210 0.0000
# 6 0.0000 0.0000 0.0000 0.0000 0.0000 32.9590
#
#
#
# Elastic Compliance Matrix: (Units=1/GPa)
#
#
# Indices 1 2 3 4 5 6 
#
# 1 0.016787 -0.003101 0.001335 0.000000 0.000000 0.000000
# 2 -0.003101 0.010343 -0.004370 0.000000 0.000000 0.000000
# 3 0.001335 -0.004370 0.011788 0.000000 0.000000 0.000000
# 4 0.000000 0.000000 0.000000 -0.076666 0.000000 0.000000
# 5 0.000000 0.000000 0.000000 0.000000 0.023408 0.000000
# 6 0.000000 0.000000 0.000000 0.000000 0.000000 0.030341
#
#
# Mechanical properties :
#
#
# Convention : Reuss Voigt Hill
#
# Bulk Modulus (GPa) = 37.53332 45.13818 41.33575
# Shear Modulus (GPa) = 134.57253 27.37967 80.97610
#
# Velocity S-wave (km/s) = 7.72146 3.48285 5.98962
# Velocity P-wave (km/s) = 9.80425 6.01429 8.13311
#
# Compressibility (1/GPa) = 0.02664299
#
# Stress axis : x y z
#
# Youngs Moduli (GPa) = 59.57079 96.68774 84.83465
#
# Poissons Ratio (x) = 0.29987 -0.11323
# Poissons Ratio (y) = 0.18476 0.37074
# Poissons Ratio (z) = -0.07951 0.42254
#
# Static dielectric constant tensor:
#      x y z
#    x 4.052400 0.000000 0.000000 
#    y 0.000000 4.415600 0.000000 
#    z 0.000000 0.000000 4.933460 
# 
# 
# High freq. dielectric constant tensor:
#      x y z
#    x 1.878830 0.000000 0.000000 
#    y 0.000000 1.905020 0.000000 
#    z 0.000000 0.000000 1.911470 
# 
# From -- ./inp_files/23329.got.cif
#   From: 2010.03.12/outbox.cif.g09.slc.cpg/sg54_12_cif.got.tgz:23329.got - 2010.04.16 15:00:50.
