data_PCOD8223587
_publ_section_title
;
Structure prediction by ZEFSAII (Michael W. Deem and Ramdas Pophale) SiO2 
 PCOD8223587
Probable space group: P C C A
;
_chemical_formula_sum "Si O2"
_cell_formula_units_Z 56
_cell_length_a 21.795038
_cell_length_b 8.888443
_cell_length_c 12.857013
_cell_angle_alpha 90.000000
_cell_angle_beta 90.000000
_cell_angle_gamma 90.000000
_cell_volume 2490.711381
_symmetry_space_group_name_H-M "P C C A"
_symmetry_group_IT_number 54
_symmetry_cell_setting 'orthorhombic'
loop_
_space_group_symop_operation_xyz
x,y,z
1/2-x,-y,z
1/2+x,-y,1/2-z
-x,y,1/2-z
-x,-y,-z
1/2+x,y,-z
1/2-x,y,1/2+z
x,-y,1/2+z
loop_
_atom_site_type_symbol
_atom_site_label
_atom_site_fract_x
_atom_site_fract_y
_atom_site_fract_z
Si Si1 0.310553 0.410497 0.425358
Si Si2 0.448257 0.724417 0.610648
Si Si3 0.132487 0.079221 0.265329
Si Si4 0.677414 0.230300 0.272359
Si Si5 0.903294 0.336749 0.105846
Si Si6 0.784634 0.150077 0.418501
Si Si7 0.500000 0.526353 0.250000
Si Si8 0.500000 0.036097 0.250000
O O1 0.250000 0.500000 0.453159
O O2 0.314852 0.369117 0.304630
O O3 0.368171 0.520697 0.445137
O O4 0.310274 0.258535 0.492420
O O5 0.380324 0.747166 0.653999
O O6 0.446149 0.728202 0.485729
O O7 0.476249 0.569675 0.652374
O O8 0.492214 0.859199 0.648039
O O9 0.145709 0.210787 0.350988
O O10 0.154987 0.113462 0.148609
O O11 0.059011 0.066481 0.266740
O O12 0.167485 0.923753 0.295059
O O13 0.737858 0.233107 0.341780
O O14 0.944305 0.375306 0.206038
O O15 0.750000 0.000000 0.462563
#
# Coordination Sequence:
#
# PCOD8223587 Si02
#       8
#     8   8   8   8   8   8   4   4
#     4  12  26  41  69 102 137 177 222 281 358 421
#     4  10  22  42  67  95 136 182 238 282 351 404
#     4  10  23  43  66  99 133 178 233 281 339 401
#     4  10  22  45  68  94 138 179 222 292 342 415
#     4  12  25  40  69 104 135 186 227 291 347 421
#     4  10  24  44  70  98 135 180 230 287 347 418
#     4  11  23  44  62  96 144 180 232 284 342 406
#     4   9  21  44  68  92 134 188 228 292 326 408
#
# _framework density 22.483536000000001
#
# number of rings (size 3 to 8) (size 9 to 14) (size 15 to 20)
#    0.000    1.429    1.429    2.571    2.000    9.714 
#    2.571    0.000    0.000    0.000    0.000    0.000 
#    0.000    0.000    0.000    0.000    0.000    0.000 
#
# Total GULP energy -694373.617508 kJ/mol
# GULP energy per Si atom -12399.528884 kJ/mol
# Density = 2.243236 g / cm^3
# Si number density = 22.483536 Si / 1000 Ang^3
#
#
#
# Elastic Constant Matrix: (Units=GPa)
#
#
# Indices 1 2 3 4 5 6 
#
# 1 100.2257 16.9723 17.8069 0.0000 0.0000 0.0000
# 2 16.9723 95.6045 35.7558 0.0000 0.0000 0.0000
# 3 17.8069 35.7558 76.9478 0.0000 0.0000 0.0000
# 4 0.0000 0.0000 0.0000 12.0810 0.0000 0.0000
# 5 0.0000 0.0000 0.0000 0.0000 29.8448 0.0000
# 6 0.0000 0.0000 0.0000 0.0000 0.0000 31.2535
#
#
#
# Elastic Compliance Matrix: (Units=1/GPa)
#
#
# Indices 1 2 3 4 5 6 
#
# 1 0.010510 -0.001157 -0.001894 0.000000 0.000000 0.000000
# 2 -0.001157 0.012787 -0.005674 0.000000 0.000000 0.000000
# 3 -0.001894 -0.005674 0.016071 0.000000 0.000000 0.000000
# 4 0.000000 0.000000 0.000000 0.082775 0.000000 0.000000
# 5 0.000000 0.000000 0.000000 0.000000 0.033507 0.000000
# 6 0.000000 0.000000 0.000000 0.000000 0.000000 0.031996
#
#
# Mechanical properties :
#
#
# Convention : Reuss Voigt Hill
#
# Bulk Modulus (GPa) = 45.62775 45.98313 45.80544
# Shear Modulus (GPa) = 23.54014 28.11872 25.82943
#
# Velocity S-wave (km/s) = 3.23924 3.54027 3.39309
# Velocity P-wave (km/s) = 5.85902 6.09981 5.98063
#
# Compressibility (1/GPa) = 0.02191649
#
# Stress axis : x y z
#
# Youngs Moduli (GPa) = 95.14716 78.20244 62.22445
#
# Poissons Ratio (x) = 0.09050 0.11788
# Poissons Ratio (y) = 0.11011 0.35307
# Poissons Ratio (z) = 0.18025 0.44373
#
# Static dielectric constant tensor:
#      x y z
#    x 4.036850 0.000000 0.000000 
#    y 0.000000 4.343300 0.000000 
#    z 0.000000 0.000000 3.790460 
# 
# 
# High freq. dielectric constant tensor:
#      x y z
#    x 1.887440 0.000000 0.000000 
#    y 0.000000 1.899580 0.000000 
#    z 0.000000 0.000000 1.871590 
# 
# From -- ./inp_files/14710.got.cif
#   From: 2010.03.12/outbox.cif.g09.slc.cpg/sg54_8_cif.got.tgz:14710.got - 2010.04.16 15:00:50.
