data_PCOD8223783
_publ_section_title
;
Structure prediction by ZEFSAII (Michael W. Deem and Ramdas Pophale) SiO2 
 PCOD8223783
Probable space group: P C C A
;
_chemical_formula_sum "Si O2"
_cell_formula_units_Z 36
_cell_length_a 8.600193
_cell_length_b 9.507089
_cell_length_c 20.863039
_cell_angle_alpha 90.000000
_cell_angle_beta 90.000000
_cell_angle_gamma 90.000000
_cell_volume 1705.820491
_symmetry_space_group_name_H-M "P C C A"
_symmetry_group_IT_number 54
_symmetry_cell_setting 'orthorhombic'
loop_
_space_group_symop_operation_xyz
x,y,z
1/2-x,-y,z
1/2+x,-y,1/2-z
-x,y,1/2-z
-x,-y,-z
1/2+x,y,-z
1/2-x,y,1/2+z
x,-y,1/2+z
loop_
_atom_site_type_symbol
_atom_site_label
_atom_site_fract_x
_atom_site_fract_y
_atom_site_fract_z
Si Si1 0.750000 0.000000 0.980061
Si Si2 0.073409 0.527802 0.931656
Si Si3 0.875662 0.383553 0.694600
Si Si4 0.030303 0.852053 0.922336
Si Si5 0.650758 0.874731 0.208935
O O1 0.854895 0.899083 0.936576
O O2 0.644545 0.893796 0.020501
O O3 0.250000 0.500000 0.945829
O O4 0.032766 0.421481 0.872270
O O5 0.033753 0.685232 0.909645
O O6 0.000000 0.500000 0.000000
O O7 0.750000 0.500000 0.712483
O O8 0.775144 0.243397 0.690838
O O9 0.000000 0.368338 0.750000
O O10 0.082671 0.931941 0.858132
O O11 0.500000 0.825004 0.250000
O O12 0.750000 0.000000 0.242633
#
# Coordination Sequence:
#
# PCOD8223783 Si02
#       5
#     4   8   8   8   8
#     4  10  24  40  70  94 138 182 216 282 356 406
#     4  11  23  41  66  99 133 173 224 282 335 410
#     4  11  24  45  69  98 137 184 225 287 352 408
#     4  11  22  43  65  98 134 175 228 280 347 412
#     4  12  26  46  69  98 136 178 237 292 344 421
#
# _framework density 21.104213999999999
#
# number of rings (size 3 to 8) (size 9 to 14) (size 15 to 20)
#    0.000    0.889    5.556    2.667    1.556    0.889 
#    4.000    0.000    0.000    0.000    0.000    0.000 
#    0.000    0.000    0.000    0.000    0.000    0.000 
#
# Total GULP energy -446141.074898 kJ/mol
# GULP energy per Si atom -12392.807636 kJ/mol
# Density = 2.105618 g / cm^3
# Si number density = 21.104214 Si / 1000 Ang^3
#
#
#
# Elastic Constant Matrix: (Units=GPa)
#
#
# Indices 1 2 3 4 5 6 
#
# 1 121.2991 44.3628 73.7049 0.0000 0.0000 0.0000
# 2 44.3628 119.6843 31.4486 0.0000 0.0000 0.0000
# 3 73.7049 31.4486 145.9245 0.0000 0.0000 0.0000
# 4 0.0000 0.0000 0.0000 -10.2223 0.0000 0.0000
# 5 0.0000 0.0000 0.0000 0.0000 -14.3168 0.0000
# 6 0.0000 0.0000 0.0000 0.0000 0.0000 38.5769
#
#
#
# Elastic Compliance Matrix: (Units=1/GPa)
#
#
# Indices 1 2 3 4 5 6 
#
# 1 0.013006 -0.003280 -0.005862 0.000000 0.000000 0.000000
# 2 -0.003280 0.009684 -0.000430 0.000000 0.000000 0.000000
# 3 -0.005862 -0.000430 0.009906 0.000000 0.000000 0.000000
# 4 0.000000 0.000000 0.000000 -0.097826 0.000000 0.000000
# 5 0.000000 0.000000 0.000000 0.000000 -0.069848 0.000000
# 6 0.000000 0.000000 0.000000 0.000000 0.000000 0.025922
#
#
# Mechanical properties :
#
#
# Convention : Reuss Voigt Hill
#
# Bulk Modulus (GPa) = 74.34338 76.21560 75.27949
# Shear Modulus (GPa) = -58.46196 18.63367 -19.91415
#
# Velocity S-wave (km/s) = -5.26894 2.97465 -3.07516
# Velocity P-wave (km/s) = 1.30856 6.92751 4.81030
#
# Compressibility (1/GPa) = 0.01345110
#
# Stress axis : x y z
#
# Youngs Moduli (GPa) = 76.88837 103.25993 100.94410
#
# Poissons Ratio (x) = 0.33874 0.59175
# Poissons Ratio (y) = 0.25223 0.04342
# Poissons Ratio (z) = 0.45073 0.04442
#
# Static dielectric constant tensor:
#      x y z
#    x 3.843360 0.000000 0.000000 
#    y 0.000000 4.674110 0.000000 
#    z 0.000000 0.000000 3.570950 
# 
# 
# High freq. dielectric constant tensor:
#      x y z
#    x 1.833930 0.000000 0.000000 
#    y 0.000000 1.829140 0.000000 
#    z 0.000000 0.000000 1.834950 
# 
# From -- ./inp_files/20117.got.cif
#   From: 2010.03.12/outbox.cif.g09.slc.cpg/sg54_11_cif.got.tgz:20117.got - 2010.04.16 15:00:50.
