data_PCOD8223510
_publ_section_title
;
Structure prediction by ZEFSAII (Michael W. Deem and Ramdas Pophale) SiO2 
 PCOD8223510
Probable space group: P C C A
;
_chemical_formula_sum "Si O2"
_cell_formula_units_Z 48
_cell_length_a 8.832683
_cell_length_b 17.209415
_cell_length_c 14.321129
_cell_angle_alpha 90.000000
_cell_angle_beta 90.000000
_cell_angle_gamma 90.000000
_cell_volume 2176.887615
_symmetry_space_group_name_H-M "P C C A"
_symmetry_group_IT_number 54
_symmetry_cell_setting 'orthorhombic'
loop_
_space_group_symop_operation_xyz
x,y,z
1/2-x,-y,z
1/2+x,-y,1/2-z
-x,y,1/2-z
-x,-y,-z
1/2+x,y,-z
1/2-x,y,1/2+z
x,-y,1/2+z
loop_
_atom_site_type_symbol
_atom_site_label
_atom_site_fract_x
_atom_site_fract_y
_atom_site_fract_z
Si Si1 0.012734 0.719478 0.409329
Si Si2 0.661533 0.893277 0.394997
Si Si3 0.500000 0.003682 0.750000
Si Si4 0.750000 0.500000 0.743904
Si Si5 0.000000 0.390708 0.250000
Si Si6 0.155022 0.283162 0.100629
Si Si7 0.000000 0.389701 0.750000
Si Si8 0.018142 0.896442 0.411734
O O1 0.833442 0.712352 0.409496
O O2 0.078398 0.664554 0.327999
O O3 0.069472 0.807673 0.392163
O O4 0.078601 0.687939 0.505596
O O5 0.620644 0.943007 0.303921
O O6 0.607910 0.805266 0.376673
O O7 0.838020 0.902595 0.412431
O O8 0.578538 0.925529 0.487946
O O9 0.584010 0.949117 0.672728
O O10 0.624648 0.444390 0.692726
O O11 0.635457 0.558974 0.798400
O O12 0.905735 0.338822 0.320012
#
# Coordination Sequence:
#
# PCOD8223510 Si02
#       8
#     8   8   4   4   4   8   4   8
#     4  10  22  40  65  91 120 163 211 255 303 364
#     4  10  23  41  61  91 125 161 210 260 306 361
#     4  12  22  36  60  92 124 166 196 248 314 372
#     4  10  24  38  66  90 130 164 200 250 314 360
#     4  11  21  44  61  91 130 166 200 255 303 374
#     4  10  22  40  65  91 120 163 211 255 303 364
#     4  11  21  44  61  91 130 166 200 255 303 374
#     4  10  23  41  61  91 125 161 210 260 306 361
#
# _framework density 22.049828000000002
#
# number of rings (size 3 to 8) (size 9 to 14) (size 15 to 20)
#    0.000    1.667    1.667    2.000    2.333    2.667 
#    0.000    5.000    0.000    0.000    0.000    0.000 
#    0.000    0.000    0.000    0.000    0.000    0.000 
#
# Total GULP energy -594628.194278 kJ/mol
# GULP energy per Si atom -12388.087381 kJ/mol
# Density = 2.199964 g / cm^3
# Si number density = 22.049828 Si / 1000 Ang^3
#
#
#
# Elastic Constant Matrix: (Units=GPa)
#
#
# Indices 1 2 3 4 5 6 
#
# 1 66.9159 42.9030 39.4609 0.0000 0.0000 0.0000
# 2 42.9030 106.2292 65.5625 0.0000 0.0000 0.0000
# 3 39.4609 65.5625 128.9898 0.0000 0.0000 0.0000
# 4 0.0000 0.0000 0.0000 2.7418 0.0000 0.0000
# 5 0.0000 0.0000 0.0000 0.0000 25.8634 0.0000
# 6 0.0000 0.0000 0.0000 0.0000 0.0000 27.1258
#
#
#
# Elastic Compliance Matrix: (Units=1/GPa)
#
#
# Indices 1 2 3 4 5 6 
#
# 1 0.020971 -0.006572 -0.003075 0.000000 0.000000 0.000000
# 2 -0.006572 0.015776 -0.006008 0.000000 0.000000 0.000000
# 3 -0.003075 -0.006008 0.011747 0.000000 0.000000 0.000000
# 4 0.000000 0.000000 0.000000 0.364720 0.000000 0.000000
# 5 0.000000 0.000000 0.000000 0.000000 0.038665 0.000000
# 6 0.000000 0.000000 0.000000 0.000000 0.000000 0.036865
#
#
# Mechanical properties :
#
#
# Convention : Reuss Voigt Hill
#
# Bulk Modulus (GPa) = 58.19376 66.44308 62.31842
# Shear Modulus (GPa) = 9.50965 21.42678 15.46821
#
# Velocity S-wave (km/s) = 2.07898 3.12066 2.65148
# Velocity P-wave (km/s) = 5.67557 6.57140 6.13984
#
# Compressibility (1/GPa) = 0.01718397
#
# Stress axis : x y z
#
# Youngs Moduli (GPa) = 47.68477 63.38850 85.12737
#
# Poissons Ratio (x) = 0.41656 0.26179
# Poissons Ratio (y) = 0.31336 0.51145
# Poissons Ratio (z) = 0.14665 0.38084
#
# Static dielectric constant tensor:
#      x y z
#    x 4.005330 0.000000 0.000000 
#    y 0.000000 4.645810 0.000000 
#    z 0.000000 0.000000 3.919340 
# 
# 
# High freq. dielectric constant tensor:
#      x y z
#    x 1.873310 0.000000 0.000000 
#    y 0.000000 1.894640 0.000000 
#    z 0.000000 0.000000 1.835190 
# 
# From -- ./inp_files/11788.got.cif
#   From: 2010.03.12/outbox.cif.g09.slc.cpg/sg54_6_cif.got.tgz:11788.got - 2010.04.16 15:00:50.
