data_PCOD8223222
_publ_section_title
;
Structure prediction by ZEFSAII (Michael W. Deem and Ramdas Pophale) SiO2 
 PCOD8223222
Probable space group: P C C A
;
_chemical_formula_sum "Si O2"
_cell_formula_units_Z 48
_cell_length_a 26.593999
_cell_length_b 6.579204
_cell_length_c 13.510193
_cell_angle_alpha 90.000000
_cell_angle_beta 90.000000
_cell_angle_gamma 90.000000
_cell_volume 2363.842594
_symmetry_space_group_name_H-M "P C C A"
_symmetry_group_IT_number 54
_symmetry_cell_setting 'orthorhombic'
loop_
_space_group_symop_operation_xyz
x,y,z
1/2-x,-y,z
1/2+x,-y,1/2-z
-x,y,1/2-z
-x,-y,-z
1/2+x,y,-z
1/2-x,y,1/2+z
x,-y,1/2+z
loop_
_atom_site_type_symbol
_atom_site_label
_atom_site_fract_x
_atom_site_fract_y
_atom_site_fract_z
Si Si1 0.805027 0.960003 0.354667
Si Si2 0.533964 0.027932 0.654647
Si Si3 0.801125 0.364315 0.030744
Si Si4 0.647191 0.039445 0.658936
Si Si5 0.136935 0.737401 0.519717
Si Si6 0.475710 0.717063 0.999916
O O1 0.800256 0.781945 0.435279
O O2 0.750000 0.000000 0.315469
O O3 0.835105 0.910026 0.254428
O O4 0.830152 0.169405 0.392114
O O5 0.500000 0.056121 0.750000
O O6 0.589854 0.108550 0.679098
O O7 0.514811 0.153325 0.561743
O O8 0.531273 0.795404 0.613907
O O9 0.750000 0.500000 0.045769
O O10 0.815972 0.229692 0.128140
O O11 0.846990 0.512013 0.008630
O O12 0.647429 0.882002 0.571267
O O13 0.078844 0.725031 0.552185
O O14 0.500000 0.500000 0.000000
#
# Coordination Sequence:
#
# PCOD8223222 Si02
#       6
#     8   8   8   8   8   8
#     4  11  23  40  62  88 122 163 207 254 309 367
#     4  10  21  40  62  91 124 163 205 254 312 366
#     4  11  23  42  63  87 127 164 207 255 307 369
#     4  10  24  39  63  92 124 163 207 254 310 370
#     4  10  22  41  61  91 124 161 206 256 306 365
#     4  10  21  38  64  90 122 163 206 252 311 366
#
# _framework density 20.305921000000001
#
# number of rings (size 3 to 8) (size 9 to 14) (size 15 to 20)
#    0.000    1.667    1.667    2.000    2.333    6.000 
#    0.000    3.333    0.000    0.000    0.000    0.000 
#    0.000    0.000    0.000    0.000    0.000    0.000 
#
# Total GULP energy -594780.627851 kJ/mol
# GULP energy per Si atom -12391.263080 kJ/mol
# Density = 2.025970 g / cm^3
# Si number density = 20.305921 Si / 1000 Ang^3
#
#
#
# Elastic Constant Matrix: (Units=GPa)
#
#
# Indices 1 2 3 4 5 6 
#
# 1 145.9191 39.1232 58.4121 0.0000 0.0000 0.0000
# 2 39.1232 91.6488 14.7923 0.0000 0.0000 0.0000
# 3 58.4121 14.7923 66.7934 0.0000 0.0000 0.0000
# 4 0.0000 0.0000 0.0000 11.3552 0.0000 0.0000
# 5 0.0000 0.0000 0.0000 0.0000 37.2698 0.0000
# 6 0.0000 0.0000 0.0000 0.0000 0.0000 39.0473
#
#
#
# Elastic Compliance Matrix: (Units=1/GPa)
#
#
# Indices 1 2 3 4 5 6 
#
# 1 0.011484 -0.003403 -0.009289 0.000000 0.000000 0.000000
# 2 -0.003403 0.012324 0.000247 0.000000 0.000000 0.000000
# 3 -0.009289 0.000247 0.023041 0.000000 0.000000 0.000000
# 4 0.000000 0.000000 0.000000 0.088066 0.000000 0.000000
# 5 0.000000 0.000000 0.000000 0.000000 0.026831 0.000000
# 6 0.000000 0.000000 0.000000 0.000000 0.000000 0.025610
#
#
# Mechanical properties :
#
#
# Convention : Reuss Voigt Hill
#
# Bulk Modulus (GPa) = 45.54287 58.77960 52.16124
# Shear Modulus (GPa) = 22.77215 30.33671 26.55443
#
# Velocity S-wave (km/s) = 3.35244 3.86940 3.62016
# Velocity P-wave (km/s) = 6.12064 6.99806 6.57401
#
# Compressibility (1/GPa) = 0.02195733
#
# Stress axis : x y z
#
# Youngs Moduli (GPa) = 87.07678 81.14185 43.40146
#
# Poissons Ratio (x) = 0.27613 0.40317
# Poissons Ratio (y) = 0.29632 -0.01071
# Poissons Ratio (z) = 0.80889 -0.02001
#
# Static dielectric constant tensor:
#      x y z
#    x 3.799660 0.000000 0.000000 
#    y 0.000000 3.865140 0.000000 
#    z 0.000000 0.000000 4.143920 
# 
# 
# High freq. dielectric constant tensor:
#      x y z
#    x 1.815300 0.000000 0.000000 
#    y 0.000000 1.787080 0.000000 
#    z 0.000000 0.000000 1.788000 
# 
# From -- ./inp_files/15132.got.cif
#   From: 2010.03.12/outbox.cif.g09.slc.cpg/sg54_8_cif.got.tgz:15132.got - 2010.04.16 15:00:50.
