data_PCOD8223384
_publ_section_title
;
Structure prediction by ZEFSAII (Michael W. Deem and Ramdas Pophale) SiO2 
 PCOD8223384
Probable space group: P C C A
;
_chemical_formula_sum "Si O2"
_cell_formula_units_Z 64
_cell_length_a 23.215631
_cell_length_b 14.464577
_cell_length_c 9.311996
_cell_angle_alpha 90.000000
_cell_angle_beta 90.000000
_cell_angle_gamma 90.000000
_cell_volume 3127.008133
_symmetry_space_group_name_H-M "P C C A"
_symmetry_group_IT_number 54
_symmetry_cell_setting 'orthorhombic'
loop_
_space_group_symop_operation_xyz
x,y,z
1/2-x,-y,z
1/2+x,-y,1/2-z
-x,y,1/2-z
-x,-y,-z
1/2+x,y,-z
1/2-x,y,1/2+z
x,-y,1/2+z
loop_
_atom_site_type_symbol
_atom_site_label
_atom_site_fract_x
_atom_site_fract_y
_atom_site_fract_z
Si Si1 0.607292 0.912160 0.951188
Si Si2 0.549840 0.588428 0.852108
Si Si3 0.378259 0.755438 0.041711
Si Si4 0.973312 0.616723 0.887119
Si Si5 0.731072 0.784963 0.317218
Si Si6 0.065711 0.082339 0.224106
Si Si7 0.228731 0.093879 0.453263
Si Si8 0.138507 0.260757 0.712923
O O1 0.600616 0.809283 0.884684
O O2 0.571288 0.982456 0.852437
O O3 0.592554 0.917420 0.118572
O O4 0.674862 0.933424 0.946502
O O5 0.500000 0.629394 0.750000
O O6 0.556227 0.478350 0.830814
O O7 0.610397 0.638542 0.814756
O O8 0.529163 0.602992 0.014143
O O9 0.424302 0.674059 0.035331
O O10 0.322098 0.719551 0.132370
O O11 0.404580 0.845307 0.117708
O O12 0.363187 0.775616 0.876153
O O13 0.000000 0.670131 0.750000
O O14 0.716673 0.825714 0.161405
O O15 0.725034 0.868217 0.432774
O O16 0.793412 0.735109 0.329696
O O17 0.000000 0.108047 0.250000
O O18 0.250000 0.000000 0.376268
#
# Coordination Sequence:
#
# PCOD8223384 Si02
#       8
#     8   8   8   8   8   8   8   8
#     4  11  26  41  60  90 126 173 213 271 317 383
#     4  10  21  43  69 101 127 166 209 261 319 392
#     4  12  23  43  65  92 130 174 211 268 332 385
#     4  10  23  40  70 101 131 161 214 264 317 388
#     4  11  23  39  60  92 126 162 219 270 317 389
#     4  12  26  42  60  90 131 171 225 267 325 386
#     4  11  22  37  61  86 116 166 218 271 315 367
#     4  11  25  42  67  92 132 171 212 267 334 384
#
# _framework density 20.466847999999999
#
# number of rings (size 3 to 8) (size 9 to 14) (size 15 to 20)
#    0.000    1.000    3.750    2.625    7.000    0.500 
#    0.000    0.625    0.000    1.500    0.000    0.000 
#    0.000    0.000    0.000    0.000    0.000    0.000 
#
# Total GULP energy -793251.445306 kJ/mol
# GULP energy per Si atom -12394.553833 kJ/mol
# Density = 2.042026 g / cm^3
# Si number density = 20.466848 Si / 1000 Ang^3
#
#
#
# Elastic Constant Matrix: (Units=GPa)
#
#
# Indices 1 2 3 4 5 6 
#
# 1 84.6373 25.2821 6.8424 0.0000 0.0000 0.0000
# 2 25.2821 57.7118 12.5263 0.0000 0.0000 0.0000
# 3 6.8424 12.5263 103.6508 0.0000 0.0000 0.0000
# 4 0.0000 0.0000 0.0000 29.5028 0.0000 0.0000
# 5 0.0000 0.0000 0.0000 0.0000 29.9283 0.0000
# 6 0.0000 0.0000 0.0000 0.0000 0.0000 23.3172
#
#
#
# Elastic Compliance Matrix: (Units=1/GPa)
#
#
# Indices 1 2 3 4 5 6 
#
# 1 0.013597 -0.005917 -0.000183 0.000000 0.000000 0.000000
# 2 -0.005917 0.020369 -0.002071 0.000000 0.000000 0.000000
# 3 -0.000183 -0.002071 0.009910 0.000000 0.000000 0.000000
# 4 0.000000 0.000000 0.000000 0.033895 0.000000 0.000000
# 5 0.000000 0.000000 0.000000 0.000000 0.033413 0.000000
# 6 0.000000 0.000000 0.000000 0.000000 0.000000 0.042887
#
#
# Mechanical properties :
#
#
# Convention : Reuss Voigt Hill
#
# Bulk Modulus (GPa) = 36.31691 37.25572 36.78631
# Shear Modulus (GPa) = 27.84099 29.97294 28.90696
#
# Velocity S-wave (km/s) = 3.69222 3.83098 3.76224
# Velocity P-wave (km/s) = 5.99662 6.14907 6.07332
#
# Compressibility (1/GPa) = 0.02753539
#
# Stress axis : x y z
#
# Youngs Moduli (GPa) = 73.54357 49.09391 100.90702
#
# Poissons Ratio (x) = 0.29049 0.01842
# Poissons Ratio (y) = 0.43516 0.20898
# Poissons Ratio (z) = 0.01342 0.10167
#
# Static dielectric constant tensor:
#      x y z
#    x 4.574780 0.000000 0.000000 
#    y 0.000000 3.495890 0.000000 
#    z 0.000000 0.000000 3.862930 
# 
# 
# High freq. dielectric constant tensor:
#      x y z
#    x 1.801600 0.000000 0.000000 
#    y 0.000000 1.769710 0.000000 
#    z 0.000000 0.000000 1.824650 
# 
# From -- ./inp_files/5300.got.cif
#   From: 2010.03.12/outbox.cif.g09.slc.cpg/sg54_3_cif.got.tgz:5300.got - 2010.04.16 15:00:50.
