data_PCOD8223874
_publ_section_title
;
Structure prediction by ZEFSAII (Michael W. Deem and Ramdas Pophale) SiO2 
 PCOD8223874
Probable space group: P C C A
;
_chemical_formula_sum "Si O2"
_cell_formula_units_Z 24
_cell_length_a 11.166440
_cell_length_b 7.785537
_cell_length_c 12.035465
_cell_angle_alpha 90.000000
_cell_angle_beta 90.000000
_cell_angle_gamma 90.000000
_cell_volume 1046.323993
_symmetry_space_group_name_H-M "P C C A"
_symmetry_group_IT_number 54
_symmetry_cell_setting 'orthorhombic'
loop_
_space_group_symop_operation_xyz
x,y,z
1/2-x,-y,z
1/2+x,-y,1/2-z
-x,y,1/2-z
-x,-y,-z
1/2+x,y,-z
1/2-x,y,1/2+z
x,-y,1/2+z
loop_
_atom_site_type_symbol
_atom_site_label
_atom_site_fract_x
_atom_site_fract_y
_atom_site_fract_z
Si Si1 0.513049 0.223095 0.905975
Si Si2 0.075312 0.156126 0.854255
Si Si3 0.807851 0.320007 0.227910
O O1 0.415660 0.359237 0.859654
O O2 0.638835 0.234832 0.840226
O O3 0.449592 0.042386 0.878178
O O4 0.535711 0.258887 0.035198
O O5 0.214063 0.188302 0.827202
O O6 0.000000 0.226301 0.750000
O O7 0.750000 0.500000 0.260438
#
# Coordination Sequence:
#
# PCOD8223874 Si02
#       3
#     8   8   8
#     4  10  25  47  68 105 137 181 244 282 345 419
#     4  11  24  44  74  99 137 184 235 289 344 411
#     4  11  25  45  69 102 145 180 226 293 352 416
#
# _framework density 22.937446999999999
#
# number of rings (size 3 to 8) (size 9 to 14) (size 15 to 20)
#    0.000    1.333    3.333    1.000    9.333    2.667 
#    0.000    0.000    0.000    0.000    0.000    0.000 
#    0.000    0.000    0.000    0.000    0.000    0.000 
#
# Total GULP energy -297589.896502 kJ/mol
# GULP energy per Si atom -12399.579021 kJ/mol
# Density = 2.288524 g / cm^3
# Si number density = 22.937447 Si / 1000 Ang^3
#
#
#
# Elastic Constant Matrix: (Units=GPa)
#
#
# Indices 1 2 3 4 5 6 
#
# 1 155.1436 40.4910 89.5614 0.0000 0.0000 0.0000
# 2 40.4910 72.1596 22.0808 0.0000 0.0000 0.0000
# 3 89.5614 22.0808 226.2076 0.0000 0.0000 0.0000
# 4 0.0000 0.0000 0.0000 17.1881 0.0000 0.0000
# 5 0.0000 0.0000 0.0000 0.0000 33.6032 0.0000
# 6 0.0000 0.0000 0.0000 0.0000 0.0000 40.8303
#
#
#
# Elastic Compliance Matrix: (Units=1/GPa)
#
#
# Indices 1 2 3 4 5 6 
#
# 1 0.009498 -0.004308 -0.003340 0.000000 0.000000 0.000000
# 2 -0.004308 0.016238 0.000120 0.000000 0.000000 0.000000
# 3 -0.003340 0.000120 0.005731 0.000000 0.000000 0.000000
# 4 0.000000 0.000000 0.000000 0.058180 0.000000 0.000000
# 5 0.000000 0.000000 0.000000 0.000000 0.029759 0.000000
# 6 0.000000 0.000000 0.000000 0.000000 0.000000 0.024492
#
#
# Mechanical properties :
#
#
# Convention : Reuss Voigt Hill
#
# Bulk Modulus (GPa) = 60.92583 84.19747 72.56165
# Shear Modulus (GPa) = 30.40918 38.41614 34.41266
#
# Velocity S-wave (km/s) = 3.64503 4.09690 3.87755
# Velocity P-wave (km/s) = 6.65840 7.69198 7.19378
#
# Compressibility (1/GPa) = 0.01641340
#
# Stress axis : x y z
#
# Youngs Moduli (GPa) = 105.28516 61.58226 174.47836
#
# Poissons Ratio (x) = 0.26527 0.58276
# Poissons Ratio (y) = 0.45352 -0.02101
# Poissons Ratio (z) = 0.35166 -0.00741
#
# Static dielectric constant tensor:
#      x y z
#    x 4.322390 0.000000 0.000000 
#    y 0.000000 3.777410 0.000000 
#    z 0.000000 0.000000 4.416590 
# 
# 
# High freq. dielectric constant tensor:
#      x y z
#    x 1.918940 0.000000 0.000000 
#    y 0.000000 1.889530 0.000000 
#    z 0.000000 0.000000 1.911340 
# 
# From -- ./inp_files/7119.got.cif
#   From: 2010.03.12/outbox.cif.g09.slc.cpg/sg54_4_cif.got.tgz:7119.got - 2010.04.16 15:00:50.
