data_PCOD8223733
_publ_section_title
;
Structure prediction by ZEFSAII (Michael W. Deem and Ramdas Pophale) SiO2 
 PCOD8223733
Probable space group: P C C A
;
_chemical_formula_sum "Si O2"
_cell_formula_units_Z 64
_cell_length_a 11.461205
_cell_length_b 17.178305
_cell_length_c 14.737706
_cell_angle_alpha 90.000000
_cell_angle_beta 90.000000
_cell_angle_gamma 90.000000
_cell_volume 2901.619616
_symmetry_space_group_name_H-M "P C C A"
_symmetry_group_IT_number 54
_symmetry_cell_setting 'orthorhombic'
loop_
_space_group_symop_operation_xyz
x,y,z
1/2-x,-y,z
1/2+x,-y,1/2-z
-x,y,1/2-z
-x,-y,-z
1/2+x,y,-z
1/2-x,y,1/2+z
x,-y,1/2+z
loop_
_atom_site_type_symbol
_atom_site_label
_atom_site_fract_x
_atom_site_fract_y
_atom_site_fract_z
Si Si1 0.606762 0.854845 0.689032
Si Si2 0.510491 0.753304 0.948360
Si Si3 0.293017 0.657399 0.621275
Si Si4 0.824281 0.784110 0.773852
Si Si5 0.033683 0.841887 0.879259
Si Si6 0.381835 0.999105 0.437551
Si Si7 0.103812 0.398735 0.005703
Si Si8 0.473148 0.474862 0.148466
O O1 0.500000 0.880857 0.750000
O O2 0.581243 0.777373 0.628961
O O3 0.708242 0.833611 0.758487
O O4 0.632765 0.925153 0.622995
O O5 0.535465 0.825059 0.014047
O O6 0.468501 0.680675 0.008519
O O7 0.631778 0.732833 0.901542
O O8 0.198533 0.694887 0.691006
O O9 0.237564 0.622657 0.527944
O O10 0.371540 0.589005 0.663142
O O11 0.892213 0.778316 0.677843
O O12 0.900586 0.836322 0.843894
O O13 0.096013 0.925843 0.870086
O O14 0.250000 0.000000 0.485429
O O15 0.500000 0.000000 0.500000
O O16 0.066548 0.452183 0.089918
O O17 0.083950 0.438076 0.906696
O O18 0.500000 0.503559 0.250000
#
# Coordination Sequence:
#
# PCOD8223733 Si02
#       8
#     8   8   8   8   8   8   8   8
#     4  12  26  44  71 106 143 187 249 309 372 447
#     4  11  24  41  70  99 137 183 241 298 366 442
#     4  11  23  41  71 103 140 189 237 302 371 444
#     4  11  25  42  69 102 145 182 248 300 371 431
#     4  11  25  46  67 103 144 192 244 307 366 450
#     4  12  27  47  74 105 150 199 249 309 381 452
#     4  10  23  44  66 102 144 183 234 306 364 446
#     4  10  24  44  72 102 145 186 244 299 371 451
#
# _framework density 22.056646000000001
#
# number of rings (size 3 to 8) (size 9 to 14) (size 15 to 20)
#    0.000    1.000    5.000    0.375    7.000    3.000 
#    0.000    6.250    0.000    0.000    0.000    0.000 
#    0.000    0.000    0.000    0.000    0.000    0.000 
#
# Total GULP energy -792955.871035 kJ/mol
# GULP energy per Si atom -12389.935485 kJ/mol
# Density = 2.200644 g / cm^3
# Si number density = 22.056646 Si / 1000 Ang^3
#
#
#
# Elastic Constant Matrix: (Units=GPa)
#
#
# Indices 1 2 3 4 5 6 
#
# 1 123.1620 37.9597 35.2379 0.0000 0.0000 0.0000
# 2 37.9597 101.4295 37.2383 0.0000 0.0000 0.0000
# 3 35.2379 37.2383 102.3083 0.0000 0.0000 0.0000
# 4 0.0000 0.0000 0.0000 31.1565 0.0000 0.0000
# 5 0.0000 0.0000 0.0000 0.0000 25.4850 0.0000
# 6 0.0000 0.0000 0.0000 0.0000 0.0000 24.2230
#
#
#
# Elastic Compliance Matrix: (Units=1/GPa)
#
#
# Indices 1 2 3 4 5 6 
#
# 1 0.009631 -0.002754 -0.002314 0.000000 0.000000 0.000000
# 2 -0.002754 0.012168 -0.003480 0.000000 0.000000 0.000000
# 3 -0.002314 -0.003480 0.011838 0.000000 0.000000 0.000000
# 4 0.000000 0.000000 0.000000 0.032096 0.000000 0.000000
# 5 0.000000 0.000000 0.000000 0.000000 0.039239 0.000000
# 6 0.000000 0.000000 0.000000 0.000000 0.000000 0.041283
#
#
# Mechanical properties :
#
#
# Convention : Reuss Voigt Hill
#
# Bulk Modulus (GPa) = 60.46549 60.86350 60.66450
# Shear Modulus (GPa) = 29.60946 30.60382 30.10664
#
# Velocity S-wave (km/s) = 3.66789 3.72897 3.69856
# Velocity P-wave (km/s) = 6.73878 6.79664 6.76777
#
# Compressibility (1/GPa) = 0.01653836
#
# Stress axis : x y z
#
# Youngs Moduli (GPa) = 103.83642 82.18575 84.47217
#
# Poissons Ratio (x) = 0.22638 0.19551
# Poissons Ratio (y) = 0.28602 0.29397
# Poissons Ratio (z) = 0.24032 0.28601
#
# Static dielectric constant tensor:
#      x y z
#    x 4.220780 0.000000 0.000000 
#    y 0.000000 3.987820 0.000000 
#    z 0.000000 0.000000 3.994920 
# 
# 
# High freq. dielectric constant tensor:
#      x y z
#    x 1.874620 0.000000 0.000000 
#    y 0.000000 1.871800 0.000000 
#    z 0.000000 0.000000 1.859100 
# 
# From -- ./inp_files/12841.got.cif
#   From: 2010.03.12/outbox.cif.g09.slc.cpg/sg54_7_cif.got.tgz:12841.got - 2010.04.16 15:00:50.
