data_PCOD8223631
_publ_section_title
;
Structure prediction by ZEFSAII (Michael W. Deem and Ramdas Pophale) SiO2 
 PCOD8223631
Probable space group: P C C A
;
_chemical_formula_sum "Si O2"
_cell_formula_units_Z 32
_cell_length_a 10.561685
_cell_length_b 12.227035
_cell_length_c 11.320500
_cell_angle_alpha 90.000000
_cell_angle_beta 90.000000
_cell_angle_gamma 90.000000
_cell_volume 1461.907772
_symmetry_space_group_name_H-M "P C C A"
_symmetry_group_IT_number 54
_symmetry_cell_setting 'orthorhombic'
loop_
_space_group_symop_operation_xyz
x,y,z
1/2-x,-y,z
1/2+x,-y,1/2-z
-x,y,1/2-z
-x,-y,-z
1/2+x,y,-z
1/2-x,y,1/2+z
x,-y,1/2+z
loop_
_atom_site_type_symbol
_atom_site_label
_atom_site_fract_x
_atom_site_fract_y
_atom_site_fract_z
Si Si1 0.250000 0.500000 0.315449
Si Si2 0.510736 0.791797 0.416262
Si Si3 0.000000 0.598976 0.750000
Si Si4 0.799662 0.878270 0.728931
Si Si5 0.895386 0.292911 0.658053
O O1 0.369417 0.532566 0.234011
O O2 0.193300 0.605050 0.388501
O O3 0.486076 0.670675 0.367122
O O4 0.383306 0.861813 0.390753
O O5 0.622547 0.853902 0.347880
O O6 0.540968 0.776527 0.553063
O O7 0.685753 0.793141 0.731715
O O8 0.750000 0.000000 0.732283
O O9 0.000000 0.338330 0.750000
#
# Coordination Sequence:
#
# PCOD8223631 Si02
#       5
#     4   8   4   8   8
#     4  12  22  44  68 102 142 186 244 292 348 436
#     4  10  24  46  67  99 142 181 230 292 355 425
#     4  10  22  44  64  96 138 186 234 292 354 410
#     4  10  24  47  71  99 137 180 232 294 359 420
#     4  12  27  42  70 106 139 187 239 287 360 426
#
# _framework density 21.889206000000001
#
# number of rings (size 3 to 8) (size 9 to 14) (size 15 to 20)
#    0.000    1.500    6.250    0.000    7.000    4.000 
#    0.000    0.000    0.000    0.000    0.000    0.000 
#    0.000    0.000    0.000    0.000    0.000    0.000 
#
# Total GULP energy -396485.552356 kJ/mol
# GULP energy per Si atom -12390.173511 kJ/mol
# Density = 2.183938 g / cm^3
# Si number density = 21.889206 Si / 1000 Ang^3
#
#
#
# Elastic Constant Matrix: (Units=GPa)
#
#
# Indices 1 2 3 4 5 6 
#
# 1 153.5278 64.4811 43.0900 0.0000 0.0000 0.0000
# 2 64.4811 145.1601 24.8736 0.0000 0.0000 0.0000
# 3 43.0900 24.8736 83.3953 0.0000 0.0000 0.0000
# 4 0.0000 0.0000 0.0000 5.4988 0.0000 0.0000
# 5 0.0000 0.0000 0.0000 0.0000 18.3385 0.0000
# 6 0.0000 0.0000 0.0000 0.0000 0.0000 49.9000
#
#
#
# Elastic Compliance Matrix: (Units=1/GPa)
#
#
# Indices 1 2 3 4 5 6 
#
# 1 0.008936 -0.003349 -0.003618 0.000000 0.000000 0.000000
# 2 -0.003349 0.008515 -0.000809 0.000000 0.000000 0.000000
# 3 -0.003618 -0.000809 0.014102 0.000000 0.000000 0.000000
# 4 0.000000 0.000000 0.000000 0.181857 0.000000 0.000000
# 5 0.000000 0.000000 0.000000 0.000000 0.054530 0.000000
# 6 0.000000 0.000000 0.000000 0.000000 0.000000 0.020040
#
#
# Mechanical properties :
#
#
# Convention : Reuss Voigt Hill
#
# Bulk Modulus (GPa) = 62.50103 71.88583 67.19343
# Shear Modulus (GPa) = 16.18821 31.39003 23.78912
#
# Velocity S-wave (km/s) = 2.72242 3.79098 3.30024
# Velocity P-wave (km/s) = 6.20463 7.21624 6.72947
#
# Compressibility (1/GPa) = 0.01599974
#
# Stress axis : x y z
#
# Youngs Moduli (GPa) = 111.91144 117.43437 70.91259
#
# Poissons Ratio (x) = 0.39332 0.25656
# Poissons Ratio (y) = 0.37483 0.05738
# Poissons Ratio (z) = 0.40490 0.09503
#
# Static dielectric constant tensor:
#      x y z
#    x 3.691490 0.000000 0.000000 
#    y 0.000000 4.055770 0.000000 
#    z 0.000000 0.000000 3.441900 
# 
# 
# High freq. dielectric constant tensor:
#      x y z
#    x 1.887070 0.000000 0.000000 
#    y 0.000000 1.871750 0.000000 
#    z 0.000000 0.000000 1.810420 
# 
# From -- ./inp_files/6820.got.cif
#   From: 2010.03.12/outbox.cif.g09.slc.cpg/sg54_4_cif.got.tgz:6820.got - 2010.04.16 15:00:50.
