data_PCOD8223000
_publ_section_title
;
Structure prediction by ZEFSAII (Michael W. Deem and Ramdas Pophale) SiO2 
 PCOD8223000
Probable space group: P C C A
;
_chemical_formula_sum "Si O2"
_cell_formula_units_Z 56
_cell_length_a 9.878560
_cell_length_b 12.877866
_cell_length_c 21.967329
_cell_angle_alpha 90.000000
_cell_angle_beta 90.000000
_cell_angle_gamma 90.000000
_cell_volume 2794.568749
_symmetry_space_group_name_H-M "P C C A"
_symmetry_group_IT_number 54
_symmetry_cell_setting 'orthorhombic'
loop_
_space_group_symop_operation_xyz
x,y,z
1/2-x,-y,z
1/2+x,-y,1/2-z
-x,y,1/2-z
-x,-y,-z
1/2+x,y,-z
1/2-x,y,1/2+z
x,-y,1/2+z
loop_
_atom_site_type_symbol
_atom_site_label
_atom_site_fract_x
_atom_site_fract_y
_atom_site_fract_z
Si Si1 0.151279 0.904108 0.257613
Si Si2 0.380631 0.448654 0.571455
Si Si3 0.858887 0.420028 0.564961
Si Si4 0.771493 0.881421 0.369486
Si Si5 0.011325 0.769510 0.586485
Si Si6 0.707998 0.202002 0.119316
Si Si7 0.994948 0.888107 0.033047
O O1 0.182782 0.837157 0.196182
O O2 0.160663 0.823092 0.312817
O O3 0.000000 0.949216 0.250000
O O4 0.250000 0.000000 0.271525
O O5 0.250000 0.500000 0.605643
O O6 0.488652 0.540053 0.569183
O O7 0.325674 0.406411 0.506476
O O8 0.449775 0.349123 0.602988
O O9 0.750000 0.500000 0.593500
O O10 0.849595 0.314054 0.601698
O O11 0.625706 0.840383 0.385916
O O12 0.877665 0.865205 0.423575
O O13 0.750000 0.000000 0.355268
O O14 0.001240 0.792972 0.514535
O O15 0.869862 0.800333 0.616889
O O16 0.643378 0.117844 0.072331
O O17 0.000000 0.000000 0.000000
#
# Coordination Sequence:
#
# PCOD8223000 Si02
#       7
#     8   8   8   8   8   8   8
#     4  11  27  47  68  92 127 185 237 272 317 392
#     4  10  22  36  62  95 137 172 208 269 341 414
#     4  10  20  39  60  94 133 169 219 276 334 394
#     4  11  25  45  63  92 139 176 220 276 324 396
#     4  12  25  39  65 106 132 174 218 272 348 400
#     4  12  26  41  69  94 133 183 228 275 328 405
#     4  12  25  41  62  98 143 175 214 275 342 402
#
# _framework density 20.038872000000001
#
# number of rings (size 3 to 8) (size 9 to 14) (size 15 to 20)
#    0.000    0.857    5.714    0.857    8.000    0.000 
#    0.000    0.000    0.000    2.571    0.000    0.000 
#    0.000    0.000    0.000    0.000    0.000    0.000 
#
# Total GULP energy -694285.316567 kJ/mol
# GULP energy per Si atom -12397.952082 kJ/mol
# Density = 1.999326 g / cm^3
# Si number density = 20.038872 Si / 1000 Ang^3
#
#
#
# Elastic Constant Matrix: (Units=GPa)
#
#
# Indices 1 2 3 4 5 6 
#
# 1 168.2232 55.1295 48.2945 0.0000 0.0000 0.0000
# 2 55.1295 101.4787 44.0056 0.0000 0.0000 0.0000
# 3 48.2945 44.0056 115.8028 0.0000 0.0000 0.0000
# 4 0.0000 0.0000 0.0000 22.2747 0.0000 0.0000
# 5 0.0000 0.0000 0.0000 0.0000 51.0147 0.0000
# 6 0.0000 0.0000 0.0000 0.0000 0.0000 37.9107
#
#
#
# Elastic Compliance Matrix: (Units=1/GPa)
#
#
# Indices 1 2 3 4 5 6 
#
# 1 0.007569 -0.003284 -0.001908 0.000000 0.000000 0.000000
# 2 -0.003284 0.013224 -0.003655 0.000000 0.000000 0.000000
# 3 -0.001908 -0.003655 0.010820 0.000000 0.000000 0.000000
# 4 0.000000 0.000000 0.000000 0.044894 0.000000 0.000000
# 5 0.000000 0.000000 0.000000 0.000000 0.019602 0.000000
# 6 0.000000 0.000000 0.000000 0.000000 0.000000 0.026378
#
#
# Mechanical properties :
#
#
# Convention : Reuss Voigt Hill
#
# Bulk Modulus (GPa) = 71.85682 75.59601 73.72641
# Shear Modulus (GPa) = 34.52530 38.11169 36.31850
#
# Velocity S-wave (km/s) = 4.15531 4.36580 4.26185
# Velocity P-wave (km/s) = 7.67845 7.95111 7.81597
#
# Compressibility (1/GPa) = 0.01391656
#
# Stress axis : x y z
#
# Youngs Moduli (GPa) = 132.12397 75.62247 92.41866
#
# Poissons Ratio (x) = 0.24836 0.17638
# Poissons Ratio (y) = 0.43392 0.33783
# Poissons Ratio (z) = 0.25215 0.27643
#
# Static dielectric constant tensor:
#      x y z
#    x 3.900400 0.000000 0.000000 
#    y 0.000000 3.578760 0.000000 
#    z 0.000000 0.000000 3.643930 
# 
# 
# High freq. dielectric constant tensor:
#      x y z
#    x 1.808830 0.000000 0.000000 
#    y 0.000000 1.775000 0.000000 
#    z 0.000000 0.000000 1.754790 
# 
# From -- ./inp_files/20563.got.cif
#   From: 2010.03.12/outbox.cif.g09.slc.cpg/sg54_11_cif.got.tgz:20563.got - 2010.04.16 15:00:50.
