data_PCOD8223202
_publ_section_title
;
Structure prediction by ZEFSAII (Michael W. Deem and Ramdas Pophale) SiO2 
 PCOD8223202
Probable space group: P C C A
;
_chemical_formula_sum "Si O2"
_cell_formula_units_Z 60
_cell_length_a 13.997246
_cell_length_b 13.722796
_cell_length_c 14.364997
_cell_angle_alpha 90.000000
_cell_angle_beta 90.000000
_cell_angle_gamma 90.000000
_cell_volume 2759.248037
_symmetry_space_group_name_H-M "P C C A"
_symmetry_group_IT_number 54
_symmetry_cell_setting 'orthorhombic'
loop_
_space_group_symop_operation_xyz
x,y,z
1/2-x,-y,z
1/2+x,-y,1/2-z
-x,y,1/2-z
-x,-y,-z
1/2+x,y,-z
1/2-x,y,1/2+z
x,-y,1/2+z
loop_
_atom_site_type_symbol
_atom_site_label
_atom_site_fract_x
_atom_site_fract_y
_atom_site_fract_z
Si Si1 0.668325 0.361426 0.680874
Si Si2 0.696359 0.653670 0.387795
Si Si3 0.234844 0.157476 0.804722
Si Si4 0.667370 0.175354 0.393813
Si Si5 0.250000 0.500000 0.968375
Si Si6 0.004171 0.757386 0.649495
Si Si7 0.969107 0.101948 0.650869
Si Si8 0.885078 0.919561 0.570791
O O1 0.698213 0.396786 0.785121
O O2 0.724726 0.261349 0.663774
O O3 0.684230 0.439345 0.600767
O O4 0.555838 0.340928 0.670298
O O5 0.792628 0.715471 0.413629
O O6 0.685990 0.569625 0.465340
O O7 0.608166 0.729425 0.388923
O O8 0.229030 0.138051 0.694336
O O9 0.129289 0.160400 0.846804
O O10 0.307152 0.075908 0.845516
O O11 0.552824 0.177791 0.376184
O O12 0.678789 0.096591 0.477426
O O13 0.955959 0.826887 0.573593
O O14 0.000000 0.813791 0.750000
O O15 0.000000 0.055027 0.750000
O O16 0.952050 0.015326 0.575826
#
# Coordination Sequence:
#
# PCOD8223202 Si02
#       8
#     8   8   8   8   4   8   8   8
#     4   9  20  38  59  84 115 152 193 240 294 358
#     4  10  21  39  60  85 119 153 191 241 298 357
#     4   9  20  40  59  81 121 163 196 240 298 347
#     4  10  22  38  58  86 120 159 197 239 296 353
#     4  12  22  36  60  88 112 146 196 248 298 354
#     4   9  19  37  59  83 118 159 193 235 296 350
#     4  10  21  38  59  86 120 158 200 246 290 341
#     4  11  20  36  61  91 120 155 206 248 282 339
#
# _framework density 21.745055000000001
#
# number of rings (size 3 to 8) (size 9 to 14) (size 15 to 20)
#    0.000    2.133    0.000    4.000    0.000    2.667 
#    0.000   10.000    0.000    4.800    0.000    0.000 
#    0.000    0.000    0.000    0.000    0.000    0.000 
#
# Total GULP energy -743353.258271 kJ/mol
# GULP energy per Si atom -12389.220971 kJ/mol
# Density = 2.169556 g / cm^3
# Si number density = 21.745055 Si / 1000 Ang^3
#
#
#
# Elastic Constant Matrix: (Units=GPa)
#
#
# Indices 1 2 3 4 5 6 
#
# 1 126.6219 46.9159 39.3073 0.0000 0.0000 0.0000
# 2 46.9159 79.0203 48.3225 0.0000 0.0000 0.0000
# 3 39.3073 48.3225 113.5989 0.0000 0.0000 0.0000
# 4 0.0000 0.0000 0.0000 28.5760 0.0000 0.0000
# 5 0.0000 0.0000 0.0000 0.0000 24.5595 0.0000
# 6 0.0000 0.0000 0.0000 0.0000 0.0000 8.7141
#
#
#
# Elastic Compliance Matrix: (Units=1/GPa)
#
#
# Indices 1 2 3 4 5 6 
#
# 1 0.010264 -0.005301 -0.001297 0.000000 0.000000 0.000000
# 2 -0.005301 0.019842 -0.006606 0.000000 0.000000 0.000000
# 3 -0.001297 -0.006606 0.012062 0.000000 0.000000 0.000000
# 4 0.000000 0.000000 0.000000 0.034994 0.000000 0.000000
# 5 0.000000 0.000000 0.000000 0.000000 0.040718 0.000000
# 6 0.000000 0.000000 0.000000 0.000000 0.000000 0.114757
#
#
# Mechanical properties :
#
#
# Convention : Reuss Voigt Hill
#
# Bulk Modulus (GPa) = 63.45081 65.37027 64.41054
# Shear Modulus (GPa) = 18.91802 24.68293 21.80047
#
# Velocity S-wave (km/s) = 2.95276 3.37279 3.16974
# Velocity P-wave (km/s) = 6.39280 6.73016 6.56364
#
# Compressibility (1/GPa) = 0.01576024
#
# Stress axis : x y z
#
# Youngs Moduli (GPa) = 97.42580 50.39774 82.90742
#
# Poissons Ratio (x) = 0.26717 0.10750
# Poissons Ratio (y) = 0.51647 0.54770
# Poissons Ratio (z) = 0.12632 0.33293
#
# Static dielectric constant tensor:
#      x y z
#    x 4.025320 0.000000 0.000000 
#    y 0.000000 3.615390 0.000000 
#    z 0.000000 0.000000 4.231660 
# 
# 
# High freq. dielectric constant tensor:
#      x y z
#    x 1.858070 0.000000 0.000000 
#    y 0.000000 1.816980 0.000000 
#    z 0.000000 0.000000 1.871270 
# 
# From -- ./inp_files/13602.got.cif
#   From: 2010.03.12/outbox.cif.g09.slc.cpg/sg54_7_cif.got.tgz:13602.got - 2010.04.16 15:00:50.
