data_PCOD8223707
_publ_section_title
;
Structure prediction by ZEFSAII (Michael W. Deem and Ramdas Pophale) SiO2 
 PCOD8223707
Probable space group: P C C A
;
_chemical_formula_sum "Si O2"
_cell_formula_units_Z 36
_cell_length_a 5.348783
_cell_length_b 18.152890
_cell_length_c 13.590380
_cell_angle_alpha 90.000000
_cell_angle_beta 90.000000
_cell_angle_gamma 90.000000
_cell_volume 1319.569762
_symmetry_space_group_name_H-M "P C C A"
_symmetry_group_IT_number 54
_symmetry_cell_setting 'orthorhombic'
loop_
_space_group_symop_operation_xyz
x,y,z
1/2-x,-y,z
1/2+x,-y,1/2-z
-x,y,1/2-z
-x,-y,-z
1/2+x,y,-z
1/2-x,y,1/2+z
x,-y,1/2+z
loop_
_atom_site_type_symbol
_atom_site_label
_atom_site_fract_x
_atom_site_fract_y
_atom_site_fract_z
Si Si1 0.655034 0.580025 0.539905
Si Si2 0.500000 0.618060 0.750000
Si Si3 0.581918 0.252281 0.538745
Si Si4 0.500000 0.954528 0.750000
Si Si5 0.000000 0.290820 0.250000
Si Si6 0.105288 0.090465 0.540561
O O1 0.750000 0.500000 0.497568
O O2 0.433942 0.618527 0.469703
O O3 0.556715 0.570601 0.651793
O O4 0.250493 0.663689 0.729779
O O5 0.853572 0.292605 0.522374
O O6 0.530815 0.240458 0.653876
O O7 0.658020 0.173297 0.494384
O O8 0.456179 0.904055 0.655285
O O9 0.250000 0.000000 0.770540
O O10 0.877315 0.051248 0.478872
#
# Coordination Sequence:
#
# PCOD8223707 Si02
#       6
#     8   4   8   4   4   8
#     4  10  23  43  67  95 130 175 222 266 322 396
#     4  12  26  41  67 100 138 173 217 280 342 388
#     4  10  23  42  66  92 127 172 222 269 320 394
#     4  12  26  42  66 100 134 166 214 278 338 392
#     4  12  26  41  63 100 132 171 219 276 336 388
#     4  10  23  42  67  94 127 171 215 265 325 398
#
# _framework density 27.281618999999999
#
# number of rings (size 3 to 8) (size 9 to 14) (size 15 to 20)
#    0.000    1.333    0.000    4.000    0.000   18.667 
#    0.000    0.000    0.000    0.000    0.000    0.000 
#    0.000    0.000    0.000    0.000    0.000    0.000 
#
# Total GULP energy -446371.254456 kJ/mol
# GULP energy per Si atom -12399.201513 kJ/mol
# Density = 2.721952 g / cm^3
# Si number density = 27.281619 Si / 1000 Ang^3
#
#
#
# Elastic Constant Matrix: (Units=GPa)
#
#
# Indices 1 2 3 4 5 6 
#
# 1 278.3631 56.3798 76.6580 0.0000 0.0000 0.0000
# 2 56.3798 45.7587 19.2307 0.0000 0.0000 0.0000
# 3 76.6580 19.2307 235.3425 0.0000 0.0000 0.0000
# 4 0.0000 0.0000 0.0000 96.9615 0.0000 0.0000
# 5 0.0000 0.0000 0.0000 0.0000 58.9803 0.0000
# 6 0.0000 0.0000 0.0000 0.0000 0.0000 19.1269
#
#
#
# Elastic Compliance Matrix: (Units=1/GPa)
#
#
# Indices 1 2 3 4 5 6 
#
# 1 0.005088 -0.005770 -0.001186 0.000000 0.000000 0.000000
# 2 -0.005770 0.029175 -0.000504 0.000000 0.000000 0.000000
# 3 -0.001186 -0.000504 0.004677 0.000000 0.000000 0.000000
# 4 0.000000 0.000000 0.000000 0.010313 0.000000 0.000000
# 5 0.000000 0.000000 0.000000 0.000000 0.016955 0.000000
# 6 0.000000 0.000000 0.000000 0.000000 0.000000 0.052282
#
#
# Mechanical properties :
#
#
# Convention : Reuss Voigt Hill
#
# Bulk Modulus (GPa) = 41.63420 96.00013 68.81717
# Shear Modulus (GPa) = 35.35637 62.16013 48.75825
#
# Velocity S-wave (km/s) = 3.60387 4.77850 4.23214
# Velocity P-wave (km/s) = 5.71063 8.10620 7.01148
#
# Compressibility (1/GPa) = 0.02401872
#
# Stress axis : x y z
#
# Youngs Moduli (GPa) = 196.55377 34.27551 213.83215
#
# Poissons Ratio (x) = 0.19778 0.25354
# Poissons Ratio (y) = 1.13417 0.10787
# Poissons Ratio (z) = 0.23305 0.01729
#
# Static dielectric constant tensor:
#      x y z
#    x 6.418110 0.000000 0.000000 
#    y 0.000000 5.329910 0.000000 
#    z 0.000000 0.000000 4.907930 
# 
# 
# High freq. dielectric constant tensor:
#      x y z
#    x 2.172260 0.000000 0.000000 
#    y 0.000000 2.131450 0.000000 
#    z 0.000000 0.000000 2.084430 
# 
# From -- ./inp_files/6395.got.cif
#   From: 2010.03.12/outbox.cif.g09.slc.cpg/sg54_4_cif.got.tgz:6395.got - 2010.04.16 15:00:50.
