data_PCOD8223252
_publ_section_title
;
Structure prediction by ZEFSAII (Michael W. Deem and Ramdas Pophale) SiO2 
 PCOD8223252
Probable space group: P C C A
;
_chemical_formula_sum "Si O2"
_cell_formula_units_Z 48
_cell_length_a 15.071217
_cell_length_b 16.457113
_cell_length_c 9.565759
_cell_angle_alpha 90.000000
_cell_angle_beta 90.000000
_cell_angle_gamma 90.000000
_cell_volume 2372.582972
_symmetry_space_group_name_H-M "P C C A"
_symmetry_group_IT_number 54
_symmetry_cell_setting 'orthorhombic'
loop_
_space_group_symop_operation_xyz
x,y,z
1/2-x,-y,z
1/2+x,-y,1/2-z
-x,y,1/2-z
-x,-y,-z
1/2+x,y,-z
1/2-x,y,1/2+z
x,-y,1/2+z
loop_
_atom_site_type_symbol
_atom_site_label
_atom_site_fract_x
_atom_site_fract_y
_atom_site_fract_z
Si Si1 0.757117 0.805537 0.615243
Si Si2 0.902589 0.584810 0.280865
Si Si3 0.342416 0.543671 0.023596
Si Si4 0.097260 0.091217 0.772093
Si Si5 0.344966 0.040628 0.969428
Si Si6 0.742339 0.304956 0.858503
O O1 0.663893 0.839204 0.675337
O O2 0.834241 0.873422 0.611409
O O3 0.788768 0.729775 0.709112
O O4 0.745086 0.772606 0.459264
O O5 0.913958 0.510298 0.391228
O O6 0.839746 0.654503 0.344552
O O7 0.000000 0.621636 0.250000
O O8 0.862385 0.548281 0.139318
O O9 0.250000 0.500000 0.047684
O O10 0.333745 0.633352 0.089950
O O11 0.126892 0.051322 0.627843
O O12 0.000000 0.130489 0.750000
O O13 0.088451 0.018165 0.885380
O O14 0.250000 0.000000 0.969455
#
# Coordination Sequence:
#
# PCOD8223252 Si02
#       6
#     8   8   8   8   8   8
#     4  11  22  40  63  88 120 161 206 245 301 370
#     4  11  23  39  63  90 123 156 205 256 307 352
#     4  10  21  39  63  88 118 161 207 245 293 371
#     4  11  23  39  63  90 123 156 205 256 307 352
#     4  10  21  39  63  88 118 161 207 245 293 371
#     4  11  22  40  63  88 120 161 206 245 301 370
#
# _framework density 20.231114000000002
#
# number of rings (size 3 to 8) (size 9 to 14) (size 15 to 20)
#    0.000    1.333    3.333    4.000    4.667    0.667 
#    0.000    0.000    0.000    0.000    0.000    0.000 
#    0.000    0.000    0.000    0.000    0.000    0.000 
#
# Total GULP energy -595213.922343 kJ/mol
# GULP energy per Si atom -12400.290049 kJ/mol
# Density = 2.018507 g / cm^3
# Si number density = 20.231114 Si / 1000 Ang^3
#
#
#
# Elastic Constant Matrix: (Units=GPa)
#
#
# Indices 1 2 3 4 5 6 
#
# 1 28.7506 12.5345 15.5638 0.0000 0.0000 0.0000
# 2 12.5345 84.5180 35.6503 0.0000 0.0000 0.0000
# 3 15.5638 35.6503 101.8137 0.0000 0.0000 0.0000
# 4 0.0000 0.0000 0.0000 47.8907 0.0000 0.0000
# 5 0.0000 0.0000 0.0000 0.0000 13.4695 0.0000
# 6 0.0000 0.0000 0.0000 0.0000 0.0000 38.0179
#
#
#
# Elastic Compliance Matrix: (Units=1/GPa)
#
#
# Indices 1 2 3 4 5 6 
#
# 1 0.038949 -0.003831 -0.004613 0.000000 0.000000 0.000000
# 2 -0.003831 0.014259 -0.004407 0.000000 0.000000 0.000000
# 3 -0.004613 -0.004407 0.012070 0.000000 0.000000 0.000000
# 4 0.000000 0.000000 0.000000 0.020881 0.000000 0.000000
# 5 0.000000 0.000000 0.000000 0.000000 0.074242 0.000000
# 6 0.000000 0.000000 0.000000 0.000000 0.000000 0.026303
#
#
# Mechanical properties :
#
#
# Convention : Reuss Voigt Hill
#
# Bulk Modulus (GPa) = 25.26724 38.06438 31.66581
# Shear Modulus (GPa) = 22.16340 29.96456 26.06398
#
# Velocity S-wave (km/s) = 3.31344 3.85270 3.59320
# Velocity P-wave (km/s) = 5.21104 6.21664 5.73592
#
# Compressibility (1/GPa) = 0.03957693
#
# Stress axis : x y z
#
# Youngs Moduli (GPa) = 25.67466 70.13161 82.84897
#
# Poissons Ratio (x) = 0.26865 0.38215
# Poissons Ratio (y) = 0.09835 0.36513
# Poissons Ratio (z) = 0.11843 0.30908
#
# Static dielectric constant tensor:
#      x y z
#    x 3.541900 0.000000 0.000000 
#    y 0.000000 3.965990 0.000000 
#    z 0.000000 0.000000 3.726850 
# 
# 
# High freq. dielectric constant tensor:
#      x y z
#    x 1.760330 0.000000 0.000000 
#    y 0.000000 1.795860 0.000000 
#    z 0.000000 0.000000 1.810070 
# 
# From -- ./inp_files/3566.got.cif
#   From: 2010.03.12/outbox.cif.g09.slc.cpg/sg54_2_cif.got.tgz:3566.got - 2010.04.16 15:00:50.
