data_PCOD8223673
_publ_section_title
;
Structure prediction by ZEFSAII (Michael W. Deem and Ramdas Pophale) SiO2 
 PCOD8223673
Probable space group: P C C A
;
_chemical_formula_sum "Si O2"
_cell_formula_units_Z 48
_cell_length_a 8.337763
_cell_length_b 9.054197
_cell_length_c 30.231311
_cell_angle_alpha 90.000000
_cell_angle_beta 90.000000
_cell_angle_gamma 90.000000
_cell_volume 2282.214534
_symmetry_space_group_name_H-M "P C C A"
_symmetry_group_IT_number 54
_symmetry_cell_setting 'orthorhombic'
loop_
_space_group_symop_operation_xyz
x,y,z
1/2-x,-y,z
1/2+x,-y,1/2-z
-x,y,1/2-z
-x,-y,-z
1/2+x,y,-z
1/2-x,y,1/2+z
x,-y,1/2+z
loop_
_atom_site_type_symbol
_atom_site_label
_atom_site_fract_x
_atom_site_fract_y
_atom_site_fract_z
Si Si1 0.184181 0.654592 0.265436
Si Si2 0.698130 0.338562 0.043731
Si Si3 0.750000 0.000000 0.411190
Si Si4 0.500000 0.148337 0.750000
Si Si5 0.511597 0.956142 0.154012
Si Si6 0.580153 0.845423 0.987261
Si Si7 0.190523 0.246139 0.859676
O O1 0.250000 0.500000 0.246298
O O2 0.328221 0.766539 0.251961
O O3 0.171643 0.644578 0.318410
O O4 0.000000 0.691622 0.250000
O O5 0.750000 0.500000 0.026617
O O6 0.532057 0.294641 0.021220
O O7 0.680149 0.343233 0.096437
O O8 0.815998 0.206070 0.029081
O O9 0.633023 0.912010 0.378064
O O10 0.821289 0.871756 0.442334
O O11 0.520960 0.046791 0.793326
O O12 0.642387 0.836803 0.142128
O O13 0.552012 0.123637 0.141188
O O14 0.500000 0.000000 0.000000
#
# Coordination Sequence:
#
# PCOD8223673 Si02
#       7
#     8   8   4   4   8   8   8
#     4  11  23  42  67  92 132 182 224 270 345 416
#     4  12  25  43  66  98 136 174 223 283 347 413
#     4  12  22  38  68  98 126 174 238 276 342 408
#     4  10  24  42  62 102 132 172 226 296 332 402
#     4  10  23  39  65  96 131 168 228 282 334 403
#     4  12  24  42  69  96 130 182 228 282 341 416
#     4  10  23  41  64  93 131 176 217 279 343 406
#
# _framework density 21.032205000000001
#
# number of rings (size 3 to 8) (size 9 to 14) (size 15 to 20)
#    0.000    1.000    4.167    2.000    5.833    1.333 
#    0.000    0.000    0.000    0.000    0.000    0.000 
#    0.000    0.000    0.000    0.000    0.000    0.000 
#
# Total GULP energy -594791.733108 kJ/mol
# GULP energy per Si atom -12391.494440 kJ/mol
# Density = 2.098433 g / cm^3
# Si number density = 21.032205 Si / 1000 Ang^3
#
#
#
# Elastic Constant Matrix: (Units=GPa)
#
#
# Indices 1 2 3 4 5 6 
#
# 1 120.9748 43.0437 47.6547 0.0000 0.0000 0.0000
# 2 43.0437 83.3868 27.4014 0.0000 0.0000 0.0000
# 3 47.6547 27.4014 134.0090 0.0000 0.0000 0.0000
# 4 0.0000 0.0000 0.0000 34.2743 0.0000 0.0000
# 5 0.0000 0.0000 0.0000 0.0000 40.8447 0.0000
# 6 0.0000 0.0000 0.0000 0.0000 0.0000 89.3908
#
#
#
# Elastic Compliance Matrix: (Units=1/GPa)
#
#
# Indices 1 2 3 4 5 6 
#
# 1 0.011139 -0.004769 -0.002986 0.000000 0.000000 0.000000
# 2 -0.004769 0.014898 -0.001350 0.000000 0.000000 0.000000
# 3 -0.002986 -0.001350 0.008800 0.000000 0.000000 0.000000
# 4 0.000000 0.000000 0.000000 0.029176 0.000000 0.000000
# 5 0.000000 0.000000 0.000000 0.000000 0.024483 0.000000
# 6 0.000000 0.000000 0.000000 0.000000 0.000000 0.011187
#
#
# Mechanical properties :
#
#
# Convention : Reuss Voigt Hill
#
# Bulk Modulus (GPa) = 60.14465 63.84115 61.99290
# Shear Modulus (GPa) = 40.50682 47.58668 44.04675
#
# Velocity S-wave (km/s) = 4.39332 4.76180 4.58127
# Velocity P-wave (km/s) = 7.37520 7.78800 7.58441
#
# Compressibility (1/GPa) = 0.01662658
#
# Stress axis : x y z
#
# Youngs Moduli (GPa) = 89.77272 67.12467 113.63392
#
# Poissons Ratio (x) = 0.32010 0.33932
# Poissons Ratio (y) = 0.42810 0.15345
# Poissons Ratio (z) = 0.26807 0.09064
#
# Static dielectric constant tensor:
#      x y z
#    x 4.109980 0.000000 0.000000 
#    y 0.000000 3.488260 0.000000 
#    z 0.000000 0.000000 3.992450 
# 
# 
# High freq. dielectric constant tensor:
#      x y z
#    x 1.835880 0.000000 0.000000 
#    y 0.000000 1.806720 0.000000 
#    z 0.000000 0.000000 1.836290 
# 
# From -- ./inp_files/27830.got.cif
#   From: 2010.03.12/outbox.cif.g09.slc.cpg/sg54_14_cif.got.tgz:27830.got - 2010.04.16 15:00:50.
