data_PCOD8223110
_publ_section_title
;
Structure prediction by ZEFSAII (Michael W. Deem and Ramdas Pophale) SiO2 
 PCOD8223110
Probable space group: P C C A
;
_chemical_formula_sum "Si O2"
_cell_formula_units_Z 48
_cell_length_a 15.424749
_cell_length_b 11.868303
_cell_length_c 12.008668
_cell_angle_alpha 90.000000
_cell_angle_beta 90.000000
_cell_angle_gamma 90.000000
_cell_volume 2198.373951
_symmetry_space_group_name_H-M "P C C A"
_symmetry_group_IT_number 54
_symmetry_cell_setting 'orthorhombic'
loop_
_space_group_symop_operation_xyz
x,y,z
1/2-x,-y,z
1/2+x,-y,1/2-z
-x,y,1/2-z
-x,-y,-z
1/2+x,y,-z
1/2-x,y,1/2+z
x,-y,1/2+z
loop_
_atom_site_type_symbol
_atom_site_label
_atom_site_fract_x
_atom_site_fract_y
_atom_site_fract_z
Si Si1 0.409683 0.827187 0.860701
Si Si2 0.102565 0.599983 0.974066
Si Si3 0.102308 0.736299 0.765753
Si Si4 0.111546 0.201445 0.619729
Si Si5 0.602642 0.645185 0.469573
Si Si6 0.157153 0.056836 0.411108
O O1 0.354419 0.818402 0.745131
O O2 0.509211 0.793634 0.859845
O O3 0.410929 0.955567 0.901814
O O4 0.363707 0.738986 0.943756
O O5 0.130902 0.638628 0.851277
O O6 0.999389 0.619724 0.972748
O O7 0.142847 0.678849 0.070723
O O8 0.141575 0.476581 0.998153
O O9 0.138476 0.693990 0.647275
O O10 0.141804 0.853702 0.811526
O O11 0.000000 0.754466 0.750000
O O12 0.143159 0.106485 0.534272
O O13 0.250000 0.000000 0.398844
#
# Coordination Sequence:
#
# PCOD8223110 Si02
#       6
#     8   8   8   8   8   8
#     4  10  21  34  58  88 113 155 197 245 305 364
#     4   8  16  31  53  86 117 148 190 248 304 354
#     4   9  19  34  57  86 122 159 197 250 306 354
#     4   9  20  37  57  84 118 150 196 252 299 353
#     4   9  17  30  54  86 117 147 194 246 302 357
#     4  11  24  39  58  84 119 162 203 251 297 364
#
# _framework density 21.834318
#
# number of rings (size 3 to 8) (size 9 to 14) (size 15 to 20)
#    0.000    2.667    0.000    1.500    7.000    0.667 
#    0.000    0.000    0.000    4.000    0.000    0.000 
#    0.000    0.000    0.000    0.000    0.000    0.000 
#
# Total GULP energy -594640.437828 kJ/mol
# GULP energy per Si atom -12388.342455 kJ/mol
# Density = 2.178462 g / cm^3
# Si number density = 21.834318 Si / 1000 Ang^3
#
#
#
# Elastic Constant Matrix: (Units=GPa)
#
#
# Indices 1 2 3 4 5 6 
#
# 1 17.1950 8.3471 27.9001 0.0000 0.0000 0.0000
# 2 8.3471 212.9172 128.7309 0.0000 0.0000 0.0000
# 3 27.9001 128.7309 203.5717 0.0000 0.0000 0.0000
# 4 0.0000 0.0000 0.0000 26.2335 0.0000 0.0000
# 5 0.0000 0.0000 0.0000 0.0000 12.2045 0.0000
# 6 0.0000 0.0000 0.0000 0.0000 0.0000 -11.5494
#
#
#
# Elastic Compliance Matrix: (Units=1/GPa)
#
#
# Indices 1 2 3 4 5 6 
#
# 1 0.078653 0.005560 -0.014295 0.000000 0.000000 0.000000
# 2 0.005560 0.007997 -0.005819 0.000000 0.000000 0.000000
# 3 -0.014295 -0.005819 0.010551 0.000000 0.000000 0.000000
# 4 0.000000 0.000000 0.000000 0.038119 0.000000 0.000000
# 5 0.000000 0.000000 0.000000 0.000000 0.081937 0.000000
# 6 0.000000 0.000000 0.000000 0.000000 0.000000 -0.086585
#
#
# Mechanical properties :
#
#
# Convention : Reuss Voigt Hill
#
# Bulk Modulus (GPa) = 14.68609 84.84890 49.76749
# Shear Modulus (GPa) = 27.40052 23.29145 25.34599
#
# Velocity S-wave (km/s) = 3.54634 3.26964 3.41080
# Velocity P-wave (km/s) = 4.84866 7.29375 6.19307
#
# Compressibility (1/GPa) = 0.06809167
#
# Stress axis : x y z
#
# Youngs Moduli (GPa) = 12.71410 125.05005 94.77703
#
# Poissons Ratio (x) = -0.69522 1.35486
# Poissons Ratio (y) = -0.07068 0.55149
# Poissons Ratio (z) = 0.18175 0.72764
#
# Static dielectric constant tensor:
#      x y z
#    x 3.322870 0.000000 0.000000 
#    y 0.000000 4.304050 0.000000 
#    z 0.000000 0.000000 4.507770 
# 
# 
# High freq. dielectric constant tensor:
#      x y z
#    x 1.813770 0.000000 0.000000 
#    y 0.000000 1.867950 0.000000 
#    z 0.000000 0.000000 1.871120 
# 
# From -- ./inp_files/8931.got.cif
#   From: 2010.03.12/outbox.cif.g09.slc.cpg/sg54_5_cif.got.tgz:8931.got - 2010.04.16 15:00:50.
