data_PCOD8223145
_publ_section_title
;
Structure prediction by ZEFSAII (Michael W. Deem and Ramdas Pophale) SiO2 
 PCOD8223145
Probable space group: P C C A
;
_chemical_formula_sum "Si O2"
_cell_formula_units_Z 64
_cell_length_a 34.320107
_cell_length_b 17.868758
_cell_length_c 5.228884
_cell_angle_alpha 90.000000
_cell_angle_beta 90.000000
_cell_angle_gamma 90.000000
_cell_volume 3206.653305
_symmetry_space_group_name_H-M "P C C A"
_symmetry_group_IT_number 54
_symmetry_cell_setting 'orthorhombic'
loop_
_space_group_symop_operation_xyz
x,y,z
1/2-x,-y,z
1/2+x,-y,1/2-z
-x,y,1/2-z
-x,-y,-z
1/2+x,y,-z
1/2-x,y,1/2+z
x,-y,1/2+z
loop_
_atom_site_type_symbol
_atom_site_label
_atom_site_fract_x
_atom_site_fract_y
_atom_site_fract_z
Si Si1 0.887616 0.163841 0.757453
Si Si2 0.233547 0.584406 0.776260
Si Si3 0.045329 0.454959 0.760271
Si Si4 0.606835 0.665904 0.788885
Si Si5 0.455794 0.047363 0.266785
Si Si6 0.793784 0.967630 0.821023
Si Si7 0.337853 0.172828 0.742241
Si Si8 0.154957 0.343972 0.211293
O O1 0.903731 0.247685 0.771032
O O2 0.925497 0.113215 0.782907
O O3 0.866690 0.150482 0.487037
O O4 0.857783 0.150654 0.990264
O O5 0.250000 0.500000 0.801663
O O6 0.253880 0.626080 0.537044
O O7 0.187272 0.591382 0.745754
O O8 0.058027 0.506276 0.523426
O O9 0.066395 0.375972 0.745606
O O10 0.000000 0.436996 0.750000
O O11 0.636827 0.642474 0.566576
O O12 0.623782 0.644599 0.065568
O O13 0.500000 0.078859 0.250000
O O14 0.448751 0.014590 0.548910
O O15 0.798405 0.877714 0.786008
O O16 0.750000 0.000000 0.847205
O O17 0.815252 0.008186 0.583246
O O18 0.326403 0.260416 0.731207
#
# Coordination Sequence:
#
# PCOD8223145 Si02
#       8
#     8   8   8   8   8   8   8   8
#     4  10  21  36  59  83 114 147 192 232 278 336
#     4  10  21  40  57  82 114 144 181 235 285 346
#     4  10  21  39  59  88 124 156 193 236 284 338
#     4  10  21  39  60  88 115 153 195 238 284 338
#     4  10  21  36  54  83 119 152 189 231 279 332
#     4  10  21  37  53  78 108 137 181 232 276 333
#     4  10  21  37  57  82 110 147 184 236 284 330
#     4  10  21  40  59  84 118 146 193 238 286 347
#
# _framework density 19.958504000000001
#
# number of rings (size 3 to 8) (size 9 to 14) (size 15 to 20)
#    0.000    2.000    0.000    3.000    0.000    3.500 
#   18.000    0.000    0.000    9.000    0.000    0.000 
#    0.000    0.000    0.000    0.000    0.000    0.000 
#
# Total GULP energy -793298.039973 kJ/mol
# GULP energy per Si atom -12395.281875 kJ/mol
# Density = 1.991308 g / cm^3
# Si number density = 19.958504 Si / 1000 Ang^3
#
#
#
# Elastic Constant Matrix: (Units=GPa)
#
#
# Indices 1 2 3 4 5 6 
#
# 1 63.2295 47.8930 -3.6194 0.0000 0.0000 0.0000
# 2 47.8930 77.1196 0.6992 0.0000 0.0000 0.0000
# 3 -3.6194 0.6992 119.6995 0.0000 0.0000 0.0000
# 4 0.0000 0.0000 0.0000 16.2530 0.0000 0.0000
# 5 0.0000 0.0000 0.0000 0.0000 14.6203 0.0000
# 6 0.0000 0.0000 0.0000 0.0000 0.0000 40.1859
#
#
#
# Elastic Compliance Matrix: (Units=1/GPa)
#
#
# Indices 1 2 3 4 5 6 
#
# 1 0.029985 -0.018631 0.001016 0.000000 0.000000 0.000000
# 2 -0.018631 0.024543 -0.000707 0.000000 0.000000 0.000000
# 3 0.001016 -0.000707 0.008389 0.000000 0.000000 0.000000
# 4 0.000000 0.000000 0.000000 0.061527 0.000000 0.000000
# 5 0.000000 0.000000 0.000000 0.000000 0.068398 0.000000
# 6 0.000000 0.000000 0.000000 0.000000 0.000000 0.024884
#
#
# Mechanical properties :
#
#
# Convention : Reuss Voigt Hill
#
# Bulk Modulus (GPa) = 38.06060 38.88823 38.47442
# Shear Modulus (GPa) = 19.00204 28.55023 23.77614
#
# Velocity S-wave (km/s) = 3.08892 3.78627 3.45523
# Velocity P-wave (km/s) = 5.64209 6.21621 5.93610
#
# Compressibility (1/GPa) = 0.02627389
#
# Stress axis : x y z
#
# Youngs Moduli (GPa) = 33.34954 40.74406 119.20249
#
# Poissons Ratio (x) = 0.75910 -0.12105
# Poissons Ratio (y) = 0.62133 0.08424
# Poissons Ratio (z) = -0.03387 0.02879
#
# Static dielectric constant tensor:
#      x y z
#    x 3.397440 0.000000 0.000000 
#    y 0.000000 3.525250 0.000000 
#    z 0.000000 0.000000 4.818000 
# 
# 
# High freq. dielectric constant tensor:
#      x y z
#    x 1.759520 0.000000 0.000000 
#    y 0.000000 1.765320 0.000000 
#    z 0.000000 0.000000 1.816510 
# 
# From -- ./inp_files/2236.got.cif
#   From: 2010.03.12/outbox.cif.g09.slc.cpg/sg54_2_cif.got.tgz:2236.got - 2010.04.16 15:00:50.
