data_PCOD8223652
_publ_section_title
;
Structure prediction by ZEFSAII (Michael W. Deem and Ramdas Pophale) SiO2 
 PCOD8223652
Probable space group: P C C A
;
_chemical_formula_sum "Si O2"
_cell_formula_units_Z 32
_cell_length_a 9.812852
_cell_length_b 9.274777
_cell_length_c 16.472073
_cell_angle_alpha 90.000000
_cell_angle_beta 90.000000
_cell_angle_gamma 90.000000
_cell_volume 1499.156539
_symmetry_space_group_name_H-M "P C C A"
_symmetry_group_IT_number 54
_symmetry_cell_setting 'orthorhombic'
loop_
_space_group_symop_operation_xyz
x,y,z
1/2-x,-y,z
1/2+x,-y,1/2-z
-x,y,1/2-z
-x,-y,-z
1/2+x,y,-z
1/2-x,y,1/2+z
x,-y,1/2+z
loop_
_atom_site_type_symbol
_atom_site_label
_atom_site_fract_x
_atom_site_fract_y
_atom_site_fract_z
Si Si1 0.149957 0.116927 0.720588
Si Si2 0.284901 0.155403 0.034908
Si Si3 0.964355 0.335230 0.519358
Si Si4 0.623637 0.399748 0.196250
O O1 0.166646 0.117656 0.624611
O O2 0.191633 0.273888 0.751618
O O3 0.000000 0.074846 0.750000
O O4 0.250000 0.000000 0.760311
O O5 0.411305 0.233485 0.991178
O O6 0.250000 0.000000 0.992504
O O7 0.162411 0.271448 0.031045
O O8 0.938889 0.328444 0.615646
O O9 0.000000 0.500000 0.500000
O O10 0.750000 0.500000 0.173304
O O11 0.500000 0.471218 0.250000
#
# Coordination Sequence:
#
# PCOD8223652 Si02
#       4
#     8   8   8   8
#     4  10  22  45  69  98 133 177 225 273 334 404
#     4  11  24  45  69 100 136 178 224 279 341 401
#     4  12  25  45  69 102 137 176 230 278 341 407
#     4  11  24  43  66  98 134 175 225 277 338 403
#
# _framework density 21.345334999999999
#
# number of rings (size 3 to 8) (size 9 to 14) (size 15 to 20)
#    0.000    1.000    5.000    3.000    3.500    2.000 
#   13.500    0.000    0.000    0.000    0.000    0.000 
#    0.000    0.000    0.000    0.000    0.000    0.000 
#
# Total GULP energy -396599.750353 kJ/mol
# GULP energy per Si atom -12393.742199 kJ/mol
# Density = 2.129675 g / cm^3
# Si number density = 21.345335 Si / 1000 Ang^3
#
#
#
# Elastic Constant Matrix: (Units=GPa)
#
#
# Indices 1 2 3 4 5 6 
#
# 1 174.3080 75.3216 31.7096 0.0000 0.0000 0.0000
# 2 75.3216 120.7397 4.9212 0.0000 0.0000 0.0000
# 3 31.7096 4.9212 53.7435 0.0000 0.0000 0.0000
# 4 0.0000 0.0000 0.0000 35.1082 0.0000 0.0000
# 5 0.0000 0.0000 0.0000 0.0000 31.7025 0.0000
# 6 0.0000 0.0000 0.0000 0.0000 0.0000 53.6544
#
#
#
# Elastic Compliance Matrix: (Units=1/GPa)
#
#
# Indices 1 2 3 4 5 6 
#
# 1 0.008929 -0.005375 -0.004776 0.000000 0.000000 0.000000
# 2 -0.005375 0.011549 0.002114 0.000000 0.000000 0.000000
# 3 -0.004776 0.002114 0.021231 0.000000 0.000000 0.000000
# 4 0.000000 0.000000 0.000000 0.028483 0.000000 0.000000
# 5 0.000000 0.000000 0.000000 0.000000 0.031543 0.000000
# 6 0.000000 0.000000 0.000000 0.000000 0.000000 0.018638
#
#
# Mechanical properties :
#
#
# Convention : Reuss Voigt Hill
#
# Bulk Modulus (GPa) = 39.00939 63.63287 51.32113
# Shear Modulus (GPa) = 34.48452 39.88228 37.18340
#
# Velocity S-wave (km/s) = 4.02375 4.32722 4.17825
# Velocity P-wave (km/s) = 6.31684 7.40556 6.88276
#
# Compressibility (1/GPa) = 0.02563485
#
# Stress axis : x y z
#
# Youngs Moduli (GPa) = 112.00074 86.58468 47.10065
#
# Poissons Ratio (x) = 0.46542 0.22494
# Poissons Ratio (y) = 0.60203 -0.09957
# Poissons Ratio (z) = 0.53489 -0.18304
#
# Static dielectric constant tensor:
#      x y z
#    x 4.384340 0.000000 0.000000 
#    y 0.000000 4.379770 0.000000 
#    z 0.000000 0.000000 3.787270 
# 
# 
# High freq. dielectric constant tensor:
#      x y z
#    x 1.852080 0.000000 0.000000 
#    y 0.000000 1.847170 0.000000 
#    z 0.000000 0.000000 1.825070 
# 
# From -- ./inp_files/12195.got.cif
#   From: 2010.03.12/outbox.cif.g09.slc.cpg/sg54_7_cif.got.tgz:12195.got - 2010.04.16 15:00:50.
