data_PCOD8223585
_publ_section_title
;
Structure prediction by ZEFSAII (Michael W. Deem and Ramdas Pophale) SiO2 
 PCOD8223585
Probable space group: P C C A
;
_chemical_formula_sum "Si O2"
_cell_formula_units_Z 40
_cell_length_a 12.681026
_cell_length_b 9.723506
_cell_length_c 13.131571
_cell_angle_alpha 90.000000
_cell_angle_beta 90.000000
_cell_angle_gamma 90.000000
_cell_volume 1619.175656
_symmetry_space_group_name_H-M "P C C A"
_symmetry_group_IT_number 54
_symmetry_cell_setting 'orthorhombic'
loop_
_space_group_symop_operation_xyz
x,y,z
1/2-x,-y,z
1/2+x,-y,1/2-z
-x,y,1/2-z
-x,-y,-z
1/2+x,y,-z
1/2-x,y,1/2+z
x,-y,1/2+z
loop_
_atom_site_type_symbol
_atom_site_label
_atom_site_fract_x
_atom_site_fract_y
_atom_site_fract_z
Si Si1 0.379501 0.265816 0.944064
Si Si2 0.979701 0.502400 0.861896
Si Si3 0.783423 0.671447 0.902207
Si Si4 0.937319 0.223532 0.554962
Si Si5 0.723774 0.149512 0.214201
O O1 0.452958 0.358395 0.871888
O O2 0.309473 0.171510 0.872945
O O3 0.310422 0.363765 0.018341
O O4 0.452196 0.159378 0.013500
O O5 0.853126 0.537206 0.872188
O O6 0.000000 0.442090 0.750000
O O7 0.024798 0.386482 0.938559
O O8 0.731313 0.738218 0.802203
O O9 0.853487 0.783851 0.963238
O O10 0.892394 0.161842 0.660412
O O11 0.750000 0.000000 0.259925
#
# Coordination Sequence:
#
# PCOD8223585 Si02
#       5
#     8   8   8   8   8
#     4  10  22  44  67 100 135 176 223 282 351 406
#     4  11  22  43  71 100 138 173 218 281 353 420
#     4  10  22  42  66  95 138 177 218 278 348 406
#     4  10  25  42  67 104 132 173 228 282 342 418
#     4  11  25  45  67  98 135 185 239 280 336 410
#
# _framework density 24.70393
#
# number of rings (size 3 to 8) (size 9 to 14) (size 15 to 20)
#    0.000    1.600    2.000    2.400    2.800   11.200 
#    0.000    6.000    0.000    0.000    0.000    0.000 
#    0.000    0.000    0.000    0.000    0.000    0.000 
#
# Total GULP energy -495663.078494 kJ/mol
# GULP energy per Si atom -12391.576962 kJ/mol
# Density = 2.464770 g / cm^3
# Si number density = 24.703930 Si / 1000 Ang^3
#
#
#
# Elastic Constant Matrix: (Units=GPa)
#
#
# Indices 1 2 3 4 5 6 
#
# 1 93.0132 -17.6593 21.8134 0.0000 0.0000 0.0000
# 2 -17.6593 50.6864 2.6050 0.0000 0.0000 0.0000
# 3 21.8134 2.6050 107.0984 0.0000 0.0000 0.0000
# 4 0.0000 0.0000 0.0000 18.1394 0.0000 0.0000
# 5 0.0000 0.0000 0.0000 0.0000 35.7385 0.0000
# 6 0.0000 0.0000 0.0000 0.0000 0.0000 18.3013
#
#
#
# Elastic Compliance Matrix: (Units=1/GPa)
#
#
# Indices 1 2 3 4 5 6 
#
# 1 0.012190 0.004380 -0.002589 0.000000 0.000000 0.000000
# 2 0.004380 0.021328 -0.001411 0.000000 0.000000 0.000000
# 3 -0.002589 -0.001411 0.009899 0.000000 0.000000 0.000000
# 4 0.000000 0.000000 0.000000 0.055129 0.000000 0.000000
# 5 0.000000 0.000000 0.000000 0.000000 0.027981 0.000000
# 6 0.000000 0.000000 0.000000 0.000000 0.000000 0.054641
#
#
# Mechanical properties :
#
#
# Convention : Reuss Voigt Hill
#
# Bulk Modulus (GPa) = 22.63652 29.36846 26.00249
# Shear Modulus (GPa) = 25.62357 30.70512 28.16434
#
# Velocity S-wave (km/s) = 3.22409 3.52934 3.38016
# Velocity P-wave (km/s) = 4.80028 5.34063 5.07765
#
# Compressibility (1/GPa) = 0.04417640
#
# Stress axis : x y z
#
# Youngs Moduli (GPa) = 82.03436 46.88735 101.02115
#
# Poissons Ratio (x) = -0.20537 0.26158
# Poissons Ratio (y) = -0.35932 0.14253
# Poissons Ratio (z) = 0.21242 0.06615
#
# Static dielectric constant tensor:
#      x y z
#    x 5.077840 0.000000 0.000000 
#    y 0.000000 3.712650 0.000000 
#    z 0.000000 0.000000 4.514500 
# 
# 
# High freq. dielectric constant tensor:
#      x y z
#    x 2.010490 0.000000 0.000000 
#    y 0.000000 1.928980 0.000000 
#    z 0.000000 0.000000 1.998470 
# 
# From -- ./inp_files/12440.got.cif
#   From: 2010.03.12/outbox.cif.g09.slc.cpg/sg54_7_cif.got.tgz:12440.got - 2010.04.16 15:00:50.
