data_PCOD8223637
_publ_section_title
;
Structure prediction by ZEFSAII (Michael W. Deem and Ramdas Pophale) SiO2 
 PCOD8223637
Probable space group: P C C A
;
_chemical_formula_sum "Si O2"
_cell_formula_units_Z 36
_cell_length_a 21.310887
_cell_length_b 6.785234
_cell_length_c 11.852350
_cell_angle_alpha 90.000000
_cell_angle_beta 90.000000
_cell_angle_gamma 90.000000
_cell_volume 1713.842166
_symmetry_space_group_name_H-M "P C C A"
_symmetry_group_IT_number 54
_symmetry_cell_setting 'orthorhombic'
loop_
_space_group_symop_operation_xyz
x,y,z
1/2-x,-y,z
1/2+x,-y,1/2-z
-x,y,1/2-z
-x,-y,-z
1/2+x,y,-z
1/2-x,y,1/2+z
x,-y,1/2+z
loop_
_atom_site_type_symbol
_atom_site_label
_atom_site_fract_x
_atom_site_fract_y
_atom_site_fract_z
Si Si1 0.355057 0.264212 0.129367
Si Si2 0.750000 0.500000 0.753363
Si Si3 0.932343 0.089287 0.288440
Si Si4 0.639620 0.657960 0.113734
Si Si5 0.065851 0.580604 0.540585
O O1 0.287799 0.341134 0.172393
O O2 0.406173 0.441307 0.140882
O O3 0.380520 0.081007 0.201289
O O4 0.348074 0.205445 0.997016
O O5 0.795619 0.628994 0.677142
O O6 0.911538 0.239241 0.192005
O O7 0.938177 0.198871 0.410344
O O8 0.000000 0.004204 0.250000
O O9 0.612504 0.445371 0.068146
O O10 0.000000 0.500000 0.500000
#
# Coordination Sequence:
#
# PCOD8223637 Si02
#       5
#     8   4   8   8   8
#     4  10  26  42  67 102 136 177 239 288 335 430
#     4  12  22  48  70  92 142 188 234 270 362 420
#     4  12  23  43  72 107 138 181 240 286 365 410
#     4  10  23  42  67  97 137 188 221 290 346 411
#     4  10  22  44  69  98 141 178 230 288 353 416
#
# _framework density 21.005434999999999
#
# number of rings (size 3 to 8) (size 9 to 14) (size 15 to 20)
#    1.333    0.000    4.444    0.667    0.000    8.889 
#    0.000    2.222    0.000    0.000    0.000    0.000 
#    0.000    0.000    0.000    0.000    0.000    0.000 
#
# Total GULP energy -446044.442275 kJ/mol
# GULP energy per Si atom -12390.123397 kJ/mol
# Density = 2.095763 g / cm^3
# Si number density = 21.005435 Si / 1000 Ang^3
#
#
#
# Elastic Constant Matrix: (Units=GPa)
#
#
# Indices 1 2 3 4 5 6 
#
# 1 149.1480 41.5892 52.1949 0.0000 0.0000 0.0000
# 2 41.5892 75.6751 29.6172 0.0000 0.0000 0.0000
# 3 52.1949 29.6172 94.9187 0.0000 0.0000 0.0000
# 4 0.0000 0.0000 0.0000 25.5830 0.0000 0.0000
# 5 0.0000 0.0000 0.0000 0.0000 49.9387 0.0000
# 6 0.0000 0.0000 0.0000 0.0000 0.0000 45.6616
#
#
#
# Elastic Compliance Matrix: (Units=1/GPa)
#
#
# Indices 1 2 3 4 5 6 
#
# 1 0.009025 -0.003437 -0.003890 0.000000 0.000000 0.000000
# 2 -0.003437 0.016362 -0.003215 0.000000 0.000000 0.000000
# 3 -0.003890 -0.003215 0.013678 0.000000 0.000000 0.000000
# 4 0.000000 0.000000 0.000000 0.039089 0.000000 0.000000
# 5 0.000000 0.000000 0.000000 0.000000 0.020025 0.000000
# 6 0.000000 0.000000 0.000000 0.000000 0.000000 0.021900
#
#
# Mechanical properties :
#
#
# Convention : Reuss Voigt Hill
#
# Bulk Modulus (GPa) = 55.62029 62.94938 59.28483
# Shear Modulus (GPa) = 33.97776 37.32602 35.65189
#
# Velocity S-wave (km/s) = 4.02627 4.21999 4.12426
# Velocity P-wave (km/s) = 6.93909 7.33332 7.13892
#
# Compressibility (1/GPa) = 0.01797905
#
# Stress axis : x y z
#
# Youngs Moduli (GPa) = 110.80924 61.11816 73.11202
#
# Poissons Ratio (x) = 0.21008 0.28441
# Poissons Ratio (y) = 0.38088 0.23507
# Poissons Ratio (z) = 0.43105 0.19651
#
# Static dielectric constant tensor:
#      x y z
#    x 3.889540 0.000000 0.000000 
#    y 0.000000 3.478720 0.000000 
#    z 0.000000 0.000000 4.108100 
# 
# 
# High freq. dielectric constant tensor:
#      x y z
#    x 1.830180 0.000000 0.000000 
#    y 0.000000 1.789150 0.000000 
#    z 0.000000 0.000000 1.833790 
# 
# From -- ./inp_files/9352.got.cif
#   From: 2010.03.12/outbox.cif.g09.slc.cpg/sg54_5_cif.got.tgz:9352.got - 2010.04.16 15:00:50.
