data_PCOD8223801
_publ_section_title
;
Structure prediction by ZEFSAII (Michael W. Deem and Ramdas Pophale) SiO2 
 PCOD8223801
Probable space group: P C C A
;
_chemical_formula_sum "Si O2"
_cell_formula_units_Z 56
_cell_length_a 10.300277
_cell_length_b 17.564501
_cell_length_c 14.520113
_cell_angle_alpha 90.000000
_cell_angle_beta 90.000000
_cell_angle_gamma 90.000000
_cell_volume 2626.967601
_symmetry_space_group_name_H-M "P C C A"
_symmetry_group_IT_number 54
_symmetry_cell_setting 'orthorhombic'
loop_
_space_group_symop_operation_xyz
x,y,z
1/2-x,-y,z
1/2+x,-y,1/2-z
-x,y,1/2-z
-x,-y,-z
1/2+x,y,-z
1/2-x,y,1/2+z
x,-y,1/2+z
loop_
_atom_site_type_symbol
_atom_site_label
_atom_site_fract_x
_atom_site_fract_y
_atom_site_fract_z
Si Si1 0.150220 0.226468 0.271212
Si Si2 0.176602 0.214073 0.935287
Si Si3 0.131034 0.048755 0.003074
Si Si4 0.012654 0.662581 0.356704
Si Si5 0.770323 0.680750 0.896862
Si Si6 0.874717 0.551383 0.008683
Si Si7 0.645576 0.060513 0.783612
O O1 0.189432 0.232846 0.379046
O O2 0.219940 0.290215 0.208591
O O3 0.195548 0.141462 0.250242
O O4 0.000000 0.237215 0.250000
O O5 0.131468 0.126541 0.944403
O O6 0.062139 0.251841 0.875174
O O7 0.192897 0.249519 0.036331
O O8 0.250000 0.000000 0.962419
O O9 0.154534 0.068383 0.107955
O O10 0.000000 0.000000 0.000000
O O11 0.114582 0.603242 0.400180
O O12 0.000000 0.644268 0.250000
O O13 0.876794 0.653033 0.410200
O O14 0.860485 0.607518 0.919730
O O15 0.750000 0.500000 0.022022
O O16 0.000000 0.500000 0.000000
O O17 0.500000 0.039363 0.750000
O O18 0.750000 0.000000 0.745365
#
# Coordination Sequence:
#
# PCOD8223801 Si02
#       7
#     8   8   8   8   8   8   8
#     4  11  25  42  68  99 135 185 237 289 358 414
#     4  11  26  42  72  97 137 186 233 296 353 418
#     4  11  27  43  64  98 135 184 239 292 365 415
#     4  11  24  45  71 106 138 177 233 280 346 417
#     4  11  24  45  71 101 143 173 235 285 337 424
#     4  11  24  47  75 104 142 186 218 276 348 412
#     4  10  24  43  63  94 135 177 236 293 358 421
#
# _framework density 21.317353000000001
#
# number of rings (size 3 to 8) (size 9 to 14) (size 15 to 20)
#    0.000    1.143    4.286    0.000   12.000    0.000 
#    2.571    0.000    0.000    0.000    0.000    0.000 
#    0.000    0.000    0.000    0.000    0.000    0.000 
#
# Total GULP energy -694282.579680 kJ/mol
# GULP energy per Si atom -12397.903209 kJ/mol
# Density = 2.126883 g / cm^3
# Si number density = 21.317353 Si / 1000 Ang^3
#
#
#
# Elastic Constant Matrix: (Units=GPa)
#
#
# Indices 1 2 3 4 5 6 
#
# 1 130.2974 70.2921 16.2741 0.0000 0.0000 0.0000
# 2 70.2921 149.5288 42.0129 0.0000 0.0000 0.0000
# 3 16.2741 42.0129 75.4932 0.0000 0.0000 0.0000
# 4 0.0000 0.0000 0.0000 24.6626 0.0000 0.0000
# 5 0.0000 0.0000 0.0000 0.0000 34.2232 0.0000
# 6 0.0000 0.0000 0.0000 0.0000 0.0000 37.7739
#
#
#
# Elastic Compliance Matrix: (Units=1/GPa)
#
#
# Indices 1 2 3 4 5 6 
#
# 1 0.010302 -0.005001 0.000562 0.000000 0.000000 0.000000
# 2 -0.005001 0.010355 -0.004685 0.000000 0.000000 0.000000
# 3 0.000562 -0.004685 0.015732 0.000000 0.000000 0.000000
# 4 0.000000 0.000000 0.000000 0.040547 0.000000 0.000000
# 5 0.000000 0.000000 0.000000 0.000000 0.029220 0.000000
# 6 0.000000 0.000000 0.000000 0.000000 0.000000 0.026473
#
#
# Mechanical properties :
#
#
# Convention : Reuss Voigt Hill
#
# Bulk Modulus (GPa) = 55.11872 68.05305 61.58588
# Shear Modulus (GPa) = 31.86256 34.44797 33.15527
#
# Velocity S-wave (km/s) = 3.87030 4.02426 3.94803
# Velocity P-wave (km/s) = 6.77382 7.32024 7.05233
#
# Compressibility (1/GPa) = 0.01814266
#
# Stress axis : x y z
#
# Youngs Moduli (GPa) = 97.06402 96.57323 63.56468
#
# Poissons Ratio (x) = 0.48297 -0.03574
# Poissons Ratio (y) = 0.48542 0.29777
# Poissons Ratio (z) = -0.05458 0.45240
#
# Static dielectric constant tensor:
#      x y z
#    x 3.934330 0.000000 0.000000 
#    y 0.000000 4.026080 0.000000 
#    z 0.000000 0.000000 3.607040 
# 
# 
# High freq. dielectric constant tensor:
#      x y z
#    x 1.841940 0.000000 0.000000 
#    y 0.000000 1.843810 0.000000 
#    z 0.000000 0.000000 1.835740 
# 
# From -- ./inp_files/12744.got.cif
#   From: 2010.03.12/outbox.cif.g09.slc.cpg/sg54_7_cif.got.tgz:12744.got - 2010.04.16 15:00:50.
