data_PCOD8223071
_publ_section_title
;
Structure prediction by ZEFSAII (Michael W. Deem and Ramdas Pophale) SiO2 
 PCOD8223071
Probable space group: P C C A
;
_chemical_formula_sum "Si O2"
_cell_formula_units_Z 56
_cell_length_a 8.920250
_cell_length_b 14.561960
_cell_length_c 20.801708
_cell_angle_alpha 90.000000
_cell_angle_beta 90.000000
_cell_angle_gamma 90.000000
_cell_volume 2702.065396
_symmetry_space_group_name_H-M "P C C A"
_symmetry_group_IT_number 54
_symmetry_cell_setting 'orthorhombic'
loop_
_space_group_symop_operation_xyz
x,y,z
1/2-x,-y,z
1/2+x,-y,1/2-z
-x,y,1/2-z
-x,-y,-z
1/2+x,y,-z
1/2-x,y,1/2+z
x,-y,1/2+z
loop_
_atom_site_type_symbol
_atom_site_label
_atom_site_fract_x
_atom_site_fract_y
_atom_site_fract_z
Si Si1 0.750000 0.000000 0.338090
Si Si2 0.055504 0.582594 0.420600
Si Si3 0.378405 0.390123 0.957077
Si Si4 0.467667 0.195220 0.953359
Si Si5 0.191616 0.173083 0.583494
Si Si6 0.723868 0.890107 0.149933
Si Si7 0.018731 0.259795 0.826041
Si Si8 0.000000 0.917256 0.750000
O O1 0.685962 0.074178 0.386072
O O2 0.893926 0.021622 0.294952
O O3 0.052486 0.471491 0.412096
O O4 0.201010 0.605169 0.462365
O O5 0.920480 0.610283 0.467321
O O6 0.065990 0.639775 0.353950
O O7 0.424395 0.294498 0.925037
O O8 0.644324 0.188817 0.944292
O O9 0.366025 0.120516 0.916658
O O10 0.433930 0.182817 0.028516
O O11 0.142993 0.241186 0.641377
O O12 0.609666 0.855619 0.205967
O O13 0.869754 0.824718 0.154865
O O14 0.750000 0.000000 0.159325
O O15 0.000000 0.267692 0.750000
#
# Coordination Sequence:
#
# PCOD8223071 Si02
#       8
#     4   8   8   8   8   8   8   4
#     4  12  26  44  64  94 134 186 236 272 334 402
#     4  10  21  40  71  99 125 171 219 272 347 397
#     4  10  20  41  69  97 130 164 214 278 336 415
#     4  12  24  44  66 101 138 168 228 281 351 401
#     4  12  27  42  67  99 136 179 223 286 343 402
#     4  12  26  43  69  95 135 185 228 279 333 402
#     4  12  26  45  68  97 136 180 229 283 330 407
#     4  12  24  46  66  92 128 186 238 272 324 408
#
# _framework density 20.724886999999999
#
# number of rings (size 3 to 8) (size 9 to 14) (size 15 to 20)
#    0.000    0.571    5.000    3.429    3.000    0.571 
#    0.000    0.000    7.857    0.000    0.000    0.000 
#    0.000    0.000    0.000    0.000    0.000    0.000 
#
# Total GULP energy -693939.127758 kJ/mol
# GULP energy per Si atom -12391.770139 kJ/mol
# Density = 2.067772 g / cm^3
# Si number density = 20.724887 Si / 1000 Ang^3
#
#
#
# Elastic Constant Matrix: (Units=GPa)
#
#
# Indices 1 2 3 4 5 6 
#
# 1 113.6327 18.1666 58.2717 0.0000 0.0000 0.0000
# 2 18.1666 100.5545 58.1392 0.0000 0.0000 0.0000
# 3 58.2717 58.1392 139.6025 0.0000 0.0000 0.0000
# 4 0.0000 0.0000 0.0000 34.3168 0.0000 0.0000
# 5 0.0000 0.0000 0.0000 0.0000 68.4759 0.0000
# 6 0.0000 0.0000 0.0000 0.0000 0.0000 19.0954
#
#
#
# Elastic Compliance Matrix: (Units=1/GPa)
#
#
# Indices 1 2 3 4 5 6 
#
# 1 0.011259 0.000900 -0.005074 0.000000 0.000000 0.000000
# 2 0.000900 0.013171 -0.005861 0.000000 0.000000 0.000000
# 3 -0.005074 -0.005861 0.011722 0.000000 0.000000 0.000000
# 4 0.000000 0.000000 0.000000 0.029140 0.000000 0.000000
# 5 0.000000 0.000000 0.000000 0.000000 0.014604 0.000000
# 6 0.000000 0.000000 0.000000 0.000000 0.000000 0.052369
#
#
# Mechanical properties :
#
#
# Convention : Reuss Voigt Hill
#
# Bulk Modulus (GPa) = 62.18462 69.21606 65.70034
# Shear Modulus (GPa) = 31.70687 38.99176 35.34932
#
# Velocity S-wave (km/s) = 3.91563 4.34221 4.13443
# Velocity P-wave (km/s) = 7.10724 7.65571 7.38656
#
# Compressibility (1/GPa) = 0.01608115
#
# Stress axis : x y z
#
# Youngs Moduli (GPa) = 88.82177 75.92488 85.30967
#
# Poissons Ratio (x) = -0.06832 0.43288
# Poissons Ratio (y) = -0.07992 0.49998
# Poissons Ratio (z) = 0.45070 0.44498
#
# Static dielectric constant tensor:
#      x y z
#    x 6.480020 0.000000 0.000000 
#    y 0.000000 4.074530 0.000000 
#    z 0.000000 0.000000 3.807840 
# 
# 
# High freq. dielectric constant tensor:
#      x y z
#    x 1.828280 0.000000 0.000000 
#    y 0.000000 1.809080 0.000000 
#    z 0.000000 0.000000 1.800450 
# 
# From -- ./inp_files/20584.got.cif
#   From: 2010.03.12/outbox.cif.g09.slc.cpg/sg54_11_cif.got.tgz:20584.got - 2010.04.16 15:00:50.
