data_PCOD8223228
_publ_section_title
;
Structure prediction by ZEFSAII (Michael W. Deem and Ramdas Pophale) SiO2 
 PCOD8223228
Probable space group: P C C A
;
_chemical_formula_sum "Si O2"
_cell_formula_units_Z 60
_cell_length_a 22.732231
_cell_length_b 5.102253
_cell_length_c 25.214400
_cell_angle_alpha 90.000000
_cell_angle_beta 90.000000
_cell_angle_gamma 90.000000
_cell_volume 2924.507157
_symmetry_space_group_name_H-M "P C C A"
_symmetry_group_IT_number 54
_symmetry_cell_setting 'orthorhombic'
loop_
_space_group_symop_operation_xyz
x,y,z
1/2-x,-y,z
1/2+x,-y,1/2-z
-x,y,1/2-z
-x,-y,-z
1/2+x,y,-z
1/2-x,y,1/2+z
x,-y,1/2+z
loop_
_atom_site_type_symbol
_atom_site_label
_atom_site_fract_x
_atom_site_fract_y
_atom_site_fract_z
Si Si1 0.750000 0.000000 0.522910
Si Si2 0.931378 0.198034 0.252413
Si Si3 0.927337 0.884038 0.872386
Si Si4 0.999850 0.614099 0.392634
Si Si5 0.864653 0.954797 0.469354
Si Si6 0.309415 0.378939 0.394870
Si Si7 0.903603 0.477002 0.527023
Si Si8 0.597582 0.679731 0.690296
O O1 0.797733 0.868235 0.483263
O O2 0.712646 0.817612 0.560622
O O3 0.910591 0.109155 0.310708
O O4 0.893392 0.453440 0.234803
O O5 0.000000 0.272599 0.250000
O O6 0.919422 0.956628 0.214199
O O7 0.946609 0.590204 0.887405
O O8 0.870597 0.970250 0.907226
O O9 0.979068 0.086123 0.887521
O O10 0.031955 0.560425 0.448267
O O11 0.045312 0.564111 0.345182
O O12 0.906361 0.705668 0.482957
O O13 0.886111 0.200429 0.502981
O O14 0.250000 0.500000 0.370818
O O15 0.355386 0.564226 0.427386
O O16 0.343853 0.262206 0.344406
#
# Coordination Sequence:
#
# PCOD8223228 Si02
#       8
#     4   8   8   8   8   8   8   8
#     4  10  22  42  66  84 126 156 200 252 314 366
#     4  12  22  41  61  88 123 167 199 252 302 364
#     4  12  24  36  61  84 120 164 211 231 296 365
#     4  11  21  37  57  92 122 158 193 249 293 369
#     4  11  23  39  58  88 113 167 197 245 297 365
#     4  10  21  38  66  93 119 154 201 258 308 374
#     4  10  22  37  59  89 126 152 196 238 313 351
#     4  11  23  37  65  92 120 158 207 252 315 359
#
# _framework density 20.516278
#
# number of rings (size 3 to 8) (size 9 to 14) (size 15 to 20)
#    0.000    1.067    4.000    2.800    1.867    5.333 
#    0.000    0.000    2.933    0.000    0.000    0.000 
#    0.000    0.000    0.000    0.000    0.000    0.000 
#
# Total GULP energy -743710.154599 kJ/mol
# GULP energy per Si atom -12395.169243 kJ/mol
# Density = 2.046958 g / cm^3
# Si number density = 20.516278 Si / 1000 Ang^3
#
#
#
# Elastic Constant Matrix: (Units=GPa)
#
#
# Indices 1 2 3 4 5 6 
#
# 1 65.8352 14.4196 41.9236 0.0000 0.0000 0.0000
# 2 14.4196 85.9530 4.6651 0.0000 0.0000 0.0000
# 3 41.9236 4.6651 91.0248 0.0000 0.0000 0.0000
# 4 0.0000 0.0000 0.0000 37.2517 0.0000 0.0000
# 5 0.0000 0.0000 0.0000 0.0000 55.8870 0.0000
# 6 0.0000 0.0000 0.0000 0.0000 0.0000 18.5174
#
#
#
# Elastic Compliance Matrix: (Units=1/GPa)
#
#
# Indices 1 2 3 4 5 6 
#
# 1 0.022337 -0.003198 -0.010124 0.000000 0.000000 0.000000
# 2 -0.003198 0.012125 0.000851 0.000000 0.000000 0.000000
# 3 -0.010124 0.000851 0.015605 0.000000 0.000000 0.000000
# 4 0.000000 0.000000 0.000000 0.026844 0.000000 0.000000
# 5 0.000000 0.000000 0.000000 0.000000 0.017893 0.000000
# 6 0.000000 0.000000 0.000000 0.000000 0.000000 0.054003
#
#
# Mechanical properties :
#
#
# Convention : Reuss Voigt Hill
#
# Bulk Modulus (GPa) = 39.79936 40.53662 40.16799
# Shear Modulus (GPa) = 27.45401 34.45154 30.95278
#
# Velocity S-wave (km/s) = 3.66205 4.10229 3.88840
# Velocity P-wave (km/s) = 6.10916 6.49919 6.30719
#
# Compressibility (1/GPa) = 0.02512603
#
# Stress axis : x y z
#
# Youngs Moduli (GPa) = 44.76957 82.47753 64.08159
#
# Poissons Ratio (x) = 0.26374 0.64875
# Poissons Ratio (y) = 0.14316 -0.05456
# Poissons Ratio (z) = 0.45324 -0.07022
#
# Static dielectric constant tensor:
#      x y z
#    x 4.392370 0.000000 0.000000 
#    y 0.000000 3.117370 0.000000 
#    z 0.000000 0.000000 3.964670 
# 
# 
# High freq. dielectric constant tensor:
#      x y z
#    x 1.780000 0.000000 0.000000 
#    y 0.000000 1.805210 0.000000 
#    z 0.000000 0.000000 1.805000 
# 
# From -- ./inp_files/24797.got.cif
#   From: 2010.03.12/outbox.cif.g09.slc.cpg/sg54_13_cif.got.tgz:24797.got - 2010.04.16 15:00:50.
