data_PCOD8223668
_publ_section_title
;
Structure prediction by ZEFSAII (Michael W. Deem and Ramdas Pophale) SiO2 
 PCOD8223668
Probable space group: P C C A
;
_chemical_formula_sum "Si O2"
_cell_formula_units_Z 56
_cell_length_a 11.218248
_cell_length_b 14.112528
_cell_length_c 15.090176
_cell_angle_alpha 90.000000
_cell_angle_beta 90.000000
_cell_angle_gamma 90.000000
_cell_volume 2389.044055
_symmetry_space_group_name_H-M "P C C A"
_symmetry_group_IT_number 54
_symmetry_cell_setting 'orthorhombic'
loop_
_space_group_symop_operation_xyz
x,y,z
1/2-x,-y,z
1/2+x,-y,1/2-z
-x,y,1/2-z
-x,-y,-z
1/2+x,y,-z
1/2-x,y,1/2+z
x,-y,1/2+z
loop_
_atom_site_type_symbol
_atom_site_label
_atom_site_fract_x
_atom_site_fract_y
_atom_site_fract_z
Si Si1 0.505172 0.518644 0.843280
Si Si2 0.503465 0.197612 0.536156
Si Si3 0.356032 0.922439 0.605337
Si Si4 0.152059 0.649648 0.444531
Si Si5 0.000000 0.018692 0.250000
Si Si6 0.843981 0.168496 0.303222
Si Si7 0.250000 0.500000 0.069277
Si Si8 0.362376 0.326487 0.832775
O O1 0.500000 0.575835 0.750000
O O2 0.455225 0.577157 0.925895
O O3 0.639562 0.495405 0.865412
O O4 0.428358 0.424906 0.824106
O O5 0.584158 0.122106 0.482264
O O6 0.403627 0.251866 0.477663
O O7 0.429352 0.145075 0.612648
O O8 0.590827 0.272312 0.580733
O O9 0.292545 0.840533 0.665053
O O10 0.250000 0.000000 0.584305
O O11 0.468473 0.957173 0.663471
O O12 0.243017 0.597184 0.512245
O O13 0.221679 0.663853 0.352157
O O14 0.117033 0.086591 0.267384
O O15 0.873172 0.270726 0.260986
#
# Coordination Sequence:
#
# PCOD8223668 Si02
#       8
#     8   8   8   8   4   8   4   8
#     4  12  27  45  69 103 141 197 240 298 355 425
#     4  12  24  46  72 109 140 191 243 297 359 441
#     4  10  26  47  72 108 145 182 238 303 374 441
#     4  12  26  43  71 107 145 188 245 299 360 421
#     4  10  22  48  72 102 138 178 226 292 360 440
#     4  11  24  48  71 104 141 188 234 294 365 435
#     4  12  24  46  70  96 148 188 236 308 356 422
#     4  12  24  45  72 101 146 192 241 293 360 430
#
# _framework density 23.440338000000001
#
# number of rings (size 3 to 8) (size 9 to 14) (size 15 to 20)
#    0.000    0.571    4.286    3.000    4.000    3.429 
#    2.571    0.000    0.000    0.000    0.000    0.000 
#    0.000    0.000    0.000    0.000    0.000    0.000 
#
# Total GULP energy -694067.191491 kJ/mol
# GULP energy per Si atom -12394.056991 kJ/mol
# Density = 2.338699 g / cm^3
# Si number density = 23.440338 Si / 1000 Ang^3
#
#
#
# Elastic Constant Matrix: (Units=GPa)
#
#
# Indices 1 2 3 4 5 6 
#
# 1 124.5150 34.3388 54.3482 0.0000 0.0000 0.0000
# 2 34.3388 69.4239 35.4788 0.0000 0.0000 0.0000
# 3 54.3482 35.4788 109.7903 0.0000 0.0000 0.0000
# 4 0.0000 0.0000 0.0000 20.5089 0.0000 0.0000
# 5 0.0000 0.0000 0.0000 0.0000 42.7995 0.0000
# 6 0.0000 0.0000 0.0000 0.0000 0.0000 38.3392
#
#
#
# Elastic Compliance Matrix: (Units=1/GPa)
#
#
# Indices 1 2 3 4 5 6 
#
# 1 0.010781 -0.003121 -0.004328 0.000000 0.000000 0.000000
# 2 -0.003121 0.018157 -0.004323 0.000000 0.000000 0.000000
# 3 -0.004328 -0.004323 0.012648 0.000000 0.000000 0.000000
# 4 0.000000 0.000000 0.000000 0.048759 0.000000 0.000000
# 5 0.000000 0.000000 0.000000 0.000000 0.023365 0.000000
# 6 0.000000 0.000000 0.000000 0.000000 0.000000 0.026083
#
#
# Mechanical properties :
#
#
# Convention : Reuss Voigt Hill
#
# Bulk Modulus (GPa) = 55.42495 61.34009 58.38252
# Shear Modulus (GPa) = 29.52463 32.30039 30.91251
#
# Velocity S-wave (km/s) = 3.55289 3.71615 3.63543
# Velocity P-wave (km/s) = 6.36609 6.68120 6.52555
#
# Compressibility (1/GPa) = 0.01804242
#
# Stress axis : x y z
#
# Youngs Moduli (GPa) = 92.75582 55.07562 79.06527
#
# Poissons Ratio (x) = 0.17187 0.34222
# Poissons Ratio (y) = 0.28945 0.34177
# Poissons Ratio (z) = 0.40148 0.23807
#
# Static dielectric constant tensor:
#      x y z
#    x 4.357290 0.000000 0.000000 
#    y 0.000000 4.174460 0.000000 
#    z 0.000000 0.000000 4.398630 
# 
# 
# High freq. dielectric constant tensor:
#      x y z
#    x 1.936490 0.000000 0.000000 
#    y 0.000000 1.921410 0.000000 
#    z 0.000000 0.000000 1.926190 
# 
# From -- ./inp_files/12758.got.cif
#   From: 2010.03.12/outbox.cif.g09.slc.cpg/sg54_7_cif.got.tgz:12758.got - 2010.04.16 15:00:50.
