data_PCOD8223953
_publ_section_title
;
Structure prediction by ZEFSAII (Michael W. Deem and Ramdas Pophale) SiO2 
 PCOD8223953
Probable space group: P C C A
;
_chemical_formula_sum "Si O2"
_cell_formula_units_Z 36
_cell_length_a 14.439903
_cell_length_b 7.750632
_cell_length_c 16.874995
_cell_angle_alpha 90.000000
_cell_angle_beta 90.000000
_cell_angle_gamma 90.000000
_cell_volume 1888.622006
_symmetry_space_group_name_H-M "P C C A"
_symmetry_group_IT_number 54
_symmetry_cell_setting 'orthorhombic'
loop_
_space_group_symop_operation_xyz
x,y,z
1/2-x,-y,z
1/2+x,-y,1/2-z
-x,y,1/2-z
-x,-y,-z
1/2+x,y,-z
1/2-x,y,1/2+z
x,-y,1/2+z
loop_
_atom_site_type_symbol
_atom_site_label
_atom_site_fract_x
_atom_site_fract_y
_atom_site_fract_z
Si Si1 0.185562 0.835400 0.939628
Si Si2 0.340619 0.111540 0.118507
Si Si3 0.400272 0.318460 0.264729
Si Si4 0.027715 0.968642 0.834617
Si Si5 0.250000 0.500000 0.359216
O O1 0.092288 0.847916 0.887712
O O2 0.238585 0.665597 0.913601
O O3 0.250000 0.000000 0.924803
O O4 0.164403 0.806969 0.031610
O O5 0.349614 0.262701 0.183306
O O6 0.250000 0.000000 0.139231
O O7 0.432257 0.993484 0.117909
O O8 0.500000 0.406549 0.250000
O O9 0.339254 0.464850 0.305327
O O10 0.418263 0.148589 0.318481
O O11 0.000000 0.882734 0.750000
#
# Coordination Sequence:
#
# PCOD8223953 Si02
#       5
#     8   8   8   8   4
#     4  11  22  39  61  90 122 153 200 247 301 349
#     4   9  20  37  64  88 116 158 199 245 301 347
#     4   9  21  40  58  88 122 149 203 249 284 352
#     4   9  19  36  64  87 118 154 201 243 291 351
#     4  12  24  36  66  86 124 162 196 240 300 358
#
# _framework density 19.061519000000001
#
# number of rings (size 3 to 8) (size 9 to 14) (size 15 to 20)
#    0.000    2.667    2.222    0.667    6.222    1.778 
#    0.000    4.444    0.000    0.000    0.000    0.000 
#    0.000    0.000    0.000    0.000    0.000    0.000 
#
# Total GULP energy -446272.505515 kJ/mol
# GULP energy per Si atom -12396.458487 kJ/mol
# Density = 1.901813 g / cm^3
# Si number density = 19.061519 Si / 1000 Ang^3
#
#
#
# Elastic Constant Matrix: (Units=GPa)
#
#
# Indices 1 2 3 4 5 6 
#
# 1 121.8958 46.4913 69.6658 0.0000 0.0000 0.0000
# 2 46.4913 82.8291 50.7753 0.0000 0.0000 0.0000
# 3 69.6658 50.7753 125.9249 0.0000 0.0000 0.0000
# 4 0.0000 0.0000 0.0000 4.1550 0.0000 0.0000
# 5 0.0000 0.0000 0.0000 0.0000 24.5473 0.0000
# 6 0.0000 0.0000 0.0000 0.0000 0.0000 19.2380
#
#
#
# Elastic Compliance Matrix: (Units=1/GPa)
#
#
# Indices 1 2 3 4 5 6 
#
# 1 0.012833 -0.003787 -0.005573 0.000000 0.000000 0.000000
# 2 -0.003787 0.017155 -0.004822 0.000000 0.000000 0.000000
# 3 -0.005573 -0.004822 0.012969 0.000000 0.000000 0.000000
# 4 0.000000 0.000000 0.000000 0.240672 0.000000 0.000000
# 5 0.000000 0.000000 0.000000 0.000000 0.040738 0.000000
# 6 0.000000 0.000000 0.000000 0.000000 0.000000 0.051980
#
#
# Mechanical properties :
#
#
# Convention : Reuss Voigt Hill
#
# Bulk Modulus (GPa) = 68.52642 73.83496 71.18069
# Shear Modulus (GPa) = 12.20781 20.50256 16.35518
#
# Velocity S-wave (km/s) = 2.53344 3.28319 2.93238
# Velocity P-wave (km/s) = 6.67727 7.29326 6.99205
#
# Compressibility (1/GPa) = 0.01459291
#
# Stress axis : x y z
#
# Youngs Moduli (GPa) = 77.92437 58.29352 77.10971
#
# Poissons Ratio (x) = 0.22075 0.42971
# Poissons Ratio (y) = 0.29509 0.37182
# Poissons Ratio (z) = 0.43425 0.28109
#
# Static dielectric constant tensor:
#      x y z
#    x 3.711980 0.000000 0.000000 
#    y 0.000000 3.049240 0.000000 
#    z 0.000000 0.000000 3.535360 
# 
# 
# High freq. dielectric constant tensor:
#      x y z
#    x 1.760280 0.000000 0.000000 
#    y 0.000000 1.704190 0.000000 
#    z 0.000000 0.000000 1.748550 
# 
# From -- ./inp_files/13866.got.cif
#   From: 2010.03.12/outbox.cif.g09.slc.cpg/sg54_7_cif.got.tgz:13866.got - 2010.04.16 15:00:50.
