data_PCOD8223597
_publ_section_title
;
Structure prediction by ZEFSAII (Michael W. Deem and Ramdas Pophale) SiO2 
 PCOD8223597
Probable space group: P C C A
;
_chemical_formula_sum "Si O2"
_cell_formula_units_Z 32
_cell_length_a 11.255818
_cell_length_b 13.255252
_cell_length_c 8.982381
_cell_angle_alpha 90.000000
_cell_angle_beta 90.000000
_cell_angle_gamma 90.000000
_cell_volume 1340.159605
_symmetry_space_group_name_H-M "P C C A"
_symmetry_group_IT_number 54
_symmetry_cell_setting 'orthorhombic'
loop_
_space_group_symop_operation_xyz
x,y,z
1/2-x,-y,z
1/2+x,-y,1/2-z
-x,y,1/2-z
-x,-y,-z
1/2+x,y,-z
1/2-x,y,1/2+z
x,-y,1/2+z
loop_
_atom_site_type_symbol
_atom_site_label
_atom_site_fract_x
_atom_site_fract_y
_atom_site_fract_z
Si Si1 0.000000 0.703227 0.750000
Si Si2 0.638405 0.284570 0.271109
Si Si3 0.699471 0.610276 0.058466
Si Si4 0.175916 0.863891 0.643546
Si Si5 0.250000 0.000000 0.388746
O O1 0.921546 0.629006 0.649619
O O2 0.920594 0.774608 0.856070
O O3 0.500000 0.271236 0.250000
O O4 0.701215 0.309356 0.113266
O O5 0.671149 0.375297 0.384647
O O6 0.690813 0.181465 0.339140
O O7 0.750000 0.500000 0.086462
O O8 0.169965 0.925149 0.489495
O O9 0.157418 0.938372 0.784849
#
# Coordination Sequence:
#
# PCOD8223597 Si02
#       5
#     4   8   8   8   4
#     4  10  24  42  76  96 152 184 232 308 356 422
#     4  11  26  45  73 101 148 193 234 303 365 424
#     4  11  26  46  71 107 142 188 248 293 359 434
#     4  10  22  44  63 105 136 187 233 291 362 412
#     4  10  22  42  68  96 144 176 248 288 338 448
#
# _framework density 23.877752999999998
#
# number of rings (size 3 to 8) (size 9 to 14) (size 15 to 20)
#    0.000    1.500    0.000    3.750   12.250    2.000 
#    9.000    0.000    0.000    0.000    0.000    0.000 
#    0.000    0.000    0.000    0.000    0.000    0.000 
#
# Total GULP energy -396909.207207 kJ/mol
# GULP energy per Si atom -12403.412725 kJ/mol
# Density = 2.382341 g / cm^3
# Si number density = 23.877753 Si / 1000 Ang^3
#
#
#
# Elastic Constant Matrix: (Units=GPa)
#
#
# Indices 1 2 3 4 5 6 
#
# 1 160.7048 47.0926 39.4636 0.0000 0.0000 0.0000
# 2 47.0926 122.0172 30.3506 0.0000 0.0000 0.0000
# 3 39.4636 30.3506 103.6916 0.0000 0.0000 0.0000
# 4 0.0000 0.0000 0.0000 26.3295 0.0000 0.0000
# 5 0.0000 0.0000 0.0000 0.0000 9.6591 0.0000
# 6 0.0000 0.0000 0.0000 0.0000 0.0000 36.7452
#
#
#
# Elastic Compliance Matrix: (Units=1/GPa)
#
#
# Indices 1 2 3 4 5 6 
#
# 1 0.007434 -0.002335 -0.002146 0.000000 0.000000 0.000000
# 2 -0.002335 0.009573 -0.001913 0.000000 0.000000 0.000000
# 3 -0.002146 -0.001913 0.011021 0.000000 0.000000 0.000000
# 4 0.000000 0.000000 0.000000 0.037980 0.000000 0.000000
# 5 0.000000 0.000000 0.000000 0.000000 0.103530 0.000000
# 6 0.000000 0.000000 0.000000 0.000000 0.000000 0.027214
#
#
# Mechanical properties :
#
#
# Convention : Reuss Voigt Hill
#
# Bulk Modulus (GPa) = 65.62181 68.91413 67.26797
# Shear Modulus (GPa) = 23.29703 32.51387 27.90545
#
# Velocity S-wave (km/s) = 3.12698 3.69410 3.42230
# Velocity P-wave (km/s) = 6.37019 6.86433 6.62187
#
# Compressibility (1/GPa) = 0.01523884
#
# Stress axis : x y z
#
# Youngs Moduli (GPa) = 134.51994 104.46283 90.73940
#
# Poissons Ratio (x) = 0.24396 0.19470
# Poissons Ratio (y) = 0.31416 0.17360
# Poissons Ratio (z) = 0.28863 0.19985
#
# Static dielectric constant tensor:
#      x y z
#    x 4.115020 0.000000 0.000000 
#    y 0.000000 4.294430 0.000000 
#    z 0.000000 0.000000 4.432020 
# 
# 
# High freq. dielectric constant tensor:
#      x y z
#    x 1.929960 0.000000 0.000000 
#    y 0.000000 1.951030 0.000000 
#    z 0.000000 0.000000 1.961210 
# 
# From -- ./inp_files/2811.got.cif
#   From: 2010.03.12/outbox.cif.g09.slc.cpg/sg54_2_cif.got.tgz:2811.got - 2010.04.16 15:00:50.
