data_PCOD8223428
_publ_section_title
;
Structure prediction by ZEFSAII (Michael W. Deem and Ramdas Pophale) SiO2 
 PCOD8223428
Probable space group: P C C A
;
_chemical_formula_sum "Si O2"
_cell_formula_units_Z 48
_cell_length_a 10.915032
_cell_length_b 9.512125
_cell_length_c 22.886090
_cell_angle_alpha 90.000000
_cell_angle_beta 90.000000
_cell_angle_gamma 90.000000
_cell_volume 2376.151699
_symmetry_space_group_name_H-M "P C C A"
_symmetry_group_IT_number 54
_symmetry_cell_setting 'orthorhombic'
loop_
_space_group_symop_operation_xyz
x,y,z
1/2-x,-y,z
1/2+x,-y,1/2-z
-x,y,1/2-z
-x,-y,-z
1/2+x,y,-z
1/2-x,y,1/2+z
x,-y,1/2+z
loop_
_atom_site_type_symbol
_atom_site_label
_atom_site_fract_x
_atom_site_fract_y
_atom_site_fract_z
Si Si1 0.935275 0.403140 0.397181
Si Si2 0.161035 0.633069 0.973564
Si Si3 0.539381 0.811133 0.187250
Si Si4 0.671885 0.302577 0.400029
Si Si5 0.017019 0.878342 0.180593
Si Si6 0.768544 0.154823 0.620388
O O1 0.818218 0.304343 0.407524
O O2 0.888216 0.553961 0.375893
O O3 0.027305 0.417954 0.452024
O O4 0.013544 0.327269 0.348709
O O5 0.250000 0.500000 0.988990
O O6 0.231755 0.730381 0.927431
O O7 0.129375 0.720209 0.032693
O O8 0.500000 0.761931 0.250000
O O9 0.683655 0.840462 0.178616
O O10 0.468100 0.954692 0.171037
O O11 0.636143 0.186680 0.351342
O O12 0.904395 0.815453 0.143329
O O13 0.000000 0.843245 0.250000
O O14 0.750000 0.000000 0.591910
#
# Coordination Sequence:
#
# PCOD8223428 Si02
#       6
#     8   8   8   8   8   8
#     4  10  22  38  57  90 120 153 200 246 297 350
#     4  11  21  39  63  85 117 165 196 242 298 359
#     4   9  20  39  63  84 116 156 198 248 298 357
#     4  11  23  37  58  90 121 154 197 249 293 357
#     4  10  22  39  62  89 117 158 200 244 302 358
#     4   9  20  39  58  86 118 152 201 247 298 359
#
# _framework density 20.20073
#
# number of rings (size 3 to 8) (size 9 to 14) (size 15 to 20)
#    0.000    2.000    1.667    1.500    4.667    1.333 
#    3.000    2.500    0.000    0.000    0.000    0.000 
#    0.000    0.000    0.000    0.000    0.000    0.000 
#
# Total GULP energy -594674.258704 kJ/mol
# GULP energy per Si atom -12389.047056 kJ/mol
# Density = 2.015475 g / cm^3
# Si number density = 20.200730 Si / 1000 Ang^3
#
#
#
# Elastic Constant Matrix: (Units=GPa)
#
#
# Indices 1 2 3 4 5 6 
#
# 1 84.4077 12.6411 15.0738 0.0000 0.0000 0.0000
# 2 12.6411 40.9617 27.7101 0.0000 0.0000 0.0000
# 3 15.0738 27.7101 103.2188 0.0000 0.0000 0.0000
# 4 0.0000 0.0000 0.0000 12.8869 0.0000 0.0000
# 5 0.0000 0.0000 0.0000 0.0000 13.3457 0.0000
# 6 0.0000 0.0000 0.0000 0.0000 0.0000 28.4832
#
#
#
# Elastic Compliance Matrix: (Units=1/GPa)
#
#
# Indices 1 2 3 4 5 6 
#
# 1 0.012500 -0.003205 -0.000965 0.000000 0.000000 0.000000
# 2 -0.003205 0.030652 -0.007761 0.000000 0.000000 0.000000
# 3 -0.000965 -0.007761 0.011913 0.000000 0.000000 0.000000
# 4 0.000000 0.000000 0.000000 0.077598 0.000000 0.000000
# 5 0.000000 0.000000 0.000000 0.000000 0.074930 0.000000
# 6 0.000000 0.000000 0.000000 0.000000 0.000000 0.035108
#
#
# Mechanical properties :
#
#
# Convention : Reuss Voigt Hill
#
# Bulk Modulus (GPa) = 32.04802 37.71533 34.88168
# Shear Modulus (GPa) = 18.05293 22.48738 20.27015
#
# Velocity S-wave (km/s) = 2.99269 3.34008 3.17114
# Velocity P-wave (km/s) = 5.27644 5.79531 5.54195
#
# Compressibility (1/GPa) = 0.03120317
#
# Stress axis : x y z
#
# Youngs Moduli (GPa) = 80.00296 32.62418 83.94493
#
# Poissons Ratio (x) = 0.10455 0.08102
# Poissons Ratio (y) = 0.25637 0.65148
# Poissons Ratio (z) = 0.07721 0.25319
#
# Static dielectric constant tensor:
#      x y z
#    x 3.994010 0.000000 0.000000 
#    y 0.000000 3.631340 0.000000 
#    z 0.000000 0.000000 3.819470 
# 
# 
# High freq. dielectric constant tensor:
#      x y z
#    x 1.800440 0.000000 0.000000 
#    y 0.000000 1.780440 0.000000 
#    z 0.000000 0.000000 1.783120 
# 
# From -- ./inp_files/24034.got.cif
#   From: 2010.03.12/outbox.cif.g09.slc.cpg/sg54_13_cif.got.tgz:24034.got - 2010.04.16 15:00:50.
