data_PCOD8223108
_publ_section_title
;
Structure prediction by ZEFSAII (Michael W. Deem and Ramdas Pophale) SiO2 
 PCOD8223108
Probable space group: P C C A
;
_chemical_formula_sum "Si O2"
_cell_formula_units_Z 48
_cell_length_a 9.028732
_cell_length_b 15.753598
_cell_length_c 17.667187
_cell_angle_alpha 90.000000
_cell_angle_beta 90.000000
_cell_angle_gamma 90.000000
_cell_volume 2512.892597
_symmetry_space_group_name_H-M "P C C A"
_symmetry_group_IT_number 54
_symmetry_cell_setting 'orthorhombic'
loop_
_space_group_symop_operation_xyz
x,y,z
1/2-x,-y,z
1/2+x,-y,1/2-z
-x,y,1/2-z
-x,-y,-z
1/2+x,y,-z
1/2-x,y,1/2+z
x,-y,1/2+z
loop_
_atom_site_type_symbol
_atom_site_label
_atom_site_fract_x
_atom_site_fract_y
_atom_site_fract_z
Si Si1 0.720752 0.152115 0.451826
Si Si2 0.500000 0.911964 0.250000
Si Si3 0.552943 0.817673 0.099068
Si Si4 0.079179 0.478369 0.672379
Si Si5 0.250000 0.000000 0.153648
Si Si6 0.010754 0.632769 0.575643
Si Si7 0.146253 0.665249 0.072910
O O1 0.678772 0.144898 0.541483
O O2 0.675759 0.070805 0.401346
O O3 0.626687 0.233089 0.420804
O O4 0.896754 0.161918 0.441535
O O5 0.573384 0.856307 0.182847
O O6 0.376263 0.967904 0.209737
O O7 0.565116 0.716388 0.113043
O O8 0.250000 0.500000 0.680315
O O9 0.070561 0.381460 0.643447
O O10 0.000000 0.478868 0.750000
O O11 0.988339 0.547462 0.623528
O O12 0.933758 0.619373 0.496130
O O13 0.182638 0.646889 0.562978
#
# Coordination Sequence:
#
# PCOD8223108 Si02
#       7
#     8   4   8   8   4   8   8
#     4   9  19  36  56  78 106 142 182 224 266 332
#     4  10  22  36  54  82 110 140 176 230 282 326
#     4   9  19  35  57  80 108 140 181 224 273 322
#     4  10  21  34  50  77 110 144 177 219 266 317
#     4  10  22  38  54  80 112 144 184 226 278 328
#     4   9  18  33  56  76 104 137 179 219 263 318
#     4   9  18  35  53  77 104 137 179 223 262 314
#
# _framework density 19.101493000000001
#
# number of rings (size 3 to 8) (size 9 to 14) (size 15 to 20)
#    0.000    2.667    0.000    0.500    1.167    6.000 
#    1.500    0.000    0.000    0.000    0.000    0.000 
#    0.000    0.000    0.000    0.000    0.000    0.000 
#
# Total GULP energy -594739.119414 kJ/mol
# GULP energy per Si atom -12390.398321 kJ/mol
# Density = 1.905802 g / cm^3
# Si number density = 19.101493 Si / 1000 Ang^3
#
#
#
# Elastic Constant Matrix: (Units=GPa)
#
#
# Indices 1 2 3 4 5 6 
#
# 1 18.3541 26.4755 35.2689 0.0000 0.0000 0.0000
# 2 26.4755 123.0522 79.4877 0.0000 0.0000 0.0000
# 3 35.2689 79.4877 153.9037 0.0000 0.0000 0.0000
# 4 0.0000 0.0000 0.0000 38.0597 0.0000 0.0000
# 5 0.0000 0.0000 0.0000 0.0000 41.7251 0.0000
# 6 0.0000 0.0000 0.0000 0.0000 0.0000 14.1001
#
#
#
# Elastic Compliance Matrix: (Units=1/GPa)
#
#
# Indices 1 2 3 4 5 6 
#
# 1 0.105935 -0.010671 -0.018765 0.000000 0.000000 0.000000
# 2 -0.010671 0.013270 -0.004408 0.000000 0.000000 0.000000
# 3 -0.018765 -0.004408 0.013075 0.000000 0.000000 0.000000
# 4 0.000000 0.000000 0.000000 0.026275 0.000000 0.000000
# 5 0.000000 0.000000 0.000000 0.000000 0.023966 0.000000
# 6 0.000000 0.000000 0.000000 0.000000 0.000000 0.070921
#
#
# Mechanical properties :
#
#
# Convention : Reuss Voigt Hill
#
# Bulk Modulus (GPa) = 15.48200 64.19714 39.83957
# Shear Modulus (GPa) = 14.59166 29.04885 21.82026
#
# Velocity S-wave (km/s) = 2.76688 3.90393 3.38351
# Velocity P-wave (km/s) = 4.28138 7.34862 6.01384
#
# Compressibility (1/GPa) = 0.06459112
#
# Stress axis : x y z
#
# Youngs Moduli (GPa) = 9.43974 75.35661 76.48419
#
# Poissons Ratio (x) = 0.80414 1.43522
# Poissons Ratio (y) = 0.10073 0.33717
# Poissons Ratio (z) = 0.17714 0.33220
#
# Static dielectric constant tensor:
#      x y z
#    x 3.304770 0.000000 0.000000 
#    y 0.000000 4.043120 0.000000 
#    z 0.000000 0.000000 3.509920 
# 
# 
# High freq. dielectric constant tensor:
#      x y z
#    x 1.728850 0.000000 0.000000 
#    y 0.000000 1.755470 0.000000 
#    z 0.000000 0.000000 1.738730 
# 
# From -- ./inp_files/11749.got.cif
#   From: 2010.03.12/outbox.cif.g09.slc.cpg/sg54_6_cif.got.tgz:11749.got - 2010.04.16 15:00:50.
