data_PCOD8223414
_publ_section_title
;
Structure prediction by ZEFSAII (Michael W. Deem and Ramdas Pophale) SiO2 
 PCOD8223414
Probable space group: P C C A
;
_chemical_formula_sum "Si O2"
_cell_formula_units_Z 48
_cell_length_a 8.299790
_cell_length_b 15.957483
_cell_length_c 17.261139
_cell_angle_alpha 90.000000
_cell_angle_beta 90.000000
_cell_angle_gamma 90.000000
_cell_volume 2286.130114
_symmetry_space_group_name_H-M "P C C A"
_symmetry_group_IT_number 54
_symmetry_cell_setting 'orthorhombic'
loop_
_space_group_symop_operation_xyz
x,y,z
1/2-x,-y,z
1/2+x,-y,1/2-z
-x,y,1/2-z
-x,-y,-z
1/2+x,y,-z
1/2-x,y,1/2+z
x,-y,1/2+z
loop_
_atom_site_type_symbol
_atom_site_label
_atom_site_fract_x
_atom_site_fract_y
_atom_site_fract_z
Si Si1 0.021466 0.112086 0.570307
Si Si2 0.144358 0.264848 0.005509
Si Si3 0.250000 0.500000 0.335282
Si Si4 0.250000 0.000000 0.974004
Si Si5 0.500000 0.622655 0.750000
Si Si6 0.188089 0.232888 0.664250
Si Si7 0.000000 0.740424 0.750000
Si Si8 0.389568 0.348494 0.902783
O O1 0.069593 0.151914 0.654726
O O2 0.955544 0.181698 0.511208
O O3 0.883667 0.041650 0.582162
O O4 0.175430 0.071085 0.529020
O O5 0.267640 0.247971 0.074821
O O6 0.026220 0.338937 0.032908
O O7 0.231260 0.296743 0.927848
O O8 0.362525 0.436960 0.285997
O O9 0.139374 0.446711 0.392971
O O10 0.407426 0.684264 0.690807
O O11 0.343122 0.208381 0.718183
O O12 0.056579 0.683064 0.819374
#
# Coordination Sequence:
#
# PCOD8223414 Si02
#       8
#     8   8   4   4   4   8   4   8
#     4  11  20  40  66 105 133 175 211 284 329 415
#     4  11  22  40  68  99 129 168 233 283 325 408
#     4  12  26  42  62  92 138 174 230 290 348 400
#     4  10  22  36  66 112 138 160 214 276 364 392
#     4  12  27  44  66  95 128 194 230 276 345 422
#     4  11  23  43  68  96 130 182 237 272 334 419
#     4  10  23  42  64  97 126 178 236 276 329 420
#     4  11  23  42  63  96 131 175 228 285 344 395
#
# _framework density 20.996179000000001
#
# number of rings (size 3 to 8) (size 9 to 14) (size 15 to 20)
#    0.000    1.000    5.000    1.500    2.333    0.667 
#    0.000    0.000    0.000    2.000    0.000    0.000 
#    0.000    0.000    0.000    0.000    0.000    0.000 
#
# Total GULP energy -594853.658780 kJ/mol
# GULP energy per Si atom -12392.784558 kJ/mol
# Density = 2.094839 g / cm^3
# Si number density = 20.996179 Si / 1000 Ang^3
#
#
#
# Elastic Constant Matrix: (Units=GPa)
#
#
# Indices 1 2 3 4 5 6 
#
# 1 130.1925 59.2043 50.7843 0.0000 0.0000 0.0000
# 2 59.2043 108.6161 38.8560 0.0000 0.0000 0.0000
# 3 50.7843 38.8560 79.1564 0.0000 0.0000 0.0000
# 4 0.0000 0.0000 0.0000 23.3033 0.0000 0.0000
# 5 0.0000 0.0000 0.0000 0.0000 51.1865 0.0000
# 6 0.0000 0.0000 0.0000 0.0000 0.0000 35.8374
#
#
#
# Elastic Compliance Matrix: (Units=1/GPa)
#
#
# Indices 1 2 3 4 5 6 
#
# 1 0.011836 -0.004530 -0.005369 0.000000 0.000000 0.000000
# 2 -0.004530 0.012902 -0.003427 0.000000 0.000000 0.000000
# 3 -0.005369 -0.003427 0.017760 0.000000 0.000000 0.000000
# 4 0.000000 0.000000 0.000000 0.042912 0.000000 0.000000
# 5 0.000000 0.000000 0.000000 0.000000 0.019536 0.000000
# 6 0.000000 0.000000 0.000000 0.000000 0.000000 0.027904
#
#
# Mechanical properties :
#
#
# Convention : Reuss Voigt Hill
#
# Bulk Modulus (GPa) = 63.11307 68.40604 65.75956
# Shear Modulus (GPa) = 30.34251 33.34012 31.84131
#
# Velocity S-wave (km/s) = 3.80563 3.98919 3.89849
# Velocity P-wave (km/s) = 7.03100 7.33956 7.18694
#
# Compressibility (1/GPa) = 0.01584458
#
# Stress axis : x y z
#
# Youngs Moduli (GPa) = 84.49069 77.50697 56.30568
#
# Poissons Ratio (x) = 0.35114 0.30233
# Poissons Ratio (y) = 0.38278 0.19294
# Poissons Ratio (z) = 0.45367 0.26559
#
# Static dielectric constant tensor:
#      x y z
#    x 4.418920 0.000000 0.000000 
#    y 0.000000 3.837180 0.000000 
#    z 0.000000 0.000000 3.694070 
# 
# 
# High freq. dielectric constant tensor:
#      x y z
#    x 1.854860 0.000000 0.000000 
#    y 0.000000 1.810990 0.000000 
#    z 0.000000 0.000000 1.803950 
# 
# From -- ./inp_files/16703.got.cif
#   From: 2010.03.12/outbox.cif.g09.slc.cpg/sg54_9_cif.got.tgz:16703.got - 2010.04.16 15:00:50.
