data_PCOD8223623
_publ_section_title
;
Structure prediction by ZEFSAII (Michael W. Deem and Ramdas Pophale) SiO2 
 PCOD8223623
Probable space group: P C C A
;
_chemical_formula_sum "Si O2"
_cell_formula_units_Z 64
_cell_length_a 22.845205
_cell_length_b 9.359146
_cell_length_c 13.950051
_cell_angle_alpha 90.000000
_cell_angle_beta 90.000000
_cell_angle_gamma 90.000000
_cell_volume 2982.682850
_symmetry_space_group_name_H-M "P C C A"
_symmetry_group_IT_number 54
_symmetry_cell_setting 'orthorhombic'
loop_
_space_group_symop_operation_xyz
x,y,z
1/2-x,-y,z
1/2+x,-y,1/2-z
-x,y,1/2-z
-x,-y,-z
1/2+x,y,-z
1/2-x,y,1/2+z
x,-y,1/2+z
loop_
_atom_site_type_symbol
_atom_site_label
_atom_site_fract_x
_atom_site_fract_y
_atom_site_fract_z
Si Si1 0.461676 0.125177 0.342755
Si Si2 0.625227 0.496903 0.556458
Si Si3 0.250914 0.336353 0.691007
Si Si4 0.939871 0.297716 0.930243
Si Si5 0.618155 0.951934 0.034436
Si Si6 0.315708 0.230821 0.513228
Si Si7 0.122664 0.664785 0.256842
Si Si8 0.706745 0.739747 0.110664
O O1 0.500000 0.078675 0.250000
O O2 0.494235 0.243022 0.410232
O O3 0.440769 0.988803 0.404396
O O4 0.401085 0.194938 0.309781
O O5 0.566853 0.415592 0.515590
O O6 0.640177 0.635027 0.492664
O O7 0.618317 0.533009 0.668855
O O8 0.679393 0.386532 0.545392
O O9 0.250000 0.500000 0.657356
O O10 0.274452 0.236515 0.606178
O O11 0.186336 0.290996 0.721151
O O12 0.294144 0.313513 0.780214
O O13 0.916954 0.375147 0.834196
O O14 0.901243 0.157020 0.951702
O O15 0.667349 0.881628 0.102423
O O16 0.645122 0.089501 0.982163
O O17 0.273467 0.230823 0.420749
#
# Coordination Sequence:
#
# PCOD8223623 Si02
#       8
#     8   8   8   8   8   8   8   8
#     4  10  22  43  69  90 129 180 224 281 345 396
#     4  11  21  40  64  92 132 171 220 269 330 403
#     4  12  21  36  64  94 132 174 215 263 336 403
#     4  10  24  41  69  93 127 176 227 284 339 396
#     4  11  23  43  62  98 135 172 228 276 333 412
#     4  12  23  39  62  98 139 175 215 269 334 409
#     4  11  21  40  63  94 128 169 220 266 335 399
#     4  11  22  38  60  92 132 175 211 270 330 400
#
# _framework density 21.457194000000001
#
# number of rings (size 3 to 8) (size 9 to 14) (size 15 to 20)
#    0.000    1.000    3.750    4.125    0.000    2.500 
#    0.000    2.500    0.000    3.000    0.000    0.000 
#    0.000    0.000    0.000    0.000    0.000    0.000 
#
# Total GULP energy -793622.134277 kJ/mol
# GULP energy per Si atom -12400.345848 kJ/mol
# Density = 2.140836 g / cm^3
# Si number density = 21.457194 Si / 1000 Ang^3
#
#
#
# Elastic Constant Matrix: (Units=GPa)
#
#
# Indices 1 2 3 4 5 6 
#
# 1 91.5803 44.2178 31.8788 0.0000 0.0000 0.0000
# 2 44.2178 111.8018 40.6672 0.0000 0.0000 0.0000
# 3 31.8788 40.6672 103.1376 0.0000 0.0000 0.0000
# 4 0.0000 0.0000 0.0000 22.5246 0.0000 0.0000
# 5 0.0000 0.0000 0.0000 0.0000 34.2351 0.0000
# 6 0.0000 0.0000 0.0000 0.0000 0.0000 30.2194
#
#
#
# Elastic Compliance Matrix: (Units=1/GPa)
#
#
# Indices 1 2 3 4 5 6 
#
# 1 0.014032 -0.004637 -0.002509 0.000000 0.000000 0.000000
# 2 -0.004637 0.011974 -0.003288 0.000000 0.000000 0.000000
# 3 -0.002509 -0.003288 0.011768 0.000000 0.000000 0.000000
# 4 0.000000 0.000000 0.000000 0.044396 0.000000 0.000000
# 5 0.000000 0.000000 0.000000 0.000000 0.029210 0.000000
# 6 0.000000 0.000000 0.000000 0.000000 0.000000 0.033091
#
#
# Mechanical properties :
#
#
# Convention : Reuss Voigt Hill
#
# Bulk Modulus (GPa) = 59.15100 60.00527 59.57813
# Shear Modulus (GPa) = 29.24424 30.04620 29.64522
#
# Velocity S-wave (km/s) = 3.69577 3.74610 3.72102
# Velocity P-wave (km/s) = 6.77041 6.83643 6.80350
#
# Compressibility (1/GPa) = 0.01690589
#
# Stress axis : x y z
#
# Youngs Moduli (GPa) = 71.26819 83.51127 84.97797
#
# Poissons Ratio (x) = 0.38724 0.21318
# Poissons Ratio (y) = 0.33047 0.27943
# Poissons Ratio (z) = 0.17879 0.27461
#
# Static dielectric constant tensor:
#      x y z
#    x 3.860100 0.000000 0.000000 
#    y 0.000000 3.762500 0.000000 
#    z 0.000000 0.000000 3.985870 
# 
# 
# High freq. dielectric constant tensor:
#      x y z
#    x 1.840740 0.000000 0.000000 
#    y 0.000000 1.830660 0.000000 
#    z 0.000000 0.000000 1.843680 
# 
# From -- ./inp_files/14985.got.cif
#   From: 2010.03.12/outbox.cif.g09.slc.cpg/sg54_8_cif.got.tgz:14985.got - 2010.04.16 15:00:50.
