data_PCOD8223162
_publ_section_title
;
Structure prediction by ZEFSAII (Michael W. Deem and Ramdas Pophale) SiO2 
 PCOD8223162
Probable space group: P C C A
;
_chemical_formula_sum "Si O2"
_cell_formula_units_Z 48
_cell_length_a 27.734054
_cell_length_b 8.956927
_cell_length_c 9.043933
_cell_angle_alpha 90.000000
_cell_angle_beta 90.000000
_cell_angle_gamma 90.000000
_cell_volume 2246.620554
_symmetry_space_group_name_H-M "P C C A"
_symmetry_group_IT_number 54
_symmetry_cell_setting 'orthorhombic'
loop_
_space_group_symop_operation_xyz
x,y,z
1/2-x,-y,z
1/2+x,-y,1/2-z
-x,y,1/2-z
-x,-y,-z
1/2+x,y,-z
1/2-x,y,1/2+z
x,-y,1/2+z
loop_
_atom_site_type_symbol
_atom_site_label
_atom_site_fract_x
_atom_site_fract_y
_atom_site_fract_z
Si Si1 0.251581 0.300734 0.735291
Si Si2 0.411331 0.122169 0.092922
Si Si3 0.816737 0.749734 0.513586
Si Si4 0.683429 0.591387 0.516588
Si Si5 0.404449 0.817123 0.938186
Si Si6 0.499400 0.344162 0.079636
O O1 0.216649 0.206440 0.627770
O O2 0.285720 0.401575 0.632893
O O3 0.286760 0.201328 0.839796
O O4 0.218453 0.398959 0.843179
O O5 0.365257 0.159458 0.993514
O O6 0.401151 0.133434 0.267434
O O7 0.455882 0.228085 0.043328
O O8 0.417226 0.950788 0.049826
O O9 0.835391 0.577816 0.517643
O O10 0.642539 0.719336 0.519185
O O11 0.450298 0.719428 0.971092
O O12 0.500000 0.381274 0.250000
O O13 0.500000 0.500000 0.000000
#
# Coordination Sequence:
#
# PCOD8223162 Si02
#       6
#     8   8   8   8   8   8
#     4  10  21  36  63  92 123 166 211 270 313 364
#     4  11  25  43  63  92 131 168 206 252 311 376
#     4  11  20  38  63  92 124 162 217 263 316 360
#     4  11  20  38  63  92 124 162 217 263 316 360
#     4  11  25  43  63  92 131 168 206 252 311 376
#     4  10  23  46  72 100 124 156 205 260 310 370
#
# _framework density 21.365421999999999
#
# number of rings (size 3 to 8) (size 9 to 14) (size 15 to 20)
#    0.000    1.333    1.667    5.500    2.333    1.333 
#    0.000    5.000    0.000    0.000    0.000    0.000 
#    0.000    0.000    0.000    0.000    0.000    0.000 
#
# Total GULP energy -594718.840478 kJ/mol
# GULP energy per Si atom -12389.975843 kJ/mol
# Density = 2.131679 g / cm^3
# Si number density = 21.365422 Si / 1000 Ang^3
#
#
#
# Elastic Constant Matrix: (Units=GPa)
#
#
# Indices 1 2 3 4 5 6 
#
# 1 140.4416 69.2508 57.4065 0.0000 0.0000 0.0000
# 2 69.2508 123.3473 48.3946 0.0000 0.0000 0.0000
# 3 57.4065 48.3946 113.3415 0.0000 0.0000 0.0000
# 4 0.0000 0.0000 0.0000 28.0839 0.0000 0.0000
# 5 0.0000 0.0000 0.0000 0.0000 24.0254 0.0000
# 6 0.0000 0.0000 0.0000 0.0000 0.0000 -67.5100
#
#
#
# Elastic Compliance Matrix: (Units=1/GPa)
#
#
# Indices 1 2 3 4 5 6 
#
# 1 0.010885 -0.004742 -0.003488 0.000000 0.000000 0.000000
# 2 -0.004742 0.011805 -0.002638 0.000000 0.000000 0.000000
# 3 -0.003488 -0.002638 0.011716 0.000000 0.000000 0.000000
# 4 0.000000 0.000000 0.000000 0.035608 0.000000 0.000000
# 5 0.000000 0.000000 0.000000 0.000000 0.041623 0.000000
# 6 0.000000 0.000000 0.000000 0.000000 0.000000 -0.014813
#
#
# Mechanical properties :
#
#
# Convention : Reuss Voigt Hill
#
# Bulk Modulus (GPa) = 78.94037 80.80378 79.87207
# Shear Modulus (GPa) = 40.72201 10.39177 25.55689
#
# Velocity S-wave (km/s) = 4.37049 2.20780 3.46234
# Velocity P-wave (km/s) = 7.90545 6.66342 7.31086
#
# Compressibility (1/GPa) = 0.01266779
#
# Stress axis : x y z
#
# Youngs Moduli (GPa) = 91.87276 84.71051 85.35239
#
# Poissons Ratio (x) = 0.40173 0.29771
# Poissons Ratio (y) = 0.43570 0.22520
# Poissons Ratio (z) = 0.32046 0.22351
#
# Static dielectric constant tensor:
#      x y z
#    x 4.116060 0.000000 0.000000 
#    y 0.000000 3.658830 0.000000 
#    z 0.000000 0.000000 4.102860 
# 
# 
# High freq. dielectric constant tensor:
#      x y z
#    x 1.851110 0.000000 0.000000 
#    y 0.000000 1.822670 0.000000 
#    z 0.000000 0.000000 1.853130 
# 
# From -- ./inp_files/5830.got.cif
#   From: 2010.03.12/outbox.cif.g09.slc.cpg/sg54_3_cif.got.tgz:5830.got - 2010.04.16 15:00:50.
