data_PCOD8223461
_publ_section_title
;
Structure prediction by ZEFSAII (Michael W. Deem and Ramdas Pophale) SiO2 
 PCOD8223461
Probable space group: P C C A
;
_chemical_formula_sum "Si O2"
_cell_formula_units_Z 60
_cell_length_a 22.105336
_cell_length_b 11.109057
_cell_length_c 11.988078
_cell_angle_alpha 90.000000
_cell_angle_beta 90.000000
_cell_angle_gamma 90.000000
_cell_volume 2943.905573
_symmetry_space_group_name_H-M "P C C A"
_symmetry_group_IT_number 54
_symmetry_cell_setting 'orthorhombic'
loop_
_space_group_symop_operation_xyz
x,y,z
1/2-x,-y,z
1/2+x,-y,1/2-z
-x,y,1/2-z
-x,-y,-z
1/2+x,y,-z
1/2-x,y,1/2+z
x,-y,1/2+z
loop_
_atom_site_type_symbol
_atom_site_label
_atom_site_fract_x
_atom_site_fract_y
_atom_site_fract_z
Si Si1 0.107059 0.673832 0.349646
Si Si2 0.890074 0.818161 0.947237
Si Si3 0.123334 0.599461 0.899109
Si Si4 0.519689 0.767611 0.128652
Si Si5 0.000000 0.796441 0.250000
Si Si6 0.327193 0.617191 0.632697
Si Si7 0.942789 0.933756 0.451379
Si Si8 0.810550 0.648412 0.814386
O O1 0.135449 0.773534 0.433321
O O2 0.116560 0.544092 0.404923
O O3 0.037378 0.708796 0.330694
O O4 0.138355 0.685778 0.230230
O O5 0.846254 0.767122 0.852269
O O6 0.956698 0.755964 0.937567
O O7 0.890778 0.963903 0.937990
O O8 0.057175 0.643951 0.855197
O O9 0.178894 0.636888 0.818207
O O10 0.143078 0.657949 0.016701
O O11 0.500000 0.822394 0.250000
O O12 0.569313 0.841657 0.053889
O O13 0.043085 0.877628 0.170170
O O14 0.337263 0.473982 0.634183
O O15 0.258370 0.658516 0.647685
O O16 0.000000 0.000000 0.500000
#
# Coordination Sequence:
#
# PCOD8223461 Si02
#       8
#     8   8   8   8   4   8   8   8
#     4  11  24  38  60  94 127 165 210 262 316 385
#     4  11  22  40  61  90 123 162 219 261 311 381
#     4  11  23  38  60  92 129 163 204 260 327 386
#     4  11  22  38  60  92 129 165 207 256 325 390
#     4  12  22  40  60  94 130 166 216 252 330 382
#     4  10  23  38  63  87 130 165 209 257 323 378
#     4  10  23  37  60  88 119 168 206 261 304 372
#     4  10  22  39  60  91 117 169 209 263 309 379
#
# _framework density 20.381088999999999
#
# number of rings (size 3 to 8) (size 9 to 14) (size 15 to 20)
#    0.000    1.333    5.333    0.800    6.533    1.600 
#    0.000    0.000    0.000    3.200    0.000    0.000 
#    0.000    0.000    0.000    0.000    0.000    0.000 
#
# Total GULP energy -743394.010708 kJ/mol
# GULP energy per Si atom -12389.900178 kJ/mol
# Density = 2.033470 g / cm^3
# Si number density = 20.381089 Si / 1000 Ang^3
#
#
#
# Elastic Constant Matrix: (Units=GPa)
#
#
# Indices 1 2 3 4 5 6 
#
# 1 61.7824 38.1876 39.0355 0.0000 0.0000 0.0000
# 2 38.1876 83.3732 60.9837 0.0000 0.0000 0.0000
# 3 39.0355 60.9837 138.5153 0.0000 0.0000 0.0000
# 4 0.0000 0.0000 0.0000 24.8912 0.0000 0.0000
# 5 0.0000 0.0000 0.0000 0.0000 27.4128 0.0000
# 6 0.0000 0.0000 0.0000 0.0000 0.0000 23.3452
#
#
#
# Elastic Compliance Matrix: (Units=1/GPa)
#
#
# Indices 1 2 3 4 5 6 
#
# 1 0.023267 -0.008645 -0.002751 0.000000 0.000000 0.000000
# 2 -0.008645 0.020904 -0.006767 0.000000 0.000000 0.000000
# 3 -0.002751 -0.006767 0.010974 0.000000 0.000000 0.000000
# 4 0.000000 0.000000 0.000000 0.040175 0.000000 0.000000
# 5 0.000000 0.000000 0.000000 0.000000 0.036479 0.000000
# 6 0.000000 0.000000 0.000000 0.000000 0.000000 0.042835
#
#
# Mechanical properties :
#
#
# Convention : Reuss Voigt Hill
#
# Bulk Modulus (GPa) = 53.13718 62.23162 57.68440
# Shear Modulus (GPa) = 23.01675 24.82747 23.92211
#
# Velocity S-wave (km/s) = 3.36418 3.49400 3.42971
# Velocity P-wave (km/s) = 6.42018 6.84673 6.63688
#
# Compressibility (1/GPa) = 0.01881922
#
# Stress axis : x y z
#
# Youngs Moduli (GPa) = 42.97857 47.83861 91.12522
#
# Poissons Ratio (x) = 0.41357 0.25068
# Poissons Ratio (y) = 0.37155 0.61663
# Poissons Ratio (z) = 0.11823 0.32372
#
# Static dielectric constant tensor:
#      x y z
#    x 3.418030 0.000000 0.000000 
#    y 0.000000 10.888470 0.000000 
#    z 0.000000 0.000000 3.775250 
# 
# 
# High freq. dielectric constant tensor:
#      x y z
#    x 1.763370 0.000000 0.000000 
#    y 0.000000 1.781980 0.000000 
#    z 0.000000 0.000000 1.820050 
# 
# From -- ./inp_files/9596.got.cif
#   From: 2010.03.12/outbox.cif.g09.slc.cpg/sg54_5_cif.got.tgz:9596.got - 2010.04.16 15:00:50.
