data_PCOD8223534
_publ_section_title
;
Structure prediction by ZEFSAII (Michael W. Deem and Ramdas Pophale) SiO2 
 PCOD8223534
Probable space group: P C C A
;
_chemical_formula_sum "Si O2"
_cell_formula_units_Z 60
_cell_length_a 17.907866
_cell_length_b 18.645552
_cell_length_c 8.427430
_cell_angle_alpha 90.000000
_cell_angle_beta 90.000000
_cell_angle_gamma 90.000000
_cell_volume 2813.936126
_symmetry_space_group_name_H-M "P C C A"
_symmetry_group_IT_number 54
_symmetry_cell_setting 'orthorhombic'
loop_
_space_group_symop_operation_xyz
x,y,z
1/2-x,-y,z
1/2+x,-y,1/2-z
-x,y,1/2-z
-x,-y,-z
1/2+x,y,-z
1/2-x,y,1/2+z
x,-y,1/2+z
loop_
_atom_site_type_symbol
_atom_site_label
_atom_site_fract_x
_atom_site_fract_y
_atom_site_fract_z
Si Si1 0.055248 0.795752 0.601810
Si Si2 0.432138 0.673354 0.856052
Si Si3 0.750000 0.500000 0.226646
Si Si4 0.799957 0.279638 0.864503
Si Si5 0.428471 0.954541 0.043048
Si Si6 0.685438 0.403173 0.967174
Si Si7 0.326151 0.967771 0.321408
Si Si8 0.809872 0.195969 0.175551
O O1 0.040098 0.742013 0.456103
O O2 0.047929 0.872577 0.516084
O O3 0.137101 0.787275 0.675114
O O4 0.000000 0.785429 0.750000
O O5 0.500000 0.642072 0.750000
O O6 0.367650 0.685089 0.727928
O O7 0.399609 0.619400 0.990941
O O8 0.720045 0.433510 0.128478
O O9 0.815895 0.466714 0.337013
O O10 0.770388 0.218841 0.743344
O O11 0.735871 0.336875 0.908732
O O12 0.832105 0.243060 0.023279
O O13 0.350870 0.978357 0.960079
O O14 0.403341 0.965548 0.223438
O O15 0.500000 0.000000 0.000000
O O16 0.309301 0.886798 0.378057
O O17 0.250000 0.000000 0.243699
#
# Coordination Sequence:
#
# PCOD8223534 Si02
#       8
#     8   8   4   8   8   8   8   8
#     4  11  24  45  63  97 133 183 234 289 357 414
#     4  12  26  43  68 107 145 181 231 292 352 409
#     4  10  22  40  78 104 140 180 238 266 326 420
#     4  12  22  42  70  98 137 180 228 281 345 414
#     4  11  24  44  63  86 125 179 228 282 346 426
#     4  11  21  43  70 108 136 183 229 274 327 408
#     4  11  26  38  60  91 125 163 223 290 353 404
#     4  11  23  38  65  92 129 175 228 287 350 413
#
# _framework density 21.322445999999999
#
# number of rings (size 3 to 8) (size 9 to 14) (size 15 to 20)
#    0.000    0.800    4.000    3.200    7.467    1.067 
#    0.000    0.667    0.000    0.000    0.000    0.000 
#    0.000    0.000    0.000    0.000    0.000    0.000 
#
# Total GULP energy -743614.328836 kJ/mol
# GULP energy per Si atom -12393.572147 kJ/mol
# Density = 2.127392 g / cm^3
# Si number density = 21.322446 Si / 1000 Ang^3
#
#
#
# Elastic Constant Matrix: (Units=GPa)
#
#
# Indices 1 2 3 4 5 6 
#
# 1 97.4495 30.6503 18.7942 0.0000 0.0000 0.0000
# 2 30.6503 96.6795 41.9691 0.0000 0.0000 0.0000
# 3 18.7942 41.9691 81.7485 0.0000 0.0000 0.0000
# 4 0.0000 0.0000 0.0000 33.1522 0.0000 0.0000
# 5 0.0000 0.0000 0.0000 0.0000 45.0369 0.0000
# 6 0.0000 0.0000 0.0000 0.0000 0.0000 27.2485
#
#
#
# Elastic Compliance Matrix: (Units=1/GPa)
#
#
# Indices 1 2 3 4 5 6 
#
# 1 0.011460 -0.003203 -0.000990 0.000000 0.000000 0.000000
# 2 -0.003203 0.014205 -0.006556 0.000000 0.000000 0.000000
# 3 -0.000990 -0.006556 0.015826 0.000000 0.000000 0.000000
# 4 0.000000 0.000000 0.000000 0.030164 0.000000 0.000000
# 5 0.000000 0.000000 0.000000 0.000000 0.022204 0.000000
# 6 0.000000 0.000000 0.000000 0.000000 0.000000 0.036699
#
#
# Mechanical properties :
#
#
# Convention : Reuss Voigt Hill
#
# Bulk Modulus (GPa) = 50.02033 50.96717 50.49375
# Shear Modulus (GPa) = 31.50148 33.38511 32.44329
#
# Velocity S-wave (km/s) = 3.84785 3.96122 3.90494
# Velocity P-wave (km/s) = 6.57656 6.69900 6.63806
#
# Compressibility (1/GPa) = 0.01999187
#
# Stress axis : x y z
#
# Youngs Moduli (GPa) = 87.25817 70.39677 63.18608
#
# Poissons Ratio (x) = 0.22551 0.06256
# Poissons Ratio (y) = 0.27953 0.41427
# Poissons Ratio (z) = 0.08640 0.46155
#
# Static dielectric constant tensor:
#      x y z
#    x 3.846330 0.000000 0.000000 
#    y 0.000000 3.994640 0.000000 
#    z 0.000000 0.000000 4.089120 
# 
# 
# High freq. dielectric constant tensor:
#      x y z
#    x 1.826460 0.000000 0.000000 
#    y 0.000000 1.833750 0.000000 
#    z 0.000000 0.000000 1.849160 
# 
# From -- ./inp_files/4356.got.cif
#   From: 2010.03.12/outbox.cif.g09.slc.cpg/sg54_3_cif.got.tgz:4356.got - 2010.04.16 15:00:50.
