data_PCOD8223433
_publ_section_title
;
Structure prediction by ZEFSAII (Michael W. Deem and Ramdas Pophale) SiO2 
 PCOD8223433
Probable space group: P C C A
;
_chemical_formula_sum "Si O2"
_cell_formula_units_Z 36
_cell_length_a 11.395713
_cell_length_b 9.799873
_cell_length_c 15.563764
_cell_angle_alpha 90.000000
_cell_angle_beta 90.000000
_cell_angle_gamma 90.000000
_cell_volume 1738.107315
_symmetry_space_group_name_H-M "P C C A"
_symmetry_group_IT_number 54
_symmetry_cell_setting 'orthorhombic'
loop_
_space_group_symop_operation_xyz
x,y,z
1/2-x,-y,z
1/2+x,-y,1/2-z
-x,y,1/2-z
-x,-y,-z
1/2+x,y,-z
1/2-x,y,1/2+z
x,-y,1/2+z
loop_
_atom_site_type_symbol
_atom_site_label
_atom_site_fract_x
_atom_site_fract_y
_atom_site_fract_z
Si Si1 0.847568 0.675829 0.157036
Si Si2 0.580277 0.371011 0.670437
Si Si3 0.500000 0.885474 0.750000
Si Si4 0.618885 0.024974 0.410489
Si Si5 0.483225 0.766445 0.003882
O O1 0.895200 0.529773 0.186941
O O2 0.707848 0.697990 0.163274
O O3 0.892926 0.790447 0.221431
O O4 0.896082 0.688594 0.060270
O O5 0.500000 0.317661 0.750000
O O6 0.512698 0.335598 0.581811
O O7 0.461670 0.984496 0.673708
O O8 0.600044 0.174518 0.455550
O O9 0.750000 0.000000 0.380758
O O10 0.586035 0.902138 0.471926
#
# Coordination Sequence:
#
# PCOD8223433 Si02
#       5
#     8   8   4   8   8
#     4  10  22  43  59  92 127 161 200 263 309 367
#     4  11  23  39  66  95 121 161 213 251 310 374
#     4  10  22  38  60  86 132 162 202 260 308 350
#     4  10  22  38  60  90 121 166 206 248 305 358
#     4  10  22  40  62  89 126 162 206 251 306 373
#
# _framework density 20.712184000000001
#
# number of rings (size 3 to 8) (size 9 to 14) (size 15 to 20)
#    0.000    1.778    1.111    2.000    4.667    0.000 
#    0.000    4.444    0.000    0.000    0.000    0.000 
#    0.000    0.000    0.000    0.000    0.000    0.000 
#
# Total GULP energy -446244.724459 kJ/mol
# GULP energy per Si atom -12395.686791 kJ/mol
# Density = 2.066504 g / cm^3
# Si number density = 20.712184 Si / 1000 Ang^3
#
#
#
# Elastic Constant Matrix: (Units=GPa)
#
#
# Indices 1 2 3 4 5 6 
#
# 1 137.0104 21.6338 45.6119 0.0000 0.0000 0.0000
# 2 21.6338 30.5648 2.3187 0.0000 0.0000 0.0000
# 3 45.6119 2.3187 108.4872 0.0000 0.0000 0.0000
# 4 0.0000 0.0000 0.0000 23.1640 0.0000 0.0000
# 5 0.0000 0.0000 0.0000 0.0000 24.8250 0.0000
# 6 0.0000 0.0000 0.0000 0.0000 0.0000 28.8228
#
#
#
# Elastic Compliance Matrix: (Units=1/GPa)
#
#
# Indices 1 2 3 4 5 6 
#
# 1 0.009630 -0.006519 -0.003909 0.000000 0.000000 0.000000
# 2 -0.006519 0.037184 0.001946 0.000000 0.000000 0.000000
# 3 -0.003909 0.001946 0.010820 0.000000 0.000000 0.000000
# 4 0.000000 0.000000 0.000000 0.043171 0.000000 0.000000
# 5 0.000000 0.000000 0.000000 0.000000 0.040282 0.000000
# 6 0.000000 0.000000 0.000000 0.000000 0.000000 0.034695
#
#
# Mechanical properties :
#
#
# Convention : Reuss Voigt Hill
#
# Bulk Modulus (GPa) = 24.58898 46.13235 35.36066
# Shear Modulus (GPa) = 24.23639 29.12887 26.68263
#
# Velocity S-wave (km/s) = 3.42446 3.75422 3.59312
# Velocity P-wave (km/s) = 5.24723 6.41199 5.85863
#
# Compressibility (1/GPa) = 0.04066862
#
# Stress axis : x y z
#
# Youngs Moduli (GPa) = 103.84735 26.89328 92.42420
#
# Poissons Ratio (x) = 0.17532 0.36131
# Poissons Ratio (y) = 0.67700 -0.17987
# Poissons Ratio (z) = 0.40597 -0.05234
#
# Static dielectric constant tensor:
#      x y z
#    x 3.804380 0.000000 0.000000 
#    y 0.000000 3.633710 0.000000 
#    z 0.000000 0.000000 3.756030 
# 
# 
# High freq. dielectric constant tensor:
#      x y z
#    x 1.811470 0.000000 0.000000 
#    y 0.000000 1.806420 0.000000 
#    z 0.000000 0.000000 1.818570 
# 
# From -- ./inp_files/12397.got.cif
#   From: 2010.03.12/outbox.cif.g09.slc.cpg/sg54_7_cif.got.tgz:12397.got - 2010.04.16 15:00:50.
