data_PCOD8223476
_publ_section_title
;
Structure prediction by ZEFSAII (Michael W. Deem and Ramdas Pophale) SiO2 
 PCOD8223476
Probable space group: P C C A
;
_chemical_formula_sum "Si O2"
_cell_formula_units_Z 32
_cell_length_a 9.137081
_cell_length_b 9.145394
_cell_length_c 18.158294
_cell_angle_alpha 90.000000
_cell_angle_beta 90.000000
_cell_angle_gamma 90.000000
_cell_volume 1517.347099
_symmetry_space_group_name_H-M "P C C A"
_symmetry_group_IT_number 54
_symmetry_cell_setting 'orthorhombic'
loop_
_space_group_symop_operation_xyz
x,y,z
1/2-x,-y,z
1/2+x,-y,1/2-z
-x,y,1/2-z
-x,-y,-z
1/2+x,y,-z
1/2-x,y,1/2+z
x,-y,1/2+z
loop_
_atom_site_type_symbol
_atom_site_label
_atom_site_fract_x
_atom_site_fract_y
_atom_site_fract_z
Si Si1 0.835788 0.145215 0.777798
Si Si2 0.849371 0.629220 0.705174
Si Si3 0.263410 0.675638 0.581979
Si Si4 0.456149 0.641907 0.454180
O O1 0.740400 0.219937 0.713240
O O2 0.840241 0.254809 0.847155
O O3 0.000000 0.112502 0.750000
O O4 0.750000 0.000000 0.801555
O O5 0.750000 0.500000 0.738761
O O6 0.871595 0.596799 0.619400
O O7 0.000000 0.636244 0.750000
O O8 0.250000 0.500000 0.591398
O O9 0.351499 0.729985 0.509725
O O10 0.098183 0.735914 0.570006
O O11 0.500000 0.500000 0.500000
#
# Coordination Sequence:
#
# PCOD8223476 Si02
#       4
#     8   8   8   8
#     4  12  28  46  68  96 138 184 234 285 340 406
#     4  12  24  41  71 104 136 177 229 280 344 406
#     4  10  22  43  69 102 136 172 223 277 342 406
#     4  10  22  39  66 103 142 169 218 280 341 399
#
# _framework density 21.089438999999999
#
# number of rings (size 3 to 8) (size 9 to 14) (size 15 to 20)
#    0.000    1.000    2.500    4.500   14.000    0.000 
#    0.000    2.500    0.000    0.000    0.000    0.000 
#    0.000    0.000    0.000    0.000    0.000    0.000 
#
# Total GULP energy -396677.059595 kJ/mol
# GULP energy per Si atom -12396.158112 kJ/mol
# Density = 2.104144 g / cm^3
# Si number density = 21.089439 Si / 1000 Ang^3
#
#
#
# Elastic Constant Matrix: (Units=GPa)
#
#
# Indices 1 2 3 4 5 6 
#
# 1 162.8708 34.7000 49.3827 0.0000 0.0000 0.0000
# 2 34.7000 69.9544 30.6841 0.0000 0.0000 0.0000
# 3 49.3827 30.6841 151.3281 0.0000 0.0000 0.0000
# 4 0.0000 0.0000 0.0000 9.0274 0.0000 0.0000
# 5 0.0000 0.0000 0.0000 0.0000 35.2112 0.0000
# 6 0.0000 0.0000 0.0000 0.0000 0.0000 30.5927
#
#
#
# Elastic Compliance Matrix: (Units=1/GPa)
#
#
# Indices 1 2 3 4 5 6 
#
# 1 0.007289 -0.002823 -0.001806 0.000000 0.000000 0.000000
# 2 -0.002823 0.016784 -0.002482 0.000000 0.000000 0.000000
# 3 -0.001806 -0.002482 0.007701 0.000000 0.000000 0.000000
# 4 0.000000 0.000000 0.000000 0.110774 0.000000 0.000000
# 5 0.000000 0.000000 0.000000 0.000000 0.028400 0.000000
# 6 0.000000 0.000000 0.000000 0.000000 0.000000 0.032688
#
#
# Mechanical properties :
#
#
# Convention : Reuss Voigt Hill
#
# Bulk Modulus (GPa) = 56.97639 68.18743 62.58191
# Shear Modulus (GPa) = 22.35051 32.92535 27.63793
#
# Velocity S-wave (km/s) = 3.25898 3.95552 3.62402
# Velocity P-wave (km/s) = 6.42156 7.29823 6.87389
#
# Compressibility (1/GPa) = 0.01755113
#
# Stress axis : x y z
#
# Youngs Moduli (GPa) = 137.19335 59.57995 129.85681
#
# Poissons Ratio (x) = 0.16822 0.23454
# Poissons Ratio (y) = 0.38735 0.32229
# Poissons Ratio (z) = 0.24779 0.14787
#
# Static dielectric constant tensor:
#      x y z
#    x 4.651020 0.000000 0.000000 
#    y 0.000000 3.394180 0.000000 
#    z 0.000000 0.000000 4.054120 
# 
# 
# High freq. dielectric constant tensor:
#      x y z
#    x 1.855910 0.000000 0.000000 
#    y 0.000000 1.774540 0.000000 
#    z 0.000000 0.000000 1.841400 
# 
# From -- ./inp_files/20043.got.cif
#   From: 2010.03.12/outbox.cif.g09.slc.cpg/sg54_11_cif.got.tgz:20043.got - 2010.04.16 15:00:50.
