data_PCOD8223894
_publ_section_title
;
Structure prediction by ZEFSAII (Michael W. Deem and Ramdas Pophale) SiO2 
 PCOD8223894
Probable space group: P C C A
;
_chemical_formula_sum "Si O2"
_cell_formula_units_Z 48
_cell_length_a 9.560170
_cell_length_b 18.068329
_cell_length_c 12.200738
_cell_angle_alpha 90.000000
_cell_angle_beta 90.000000
_cell_angle_gamma 90.000000
_cell_volume 2107.510301
_symmetry_space_group_name_H-M "P C C A"
_symmetry_group_IT_number 54
_symmetry_cell_setting 'orthorhombic'
loop_
_space_group_symop_operation_xyz
x,y,z
1/2-x,-y,z
1/2+x,-y,1/2-z
-x,y,1/2-z
-x,-y,-z
1/2+x,y,-z
1/2-x,y,1/2+z
x,-y,1/2+z
loop_
_atom_site_type_symbol
_atom_site_label
_atom_site_fract_x
_atom_site_fract_y
_atom_site_fract_z
Si Si1 0.769240 0.916384 0.618373
Si Si2 0.489552 0.855212 0.521426
Si Si3 0.495294 0.402758 0.450527
Si Si4 0.750000 0.500000 0.522557
Si Si5 0.454281 0.721468 0.122872
Si Si6 0.500000 0.304078 0.250000
Si Si7 0.794365 0.194306 0.795768
O O1 0.647008 0.883012 0.540888
O O2 0.910632 0.918170 0.547813
O O3 0.790721 0.866226 0.726696
O O4 0.750000 0.000000 0.658492
O O5 0.461771 0.779626 0.452023
O O6 0.417816 0.846186 0.638914
O O7 0.626352 0.459221 0.454541
O O8 0.346705 0.440937 0.411549
O O9 0.466372 0.359376 0.565291
O O10 0.543597 0.349444 0.355320
O O11 0.500000 0.714632 0.250000
O O12 0.300737 0.757735 0.122078
O O13 0.367895 0.253401 0.286118
#
# Coordination Sequence:
#
# PCOD8223894 Si02
#       7
#     8   8   8   4   8   4   8
#     4  12  26  45  68 100 143 193 231 297 374 427
#     4  12  24  47  70 102 140 180 247 298 347 432
#     4  11  25  47  71 104 139 185 225 282 353 421
#     4  10  26  50  64 104 152 176 226 272 346 444
#     4  12  25  43  74 104 137 186 242 296 352 410
#     4  12  24  42  80 100 132 182 238 294 350 406
#     4  12  24  44  68 105 141 178 246 303 350 426
#
# _framework density 22.775689
#
# number of rings (size 3 to 8) (size 9 to 14) (size 15 to 20)
#    0.000    0.333    6.667    1.500    2.333    1.333 
#   12.000    0.000    0.000    0.000    0.000    0.000 
#    0.000    0.000    0.000    0.000    0.000    0.000 
#
# Total GULP energy -594742.980221 kJ/mol
# GULP energy per Si atom -12390.478755 kJ/mol
# Density = 2.272385 g / cm^3
# Si number density = 22.775689 Si / 1000 Ang^3
#
#
#
# Elastic Constant Matrix: (Units=GPa)
#
#
# Indices 1 2 3 4 5 6 
#
# 1 102.8494 31.8670 16.4226 0.0000 0.0000 0.0000
# 2 31.8670 121.0127 37.8528 0.0000 0.0000 0.0000
# 3 16.4226 37.8528 98.2376 0.0000 0.0000 0.0000
# 4 0.0000 0.0000 0.0000 14.1227 0.0000 0.0000
# 5 0.0000 0.0000 0.0000 0.0000 33.4539 0.0000
# 6 0.0000 0.0000 0.0000 0.0000 0.0000 34.5530
#
#
#
# Elastic Compliance Matrix: (Units=1/GPa)
#
#
# Indices 1 2 3 4 5 6 
#
# 1 0.010641 -0.002554 -0.000795 0.000000 0.000000 0.000000
# 2 -0.002554 0.010009 -0.003430 0.000000 0.000000 0.000000
# 3 -0.000795 -0.003430 0.011634 0.000000 0.000000 0.000000
# 4 0.000000 0.000000 0.000000 0.070808 0.000000 0.000000
# 5 0.000000 0.000000 0.000000 0.000000 0.029892 0.000000
# 6 0.000000 0.000000 0.000000 0.000000 0.000000 0.028941
#
#
# Mechanical properties :
#
#
# Convention : Reuss Voigt Hill
#
# Bulk Modulus (GPa) = 53.39784 54.93160 54.16472
# Shear Modulus (GPa) = 27.51435 32.15642 29.83538
#
# Velocity S-wave (km/s) = 3.47948 3.76157 3.62327
# Velocity P-wave (km/s) = 6.29590 6.56024 6.42943
#
# Compressibility (1/GPa) = 0.01872735
#
# Stress axis : x y z
#
# Youngs Moduli (GPa) = 93.97540 99.91158 85.95616
#
# Poissons Ratio (x) = 0.25513 0.06833
# Poissons Ratio (y) = 0.23997 0.29481
# Poissons Ratio (z) = 0.07471 0.34267
#
# Static dielectric constant tensor:
#      x y z
#    x 4.305950 0.000000 0.000000 
#    y 0.000000 4.242720 0.000000 
#    z 0.000000 0.000000 3.884340 
# 
# 
# High freq. dielectric constant tensor:
#      x y z
#    x 1.909950 0.000000 0.000000 
#    y 0.000000 1.905030 0.000000 
#    z 0.000000 0.000000 1.884530 
# 
# From -- ./inp_files/11767.got.cif
#   From: 2010.03.12/outbox.cif.g09.slc.cpg/sg54_6_cif.got.tgz:11767.got - 2010.04.16 15:00:50.
