data_PCOD8223074
_publ_section_title
;
Structure prediction by ZEFSAII (Michael W. Deem and Ramdas Pophale) SiO2 
 PCOD8223074
Probable space group: P C C A
;
_chemical_formula_sum "Si O2"
_cell_formula_units_Z 40
_cell_length_a 9.700284
_cell_length_b 9.476914
_cell_length_c 22.216808
_cell_angle_alpha 90.000000
_cell_angle_beta 90.000000
_cell_angle_gamma 90.000000
_cell_volume 2042.363549
_symmetry_space_group_name_H-M "P C C A"
_symmetry_group_IT_number 54
_symmetry_cell_setting 'orthorhombic'
loop_
_space_group_symop_operation_xyz
x,y,z
1/2-x,-y,z
1/2+x,-y,1/2-z
-x,y,1/2-z
-x,-y,-z
1/2+x,y,-z
1/2-x,y,1/2+z
x,-y,1/2+z
loop_
_atom_site_type_symbol
_atom_site_label
_atom_site_fract_x
_atom_site_fract_y
_atom_site_fract_z
Si Si1 0.161454 0.867137 0.257236
Si Si2 0.249469 0.659176 0.859714
Si Si3 0.501250 0.335032 0.438614
Si Si4 0.224562 0.162515 0.622855
Si Si5 0.026380 0.654396 0.576954
O O1 0.183822 0.747562 0.306308
O O2 0.222899 0.813579 0.194253
O O3 0.000000 0.906117 0.250000
O O4 0.250000 0.000000 0.279738
O O5 0.250000 0.500000 0.835707
O O6 0.341058 0.673083 0.920085
O O7 0.095023 0.703904 0.877936
O O8 0.579463 0.209727 0.404612
O O9 0.518367 0.310070 0.509218
O O10 0.559979 0.487831 0.418378
O O11 0.340372 0.259047 0.594052
O O12 0.250000 0.000000 0.606230
#
# Coordination Sequence:
#
# PCOD8223074 Si02
#       5
#     8   8   8   8   8
#     4  11  25  44  64  86 123 166 203 251 308 366
#     4  10  22  39  63  93 120 156 205 255 302 354
#     4  10  20  42  63  90 126 158 201 248 304 365
#     4  11  24  39  60  91 122 161 207 248 302 360
#     4  10  22  38  66  92 121 163 197 248 310 363
#
# _framework density 19.585151
#
# number of rings (size 3 to 8) (size 9 to 14) (size 15 to 20)
#    0.000    1.600    2.000    1.800    5.600    5.600 
#    0.000    2.000    0.000    0.000    0.000    0.000 
#    0.000    0.000    0.000    0.000    0.000    0.000 
#
# Total GULP energy -496123.911446 kJ/mol
# GULP energy per Si atom -12403.097786 kJ/mol
# Density = 1.954057 g / cm^3
# Si number density = 19.585151 Si / 1000 Ang^3
#
#
#
# Elastic Constant Matrix: (Units=GPa)
#
#
# Indices 1 2 3 4 5 6 
#
# 1 98.0565 47.1131 19.3931 0.0000 0.0000 0.0000
# 2 47.1131 90.4520 49.8381 0.0000 0.0000 0.0000
# 3 19.3931 49.8381 72.5688 0.0000 0.0000 0.0000
# 4 0.0000 0.0000 0.0000 17.8492 0.0000 0.0000
# 5 0.0000 0.0000 0.0000 0.0000 21.0397 0.0000
# 6 0.0000 0.0000 0.0000 0.0000 0.0000 34.4155
#
#
#
# Elastic Compliance Matrix: (Units=1/GPa)
#
#
# Indices 1 2 3 4 5 6 
#
# 1 0.013781 -0.008284 0.002006 0.000000 0.000000 0.000000
# 2 -0.008284 0.022765 -0.013420 0.000000 0.000000 0.000000
# 3 0.002006 -0.013420 0.022461 0.000000 0.000000 0.000000
# 4 0.000000 0.000000 0.000000 0.056025 0.000000 0.000000
# 5 0.000000 0.000000 0.000000 0.000000 0.047529 0.000000
# 6 0.000000 0.000000 0.000000 0.000000 0.000000 0.029057
#
#
# Mechanical properties :
#
#
# Convention : Reuss Voigt Hill
#
# Bulk Modulus (GPa) = 50.99218 54.86288 52.92753
# Shear Modulus (GPa) = 21.04813 24.30973 22.67893
#
# Velocity S-wave (km/s) = 3.28182 3.52694 3.40658
# Velocity P-wave (km/s) = 6.36027 6.68274 6.52350
#
# Compressibility (1/GPa) = 0.01961085
#
# Stress axis : x y z
#
# Youngs Moduli (GPa) = 72.56127 43.92759 44.52209
#
# Poissons Ratio (x) = 0.36388 -0.08931
# Poissons Ratio (y) = 0.60106 0.59751
# Poissons Ratio (z) = -0.14556 0.58953
#
# Static dielectric constant tensor:
#      x y z
#    x 3.663890 0.000000 0.000000 
#    y 0.000000 3.579990 0.000000 
#    z 0.000000 0.000000 3.515990 
# 
# 
# High freq. dielectric constant tensor:
#      x y z
#    x 1.776170 0.000000 0.000000 
#    y 0.000000 1.758520 0.000000 
#    z 0.000000 0.000000 1.766600 
# 
# From -- ./inp_files/23204.got.cif
#   From: 2010.03.12/outbox.cif.g09.slc.cpg/sg54_12_cif.got.tgz:23204.got - 2010.04.16 15:00:50.
