data_PCOD8223289
_publ_section_title
;
Structure prediction by ZEFSAII (Michael W. Deem and Ramdas Pophale) SiO2 
 PCOD8223289
Probable space group: P C C A
;
_chemical_formula_sum "Si O2"
_cell_formula_units_Z 56
_cell_length_a 12.078969
_cell_length_b 12.165877
_cell_length_c 18.967690
_cell_angle_alpha 90.000000
_cell_angle_beta 90.000000
_cell_angle_gamma 90.000000
_cell_volume 2787.325777
_symmetry_space_group_name_H-M "P C C A"
_symmetry_group_IT_number 54
_symmetry_cell_setting 'orthorhombic'
loop_
_space_group_symop_operation_xyz
x,y,z
1/2-x,-y,z
1/2+x,-y,1/2-z
-x,y,1/2-z
-x,-y,-z
1/2+x,y,-z
1/2-x,y,1/2+z
x,-y,1/2+z
loop_
_atom_site_type_symbol
_atom_site_label
_atom_site_fract_x
_atom_site_fract_y
_atom_site_fract_z
Si Si1 0.784141 0.379721 0.278270
Si Si2 0.836344 0.703277 0.628675
Si Si3 0.634498 0.937458 0.070479
Si Si4 0.050667 0.567280 0.598979
Si Si5 0.684821 0.699990 0.503468
Si Si6 0.121512 0.322281 0.608008
Si Si7 0.010207 0.861451 0.447192
O O1 0.750000 0.500000 0.251722
O O2 0.815976 0.308534 0.211317
O O3 0.884551 0.385798 0.333417
O O4 0.680612 0.322445 0.316520
O O5 0.866694 0.832197 0.621463
O O6 0.727330 0.675393 0.582741
O O7 0.928956 0.617825 0.602291
O O8 0.750000 0.000000 0.064300
O O9 0.548000 0.030698 0.096276
O O10 0.594883 0.894037 0.994579
O O11 0.106796 0.603300 0.525347
O O12 0.055947 0.436140 0.596337
O O13 0.791934 0.707302 0.453579
O O14 0.612535 0.812849 0.505479
O O15 0.027326 0.229686 0.609132
#
# Coordination Sequence:
#
# PCOD8223289 Si02
#       7
#     8   8   8   8   8   8   8
#     4   9  22  41  63  87 124 168 201 249 315 388
#     4  12  22  39  64  92 120 166 211 259 311 368
#     4  11  22  40  63  88 122 161 213 260 309 365
#     4  10  22  39  61  93 129 162 201 248 318 384
#     4  11  20  36  60  97 121 159 199 256 310 368
#     4  10  21  40  61  92 129 161 203 256 309 383
#     4  11  21  38  65  90 123 166 206 257 320 368
#
# _framework density 20.090941000000001
#
# number of rings (size 3 to 8) (size 9 to 14) (size 15 to 20)
#    0.000    1.429    4.286    1.714    0.000    5.714 
#    0.000    2.143    6.286    0.000    0.000    0.000 
#    0.000    0.000    0.000    0.000    0.000    0.000 
#
# Total GULP energy -694058.099087 kJ/mol
# GULP energy per Si atom -12393.894627 kJ/mol
# Density = 2.004521 g / cm^3
# Si number density = 20.090941 Si / 1000 Ang^3
#
#
#
# Elastic Constant Matrix: (Units=GPa)
#
#
# Indices 1 2 3 4 5 6 
#
# 1 87.2392 68.6661 38.0036 0.0000 0.0000 0.0000
# 2 68.6661 153.2192 56.4332 0.0000 0.0000 0.0000
# 3 38.0036 56.4332 93.6994 0.0000 0.0000 0.0000
# 4 0.0000 0.0000 0.0000 -3.7369 0.0000 0.0000
# 5 0.0000 0.0000 0.0000 0.0000 13.3769 0.0000
# 6 0.0000 0.0000 0.0000 0.0000 0.0000 41.5722
#
#
#
# Elastic Compliance Matrix: (Units=1/GPa)
#
#
# Indices 1 2 3 4 5 6 
#
# 1 0.018433 -0.007077 -0.003214 0.000000 0.000000 0.000000
# 2 -0.007077 0.011104 -0.003817 0.000000 0.000000 0.000000
# 3 -0.003214 -0.003817 0.014275 0.000000 0.000000 0.000000
# 4 0.000000 0.000000 0.000000 -0.267603 0.000000 0.000000
# 5 0.000000 0.000000 0.000000 0.000000 0.074756 0.000000
# 6 0.000000 0.000000 0.000000 0.000000 0.000000 0.024055
#
#
# Mechanical properties :
#
#
# Convention : Reuss Voigt Hill
#
# Bulk Modulus (GPa) = 64.12074 73.37372 68.74723
# Shear Modulus (GPa) = -54.60647 21.64611 -16.48018
#
# Velocity S-wave (km/s) = -5.21907 3.28595 -2.86716
# Velocity P-wave (km/s) = 2.08175 7.14120 4.83027
#
# Compressibility (1/GPa) = 0.01559558
#
# Stress axis : x y z
#
# Youngs Moduli (GPa) = 54.24961 90.05484 70.05203
#
# Poissons Ratio (x) = 0.63734 0.22514
# Poissons Ratio (y) = 0.38394 0.26742
# Poissons Ratio (z) = 0.17435 0.34378
#
# Static dielectric constant tensor:
#      x y z
#    x 3.931940 0.000000 0.000000 
#    y 0.000000 3.934430 0.000000 
#    z 0.000000 0.000000 3.381810 
# 
# 
# High freq. dielectric constant tensor:
#      x y z
#    x 1.800450 0.000000 0.000000 
#    y 0.000000 1.792840 0.000000 
#    z 0.000000 0.000000 1.751820 
# 
# From -- ./inp_files/21174.got.cif
#   From: 2010.03.12/outbox.cif.g09.slc.cpg/sg54_11_cif.got.tgz:21174.got - 2010.04.16 15:00:50.
