data_PCOD8223168
_publ_section_title
;
Structure prediction by ZEFSAII (Michael W. Deem and Ramdas Pophale) SiO2 
 PCOD8223168
Probable space group: P C C A
;
_chemical_formula_sum "Si O2"
_cell_formula_units_Z 48
_cell_length_a 16.727704
_cell_length_b 26.739170
_cell_length_c 5.281665
_cell_angle_alpha 90.000000
_cell_angle_beta 90.000000
_cell_angle_gamma 90.000000
_cell_volume 2362.409112
_symmetry_space_group_name_H-M "P C C A"
_symmetry_group_IT_number 54
_symmetry_cell_setting 'orthorhombic'
loop_
_space_group_symop_operation_xyz
x,y,z
1/2-x,-y,z
1/2+x,-y,1/2-z
-x,y,1/2-z
-x,-y,-z
1/2+x,y,-z
1/2-x,y,1/2+z
x,-y,1/2+z
loop_
_atom_site_type_symbol
_atom_site_label
_atom_site_fract_x
_atom_site_fract_y
_atom_site_fract_z
Si Si1 0.299097 0.274250 0.969763
Si Si2 0.091810 0.521222 0.997820
Si Si3 0.048036 0.910144 0.998065
Si Si4 0.450670 0.794475 0.498140
Si Si5 0.198062 0.388770 0.486708
Si Si6 0.218031 0.944370 0.955158
O O1 0.263662 0.263243 0.692998
O O2 0.371999 0.237834 0.012611
O O3 0.329193 0.331282 0.987891
O O4 0.134497 0.498647 0.750661
O O5 0.113218 0.580413 0.989276
O O6 0.000000 0.500000 0.000000
O O7 0.074292 0.852423 0.985142
O O8 0.124584 0.945494 0.007863
O O9 0.000000 0.925819 0.750000
O O10 0.000000 0.922335 0.250000
O O11 0.500000 0.778891 0.250000
O O12 0.500000 0.782896 0.750000
O O13 0.250513 0.401206 0.735706
O O14 0.237649 0.916332 0.689372
O O15 0.250000 0.000000 0.904674
#
# Coordination Sequence:
#
# PCOD8223168 Si02
#       6
#     8   8   8   8   8   8
#     4  10  21  38  59  86 118 150 188 232 290 347
#     4  10  21  37  53  78 110 138 184 232 268 328
#     4  10  21  38  60  83 117 154 196 238 290 343
#     4  10  21  38  58  89 118 150 192 238 285 348
#     4  10  21  37  57  81 110 145 183 227 276 334
#     4  10  21  38  56  83 117 149 195 247 283 340
#
# _framework density 20.318242999999999
#
# number of rings (size 3 to 8) (size 9 to 14) (size 15 to 20)
#    0.000    2.000    0.000    3.000    0.000    3.333 
#    6.000   10.000    0.000    0.000    0.000    0.000 
#    0.000    0.000    0.000    0.000    0.000    0.000 
#
# Total GULP energy -594802.775685 kJ/mol
# GULP energy per Si atom -12391.724493 kJ/mol
# Density = 2.027200 g / cm^3
# Si number density = 20.318243 Si / 1000 Ang^3
#
#
#
# Elastic Constant Matrix: (Units=GPa)
#
#
# Indices 1 2 3 4 5 6 
#
# 1 94.9285 45.5336 16.0205 0.0000 0.0000 0.0000
# 2 45.5336 56.2416 7.3168 0.0000 0.0000 0.0000
# 3 16.0205 7.3168 168.7185 0.0000 0.0000 0.0000
# 4 0.0000 0.0000 0.0000 27.4112 0.0000 0.0000
# 5 0.0000 0.0000 0.0000 0.0000 18.9473 0.0000
# 6 0.0000 0.0000 0.0000 0.0000 0.0000 54.8905
#
#
#
# Elastic Compliance Matrix: (Units=1/GPa)
#
#
# Indices 1 2 3 4 5 6 
#
# 1 0.017404 -0.013955 -0.001047 0.000000 0.000000 0.000000
# 2 -0.013955 0.029070 0.000064 0.000000 0.000000 0.000000
# 3 -0.001047 0.000064 0.006024 0.000000 0.000000 0.000000
# 4 0.000000 0.000000 0.000000 0.036481 0.000000 0.000000
# 5 0.000000 0.000000 0.000000 0.000000 0.052778 0.000000
# 6 0.000000 0.000000 0.000000 0.000000 0.000000 0.018218
#
#
# Mechanical properties :
#
#
# Convention : Reuss Voigt Hill
#
# Bulk Modulus (GPa) = 44.20339 50.84784 47.52561
# Shear Modulus (GPa) = 25.33037 36.98433 31.15735
#
# Velocity S-wave (km/s) = 3.53467 4.27107 3.92020
# Velocity P-wave (km/s) = 6.20171 7.02871 6.62812
#
# Compressibility (1/GPa) = 0.02262270
#
# Stress axis : x y z
#
# Youngs Moduli (GPa) = 57.45647 34.39999 166.01092
#
# Poissons Ratio (x) = 0.48004 0.17389
# Poissons Ratio (y) = 0.80178 -0.01069
# Poissons Ratio (z) = 0.06018 -0.00221
#
# Static dielectric constant tensor:
#      x y z
#    x 3.390830 0.000000 0.000000 
#    y 0.000000 3.573100 0.000000 
#    z 0.000000 0.000000 4.660190 
# 
# 
# High freq. dielectric constant tensor:
#      x y z
#    x 1.776860 0.000000 0.000000 
#    y 0.000000 1.778100 0.000000 
#    z 0.000000 0.000000 1.836360 
# 
# From -- ./inp_files/630.got.cif
#   From: 2010.03.12/outbox.cif.g09.slc.cpg/sg54_1_cif.got.tgz:630.got - 2010.04.16 15:00:50.
