data_PCOD8223196
_publ_section_title
;
Structure prediction by ZEFSAII (Michael W. Deem and Ramdas Pophale) SiO2 
 PCOD8223196
Probable space group: P C C A
;
_chemical_formula_sum "Si O2"
_cell_formula_units_Z 56
_cell_length_a 13.273285
_cell_length_b 34.647487
_cell_length_c 5.253292
_cell_angle_alpha 90.000000
_cell_angle_beta 90.000000
_cell_angle_gamma 90.000000
_cell_volume 2415.915284
_symmetry_space_group_name_H-M "P C C A"
_symmetry_group_IT_number 54
_symmetry_cell_setting 'orthorhombic'
loop_
_space_group_symop_operation_xyz
x,y,z
1/2-x,-y,z
1/2+x,-y,1/2-z
-x,y,1/2-z
-x,-y,-z
1/2+x,y,-z
1/2-x,y,1/2+z
x,-y,1/2+z
loop_
_atom_site_type_symbol
_atom_site_label
_atom_site_fract_x
_atom_site_fract_y
_atom_site_fract_z
Si Si1 0.865961 0.483857 0.647539
Si Si2 0.500000 0.365631 0.750000
Si Si3 0.188662 0.775244 0.655177
Si Si4 0.113222 0.856325 0.736443
Si Si5 0.639064 0.983953 0.853839
Si Si6 0.118316 0.105431 0.735562
Si Si7 0.684768 0.310021 0.779737
Si Si8 0.000000 0.415081 0.750000
O O1 0.750000 0.500000 0.629332
O O2 0.918641 0.493531 0.379935
O O3 0.895122 0.439219 0.701688
O O4 0.595602 0.339871 0.817628
O O5 0.523740 0.390568 0.500385
O O6 0.221297 0.778849 0.360589
O O7 0.112329 0.810027 0.708949
O O8 0.138353 0.733276 0.699202
O O9 0.166628 0.877697 0.496634
O O10 0.000000 0.871301 0.750000
O O11 0.165383 0.870109 0.999869
O O12 0.645012 0.938976 0.798305
O O13 0.750000 0.000000 0.911741
O O14 0.582552 0.005798 0.620178
O O15 0.000000 0.112110 0.750000
O O16 0.734367 0.316567 0.503822
#
# Coordination Sequence:
#
# PCOD8223196 Si02
#       8
#     8   4   8   8   8   8   8   4
#     4  10  21  41  65  94 132 182 226 290 361 407
#     4  12  26  45  70 108 138 194 234 286 360 393
#     4  10  21  40  63  95 126 165 210 252 312 378
#     4  10  21  38  60  90 120 154 194 245 307 368
#     4  10  21  38  53  76 104 144 190 229 284 360
#     4  10  21  38  57  82 117 147 189 250 300 352
#     4  10  23  46  69  97 143 181 229 286 332 416
#     4  12  24  43  66 104 142 172 248 296 332 437
#
# _framework density 23.179618999999999
#
# number of rings (size 3 to 8) (size 9 to 14) (size 15 to 20)
#    0.000    1.714    0.000    3.857    1.000    0.571 
#   30.857    0.000    0.000    0.000    0.000    0.000 
#    0.000    0.000    0.000    0.000    0.000    0.000 
#
# Total GULP energy -693808.408293 kJ/mol
# GULP energy per Si atom -12389.435862 kJ/mol
# Density = 2.312686 g / cm^3
# Si number density = 23.179619 Si / 1000 Ang^3
#
#
#
# Elastic Constant Matrix: (Units=GPa)
#
#
# Indices 1 2 3 4 5 6 
#
# 1 51.4475 23.5138 9.4970 0.0000 0.0000 0.0000
# 2 23.5138 152.9837 59.4860 0.0000 0.0000 0.0000
# 3 9.4970 59.4860 206.4473 0.0000 0.0000 0.0000
# 4 0.0000 0.0000 0.0000 43.5818 0.0000 0.0000
# 5 0.0000 0.0000 0.0000 0.0000 0.6940 0.0000
# 6 0.0000 0.0000 0.0000 0.0000 0.0000 40.2939
#
#
#
# Elastic Compliance Matrix: (Units=1/GPa)
#
#
# Indices 1 2 3 4 5 6 
#
# 1 0.020906 -0.003198 -0.000040 0.000000 0.000000 0.000000
# 2 -0.003198 0.007850 -0.002115 0.000000 0.000000 0.000000
# 3 -0.000040 -0.002115 0.005455 0.000000 0.000000 0.000000
# 4 0.000000 0.000000 0.000000 0.022945 0.000000 0.000000
# 5 0.000000 0.000000 0.000000 0.000000 1.440925 0.000000
# 6 0.000000 0.000000 0.000000 0.000000 0.000000 0.024818
#
#
# Mechanical properties :
#
#
# Convention : Reuss Voigt Hill
#
# Bulk Modulus (GPa) = 42.54242 66.20801 54.37521
# Shear Modulus (GPa) = 3.24372 38.13939 20.69155
#
# Velocity S-wave (km/s) = 1.18424 4.06073 2.99099
# Velocity P-wave (km/s) = 4.50146 7.11415 5.95291
#
# Compressibility (1/GPa) = 0.02350595
#
# Stress axis : x y z
#
# Youngs Moduli (GPa) = 47.83268 127.38043 183.31419
#
# Poissons Ratio (x) = 0.40731 0.00740
# Poissons Ratio (y) = 0.15295 0.38770
# Poissons Ratio (z) = 0.00193 0.26940
#
# Static dielectric constant tensor:
#      x y z
#    x 3.821900 0.000000 0.000000 
#    y 0.000000 4.007170 0.000000 
#    z 0.000000 0.000000 5.229220 
# 
# 
# High freq. dielectric constant tensor:
#      x y z
#    x 1.904490 0.000000 0.000000 
#    y 0.000000 1.912110 0.000000 
#    z 0.000000 0.000000 1.957150 
# 
# From -- ./inp_files/777.got.cif
#   From: 2010.03.12/outbox.cif.g09.slc.cpg/sg54_1_cif.got.tgz:777.got - 2010.04.16 15:00:50.
