data_PCOD8223528
_publ_section_title
;
Structure prediction by ZEFSAII (Michael W. Deem and Ramdas Pophale) SiO2 
 PCOD8223528
Probable space group: P C C A
;
_chemical_formula_sum "Si O2"
_cell_formula_units_Z 48
_cell_length_a 13.092791
_cell_length_b 9.511248
_cell_length_c 18.093407
_cell_angle_alpha 90.000000
_cell_angle_beta 90.000000
_cell_angle_gamma 90.000000
_cell_volume 2253.149940
_symmetry_space_group_name_H-M "P C C A"
_symmetry_group_IT_number 54
_symmetry_cell_setting 'orthorhombic'
loop_
_space_group_symop_operation_xyz
x,y,z
1/2-x,-y,z
1/2+x,-y,1/2-z
-x,y,1/2-z
-x,-y,-z
1/2+x,y,-z
1/2-x,y,1/2+z
x,-y,1/2+z
loop_
_atom_site_type_symbol
_atom_site_label
_atom_site_fract_x
_atom_site_fract_y
_atom_site_fract_z
Si Si1 0.427993 0.252215 0.682889
Si Si2 0.401178 0.409119 0.993889
Si Si3 0.359156 0.452577 0.155646
Si Si4 0.250000 0.500000 0.372873
Si Si5 0.218116 0.745067 0.259546
Si Si6 0.250000 0.000000 0.856496
Si Si7 0.449950 0.107637 0.942142
O O1 0.500000 0.214445 0.750000
O O2 0.440688 0.419941 0.663517
O O3 0.311751 0.220783 0.704059
O O4 0.462906 0.150195 0.616933
O O5 0.346393 0.482289 0.925621
O O6 0.422280 0.246148 0.986237
O O7 0.500000 0.500000 0.000000
O O8 0.340352 0.413922 0.070911
O O9 0.250000 0.500000 0.189358
O O10 0.377921 0.315578 0.209547
O O11 0.246174 0.638371 0.324474
O O12 0.193792 0.887043 0.303550
O O13 0.156407 0.945336 0.906625
O O14 0.500000 0.000000 0.000000
#
# Coordination Sequence:
#
# PCOD8223528 Si02
#       7
#     8   8   8   4   8   4   8
#     4  11  20  44  70  98 138 183 238 302 356 418
#     4  12  25  42  72 104 140 188 236 301 358 428
#     4  10  22  40  69 104 132 173 241 297 352 415
#     4  12  22  44  72 108 134 182 248 294 356 426
#     4  11  24  42  75 101 135 194 239 298 366 432
#     4  12  26  48  70 104 154 196 238 300 380 442
#     4  12  29  46  70 106 150 199 236 295 373 450
#
# _framework density 21.303508999999998
#
# number of rings (size 3 to 8) (size 9 to 14) (size 15 to 20)
#    0.000    0.667    8.333    0.000    2.333    4.000 
#    0.000    0.000    0.000    0.000    0.000    0.000 
#    0.000    0.000    0.000    0.000    0.000    0.000 
#
# Total GULP energy -594735.068179 kJ/mol
# GULP energy per Si atom -12390.313920 kJ/mol
# Density = 2.125502 g / cm^3
# Si number density = 21.303509 Si / 1000 Ang^3
#
#
#
# Elastic Constant Matrix: (Units=GPa)
#
#
# Indices 1 2 3 4 5 6 
#
# 1 76.3343 49.0590 42.9654 0.0000 0.0000 0.0000
# 2 49.0590 140.0456 63.7726 0.0000 0.0000 0.0000
# 3 42.9654 63.7726 152.9349 0.0000 0.0000 0.0000
# 4 0.0000 0.0000 0.0000 50.4146 0.0000 0.0000
# 5 0.0000 0.0000 0.0000 0.0000 19.2895 0.0000
# 6 0.0000 0.0000 0.0000 0.0000 0.0000 30.1430
#
#
#
# Elastic Compliance Matrix: (Units=1/GPa)
#
#
# Indices 1 2 3 4 5 6 
#
# 1 0.017949 -0.004927 -0.002988 0.000000 0.000000 0.000000
# 2 -0.004927 0.010167 -0.002855 0.000000 0.000000 0.000000
# 3 -0.002988 -0.002855 0.008569 0.000000 0.000000 0.000000
# 4 0.000000 0.000000 0.000000 0.019836 0.000000 0.000000
# 5 0.000000 0.000000 0.000000 0.000000 0.051842 0.000000
# 6 0.000000 0.000000 0.000000 0.000000 0.000000 0.033175
#
#
# Mechanical properties :
#
#
# Convention : Reuss Voigt Hill
#
# Bulk Modulus (GPa) = 66.03386 75.65654 70.84520
# Shear Modulus (GPa) = 29.73984 34.20392 31.97188
#
# Velocity S-wave (km/s) = 3.74037 4.01128 3.87819
# Velocity P-wave (km/s) = 7.05109 7.55279 7.30624
#
# Compressibility (1/GPa) = 0.01514375
#
# Stress axis : x y z
#
# Youngs Moduli (GPa) = 55.71490 98.36079 116.70259
#
# Poissons Ratio (x) = 0.48461 0.34871
# Poissons Ratio (y) = 0.27450 0.33322
# Poissons Ratio (z) = 0.16648 0.28085
#
# Static dielectric constant tensor:
#      x y z
#    x 3.767020 0.000000 0.000000 
#    y 0.000000 4.202480 0.000000 
#    z 0.000000 0.000000 4.547600 
# 
# 
# High freq. dielectric constant tensor:
#      x y z
#    x 1.816150 0.000000 0.000000 
#    y 0.000000 1.838840 0.000000 
#    z 0.000000 0.000000 1.862250 
# 
# From -- ./inp_files/18092.got.cif
#   From: 2010.03.12/outbox.cif.g09.slc.cpg/sg54_10_cif.got.tgz:18092.got - 2010.04.16 15:00:50.
