data_PCOD8223503
_publ_section_title
;
Structure prediction by ZEFSAII (Michael W. Deem and Ramdas Pophale) SiO2 
 PCOD8223503
Probable space group: P C C A
;
_chemical_formula_sum "Si O2"
_cell_formula_units_Z 20
_cell_length_a 4.886446
_cell_length_b 7.765331
_cell_length_c 22.441358
_cell_angle_alpha 90.000000
_cell_angle_beta 90.000000
_cell_angle_gamma 90.000000
_cell_volume 851.534425
_symmetry_space_group_name_H-M "P C C A"
_symmetry_group_IT_number 54
_symmetry_cell_setting 'orthorhombic'
loop_
_space_group_symop_operation_xyz
x,y,z
1/2-x,-y,z
1/2+x,-y,1/2-z
-x,y,1/2-z
-x,-y,-z
1/2+x,y,-z
1/2-x,y,1/2+z
x,-y,1/2+z
loop_
_atom_site_type_symbol
_atom_site_label
_atom_site_fract_x
_atom_site_fract_y
_atom_site_fract_z
Si Si1 0.500000 0.619158 0.250000
Si Si2 0.755791 0.302364 0.538886
Si Si3 0.486966 0.112249 0.849230
O O1 0.250000 0.500000 0.269099
O O2 0.415131 0.734893 0.193618
O O3 0.750000 0.500000 0.560209
O O4 0.565435 0.264203 0.481356
O O5 0.664563 0.181439 0.592211
O O6 0.250000 0.000000 0.815996
O O7 0.750000 0.000000 0.866736
#
# Coordination Sequence:
#
# PCOD8223503 Si02
#       3
#     4   8   8
#     4  12  26  46  70  92 124 170 218 260 316 388
#     4  10  22  40  63  92 129 172 215 256 307 378
#     4  12  25  42  66  97 132 164 209 269 325 375
#
# _framework density 23.487015
#
# number of rings (size 3 to 8) (size 9 to 14) (size 15 to 20)
#    0.000    0.800    0.000    7.200    0.000    9.600 
#    0.000    0.000    0.000    0.000    0.000    0.000 
#    0.000    0.000    0.000    0.000    0.000    0.000 
#
# Total GULP energy -248095.888683 kJ/mol
# GULP energy per Si atom -12404.794434 kJ/mol
# Density = 2.343356 g / cm^3
# Si number density = 23.487015 Si / 1000 Ang^3
#
#
#
# Elastic Constant Matrix: (Units=GPa)
#
#
# Indices 1 2 3 4 5 6 
#
# 1 127.8208 49.6450 4.6438 0.0000 0.0000 0.0000
# 2 49.6450 122.0054 46.7711 0.0000 0.0000 0.0000
# 3 4.6438 46.7711 73.1625 0.0000 0.0000 0.0000
# 4 0.0000 0.0000 0.0000 24.5295 0.0000 0.0000
# 5 0.0000 0.0000 0.0000 0.0000 23.7702 0.0000
# 6 0.0000 0.0000 0.0000 0.0000 0.0000 51.2061
#
#
#
# Elastic Compliance Matrix: (Units=1/GPa)
#
#
# Indices 1 2 3 4 5 6 
#
# 1 0.009627 -0.004879 0.002508 0.000000 0.000000 0.000000
# 2 -0.004879 0.013329 -0.008212 0.000000 0.000000 0.000000
# 3 0.002508 -0.008212 0.018759 0.000000 0.000000 0.000000
# 4 0.000000 0.000000 0.000000 0.040767 0.000000 0.000000
# 5 0.000000 0.000000 0.000000 0.000000 0.042070 0.000000
# 6 0.000000 0.000000 0.000000 0.000000 0.000000 0.019529
#
#
# Mechanical properties :
#
#
# Convention : Reuss Voigt Hill
#
# Bulk Modulus (GPa) = 48.66136 58.34538 53.50337
# Shear Modulus (GPa) = 29.05355 34.69643 31.87499
#
# Velocity S-wave (km/s) = 3.52092 3.84768 3.68792
# Velocity P-wave (km/s) = 6.10677 6.68095 6.40030
#
# Compressibility (1/GPa) = 0.02055019
#
# Stress axis : x y z
#
# Youngs Moduli (GPa) = 103.87193 75.02158 53.30917
#
# Poissons Ratio (x) = 0.36601 -0.13369
# Poissons Ratio (y) = 0.50677 0.43775
# Poissons Ratio (z) = -0.26049 0.61605
#
# Static dielectric constant tensor:
#      x y z
#    x 4.323850 0.000000 0.000000 
#    y 0.000000 4.524390 0.000000 
#    z 0.000000 0.000000 3.837400 
# 
# 
# High freq. dielectric constant tensor:
#      x y z
#    x 1.946480 0.000000 0.000000 
#    y 0.000000 1.947200 0.000000 
#    z 0.000000 0.000000 1.915870 
# 
# From -- ./inp_files/15479.got.cif
#   From: 2010.03.12/outbox.cif.g09.slc.cpg/sg54_8_cif.got.tgz:15479.got - 2010.04.16 15:00:50.
