data_PCOD8223843
_publ_section_title
;
Structure prediction by ZEFSAII (Michael W. Deem and Ramdas Pophale) SiO2 
 PCOD8223843
Probable space group: P C C A
;
_chemical_formula_sum "Si O2"
_cell_formula_units_Z 36
_cell_length_a 19.173396
_cell_length_b 7.899771
_cell_length_c 9.302107
_cell_angle_alpha 90.000000
_cell_angle_beta 90.000000
_cell_angle_gamma 90.000000
_cell_volume 1408.947708
_symmetry_space_group_name_H-M "P C C A"
_symmetry_group_IT_number 54
_symmetry_cell_setting 'orthorhombic'
loop_
_space_group_symop_operation_xyz
x,y,z
1/2-x,-y,z
1/2+x,-y,1/2-z
-x,y,1/2-z
-x,-y,-z
1/2+x,y,-z
1/2-x,y,1/2+z
x,-y,1/2+z
loop_
_atom_site_type_symbol
_atom_site_label
_atom_site_fract_x
_atom_site_fract_y
_atom_site_fract_z
Si Si1 0.662992 0.810928 0.431277
Si Si2 0.605602 0.815240 0.943354
Si Si3 0.616936 0.405416 0.716654
Si Si4 0.000000 0.666370 0.250000
Si Si5 0.282248 0.687387 0.771734
O O1 0.605578 0.670258 0.379786
O O2 0.701913 0.779324 0.579476
O O3 0.716997 0.787992 0.298259
O O4 0.626549 0.990218 0.439107
O O5 0.528220 0.788182 0.876962
O O6 0.656342 0.706500 0.844038
O O7 0.608180 0.747086 0.104622
O O8 0.561144 0.550520 0.682841
O O9 0.698720 0.479461 0.701731
#
# Coordination Sequence:
#
# PCOD8223843 Si02
#       5
#     8   8   8   4   8
#     4  12  25  43  70 106 142 181 230 290 351 412
#     4  11  24  44  70 102 140 183 231 290 348 406
#     4  11  24  46  72 101 139 187 233 283 345 419
#     4  10  24  46  72 100 136 186 242 288 342 416
#     4  11  24  43  67 102 142 183 228 281 350 424
#
# _framework density 25.550985000000001
#
# number of rings (size 3 to 8) (size 9 to 14) (size 15 to 20)
#    0.000    0.889    0.000    7.333    0.000    6.222 
#    0.000    6.667    0.000    0.000    0.000    0.000 
#    0.000    0.000    0.000    0.000    0.000    0.000 
#
# Total GULP energy -446025.251886 kJ/mol
# GULP energy per Si atom -12389.590330 kJ/mol
# Density = 2.549283 g / cm^3
# Si number density = 25.550985 Si / 1000 Ang^3
#
#
#
# Elastic Constant Matrix: (Units=GPa)
#
#
# Indices 1 2 3 4 5 6 
#
# 1 92.3360 53.1331 21.5336 0.0000 0.0000 0.0000
# 2 53.1331 177.2965 42.5899 0.0000 0.0000 0.0000
# 3 21.5336 42.5899 120.8053 0.0000 0.0000 0.0000
# 4 0.0000 0.0000 0.0000 39.6572 0.0000 0.0000
# 5 0.0000 0.0000 0.0000 0.0000 36.2574 0.0000
# 6 0.0000 0.0000 0.0000 0.0000 0.0000 2.2555
#
#
#
# Elastic Compliance Matrix: (Units=1/GPa)
#
#
# Indices 1 2 3 4 5 6 
#
# 1 0.013207 -0.003706 -0.001047 0.000000 0.000000 0.000000
# 2 -0.003706 0.007202 -0.001878 0.000000 0.000000 0.000000
# 3 -0.001047 -0.001878 0.009127 0.000000 0.000000 0.000000
# 4 0.000000 0.000000 0.000000 0.025216 0.000000 0.000000
# 5 0.000000 0.000000 0.000000 0.000000 0.027581 0.000000
# 6 0.000000 0.000000 0.000000 0.000000 0.000000 0.443360
#
#
# Mechanical properties :
#
#
# Convention : Reuss Voigt Hill
#
# Bulk Modulus (GPa) = 61.45749 69.43902 65.44826
# Shear Modulus (GPa) = 9.18474 33.84611 21.51542
#
# Velocity S-wave (km/s) = 1.89802 3.64352 2.90497
# Velocity P-wave (km/s) = 5.37665 6.70343 6.07636
#
# Compressibility (1/GPa) = 0.01627141
#
# Stress axis : x y z
#
# Youngs Moduli (GPa) = 75.71722 138.84553 109.56786
#
# Poissons Ratio (x) = 0.51461 0.11477
# Poissons Ratio (y) = 0.28063 0.20582
# Poissons Ratio (z) = 0.07931 0.26082
#
# Static dielectric constant tensor:
#      x y z
#    x 5.507440 0.000000 0.000000 
#    y 0.000000 4.786020 0.000000 
#    z 0.000000 0.000000 4.698400 
# 
# 
# High freq. dielectric constant tensor:
#      x y z
#    x 2.042900 0.000000 0.000000 
#    y 0.000000 2.039500 0.000000 
#    z 0.000000 0.000000 2.027200 
# 
# From -- ./inp_files/4560.got.cif
#   From: 2010.03.12/outbox.cif.g09.slc.cpg/sg54_3_cif.got.tgz:4560.got - 2010.04.16 15:00:50.
