data_PCOD8223517
_publ_section_title
;
Structure prediction by ZEFSAII (Michael W. Deem and Ramdas Pophale) SiO2 
 PCOD8223517
Probable space group: P C C A
;
_chemical_formula_sum "Si O2"
_cell_formula_units_Z 48
_cell_length_a 5.285321
_cell_length_b 26.217370
_cell_length_c 16.512108
_cell_angle_alpha 90.000000
_cell_angle_beta 90.000000
_cell_angle_gamma 90.000000
_cell_volume 2288.036840
_symmetry_space_group_name_H-M "P C C A"
_symmetry_group_IT_number 54
_symmetry_cell_setting 'orthorhombic'
loop_
_space_group_symop_operation_xyz
x,y,z
1/2-x,-y,z
1/2+x,-y,1/2-z
-x,y,1/2-z
-x,-y,-z
1/2+x,y,-z
1/2-x,y,1/2+z
x,-y,1/2+z
loop_
_atom_site_type_symbol
_atom_site_label
_atom_site_fract_x
_atom_site_fract_y
_atom_site_fract_z
Si Si1 0.857658 0.302920 0.829043
Si Si2 0.277655 0.610619 0.054535
Si Si3 0.500000 0.222180 0.750000
Si Si4 0.351520 0.143842 0.330792
Si Si5 0.250000 0.500000 0.052101
Si Si6 0.760707 0.941417 0.550971
Si Si7 0.999954 0.224453 0.947607
O O1 0.714711 0.349495 0.872000
O O2 0.672806 0.257611 0.804453
O O3 0.044636 0.274745 0.891727
O O4 0.000000 0.324633 0.750000
O O5 0.260831 0.554468 0.098685
O O6 0.533563 0.618164 0.003017
O O7 0.640666 0.185873 0.687167
O O8 0.500000 0.128337 0.250000
O O9 0.234723 0.092348 0.367759
O O10 0.525106 0.171694 0.397383
O O11 0.500000 0.500000 0.000000
O O12 0.515360 0.928569 0.497464
O O13 0.750000 0.000000 0.578968
O O14 0.734717 0.226522 0.992832
#
# Coordination Sequence:
#
# PCOD8223517 Si02
#       7
#     8   8   4   8   4   8   8
#     4  12  25  41  61  90 135 176 212 272 328 385
#     4  10  22  40  67  97 124 168 221 270 324 387
#     4  12  24  44  62  88 142 174 218 256 330 382
#     4  12  25  43  66  98 131 177 212 268 327 392
#     4   8  16  36  64  92 124 156 210 274 320 376
#     4  10  24  48  73 101 132 168 216 271 325 382
#     4  12  24  40  63  91 123 167 221 262 309 377
#
# _framework density 20.978686
#
# number of rings (size 3 to 8) (size 9 to 14) (size 15 to 20)
#    0.000    1.000    3.333    3.000    4.667    0.000 
#    1.500    0.000    1.833    0.000    0.000    0.000 
#    0.000    0.000    0.000    0.000    0.000    0.000 
#
# Total GULP energy -594959.096267 kJ/mol
# GULP energy per Si atom -12394.981172 kJ/mol
# Density = 2.093094 g / cm^3
# Si number density = 20.978686 Si / 1000 Ang^3
#
#
#
# Elastic Constant Matrix: (Units=GPa)
#
#
# Indices 1 2 3 4 5 6 
#
# 1 107.0705 21.6093 26.6274 0.0000 0.0000 0.0000
# 2 21.6093 142.9184 58.6037 0.0000 0.0000 0.0000
# 3 26.6274 58.6037 100.4828 0.0000 0.0000 0.0000
# 4 0.0000 0.0000 0.0000 47.1690 0.0000 0.0000
# 5 0.0000 0.0000 0.0000 0.0000 14.0937 0.0000
# 6 0.0000 0.0000 0.0000 0.0000 0.0000 17.0321
#
#
#
# Elastic Compliance Matrix: (Units=1/GPa)
#
#
# Indices 1 2 3 4 5 6 
#
# 1 0.010033 -0.000561 -0.002331 0.000000 0.000000 0.000000
# 2 -0.000561 0.009228 -0.005233 0.000000 0.000000 0.000000
# 3 -0.002331 -0.005233 0.013622 0.000000 0.000000 0.000000
# 4 0.000000 0.000000 0.000000 0.021200 0.000000 0.000000
# 5 0.000000 0.000000 0.000000 0.000000 0.070954 0.000000
# 6 0.000000 0.000000 0.000000 0.000000 0.000000 0.058713
#
#
# Mechanical properties :
#
#
# Convention : Reuss Voigt Hill
#
# Bulk Modulus (GPa) = 60.12814 62.68360 61.40587
# Shear Modulus (GPa) = 24.32574 31.90105 28.11340
#
# Velocity S-wave (km/s) = 3.40890 3.90377 3.66470
# Velocity P-wave (km/s) = 6.64966 7.08969 6.87320
#
# Compressibility (1/GPa) = 0.01663115
#
# Stress axis : x y z
#
# Youngs Moduli (GPa) = 99.67449 108.36996 73.41153
#
# Poissons Ratio (x) = 0.06079 0.17116
# Poissons Ratio (y) = 0.05591 0.38417
# Poissons Ratio (z) = 0.23239 0.56711
#
# Static dielectric constant tensor:
#      x y z
#    x 4.001250 0.000000 0.000000 
#    y 0.000000 4.576030 0.000000 
#    z 0.000000 0.000000 11.492880 
# 
# 
# High freq. dielectric constant tensor:
#      x y z
#    x 1.834410 0.000000 0.000000 
#    y 0.000000 1.836510 0.000000 
#    z 0.000000 0.000000 1.805580 
# 
# From -- ./inp_files/10928.got.cif
#   From: 2010.03.12/outbox.cif.g09.slc.cpg/sg54_6_cif.got.tgz:10928.got - 2010.04.16 15:00:50.
