data_PCOD8223367
_publ_section_title
;
Structure prediction by ZEFSAII (Michael W. Deem and Ramdas Pophale) SiO2 
 PCOD8223367
Probable space group: P C C A
;
_chemical_formula_sum "Si O2"
_cell_formula_units_Z 40
_cell_length_a 16.828405
_cell_length_b 8.330549
_cell_length_c 12.702745
_cell_angle_alpha 90.000000
_cell_angle_beta 90.000000
_cell_angle_gamma 90.000000
_cell_volume 1780.795947
_symmetry_space_group_name_H-M "P C C A"
_symmetry_group_IT_number 54
_symmetry_cell_setting 'orthorhombic'
loop_
_space_group_symop_operation_xyz
x,y,z
1/2-x,-y,z
1/2+x,-y,1/2-z
-x,y,1/2-z
-x,-y,-z
1/2+x,y,-z
1/2-x,y,1/2+z
x,-y,1/2+z
loop_
_atom_site_type_symbol
_atom_site_label
_atom_site_fract_x
_atom_site_fract_y
_atom_site_fract_z
Si Si1 0.860631 0.799386 0.369736
Si Si2 0.555454 0.902956 0.423546
Si Si3 0.176618 0.413930 0.817770
Si Si4 0.052897 0.626545 0.939839
Si Si5 0.719447 0.832963 0.514131
O O1 0.869854 0.697686 0.264168
O O2 0.899184 0.720020 0.471502
O O3 0.768592 0.816826 0.404642
O O4 0.904173 0.969948 0.342030
O O5 0.503678 0.754459 0.375954
O O6 0.626248 0.829446 0.491792
O O7 0.500000 0.000000 0.500000
O O8 0.250000 0.500000 0.757636
O O9 0.111737 0.539327 0.859583
O O10 0.226305 0.315443 0.906192
O O11 0.000000 0.500000 0.000000
O O12 0.750000 0.000000 0.568235
#
# Coordination Sequence:
#
# PCOD8223367 Si02
#       5
#     8   8   8   8   8
#     4  10  24  43  68  96 138 187 232 277 348 429
#     4   9  20  42  71  94 132 184 222 282 356 413
#     4  12  25  40  71 107 136 181 244 293 345 420
#     4  11  22  42  71  98 141 176 223 298 359 404
#     4  10  21  42  68  94 140 184 227 286 347 419
#
# _framework density 22.461867000000002
#
# number of rings (size 3 to 8) (size 9 to 14) (size 15 to 20)
#    0.000    1.600    4.000    0.000    2.800    3.200 
#    0.000    0.000   17.600    0.000    0.000    0.000 
#    0.000    0.000    0.000    0.000    0.000    0.000 
#
# Total GULP energy -495555.212214 kJ/mol
# GULP energy per Si atom -12388.880305 kJ/mol
# Density = 2.241074 g / cm^3
# Si number density = 22.461867 Si / 1000 Ang^3
#
#
#
# Elastic Constant Matrix: (Units=GPa)
#
#
# Indices 1 2 3 4 5 6 
#
# 1 143.4962 67.8233 37.5934 0.0000 0.0000 0.0000
# 2 67.8233 155.4467 53.1965 0.0000 0.0000 0.0000
# 3 37.5934 53.1965 71.8009 0.0000 0.0000 0.0000
# 4 0.0000 0.0000 0.0000 32.1788 0.0000 0.0000
# 5 0.0000 0.0000 0.0000 0.0000 15.1071 0.0000
# 6 0.0000 0.0000 0.0000 0.0000 0.0000 57.3870
#
#
#
# Elastic Compliance Matrix: (Units=1/GPa)
#
#
# Indices 1 2 3 4 5 6 
#
# 1 0.009087 -0.003130 -0.002439 0.000000 0.000000 0.000000
# 2 -0.003130 0.009696 -0.005545 0.000000 0.000000 0.000000
# 3 -0.002439 -0.005545 0.019312 0.000000 0.000000 0.000000
# 4 0.000000 0.000000 0.000000 0.031076 0.000000 0.000000
# 5 0.000000 0.000000 0.000000 0.000000 0.066194 0.000000
# 6 0.000000 0.000000 0.000000 0.000000 0.000000 0.017426
#
#
# Mechanical properties :
#
#
# Convention : Reuss Voigt Hill
#
# Bulk Modulus (GPa) = 63.01929 76.44114 69.73021
# Shear Modulus (GPa) = 27.73004 35.07660 31.40332
#
# Velocity S-wave (km/s) = 3.51741 3.95600 3.74314
# Velocity P-wave (km/s) = 6.67932 7.41431 7.05639
#
# Compressibility (1/GPa) = 0.01586816
#
# Stress axis : x y z
#
# Youngs Moduli (GPa) = 110.04419 103.13014 51.77994
#
# Poissons Ratio (x) = 0.32283 0.12627
# Poissons Ratio (y) = 0.34447 0.28712
# Poissons Ratio (z) = 0.26836 0.57186
#
# Static dielectric constant tensor:
#      x y z
#    x 4.464320 0.000000 0.000000 
#    y 0.000000 4.710870 0.000000 
#    z 0.000000 0.000000 3.349320 
# 
# 
# High freq. dielectric constant tensor:
#      x y z
#    x 1.912820 0.000000 0.000000 
#    y 0.000000 1.913430 0.000000 
#    z 0.000000 0.000000 1.829340 
# 
# From -- ./inp_files/8717.got.cif
#   From: 2010.03.12/outbox.cif.g09.slc.cpg/sg54_5_cif.got.tgz:8717.got - 2010.04.16 15:00:50.
