data_PCOD8223820
_publ_section_title
;
Structure prediction by ZEFSAII (Michael W. Deem and Ramdas Pophale) SiO2 
 PCOD8223820
Probable space group: P C C A
;
_chemical_formula_sum "Si O2"
_cell_formula_units_Z 40
_cell_length_a 7.982141
_cell_length_b 8.834161
_cell_length_c 23.180407
_cell_angle_alpha 90.000000
_cell_angle_beta 90.000000
_cell_angle_gamma 90.000000
_cell_volume 1634.578424
_symmetry_space_group_name_H-M "P C C A"
_symmetry_group_IT_number 54
_symmetry_cell_setting 'orthorhombic'
loop_
_space_group_symop_operation_xyz
x,y,z
1/2-x,-y,z
1/2+x,-y,1/2-z
-x,y,1/2-z
-x,-y,-z
1/2+x,y,-z
1/2-x,y,1/2+z
x,-y,1/2+z
loop_
_atom_site_type_symbol
_atom_site_label
_atom_site_fract_x
_atom_site_fract_y
_atom_site_fract_z
Si Si1 0.888132 0.388091 0.798641
Si Si2 0.914574 0.595894 0.094131
Si Si3 0.726568 0.821749 0.015516
Si Si4 0.646245 0.853612 0.296331
Si Si5 0.413771 0.706981 0.081096
O O1 0.750000 0.500000 0.826098
O O2 0.788123 0.252367 0.767287
O O3 0.000000 0.471621 0.750000
O O4 0.007395 0.326158 0.849095
O O5 0.750000 0.500000 0.110984
O O6 0.872858 0.730110 0.049956
O O7 0.051138 0.471862 0.072653
O O8 0.548872 0.799720 0.044434
O O9 0.750000 0.000000 0.015718
O O10 0.736926 0.752823 0.949869
O O11 0.500000 0.887585 0.250000
O O12 0.577577 0.764969 0.352876
O O13 0.750000 0.000000 0.315550
#
# Coordination Sequence:
#
# PCOD8223820 Si02
#       5
#     8   8   8   8   8
#     4  12  25  43  75 102 145 190 252 304 376 441
#     4  10  24  44  69 108 144 195 249 312 371 446
#     4  11  25  42  73 103 146 192 247 302 378 440
#     4  12  29  50  73 109 148 194 247 308 382 453
#     4  11  25  46  70 105 148 192 250 305 370 456
#
# _framework density 24.471139999999998
#
# number of rings (size 3 to 8) (size 9 to 14) (size 15 to 20)
#    0.000    0.800    2.000    3.600   11.200    0.800 
#    0.000    0.000    0.000    0.000    0.000    0.000 
#    0.000    0.000    0.000    0.000    0.000    0.000 
#
# Total GULP energy -495689.540850 kJ/mol
# GULP energy per Si atom -12392.238521 kJ/mol
# Density = 2.441544 g / cm^3
# Si number density = 24.471140 Si / 1000 Ang^3
#
#
#
# Elastic Constant Matrix: (Units=GPa)
#
#
# Indices 1 2 3 4 5 6 
#
# 1 74.8811 25.6998 41.2256 0.0000 0.0000 0.0000
# 2 25.6998 143.6979 27.7598 0.0000 0.0000 0.0000
# 3 41.2256 27.7598 136.8937 0.0000 0.0000 0.0000
# 4 0.0000 0.0000 0.0000 26.2160 0.0000 0.0000
# 5 0.0000 0.0000 0.0000 0.0000 42.7312 0.0000
# 6 0.0000 0.0000 0.0000 0.0000 0.0000 37.8445
#
#
#
# Elastic Compliance Matrix: (Units=1/GPa)
#
#
# Indices 1 2 3 4 5 6 
#
# 1 0.016587 -0.002083 -0.004573 0.000000 0.000000 0.000000
# 2 -0.002083 0.007504 -0.000894 0.000000 0.000000 0.000000
# 3 -0.004573 -0.000894 0.008863 0.000000 0.000000 0.000000
# 4 0.000000 0.000000 0.000000 0.038145 0.000000 0.000000
# 5 0.000000 0.000000 0.000000 0.000000 0.023402 0.000000
# 6 0.000000 0.000000 0.000000 0.000000 0.000000 0.026424
#
#
# Mechanical properties :
#
#
# Convention : Reuss Voigt Hill
#
# Bulk Modulus (GPa) = 56.00950 60.53815 58.27382
# Shear Modulus (GPa) = 35.21687 38.74418 36.98052
#
# Velocity S-wave (km/s) = 3.79769 3.98334 3.89162
# Velocity P-wave (km/s) = 6.49366 6.77851 6.63761
#
# Compressibility (1/GPa) = 0.01785412
#
# Stress axis : x y z
#
# Youngs Moduli (GPa) = 60.28829 133.25528 112.82357
#
# Poissons Ratio (x) = 0.27759 0.51591
# Poissons Ratio (y) = 0.12559 0.10091
# Poissons Ratio (z) = 0.27568 0.11919
#
# Static dielectric constant tensor:
#      x y z
#    x 4.979370 0.000000 0.000000 
#    y 0.000000 4.572880 0.000000 
#    z 0.000000 0.000000 4.336230 
# 
# 
# High freq. dielectric constant tensor:
#      x y z
#    x 1.994450 0.000000 0.000000 
#    y 0.000000 1.971560 0.000000 
#    z 0.000000 0.000000 1.971000 
# 
# From -- ./inp_files/23237.got.cif
#   From: 2010.03.12/outbox.cif.g09.slc.cpg/sg54_12_cif.got.tgz:23237.got - 2010.04.16 15:00:50.
