data_PCOD8223855
_publ_section_title
;
Structure prediction by ZEFSAII (Michael W. Deem and Ramdas Pophale) SiO2 
 PCOD8223855
Probable space group: P C C A
;
_chemical_formula_sum "Si O2"
_cell_formula_units_Z 48
_cell_length_a 5.293216
_cell_length_b 26.650140
_cell_length_c 16.902436
_cell_angle_alpha 90.000000
_cell_angle_beta 90.000000
_cell_angle_gamma 90.000000
_cell_volume 2384.341246
_symmetry_space_group_name_H-M "P C C A"
_symmetry_group_IT_number 54
_symmetry_cell_setting 'orthorhombic'
loop_
_space_group_symop_operation_xyz
x,y,z
1/2-x,-y,z
1/2+x,-y,1/2-z
-x,y,1/2-z
-x,-y,-z
1/2+x,y,-z
1/2-x,y,1/2+z
x,-y,1/2+z
loop_
_atom_site_type_symbol
_atom_site_label
_atom_site_fract_x
_atom_site_fract_y
_atom_site_fract_z
Si Si1 0.262978 0.942048 0.549132
Si Si2 0.000000 0.214079 0.750000
Si Si3 0.475708 0.791745 0.449060
Si Si4 0.347099 0.286562 0.831878
Si Si5 0.249935 0.607042 0.302327
Si Si6 0.133993 0.864849 0.673380
Si Si7 0.750000 0.500000 0.697606
O O1 0.511584 0.928432 0.499591
O O2 0.279044 0.909747 0.629331
O O3 0.250000 0.000000 0.574076
O O4 0.888716 0.249911 0.681962
O O5 0.808092 0.179851 0.797013
O O6 0.240900 0.797790 0.507023
O O7 0.493798 0.737415 0.405947
O O8 0.440125 0.837192 0.386100
O O9 0.500000 0.287950 0.750000
O O10 0.263249 0.343186 0.857090
O O11 0.500000 0.605815 0.250000
O O12 0.242815 0.553339 0.350811
O O13 0.000000 0.612649 0.250000
O O14 0.000000 0.889105 0.750000
O O15 0.500000 0.499967 0.750000
#
# Coordination Sequence:
#
# PCOD8223855 Si02
#       7
#     8   4   8   8   8   8   4
#     4  10  24  48  71  94 125 162 200 243 298 354
#     4  12  20  38  60  86 128 152 202 240 300 346
#     4  12  25  39  58  85 121 159 199 241 291 356
#     4  11  21  37  57  83 117 161 199 245 301 355
#     4   9  17  27  50  74 108 147 185 242 299 353
#     4  12  25  40  64  94 121 162 198 250 295 354
#     4   8  14  26  40  74 106 136 184 236 300 352
#
# _framework density 20.131347999999999
#
# number of rings (size 3 to 8) (size 9 to 14) (size 15 to 20)
#    0.000    1.333    4.167    2.000    2.333    0.000 
#    1.500    0.000    0.000    0.000    0.000    1.167 
#    0.000    0.000    0.000    0.333    0.000    0.000 
#
# Total GULP energy -594676.021132 kJ/mol
# GULP energy per Si atom -12389.083774 kJ/mol
# Density = 2.008553 g / cm^3
# Si number density = 20.131348 Si / 1000 Ang^3
#
#
#
# Elastic Constant Matrix: (Units=GPa)
#
#
# Indices 1 2 3 4 5 6 
#
# 1 114.0663 21.9452 27.9604 0.0000 0.0000 0.0000
# 2 21.9452 142.8186 51.6703 0.0000 0.0000 0.0000
# 3 27.9604 51.6703 84.9660 0.0000 0.0000 0.0000
# 4 0.0000 0.0000 0.0000 -0.2549 0.0000 0.0000
# 5 0.0000 0.0000 0.0000 0.0000 19.1217 0.0000
# 6 0.0000 0.0000 0.0000 0.0000 0.0000 176.5980
#
#
#
# Elastic Compliance Matrix: (Units=1/GPa)
#
#
# Indices 1 2 3 4 5 6 
#
# 1 0.009556 -0.000424 -0.002887 0.000000 0.000000 0.000000
# 2 -0.000424 0.008996 -0.005331 0.000000 0.000000 0.000000
# 3 -0.002887 -0.005331 0.015961 0.000000 0.000000 0.000000
# 4 0.000000 0.000000 0.000000 -3.923389 0.000000 0.000000
# 5 0.000000 0.000000 0.000000 0.000000 0.052297 0.000000
# 6 0.000000 0.000000 0.000000 0.000000 0.000000 0.005663
#
#
# Mechanical properties :
#
#
# Convention : Reuss Voigt Hill
#
# Bulk Modulus (GPa) = 58.04018 60.55586 59.29802
# Shear Modulus (GPa) = -1.31306 55.11130 26.89912
#
# Velocity S-wave (km/s) = -0.80849 5.23787 3.65935
# Velocity P-wave (km/s) = 5.29356 8.16860 6.88287
#
# Compressibility (1/GPa) = 0.01722944
#
# Stress axis : x y z
#
# Youngs Moduli (GPa) = 104.64597 111.16348 62.65112
#
# Poissons Ratio (x) = 0.04712 0.18087
# Poissons Ratio (y) = 0.04436 0.33400
# Poissons Ratio (z) = 0.30210 0.59262
#
# Static dielectric constant tensor:
#      x y z
#    x 3.767970 0.000000 0.000000 
#    y 0.000000 4.534600 0.000000 
#    z 0.000000 0.000000 3.691070 
# 
# 
# High freq. dielectric constant tensor:
#      x y z
#    x 1.801370 0.000000 0.000000 
#    y 0.000000 1.810800 0.000000 
#    z 0.000000 0.000000 1.734690 
# 
# From -- ./inp_files/10937.got.cif
#   From: 2010.03.12/outbox.cif.g09.slc.cpg/sg54_6_cif.got.tgz:10937.got - 2010.04.16 15:00:50.
