data_PCOD8223713
_publ_section_title
;
Structure prediction by ZEFSAII (Michael W. Deem and Ramdas Pophale) SiO2 
 PCOD8223713
Probable space group: P C C A
;
_chemical_formula_sum "Si O2"
_cell_formula_units_Z 48
_cell_length_a 17.776739
_cell_length_b 14.135980
_cell_length_c 8.800690
_cell_angle_alpha 90.000000
_cell_angle_beta 90.000000
_cell_angle_gamma 90.000000
_cell_volume 2211.539709
_symmetry_space_group_name_H-M "P C C A"
_symmetry_group_IT_number 54
_symmetry_cell_setting 'orthorhombic'
loop_
_space_group_symop_operation_xyz
x,y,z
1/2-x,-y,z
1/2+x,-y,1/2-z
-x,y,1/2-z
-x,-y,-z
1/2+x,y,-z
1/2-x,y,1/2+z
x,-y,1/2+z
loop_
_atom_site_type_symbol
_atom_site_label
_atom_site_fract_x
_atom_site_fract_y
_atom_site_fract_z
Si Si1 0.976819 0.277925 0.422208
Si Si2 0.100453 0.611241 0.054659
Si Si3 0.175575 0.457151 0.843042
Si Si4 0.814756 0.739353 0.036509
Si Si5 0.531461 0.092314 0.418871
Si Si6 0.173325 0.802485 0.123303
O O1 0.887727 0.277259 0.433896
O O2 0.000000 0.292459 0.250000
O O3 0.012598 0.366477 0.517434
O O4 0.002545 0.178046 0.483176
O O5 0.134715 0.532585 0.947116
O O6 0.111743 0.577058 0.226726
O O7 0.140485 0.712350 0.033521
O O8 0.250000 0.500000 0.760923
O O9 0.211624 0.368433 0.934846
O O10 0.830242 0.791709 0.195201
O O11 0.758568 0.806443 0.939105
O O12 0.500000 0.097938 0.250000
O O13 0.623251 0.103637 0.415348
O O14 0.500000 0.000000 0.500000
#
# Coordination Sequence:
#
# PCOD8223713 Si02
#       6
#     8   8   8   8   8   8
#     4  11  26  45  68 100 138 187 234 293 365 416
#     4  10  24  39  63  94 135 186 245 292 350 404
#     4  11  22  38  64  98 138 188 246 300 344 409
#     4  11  24  42  69  95 143 186 235 295 343 422
#     4  11  23  48  78 106 136 174 222 285 350 440
#     4  10  23  42  70 101 136 184 233 281 360 414
#
# _framework density 21.704336999999999
#
# number of rings (size 3 to 8) (size 9 to 14) (size 15 to 20)
#    0.000    1.333    3.333    1.000    9.333    0.667 
#    0.000    0.833    0.000    0.000    0.000    0.000 
#    0.000    0.000    0.000    0.000    0.000    0.000 
#
# Total GULP energy -594810.271651 kJ/mol
# GULP energy per Si atom -12391.880659 kJ/mol
# Density = 2.165494 g / cm^3
# Si number density = 21.704337 Si / 1000 Ang^3
#
#
#
# Elastic Constant Matrix: (Units=GPa)
#
#
# Indices 1 2 3 4 5 6 
#
# 1 160.3475 48.3892 62.7637 0.0000 0.0000 0.0000
# 2 48.3892 86.7120 33.5495 0.0000 0.0000 0.0000
# 3 62.7637 33.5495 101.4034 0.0000 0.0000 0.0000
# 4 0.0000 0.0000 0.0000 4.8522 0.0000 0.0000
# 5 0.0000 0.0000 0.0000 0.0000 29.8415 0.0000
# 6 0.0000 0.0000 0.0000 0.0000 0.0000 34.9091
#
#
#
# Elastic Compliance Matrix: (Units=1/GPa)
#
#
# Indices 1 2 3 4 5 6 
#
# 1 0.008976 -0.003279 -0.004471 0.000000 0.000000 0.000000
# 2 -0.003279 0.014423 -0.002742 0.000000 0.000000 0.000000
# 3 -0.004471 -0.002742 0.013536 0.000000 0.000000 0.000000
# 4 0.000000 0.000000 0.000000 0.206091 0.000000 0.000000
# 5 0.000000 0.000000 0.000000 0.000000 0.033510 0.000000
# 6 0.000000 0.000000 0.000000 0.000000 0.000000 0.028646
#
#
# Mechanical properties :
#
#
# Convention : Reuss Voigt Hill
#
# Bulk Modulus (GPa) = 62.69256 70.87418 66.78337
# Shear Modulus (GPa) = 15.08369 27.50461 21.29415
#
# Velocity S-wave (km/s) = 2.63907 3.56369 3.13565
# Velocity P-wave (km/s) = 6.18335 7.04688 6.62919
#
# Compressibility (1/GPa) = 0.01595086
#
# Stress axis : x y z
#
# Youngs Moduli (GPa) = 111.40798 69.33164 73.87661
#
# Poissons Ratio (x) = 0.22736 0.33029
# Poissons Ratio (y) = 0.36533 0.20259
# Poissons Ratio (z) = 0.49808 0.19013
#
# Static dielectric constant tensor:
#      x y z
#    x 4.304860 0.000000 0.000000 
#    y 0.000000 3.882140 0.000000 
#    z 0.000000 0.000000 3.528850 
# 
# 
# High freq. dielectric constant tensor:
#      x y z
#    x 1.861500 0.000000 0.000000 
#    y 0.000000 1.833570 0.000000 
#    z 0.000000 0.000000 1.856380 
# 
# From -- ./inp_files/4174.got.cif
#   From: 2010.03.12/outbox.cif.g09.slc.cpg/sg54_3_cif.got.tgz:4174.got - 2010.04.16 15:00:50.
