data_PCOD8223501
_publ_section_title
;
Structure prediction by ZEFSAII (Michael W. Deem and Ramdas Pophale) SiO2 
 PCOD8223501
Probable space group: P C C A
;
_chemical_formula_sum "Si O2"
_cell_formula_units_Z 40
_cell_length_a 9.236793
_cell_length_b 12.845907
_cell_length_c 15.561201
_cell_angle_alpha 90.000000
_cell_angle_beta 90.000000
_cell_angle_gamma 90.000000
_cell_volume 1846.414053
_symmetry_space_group_name_H-M "P C C A"
_symmetry_group_IT_number 54
_symmetry_cell_setting 'orthorhombic'
loop_
_space_group_symop_operation_xyz
x,y,z
1/2-x,-y,z
1/2+x,-y,1/2-z
-x,y,1/2-z
-x,-y,-z
1/2+x,y,-z
1/2-x,y,1/2+z
x,-y,1/2+z
loop_
_atom_site_type_symbol
_atom_site_label
_atom_site_fract_x
_atom_site_fract_y
_atom_site_fract_z
Si Si1 0.166359 0.735246 0.430921
Si Si2 0.139929 0.610522 0.585759
Si Si3 0.951597 0.776955 0.656177
Si Si4 0.611729 0.931229 0.449948
Si Si5 0.069324 0.606710 0.157849
O O1 0.210083 0.635622 0.491282
O O2 0.279595 0.768616 0.356844
O O3 0.156912 0.837048 0.489270
O O4 0.018691 0.703223 0.382198
O O5 0.260023 0.636921 0.660640
O O6 0.074884 0.494657 0.595025
O O7 0.008291 0.689772 0.591061
O O8 0.000000 0.744476 0.750000
O O9 0.025837 0.887897 0.633528
O O10 0.750000 0.000000 0.420843
O O11 0.500000 0.000000 0.500000
O O12 0.000000 0.576856 0.250000
#
# Coordination Sequence:
#
# PCOD8223501 Si02
#       5
#     8   8   8   8   8
#     4  11  23  41  68  92 127 169 219 260 319 393
#     4  10  22  40  63  91 132 173 215 250 319 392
#     4  11  23  41  64  97 128 167 211 275 326 374
#     4  11  23  45  67  89 124 168 219 267 323 391
#     4  11  23  39  61  99 132 170 208 266 320 377
#
# _framework density 21.663613000000002
#
# number of rings (size 3 to 8) (size 9 to 14) (size 15 to 20)
#    0.000    1.200    2.000    4.800    2.800    4.000 
#    3.600    0.000    0.000    0.000    0.000    0.000 
#    0.000    0.000    0.000    0.000    0.000    0.000 
#
# Total GULP energy -495554.011534 kJ/mol
# GULP energy per Si atom -12388.850288 kJ/mol
# Density = 2.161431 g / cm^3
# Si number density = 21.663613 Si / 1000 Ang^3
#
#
#
# Elastic Constant Matrix: (Units=GPa)
#
#
# Indices 1 2 3 4 5 6 
#
# 1 95.1531 26.3907 1.2026 0.0000 0.0000 0.0000
# 2 26.3907 95.6227 10.1894 0.0000 0.0000 0.0000
# 3 1.2026 10.1894 70.1186 0.0000 0.0000 0.0000
# 4 0.0000 0.0000 0.0000 20.4604 0.0000 0.0000
# 5 0.0000 0.0000 0.0000 0.0000 31.0809 0.0000
# 6 0.0000 0.0000 0.0000 0.0000 0.0000 44.9016
#
#
#
# Elastic Compliance Matrix: (Units=1/GPa)
#
#
# Indices 1 2 3 4 5 6 
#
# 1 0.011385 -0.003171 0.000265 0.000000 0.000000 0.000000
# 2 -0.003171 0.011505 -0.001618 0.000000 0.000000 0.000000
# 3 0.000265 -0.001618 0.014492 0.000000 0.000000 0.000000
# 4 0.000000 0.000000 0.000000 0.048875 0.000000 0.000000
# 5 0.000000 0.000000 0.000000 0.000000 0.032174 0.000000
# 6 0.000000 0.000000 0.000000 0.000000 0.000000 0.022271
#
#
# Mechanical properties :
#
#
# Convention : Reuss Voigt Hill
#
# Bulk Modulus (GPa) = 35.28903 37.38444 36.33673
# Shear Modulus (GPa) = 31.40834 34.16270 32.78552
#
# Velocity S-wave (km/s) = 3.81178 3.97541 3.89445
# Velocity P-wave (km/s) = 5.97476 6.19403 6.08539
#
# Compressibility (1/GPa) = 0.02833742
#
# Stress axis : x y z
#
# Youngs Moduli (GPa) = 87.83212 86.91757 69.00334
#
# Poissons Ratio (x) = 0.27557 -0.01832
# Poissons Ratio (y) = 0.27847 0.11161
# Poissons Ratio (z) = -0.02332 0.14059
#
# Static dielectric constant tensor:
#      x y z
#    x 5.104160 0.000000 0.000000 
#    y 0.000000 3.770710 0.000000 
#    z 0.000000 0.000000 3.759510 
# 
# 
# High freq. dielectric constant tensor:
#      x y z
#    x 1.862790 0.000000 0.000000 
#    y 0.000000 1.849800 0.000000 
#    z 0.000000 0.000000 1.834590 
# 
# From -- ./inp_files/11475.got.cif
#   From: 2010.03.12/outbox.cif.g09.slc.cpg/sg54_6_cif.got.tgz:11475.got - 2010.04.16 15:00:50.
