data_PCOD8223155
_publ_section_title
;
Structure prediction by ZEFSAII (Michael W. Deem and Ramdas Pophale) SiO2 
 PCOD8223155
Probable space group: P C C A
;
_chemical_formula_sum "Si O2"
_cell_formula_units_Z 40
_cell_length_a 5.114632
_cell_length_b 25.928390
_cell_length_c 14.899557
_cell_angle_alpha 90.000000
_cell_angle_beta 90.000000
_cell_angle_gamma 90.000000
_cell_volume 1975.892433
_symmetry_space_group_name_H-M "P C C A"
_symmetry_group_IT_number 54
_symmetry_cell_setting 'orthorhombic'
loop_
_space_group_symop_operation_xyz
x,y,z
1/2-x,-y,z
1/2+x,-y,1/2-z
-x,y,1/2-z
-x,-y,-z
1/2+x,y,-z
1/2-x,y,1/2+z
x,-y,1/2+z
loop_
_atom_site_type_symbol
_atom_site_label
_atom_site_fract_x
_atom_site_fract_y
_atom_site_fract_z
Si Si1 0.252703 0.792736 0.692342
Si Si2 0.750000 0.000000 0.940500
Si Si3 0.086076 0.590066 0.560094
Si Si4 0.243884 0.906309 0.190398
Si Si5 0.500000 0.533821 0.250000
Si Si6 0.416970 0.709508 0.051897
O O1 0.500000 0.774506 0.750000
O O2 0.307694 0.848958 0.647674
O O3 0.190847 0.746713 0.626653
O O4 0.000000 0.802298 0.750000
O O5 0.767088 0.947440 0.886655
O O6 0.500000 0.000000 0.000000
O O7 0.344993 0.573649 0.504382
O O8 0.067914 0.565700 0.659485
O O9 0.107008 0.650503 0.581824
O O10 0.500000 0.908102 0.250000
O O11 0.000000 0.922937 0.250000
O O12 0.750000 0.500000 0.225045
O O13 0.720921 0.720634 0.031488
#
# Coordination Sequence:
#
# PCOD8223155 Si02
#       6
#     8   4   8   8   4   8
#     4  10  21  36  58  88 113 151 196 240 289 350
#     4  12  24  36  56  86 110 146 196 246 296 342
#     4  10  23  43  63  92 129 164 204 256 310 367
#     4  10  21  39  58  78 114 154 193 233 294 358
#     4  12  26  42  66  98 122 166 218 252 312 368
#     4  10  21  38  59  86 120 156 192 236 303 353
#
# _framework density 20.244015999999998
#
# number of rings (size 3 to 8) (size 9 to 14) (size 15 to 20)
#    0.000    1.600    0.000    4.200    1.400    4.000 
#    1.800    0.000    0.000    0.000    0.000    0.000 
#    0.000    0.000    0.000    0.000    0.000    0.000 
#
# Total GULP energy -495733.222720 kJ/mol
# GULP energy per Si atom -12393.330568 kJ/mol
# Density = 2.019794 g / cm^3
# Si number density = 20.244016 Si / 1000 Ang^3
#
#
#
# Elastic Constant Matrix: (Units=GPa)
#
#
# Indices 1 2 3 4 5 6 
#
# 1 148.2096 43.7872 51.1059 0.0000 0.0000 0.0000
# 2 43.7872 109.4865 78.9394 0.0000 0.0000 0.0000
# 3 51.1059 78.9394 127.5824 0.0000 0.0000 0.0000
# 4 0.0000 0.0000 0.0000 68.0735 0.0000 0.0000
# 5 0.0000 0.0000 0.0000 0.0000 35.9163 0.0000
# 6 0.0000 0.0000 0.0000 0.0000 0.0000 31.3114
#
#
#
# Elastic Compliance Matrix: (Units=1/GPa)
#
#
# Indices 1 2 3 4 5 6 
#
# 1 0.007981 -0.001601 -0.002206 0.000000 0.000000 0.000000
# 2 -0.001601 0.016811 -0.009760 0.000000 0.000000 0.000000
# 3 -0.002206 -0.009760 0.014761 0.000000 0.000000 0.000000
# 4 0.000000 0.000000 0.000000 0.014690 0.000000 0.000000
# 5 0.000000 0.000000 0.000000 0.000000 0.027842 0.000000
# 6 0.000000 0.000000 0.000000 0.000000 0.000000 0.031937
#
#
# Mechanical properties :
#
#
# Convention : Reuss Voigt Hill
#
# Bulk Modulus (GPa) = 80.53074 81.43817 80.98446
# Shear Modulus (GPa) = 34.41238 41.15665 37.78452
#
# Velocity S-wave (km/s) = 4.12743 4.51380 4.32493
# Velocity P-wave (km/s) = 7.91079 8.21471 8.06418
#
# Compressibility (1/GPa) = 0.01241762
#
# Stress axis : x y z
#
# Youngs Moduli (GPa) = 125.29726 59.48528 67.74737
#
# Poissons Ratio (x) = 0.09524 0.14947
# Poissons Ratio (y) = 0.20062 0.66122
# Poissons Ratio (z) = 0.27644 0.58058
#
# Static dielectric constant tensor:
#      x y z
#    x 4.154920 0.000000 0.000000 
#    y 0.000000 4.090130 0.000000 
#    z 0.000000 0.000000 3.478190 
# 
# 
# High freq. dielectric constant tensor:
#      x y z
#    x 1.820670 0.000000 0.000000 
#    y 0.000000 1.807500 0.000000 
#    z 0.000000 0.000000 1.774350 
# 
# From -- ./inp_files/6445.got.cif
#   From: 2010.03.12/outbox.cif.g09.slc.cpg/sg54_4_cif.got.tgz:6445.got - 2010.04.16 15:00:50.
