data_PCOD8223891
_publ_section_title
;
Structure prediction by ZEFSAII (Michael W. Deem and Ramdas Pophale) SiO2 
 PCOD8223891
Probable space group: P C C A
;
_chemical_formula_sum "Si O2"
_cell_formula_units_Z 60
_cell_length_a 26.888298
_cell_length_b 11.037308
_cell_length_c 8.761533
_cell_angle_alpha 90.000000
_cell_angle_beta 90.000000
_cell_angle_gamma 90.000000
_cell_volume 2600.198932
_symmetry_space_group_name_H-M "P C C A"
_symmetry_group_IT_number 54
_symmetry_cell_setting 'orthorhombic'
loop_
_space_group_symop_operation_xyz
x,y,z
1/2-x,-y,z
1/2+x,-y,1/2-z
-x,y,1/2-z
-x,-y,-z
1/2+x,y,-z
1/2-x,y,1/2+z
x,-y,1/2+z
loop_
_atom_site_type_symbol
_atom_site_label
_atom_site_fract_x
_atom_site_fract_y
_atom_site_fract_z
Si Si1 0.202639 0.582189 0.348923
Si Si2 0.945041 0.710712 0.579281
Si Si3 0.250000 0.000000 0.697962
Si Si4 0.452494 0.932990 0.640606
Si Si5 0.449091 0.648275 0.092785
Si Si6 0.090251 0.139180 0.936157
Si Si7 0.297828 0.151419 0.445412
Si Si8 0.368117 0.551003 0.575287
O O1 0.250000 0.500000 0.297673
O O2 0.221501 0.714489 0.401022
O O3 0.174886 0.518722 0.487531
O O4 0.160545 0.602797 0.221134
O O5 0.959699 0.829658 0.486076
O O6 0.939781 0.736493 0.759992
O O7 0.892232 0.659976 0.520627
O O8 0.992201 0.616525 0.568889
O O9 0.268240 0.111036 0.595074
O O10 0.207961 0.057127 0.806397
O O11 0.500000 0.946075 0.750000
O O12 0.442578 0.053170 0.544628
O O13 0.408279 0.901034 0.758551
O O14 0.431740 0.724670 0.945247
O O15 0.415479 0.530625 0.121040
O O16 0.145626 0.146730 0.998065
#
# Coordination Sequence:
#
# PCOD8223891 Si02
#       8
#     8   8   4   8   8   8   8   8
#     4  12  28  47  76 108 145 191 243 308 368 437
#     4  11  25  43  69 101 144 188 239 290 357 428
#     4  10  26  48  76 106 136 190 238 296 380 430
#     4  12  25  42  67 104 140 190 237 296 350 432
#     4  11  24  44  68 101 141 189 232 297 351 436
#     4  12  24  43  70 100 144 182 239 293 365 426
#     4  11  25  49  73 105 144 183 238 303 362 443
#     4  12  25  49  69 106 141 189 241 292 367 433
#
# _framework density 23.075156
#
# number of rings (size 3 to 8) (size 9 to 14) (size 15 to 20)
#    0.000    0.533    4.000    3.600    5.600    0.000 
#    4.800    0.000    0.000    0.000    0.000    0.000 
#    0.000    0.000    0.000    0.000    0.000    0.000 
#
# Total GULP energy -743839.124353 kJ/mol
# GULP energy per Si atom -12397.318739 kJ/mol
# Density = 2.302264 g / cm^3
# Si number density = 23.075156 Si / 1000 Ang^3
#
#
#
# Elastic Constant Matrix: (Units=GPa)
#
#
# Indices 1 2 3 4 5 6 
#
# 1 93.2517 24.4773 -0.1058 0.0000 0.0000 0.0000
# 2 24.4773 89.2606 10.3278 0.0000 0.0000 0.0000
# 3 -0.1058 10.3278 77.1140 0.0000 0.0000 0.0000
# 4 0.0000 0.0000 0.0000 36.0129 0.0000 0.0000
# 5 0.0000 0.0000 0.0000 0.0000 32.5489 0.0000
# 6 0.0000 0.0000 0.0000 0.0000 0.0000 35.1948
#
#
#
# Elastic Compliance Matrix: (Units=1/GPa)
#
#
# Indices 1 2 3 4 5 6 
#
# 1 0.011571 -0.003225 0.000448 0.000000 0.000000 0.000000
# 2 -0.003225 0.012278 -0.001649 0.000000 0.000000 0.000000
# 3 0.000448 -0.001649 0.013189 0.000000 0.000000 0.000000
# 4 0.000000 0.000000 0.000000 0.027768 0.000000 0.000000
# 5 0.000000 0.000000 0.000000 0.000000 0.030723 0.000000
# 6 0.000000 0.000000 0.000000 0.000000 0.000000 0.028413
#
#
# Mechanical properties :
#
#
# Convention : Reuss Voigt Hill
#
# Bulk Modulus (GPa) = 35.47801 36.55833 36.01817
# Shear Modulus (GPa) = 35.16437 35.74644 35.45541
#
# Velocity S-wave (km/s) = 3.90796 3.94017 3.92410
# Velocity P-wave (km/s) = 5.98090 6.04793 6.01451
#
# Compressibility (1/GPa) = 0.02818647
#
# Stress axis : x y z
#
# Youngs Moduli (GPa) = 86.42575 81.44496 75.81931
#
# Poissons Ratio (x) = 0.26264 -0.03395
# Poissons Ratio (y) = 0.27870 0.12501
# Poissons Ratio (z) = -0.03870 0.13429
#
# Static dielectric constant tensor:
#      x y z
#    x 4.191960 0.000000 0.000000 
#    y 0.000000 4.026100 0.000000 
#    z 0.000000 0.000000 4.449510 
# 
# 
# High freq. dielectric constant tensor:
#      x y z
#    x 1.917410 0.000000 0.000000 
#    y 0.000000 1.903050 0.000000 
#    z 0.000000 0.000000 1.924640 
# 
# From -- ./inp_files/5577.got.cif
#   From: 2010.03.12/outbox.cif.g09.slc.cpg/sg54_3_cif.got.tgz:5577.got - 2010.04.16 15:00:50.
