data_PCOD8223823
_publ_section_title
;
Structure prediction by ZEFSAII (Michael W. Deem and Ramdas Pophale) SiO2 
 PCOD8223823
Probable space group: P C C A
;
_chemical_formula_sum "Si O2"
_cell_formula_units_Z 60
_cell_length_a 17.405133
_cell_length_b 11.899069
_cell_length_c 13.830463
_cell_angle_alpha 90.000000
_cell_angle_beta 90.000000
_cell_angle_gamma 90.000000
_cell_volume 2864.356360
_symmetry_space_group_name_H-M "P C C A"
_symmetry_group_IT_number 54
_symmetry_cell_setting 'orthorhombic'
loop_
_space_group_symop_operation_xyz
x,y,z
1/2-x,-y,z
1/2+x,-y,1/2-z
-x,y,1/2-z
-x,-y,-z
1/2+x,y,-z
1/2-x,y,1/2+z
x,-y,1/2+z
loop_
_atom_site_type_symbol
_atom_site_label
_atom_site_fract_x
_atom_site_fract_y
_atom_site_fract_z
Si Si1 0.243253 0.767615 0.265162
Si Si2 0.319421 0.700668 0.067367
Si Si3 0.581517 0.705282 0.802417
Si Si4 0.583095 0.487373 0.457646
Si Si5 0.292867 0.395800 0.916421
Si Si6 0.969602 0.938134 0.356181
Si Si7 0.750000 0.000000 0.629110
Si Si8 0.113967 0.075487 0.991843
O O1 0.286170 0.755693 0.163875
O O2 0.157089 0.713672 0.266328
O O3 0.297885 0.704504 0.341054
O O4 0.241251 0.896041 0.298259
O O5 0.385114 0.606437 0.082746
O O6 0.249555 0.640478 0.014461
O O7 0.351880 0.800146 0.000899
O O8 0.500000 0.691445 0.750000
O O9 0.590413 0.599787 0.871063
O O10 0.580127 0.824258 0.857484
O O11 0.500000 0.500000 0.500000
O O12 0.624332 0.438493 0.552281
O O13 0.250000 0.500000 0.865312
O O14 0.000000 0.975158 0.250000
O O15 0.042346 0.915691 0.421908
O O16 0.913427 0.031522 0.402732
O O17 0.823767 0.992980 0.558046
#
# Coordination Sequence:
#
# PCOD8223823 Si02
#       8
#     8   8   8   8   8   8   4   8
#     4  12  27  43  72 103 144 178 240 285 350 420
#     4  11  25  46  67 105 139 182 225 296 347 413
#     4  11  25  42  70  98 136 178 232 279 351 415
#     4  11  25  45  72 102 138 181 233 281 354 425
#     4  10  24  44  71  97 141 176 220 285 352 405
#     4  10  24  45  69  97 137 187 228 283 354 416
#     4  12  26  42  72 106 134 188 240 286 354 412
#     4  11  25  45  69  98 144 177 237 289 349 408
#
# _framework density 20.947113999999999
#
# number of rings (size 3 to 8) (size 9 to 14) (size 15 to 20)
#    0.000    1.067    2.667    2.400   13.067    0.000 
#    0.000    0.667    0.000    0.000    0.000    0.000 
#    0.000    0.000    0.000    0.000    0.000    0.000 
#
# Total GULP energy -743947.387723 kJ/mol
# GULP energy per Si atom -12399.123129 kJ/mol
# Density = 2.089944 g / cm^3
# Si number density = 20.947114 Si / 1000 Ang^3
#
#
#
# Elastic Constant Matrix: (Units=GPa)
#
#
# Indices 1 2 3 4 5 6 
#
# 1 119.1076 37.4892 30.7681 0.0000 0.0000 0.0000
# 2 37.4892 102.1898 38.2179 0.0000 0.0000 0.0000
# 3 30.7681 38.2179 94.3411 0.0000 0.0000 0.0000
# 4 0.0000 0.0000 0.0000 79.8611 0.0000 0.0000
# 5 0.0000 0.0000 0.0000 0.0000 25.3657 0.0000
# 6 0.0000 0.0000 0.0000 0.0000 0.0000 33.0654
#
#
#
# Elastic Compliance Matrix: (Units=1/GPa)
#
#
# Indices 1 2 3 4 5 6 
#
# 1 0.009818 -0.002834 -0.002054 0.000000 0.000000 0.000000
# 2 -0.002834 0.012351 -0.004079 0.000000 0.000000 0.000000
# 3 -0.002054 -0.004079 0.012922 0.000000 0.000000 0.000000
# 4 0.000000 0.000000 0.000000 0.012522 0.000000 0.000000
# 5 0.000000 0.000000 0.000000 0.000000 0.039423 0.000000
# 6 0.000000 0.000000 0.000000 0.000000 0.000000 0.030243
#
#
# Mechanical properties :
#
#
# Convention : Reuss Voigt Hill
#
# Bulk Modulus (GPa) = 58.28421 58.73210 58.50815
# Shear Modulus (GPa) = 35.47788 41.60265 38.54027
#
# Velocity S-wave (km/s) = 4.11991 4.46138 4.29404
# Velocity P-wave (km/s) = 7.10749 7.39173 7.25100
#
# Compressibility (1/GPa) = 0.01715731
#
# Stress axis : x y z
#
# Youngs Moduli (GPa) = 101.85050 80.96607 77.38572
#
# Poissons Ratio (x) = 0.22943 0.15896
# Poissons Ratio (y) = 0.28861 0.31567
# Poissons Ratio (z) = 0.20922 0.33028
#
# Static dielectric constant tensor:
#      x y z
#    x 3.858490 0.000000 0.000000 
#    y 0.000000 3.995110 0.000000 
#    z 0.000000 0.000000 3.802500 
# 
# 
# High freq. dielectric constant tensor:
#      x y z
#    x 1.831610 0.000000 0.000000 
#    y 0.000000 1.829950 0.000000 
#    z 0.000000 0.000000 1.820730 
# 
# From -- ./inp_files/14296.got.cif
#   From: 2010.03.12/outbox.cif.g09.slc.cpg/sg54_8_cif.got.tgz:14296.got - 2010.04.16 15:00:50.
