data_PCOD8223106
_publ_section_title
;
Structure prediction by ZEFSAII (Michael W. Deem and Ramdas Pophale) SiO2 
 PCOD8223106
Probable space group: P C C A
;
_chemical_formula_sum "Si O2"
_cell_formula_units_Z 64
_cell_length_a 25.163805
_cell_length_b 11.999996
_cell_length_c 10.981692
_cell_angle_alpha 90.000000
_cell_angle_beta 90.000000
_cell_angle_gamma 90.000000
_cell_volume 3316.092767
_symmetry_space_group_name_H-M "P C C A"
_symmetry_group_IT_number 54
_symmetry_cell_setting 'orthorhombic'
loop_
_space_group_symop_operation_xyz
x,y,z
1/2-x,-y,z
1/2+x,-y,1/2-z
-x,y,1/2-z
-x,-y,-z
1/2+x,y,-z
1/2-x,y,1/2+z
x,-y,1/2+z
loop_
_atom_site_type_symbol
_atom_site_label
_atom_site_fract_x
_atom_site_fract_y
_atom_site_fract_z
Si Si1 0.153097 0.582161 0.616587
Si Si2 0.809205 0.103702 0.329101
Si Si3 0.303369 0.748555 0.938785
Si Si4 0.531217 0.618317 0.368199
Si Si5 0.136314 0.334066 0.562938
Si Si6 0.813761 0.860035 0.301143
Si Si7 0.982255 0.641774 0.382278
Si Si8 0.687771 0.292556 0.667537
O O1 0.169924 0.633375 0.485285
O O2 0.094390 0.626849 0.650111
O O3 0.157099 0.449007 0.620299
O O4 0.195284 0.623968 0.717710
O O5 0.812268 0.154201 0.463326
O O6 0.747715 0.110093 0.291624
O O7 0.836431 0.178451 0.224440
O O8 0.838341 0.983004 0.325510
O O9 0.333753 0.798207 0.821307
O O10 0.242507 0.721784 0.905973
O O11 0.500000 0.669887 0.250000
O O12 0.514137 0.490561 0.378039
O O13 0.516133 0.679143 0.497497
O O14 0.172590 0.226820 0.593205
O O15 0.076466 0.310621 0.599699
O O16 0.142275 0.345040 0.417739
O O17 0.000000 0.690844 0.250000
#
# Coordination Sequence:
#
# PCOD8223106 Si02
#       8
#     8   8   8   8   8   8   8   8
#     4  10  23  36  55  83 123 156 190 229 287 370
#     4   9  20  38  55  77 104 142 196 246 272 320
#     4  10  21  38  52  80 114 151 188 228 283 339
#     4   9  17  34  56  77 109 157 193 237 288 335
#     4  11  22  35  56  85 115 151 191 230 293 353
#     4  10  21  33  58  78 104 145 188 239 284 320
#     4   9  19  32  53  82 113 143 191 243 289 343
#     4  10  21  39  53  80 113 152 194 228 282 343
#
# _framework density 19.299821999999999
#
# number of rings (size 3 to 8) (size 9 to 14) (size 15 to 20)
#    0.000    2.250    1.250    0.750    5.250    3.500 
#    2.250    0.000    0.000    0.000    0.000   11.375 
#    0.000    0.000    0.000    0.000    0.000    0.000 
#
# Total GULP energy -792845.592582 kJ/mol
# GULP energy per Si atom -12388.212384 kJ/mol
# Density = 1.925589 g / cm^3
# Si number density = 19.299822 Si / 1000 Ang^3
#
#
#
# Elastic Constant Matrix: (Units=GPa)
#
#
# Indices 1 2 3 4 5 6 
#
# 1 41.6178 38.1167 36.6691 0.0000 0.0000 0.0000
# 2 38.1167 102.5809 18.7821 0.0000 0.0000 0.0000
# 3 36.6691 18.7821 100.2115 0.0000 0.0000 0.0000
# 4 0.0000 0.0000 0.0000 17.2916 0.0000 0.0000
# 5 0.0000 0.0000 0.0000 0.0000 25.2955 0.0000
# 6 0.0000 0.0000 0.0000 0.0000 0.0000 7.9842
#
#
#
# Elastic Compliance Matrix: (Units=1/GPa)
#
#
# Indices 1 2 3 4 5 6 
#
# 1 0.054509 -0.017192 -0.016724 0.000000 0.000000 0.000000
# 2 -0.017192 0.015517 0.003383 0.000000 0.000000 0.000000
# 3 -0.016724 0.003383 0.015464 0.000000 0.000000 0.000000
# 4 0.000000 0.000000 0.000000 0.057832 0.000000 0.000000
# 5 0.000000 0.000000 0.000000 0.000000 0.039533 0.000000
# 6 0.000000 0.000000 0.000000 0.000000 0.000000 0.125247
#
#
# Mechanical properties :
#
#
# Convention : Reuss Voigt Hill
#
# Bulk Modulus (GPa) = 40.94279 47.94955 44.44617
# Shear Modulus (GPa) = 13.25170 20.17042 16.71106
#
# Velocity S-wave (km/s) = 2.62319 3.23632 2.94575
# Velocity P-wave (km/s) = 5.51679 6.23406 5.88636
#
# Compressibility (1/GPa) = 0.02442433
#
# Stress axis : x y z
#
# Youngs Moduli (GPa) = 18.34550 64.44395 64.66486
#
# Poissons Ratio (x) = 1.10795 1.08143
# Poissons Ratio (y) = 0.31540 -0.21874
# Poissons Ratio (z) = 0.30680 -0.21799
#
# Static dielectric constant tensor:
#      x y z
#    x 3.213960 0.000000 0.000000 
#    y 0.000000 3.722670 0.000000 
#    z 0.000000 0.000000 3.887250 
# 
# 
# High freq. dielectric constant tensor:
#      x y z
#    x 1.715700 0.000000 0.000000 
#    y 0.000000 1.723010 0.000000 
#    z 0.000000 0.000000 1.775880 
# 
# From -- ./inp_files/10059.got.cif
#   From: 2010.03.12/outbox.cif.g09.slc.cpg/sg54_6_cif.got.tgz:10059.got - 2010.04.16 15:00:50.
