data_PCOD8223901
_publ_section_title
;
Structure prediction by ZEFSAII (Michael W. Deem and Ramdas Pophale) SiO2 
 PCOD8223901
Probable space group: P C C A
;
_chemical_formula_sum "Si O2"
_cell_formula_units_Z 56
_cell_length_a 19.648625
_cell_length_b 5.083549
_cell_length_c 27.989328
_cell_angle_alpha 90.000000
_cell_angle_beta 90.000000
_cell_angle_gamma 90.000000
_cell_volume 2795.706973
_symmetry_space_group_name_H-M "P C C A"
_symmetry_group_IT_number 54
_symmetry_cell_setting 'orthorhombic'
loop_
_space_group_symop_operation_xyz
x,y,z
1/2-x,-y,z
1/2+x,-y,1/2-z
-x,y,1/2-z
-x,-y,-z
1/2+x,y,-z
1/2-x,y,1/2+z
x,-y,1/2+z
loop_
_atom_site_type_symbol
_atom_site_label
_atom_site_fract_x
_atom_site_fract_y
_atom_site_fract_z
Si Si1 0.913174 0.258011 0.486459
Si Si2 0.944802 0.251959 0.707691
Si Si3 0.884387 0.169509 0.382434
Si Si4 0.709034 0.743630 0.740703
Si Si5 0.070460 0.245722 0.458666
Si Si6 0.813282 0.648117 0.348991
Si Si7 0.966001 0.761925 0.645889
O O1 0.871210 0.249941 0.437293
O O2 0.890993 0.512944 0.516228
O O3 0.991915 0.260419 0.472640
O O4 0.895139 0.015198 0.520643
O O5 0.869283 0.296094 0.726965
O O6 0.968645 0.477217 0.670915
O O7 0.000000 0.236646 0.750000
O O8 0.936602 0.970398 0.682825
O O9 0.869448 0.417462 0.347712
O O10 0.962452 0.111758 0.370538
O O11 0.839438 0.909265 0.375039
O O12 0.750000 0.500000 0.718446
O O13 0.711806 0.741443 0.797697
O O14 0.750000 0.000000 0.722190
O O15 0.080514 0.260794 0.401496
O O16 0.750000 0.500000 0.375745
#
# Coordination Sequence:
#
# PCOD8223901 Si02
#       7
#     8   8   8   8   8   8   8
#     4   9  17  29  50  75 107 142 173 214 267 338
#     4  12  24  38  58  88 119 149 188 245 303 344
#     4  11  20  34  54  83 115 147 180 225 291 345
#     4  11  23  41  60  80 112 155 197 232 276 343
#     4   9  17  31  48  76 109 140 177 214 268 340
#     4  11  22  36  54  78 110 150 193 231 271 338
#     4  11  22  35  56  84 117 147 181 235 296 346
#
# _framework density 20.030712000000001
#
# number of rings (size 3 to 8) (size 9 to 14) (size 15 to 20)
#    0.000    1.429    0.000    7.714    0.000    4.571 
#    0.000    0.000    0.000    0.000    0.000   35.000 
#    0.000    0.000    0.000    0.000    0.000    0.000 
#
# Total GULP energy -694124.195087 kJ/mol
# GULP energy per Si atom -12395.074912 kJ/mol
# Density = 1.998512 g / cm^3
# Si number density = 20.030712 Si / 1000 Ang^3
#
#
#
# Elastic Constant Matrix: (Units=GPa)
#
#
# Indices 1 2 3 4 5 6 
#
# 1 73.4492 22.8887 36.1902 0.0000 0.0000 0.0000
# 2 22.8887 149.5390 44.2005 0.0000 0.0000 0.0000
# 3 36.1902 44.2005 74.5002 0.0000 0.0000 0.0000
# 4 0.0000 0.0000 0.0000 31.8259 0.0000 0.0000
# 5 0.0000 0.0000 0.0000 0.0000 7.7750 0.0000
# 6 0.0000 0.0000 0.0000 0.0000 0.0000 32.2696
#
#
#
# Elastic Compliance Matrix: (Units=1/GPa)
#
#
# Indices 1 2 3 4 5 6 
#
# 1 0.017904 -0.000206 -0.008575 0.000000 0.000000 0.000000
# 2 -0.000206 0.008112 -0.004713 0.000000 0.000000 0.000000
# 3 -0.008575 -0.004713 0.020384 0.000000 0.000000 0.000000
# 4 0.000000 0.000000 0.000000 0.031421 0.000000 0.000000
# 5 0.000000 0.000000 0.000000 0.000000 0.128618 0.000000
# 6 0.000000 0.000000 0.000000 0.000000 0.000000 0.030989
#
#
# Mechanical properties :
#
#
# Convention : Reuss Voigt Hill
#
# Bulk Modulus (GPa) = 51.51223 56.00525 53.75874
# Shear Modulus (GPa) = 18.45793 27.32138 22.88966
#
# Velocity S-wave (km/s) = 3.03888 3.69721 3.38409
# Velocity P-wave (km/s) = 6.17135 6.80046 6.49353
#
# Compressibility (1/GPa) = 0.01941287
#
# Stress axis : x y z
#
# Youngs Moduli (GPa) = 55.85264 123.27918 49.05707
#
# Poissons Ratio (x) = 0.02537 0.42068
# Poissons Ratio (y) = 0.01149 0.23119
# Poissons Ratio (z) = 0.47895 0.58097
#
# Static dielectric constant tensor:
#      x y z
#    x 3.494260 0.000000 0.000000 
#    y 0.000000 3.896200 0.000000 
#    z 0.000000 0.000000 3.684300 
# 
# 
# High freq. dielectric constant tensor:
#      x y z
#    x 1.748740 0.000000 0.000000 
#    y 0.000000 1.805920 0.000000 
#    z 0.000000 0.000000 1.773580 
# 
# From -- ./inp_files/24742.got.cif
#   From: 2010.03.12/outbox.cif.g09.slc.cpg/sg54_13_cif.got.tgz:24742.got - 2010.04.16 15:00:50.
