data_PCOD8223774
_publ_section_title
;
Structure prediction by ZEFSAII (Michael W. Deem and Ramdas Pophale) SiO2 
 PCOD8223774
Probable space group: P C C A
;
_chemical_formula_sum "Si O2"
_cell_formula_units_Z 28
_cell_length_a 9.765994
_cell_length_b 14.287468
_cell_length_c 8.720793
_cell_angle_alpha 90.000000
_cell_angle_beta 90.000000
_cell_angle_gamma 90.000000
_cell_volume 1216.823818
_symmetry_space_group_name_H-M "P C C A"
_symmetry_group_IT_number 54
_symmetry_cell_setting 'orthorhombic'
loop_
_space_group_symop_operation_xyz
x,y,z
1/2-x,-y,z
1/2+x,-y,1/2-z
-x,y,1/2-z
-x,-y,-z
1/2+x,y,-z
1/2-x,y,1/2+z
x,-y,1/2+z
loop_
_atom_site_type_symbol
_atom_site_label
_atom_site_fract_x
_atom_site_fract_y
_atom_site_fract_z
Si Si1 0.648137 0.631167 0.237025
Si Si2 0.443828 0.102635 0.530660
Si Si3 0.704389 0.829917 0.171870
Si Si4 0.250000 0.500000 0.506705
O O1 0.500000 0.677213 0.250000
O O2 0.743447 0.721579 0.210631
O O3 0.678777 0.579870 0.395487
O O4 0.644164 0.554129 0.102662
O O5 0.348037 0.128944 0.386972
O O6 0.347966 0.110636 0.681844
O O7 0.580539 0.167184 0.545900
O O8 0.500000 0.000000 0.500000
#
# Coordination Sequence:
#
# PCOD8223774 Si02
#       4
#     8   8   8   4
#     4  11  21  43  67  98 139 176 235 275 354 408
#     4  11  25  45  70 100 136 178 236 287 354 413
#     4  11  25  46  71 100 139 185 226 293 343 426
#     4  10  24  38  68 102 134 182 222 294 336 416
#
# _framework density 23.010729000000001
#
# number of rings (size 3 to 8) (size 9 to 14) (size 15 to 20)
#    0.000    1.143    2.857    3.429    0.000   10.286 
#    0.000    0.000    0.000    0.000    0.000    0.000 
#    0.000    0.000    0.000    0.000    0.000    0.000 
#
# Total GULP energy -347031.548070 kJ/mol
# GULP energy per Si atom -12393.983860 kJ/mol
# Density = 2.295836 g / cm^3
# Si number density = 23.010729 Si / 1000 Ang^3
#
#
#
# Elastic Constant Matrix: (Units=GPa)
#
#
# Indices 1 2 3 4 5 6 
#
# 1 84.9655 49.6518 30.6924 0.0000 0.0000 0.0000
# 2 49.6518 176.1038 70.2703 0.0000 0.0000 0.0000
# 3 30.6924 70.2703 106.2691 0.0000 0.0000 0.0000
# 4 0.0000 0.0000 0.0000 98.7566 0.0000 0.0000
# 5 0.0000 0.0000 0.0000 0.0000 35.9478 0.0000
# 6 0.0000 0.0000 0.0000 0.0000 0.0000 39.0351
#
#
#
# Elastic Compliance Matrix: (Units=1/GPa)
#
#
# Indices 1 2 3 4 5 6 
#
# 1 0.014398 -0.003260 -0.002002 0.000000 0.000000 0.000000
# 2 -0.003260 0.008452 -0.004647 0.000000 0.000000 0.000000
# 3 -0.002002 -0.004647 0.013061 0.000000 0.000000 0.000000
# 4 0.000000 0.000000 0.000000 0.010126 0.000000 0.000000
# 5 0.000000 0.000000 0.000000 0.000000 0.027818 0.000000
# 6 0.000000 0.000000 0.000000 0.000000 0.000000 0.025618
#
#
# Mechanical properties :
#
#
# Convention : Reuss Voigt Hill
#
# Bulk Modulus (GPa) = 62.14538 74.28527 68.21533
# Shear Modulus (GPa) = 40.10973 49.19614 44.65293
#
# Velocity S-wave (km/s) = 4.17956 4.62883 4.40992
# Velocity P-wave (km/s) = 7.09629 7.80519 7.45917
#
# Compressibility (1/GPa) = 0.01609130
#
# Stress axis : x y z
#
# Youngs Moduli (GPa) = 69.45322 118.31317 76.56126
#
# Poissons Ratio (x) = 0.38576 0.15331
# Poissons Ratio (y) = 0.22645 0.35580
# Poissons Ratio (z) = 0.13908 0.54984
#
# Static dielectric constant tensor:
#      x y z
#    x 4.161210 0.000000 0.000000 
#    y 0.000000 4.099590 0.000000 
#    z 0.000000 0.000000 4.473900 
# 
# 
# High freq. dielectric constant tensor:
#      x y z
#    x 1.900310 0.000000 0.000000 
#    y 0.000000 1.922760 0.000000 
#    z 0.000000 0.000000 1.912140 
# 
# From -- ./inp_files/2747.got.cif
#   From: 2010.03.12/outbox.cif.g09.slc.cpg/sg54_2_cif.got.tgz:2747.got - 2010.04.16 15:00:50.
