data_PCOD8223562
_publ_section_title
;
Structure prediction by ZEFSAII (Michael W. Deem and Ramdas Pophale) SiO2 
 PCOD8223562
Probable space group: P C C A
;
_chemical_formula_sum "Si O2"
_cell_formula_units_Z 40
_cell_length_a 16.680829
_cell_length_b 11.813544
_cell_length_c 8.687026
_cell_angle_alpha 90.000000
_cell_angle_beta 90.000000
_cell_angle_gamma 90.000000
_cell_volume 1711.862801
_symmetry_space_group_name_H-M "P C C A"
_symmetry_group_IT_number 54
_symmetry_cell_setting 'orthorhombic'
loop_
_space_group_symop_operation_xyz
x,y,z
1/2-x,-y,z
1/2+x,-y,1/2-z
-x,y,1/2-z
-x,-y,-z
1/2+x,y,-z
1/2-x,y,1/2+z
x,-y,1/2+z
loop_
_atom_site_type_symbol
_atom_site_label
_atom_site_fract_x
_atom_site_fract_y
_atom_site_fract_z
Si Si1 0.895457 0.088242 0.620285
Si Si2 0.441214 0.446817 0.380978
Si Si3 0.071826 0.863433 0.030656
Si Si4 0.343116 0.666619 0.366407
Si Si5 0.683516 0.717776 0.476857
O O1 0.891744 0.113133 0.801345
O O2 0.820785 0.153635 0.541052
O O3 0.976260 0.131586 0.536869
O O4 0.890295 0.954272 0.588554
O O5 0.500000 0.397817 0.250000
O O6 0.500000 0.500000 0.500000
O O7 0.379550 0.544039 0.324957
O O8 0.393356 0.343259 0.451060
O O9 0.093863 0.740440 0.964280
O O10 0.264139 0.654184 0.471284
O O11 0.319331 0.724236 0.206485
#
# Coordination Sequence:
#
# PCOD8223562 Si02
#       5
#     8   8   8   8   8
#     4  10  22  41  69 102 135 181 221 282 326 403
#     4  12  27  46  73 100 130 175 226 281 338 407
#     4  10  22  41  70 100 139 175 230 272 336 393
#     4  12  27  45  67 101 137 181 223 284 338 407
#     4  12  27  44  69  98 141 176 227 279 343 402
#
# _framework density 23.366358000000002
#
# number of rings (size 3 to 8) (size 9 to 14) (size 15 to 20)
#    0.000    0.800    2.000    4.200    8.400    4.000 
#    0.000    4.000    0.000    0.000    0.000    0.000 
#    0.000    0.000    0.000    0.000    0.000    0.000 
#
# Total GULP energy -496162.902207 kJ/mol
# GULP energy per Si atom -12404.072555 kJ/mol
# Density = 2.331318 g / cm^3
# Si number density = 23.366358 Si / 1000 Ang^3
#
#
#
# Elastic Constant Matrix: (Units=GPa)
#
#
# Indices 1 2 3 4 5 6 
#
# 1 81.0896 6.7528 10.8885 0.0000 0.0000 0.0000
# 2 6.7528 74.6493 7.9359 0.0000 0.0000 0.0000
# 3 10.8885 7.9359 124.5848 0.0000 0.0000 0.0000
# 4 0.0000 0.0000 0.0000 40.0895 0.0000 0.0000
# 5 0.0000 0.0000 0.0000 0.0000 36.7064 0.0000
# 6 0.0000 0.0000 0.0000 0.0000 0.0000 23.7151
#
#
#
# Elastic Compliance Matrix: (Units=1/GPa)
#
#
# Indices 1 2 3 4 5 6 
#
# 1 0.012556 -0.001026 -0.001032 0.000000 0.000000 0.000000
# 2 -0.001026 0.013571 -0.000775 0.000000 0.000000 0.000000
# 3 -0.001032 -0.000775 0.008166 0.000000 0.000000 0.000000
# 4 0.000000 0.000000 0.000000 0.024944 0.000000 0.000000
# 5 0.000000 0.000000 0.000000 0.000000 0.027243 0.000000
# 6 0.000000 0.000000 0.000000 0.000000 0.000000 0.042167
#
#
# Mechanical properties :
#
#
# Convention : Reuss Voigt Hill
#
# Bulk Modulus (GPa) = 34.93130 36.83088 35.88109
# Shear Modulus (GPa) = 34.75691 37.08533 35.92112
#
# Velocity S-wave (km/s) = 3.86097 3.98820 3.92510
# Velocity P-wave (km/s) = 5.90406 6.08311 5.99425
#
# Compressibility (1/GPa) = 0.02862762
#
# Stress axis : x y z
#
# Youngs Moduli (GPa) = 79.64277 73.68569 122.45580
#
# Poissons Ratio (x) = 0.07561 0.12638
# Poissons Ratio (y) = 0.08172 0.09488
# Poissons Ratio (z) = 0.08219 0.05709
#
# Static dielectric constant tensor:
#      x y z
#    x 3.707570 0.000000 0.000000 
#    y 0.000000 3.910060 0.000000 
#    z 0.000000 0.000000 4.426350 
# 
# 
# High freq. dielectric constant tensor:
#      x y z
#    x 1.920350 0.000000 0.000000 
#    y 0.000000 1.928950 0.000000 
#    z 0.000000 0.000000 1.934220 
# 
# From -- ./inp_files/3989.got.cif
#   From: 2010.03.12/outbox.cif.g09.slc.cpg/sg54_2_cif.got.tgz:3989.got - 2010.04.16 15:00:50.
