data_PCOD8223930
_publ_section_title
;
Structure prediction by ZEFSAII (Michael W. Deem and Ramdas Pophale) SiO2 
 PCOD8223930
Probable space group: P C C A
;
_chemical_formula_sum "Si O2"
_cell_formula_units_Z 64
_cell_length_a 22.092121
_cell_length_b 15.048113
_cell_length_c 9.057962
_cell_angle_alpha 90.000000
_cell_angle_beta 90.000000
_cell_angle_gamma 90.000000
_cell_volume 3011.271761
_symmetry_space_group_name_H-M "P C C A"
_symmetry_group_IT_number 54
_symmetry_cell_setting 'orthorhombic'
loop_
_space_group_symop_operation_xyz
x,y,z
1/2-x,-y,z
1/2+x,-y,1/2-z
-x,y,1/2-z
-x,-y,-z
1/2+x,y,-z
1/2-x,y,1/2+z
x,-y,1/2+z
loop_
_atom_site_type_symbol
_atom_site_label
_atom_site_fract_x
_atom_site_fract_y
_atom_site_fract_z
Si Si1 0.934063 0.461071 0.294270
Si Si2 0.947852 0.732488 0.865387
Si Si3 0.613894 0.609558 0.997232
Si Si4 0.787563 0.256016 0.995989
Si Si5 0.636385 0.886365 0.834291
Si Si6 0.029418 0.236738 0.607671
Si Si7 0.315516 0.037771 0.473406
Si Si8 0.184560 0.796973 0.678943
O O1 0.941705 0.373637 0.397091
O O2 0.895684 0.537576 0.371122
O O3 0.000000 0.498438 0.250000
O O4 0.895607 0.435726 0.152849
O O5 0.885356 0.772003 0.807454
O O6 0.000000 0.751110 0.750000
O O7 0.970116 0.785940 0.009484
O O8 0.569204 0.692991 0.982858
O O9 0.682129 0.646852 0.996177
O O10 0.787921 0.208316 0.155977
O O11 0.818816 0.194287 0.872204
O O12 0.719157 0.269477 0.935033
O O13 0.567346 0.850561 0.845646
O O14 0.651479 0.920500 0.669342
O O15 0.642120 0.961049 0.960120
O O16 0.000000 0.282815 0.750000
O O17 0.306506 0.105732 0.609576
O O18 0.250000 0.000000 0.426514
#
# Coordination Sequence:
#
# PCOD8223930 Si02
#       8
#     8   8   8   8   8   8   8   8
#     4  11  21  40  68 103 135 178 239 289 337 412
#     4  11  22  44  70  98 136 189 231 281 349 414
#     4  11  23  41  67 100 138 174 228 290 346 406
#     4  11  24  44  66 100 136 178 221 289 351 413
#     4  11  24  43  65 101 139 170 228 290 344 407
#     4  11  23  41  64 100 140 179 226 281 347 416
#     4  12  24  42  71 105 134 180 234 290 343 411
#     4  12  24  44  73 100 138 179 235 285 347 421
#
# _framework density 21.253478999999999
#
# number of rings (size 3 to 8) (size 9 to 14) (size 15 to 20)
#    0.000    0.750    5.000    4.125    1.750    1.000 
#    0.000    3.750    0.000    0.000    0.000    0.000 
#    0.000    0.000    0.000    0.000    0.000    0.000 
#
# Total GULP energy -793487.390055 kJ/mol
# GULP energy per Si atom -12398.240470 kJ/mol
# Density = 2.120510 g / cm^3
# Si number density = 21.253479 Si / 1000 Ang^3
#
#
#
# Elastic Constant Matrix: (Units=GPa)
#
#
# Indices 1 2 3 4 5 6 
#
# 1 103.9438 41.0063 47.4799 0.0000 0.0000 0.0000
# 2 41.0063 94.7536 51.8129 0.0000 0.0000 0.0000
# 3 47.4799 51.8129 128.9079 0.0000 0.0000 0.0000
# 4 0.0000 0.0000 0.0000 -3.2876 0.0000 0.0000
# 5 0.0000 0.0000 0.0000 0.0000 34.8257 0.0000
# 6 0.0000 0.0000 0.0000 0.0000 0.0000 20.4966
#
#
#
# Elastic Compliance Matrix: (Units=1/GPa)
#
#
# Indices 1 2 3 4 5 6 
#
# 1 0.012507 -0.003709 -0.003116 0.000000 0.000000 0.000000
# 2 -0.003709 0.014626 -0.004513 0.000000 0.000000 0.000000
# 3 -0.003116 -0.004513 0.010719 0.000000 0.000000 0.000000
# 4 0.000000 0.000000 0.000000 -0.304171 0.000000 0.000000
# 5 0.000000 0.000000 0.000000 0.000000 0.028714 0.000000
# 6 0.000000 0.000000 0.000000 0.000000 0.000000 0.048789
#
#
# Mechanical properties :
#
#
# Convention : Reuss Voigt Hill
#
# Bulk Modulus (GPa) = 65.88784 67.57819 66.73301
# Shear Modulus (GPa) = -31.04019 22.89400 -4.07310
#
# Velocity S-wave (km/s) = -3.82576 3.28562 -1.38586
# Velocity P-wave (km/s) = 3.39897 6.80140 5.37643
#
# Compressibility (1/GPa) = 0.01517731
#
# Stress axis : x y z
#
# Youngs Moduli (GPa) = 79.95495 68.36921 93.29179
#
# Poissons Ratio (x) = 0.25357 0.29069
# Poissons Ratio (y) = 0.29654 0.42102
# Poissons Ratio (z) = 0.24914 0.30854
#
# Static dielectric constant tensor:
#      x y z
#    x 7.425690 0.000000 0.000000 
#    y 0.000000 3.832220 0.000000 
#    z 0.000000 0.000000 4.562270 
# 
# 
# High freq. dielectric constant tensor:
#      x y z
#    x 1.829800 0.000000 0.000000 
#    y 0.000000 1.816160 0.000000 
#    z 0.000000 0.000000 1.850720 
# 
# From -- ./inp_files/5316.got.cif
#   From: 2010.03.12/outbox.cif.g09.slc.cpg/sg54_3_cif.got.tgz:5316.got - 2010.04.16 15:00:50.
