data_PCOD8223628
_publ_section_title
;
Structure prediction by ZEFSAII (Michael W. Deem and Ramdas Pophale) SiO2 
 PCOD8223628
Probable space group: P C C A
;
_chemical_formula_sum "Si O2"
_cell_formula_units_Z 56
_cell_length_a 13.599047
_cell_length_b 13.192600
_cell_length_c 15.035671
_cell_angle_alpha 90.000000
_cell_angle_beta 90.000000
_cell_angle_gamma 90.000000
_cell_volume 2697.501431
_symmetry_space_group_name_H-M "P C C A"
_symmetry_group_IT_number 54
_symmetry_cell_setting 'orthorhombic'
loop_
_space_group_symop_operation_xyz
x,y,z
1/2-x,-y,z
1/2+x,-y,1/2-z
-x,y,1/2-z
-x,-y,-z
1/2+x,y,-z
1/2-x,y,1/2+z
x,-y,1/2+z
loop_
_atom_site_type_symbol
_atom_site_label
_atom_site_fract_x
_atom_site_fract_y
_atom_site_fract_z
Si Si1 0.548342 0.214139 0.591692
Si Si2 0.344041 0.136581 0.073280
Si Si3 0.010171 0.548869 0.900095
Si Si4 0.388378 0.238722 0.247392
Si Si5 0.638241 0.525803 0.750136
Si Si6 0.225195 0.890937 0.808679
Si Si7 0.643171 0.914360 0.385562
O O1 0.584933 0.191214 0.494350
O O2 0.519308 0.330884 0.595340
O O3 0.633949 0.174101 0.655580
O O4 0.448880 0.157721 0.615724
O O5 0.342027 0.215672 0.152848
O O6 0.228875 0.121454 0.044131
O O7 0.393292 0.027906 0.094241
O O8 0.108255 0.517630 0.846593
O O9 0.919896 0.517399 0.835848
O O10 0.000000 0.500000 0.000000
O O11 0.500000 0.199337 0.250000
O O12 0.381753 0.356823 0.263322
O O13 0.323084 0.177784 0.319611
O O14 0.750000 0.500000 0.769422
O O15 0.199058 0.916530 0.707760
O O16 0.250000 0.000000 0.856101
#
# Coordination Sequence:
#
# PCOD8223628 Si02
#       7
#     8   8   8   8   8   8   8
#     4  12  26  39  73  95 138 177 230 281 352 401
#     4  10  23  42  61 101 132 175 219 280 334 417
#     4  11  26  49  68 106 140 180 242 295 351 418
#     4  11  22  42  70  91 132 180 223 270 346 410
#     4  11  25  46  73  99 137 183 241 297 349 417
#     4  11  24  41  66 103 133 175 226 275 340 425
#     4  10  22  44  63  93 140 173 223 272 344 415
#
# _framework density 20.759951999999998
#
# number of rings (size 3 to 8) (size 9 to 14) (size 15 to 20)
#    0.000    1.143    4.286    2.571   12.000    1.714 
#    2.571    0.000    0.000    0.000    0.000    0.000 
#    0.000    0.000    0.000    0.000    0.000    0.000 
#
# Total GULP energy -693870.144777 kJ/mol
# GULP energy per Si atom -12390.538300 kJ/mol
# Density = 2.071270 g / cm^3
# Si number density = 20.759952 Si / 1000 Ang^3
#
#
#
# Elastic Constant Matrix: (Units=GPa)
#
#
# Indices 1 2 3 4 5 6 
#
# 1 148.2898 73.7224 26.6180 0.0000 0.0000 0.0000
# 2 73.7224 143.4980 32.4766 0.0000 0.0000 0.0000
# 3 26.6180 32.4766 78.2307 0.0000 0.0000 0.0000
# 4 0.0000 0.0000 0.0000 28.1418 0.0000 0.0000
# 5 0.0000 0.0000 0.0000 0.0000 29.7229 0.0000
# 6 0.0000 0.0000 0.0000 0.0000 0.0000 38.1296
#
#
#
# Elastic Compliance Matrix: (Units=1/GPa)
#
#
# Indices 1 2 3 4 5 6 
#
# 1 0.009172 -0.004421 -0.001285 0.000000 0.000000 0.000000
# 2 -0.004421 0.009823 -0.002573 0.000000 0.000000 0.000000
# 3 -0.001285 -0.002573 0.014288 0.000000 0.000000 0.000000
# 4 0.000000 0.000000 0.000000 0.035534 0.000000 0.000000
# 5 0.000000 0.000000 0.000000 0.000000 0.033644 0.000000
# 6 0.000000 0.000000 0.000000 0.000000 0.000000 0.026226
#
#
# Mechanical properties :
#
#
# Convention : Reuss Voigt Hill
#
# Bulk Modulus (GPa) = 59.79783 70.62806 65.21295
# Shear Modulus (GPa) = 33.15146 35.01231 34.08189
#
# Velocity S-wave (km/s) = 4.00045 4.11120 4.05620
# Velocity P-wave (km/s) = 7.08556 7.52536 7.30877
#
# Compressibility (1/GPa) = 0.01672302
#
# Stress axis : x y z
#
# Youngs Moduli (GPa) = 109.02278 101.80538 69.98698
#
# Poissons Ratio (x) = 0.45012 0.08996
# Poissons Ratio (y) = 0.48204 0.18010
# Poissons Ratio (z) = 0.14014 0.26198
#
# Static dielectric constant tensor:
#      x y z
#    x 3.787940 0.000000 0.000000 
#    y 0.000000 3.971460 0.000000 
#    z 0.000000 0.000000 3.873790 
# 
# 
# High freq. dielectric constant tensor:
#      x y z
#    x 1.826580 0.000000 0.000000 
#    y 0.000000 1.829880 0.000000 
#    z 0.000000 0.000000 1.802620 
# 
# From -- ./inp_files/13474.got.cif
#   From: 2010.03.12/outbox.cif.g09.slc.cpg/sg54_7_cif.got.tgz:13474.got - 2010.04.16 15:00:50.
