data_PCOD8223667
_publ_section_title
;
Structure prediction by ZEFSAII (Michael W. Deem and Ramdas Pophale) SiO2 
 PCOD8223667
Probable space group: P C C A
;
_chemical_formula_sum "Si O2"
_cell_formula_units_Z 28
_cell_length_a 5.300107
_cell_length_b 7.711444
_cell_length_c 29.027282
_cell_angle_alpha 90.000000
_cell_angle_beta 90.000000
_cell_angle_gamma 90.000000
_cell_volume 1186.387927
_symmetry_space_group_name_H-M "P C C A"
_symmetry_group_IT_number 54
_symmetry_cell_setting 'orthorhombic'
loop_
_space_group_symop_operation_xyz
x,y,z
1/2-x,-y,z
1/2+x,-y,1/2-z
-x,y,1/2-z
-x,-y,-z
1/2+x,y,-z
1/2-x,y,1/2+z
x,-y,1/2+z
loop_
_atom_site_type_symbol
_atom_site_label
_atom_site_fract_x
_atom_site_fract_y
_atom_site_fract_z
Si Si1 0.250000 0.000000 0.584146
Si Si2 0.050867 0.293746 0.029609
Si Si3 0.500000 0.887496 0.750000
Si Si4 0.250000 0.500000 0.903186
Si Si5 0.092324 0.823272 0.348695
O O1 0.040801 0.896978 0.553651
O O2 0.362030 0.851144 0.616608
O O3 0.992041 0.453448 0.064648
O O4 0.331276 0.308134 0.008648
O O5 0.508510 0.772717 0.703347
O O6 0.750000 0.000000 0.754465
O O7 0.263161 0.662635 0.869555
O O8 0.250000 0.000000 0.346795
#
# Coordination Sequence:
#
# PCOD8223667 Si02
#       5
#     4   8   4   4   8
#     4  12  24  46  74 108 142 200 248 302 366 442
#     4  12  27  47  70 105 149 196 250 310 364 429
#     4  10  22  46  78 110 148 192 236 296 372 440
#     4  12  26  48  76 108 146 196 248 306 368 436
#     4  11  24  48  73 111 147 192 240 301 370 441
#
# _framework density 23.601050000000001
#
# number of rings (size 3 to 8) (size 9 to 14) (size 15 to 20)
#    0.000    0.571    4.286    3.429    0.000    3.429 
#    0.000    8.571    0.000    0.000    0.000    0.000 
#    0.000    0.000    0.000    0.000    0.000    0.000 
#
# Total GULP energy -346919.338997 kJ/mol
# GULP energy per Si atom -12389.976393 kJ/mol
# Density = 2.354733 g / cm^3
# Si number density = 23.601050 Si / 1000 Ang^3
#
#
#
# Elastic Constant Matrix: (Units=GPa)
#
#
# Indices 1 2 3 4 5 6 
#
# 1 109.8821 31.3255 51.3307 0.0000 0.0000 0.0000
# 2 31.3255 125.6648 74.0788 0.0000 0.0000 0.0000
# 3 51.3307 74.0788 191.7972 0.0000 0.0000 0.0000
# 4 0.0000 0.0000 0.0000 22.6215 0.0000 0.0000
# 5 0.0000 0.0000 0.0000 0.0000 33.3740 0.0000
# 6 0.0000 0.0000 0.0000 0.0000 0.0000 40.7876
#
#
#
# Elastic Compliance Matrix: (Units=1/GPa)
#
#
# Indices 1 2 3 4 5 6 
#
# 1 0.010551 -0.001250 -0.002341 0.000000 0.000000 0.000000
# 2 -0.001250 0.010452 -0.003702 0.000000 0.000000 0.000000
# 3 -0.002341 -0.003702 0.007270 0.000000 0.000000 0.000000
# 4 0.000000 0.000000 0.000000 0.044206 0.000000 0.000000
# 5 0.000000 0.000000 0.000000 0.000000 0.029963 0.000000
# 6 0.000000 0.000000 0.000000 0.000000 0.000000 0.024517
#
#
# Mechanical properties :
#
#
# Convention : Reuss Voigt Hill
#
# Bulk Modulus (GPa) = 73.06640 82.31266 77.68953
# Shear Modulus (GPa) = 34.22140 37.39723 35.80932
#
# Velocity S-wave (km/s) = 3.81201 3.98497 3.89945
# Velocity P-wave (km/s) = 7.09939 7.49171 7.29819
#
# Compressibility (1/GPa) = 0.01368618
#
# Stress axis : x y z
#
# Youngs Moduli (GPa) = 94.78183 95.67748 137.54674
#
# Poissons Ratio (x) = 0.11961 0.32197
# Poissons Ratio (y) = 0.11849 0.50924
# Poissons Ratio (z) = 0.22187 0.35422
#
# Static dielectric constant tensor:
#      x y z
#    x 4.084710 0.000000 0.000000 
#    y 0.000000 3.927590 0.000000 
#    z 0.000000 0.000000 5.059800 
# 
# 
# High freq. dielectric constant tensor:
#      x y z
#    x 1.931100 0.000000 0.000000 
#    y 0.000000 1.922800 0.000000 
#    z 0.000000 0.000000 1.958850 
# 
# From -- ./inp_files/25072.got.cif
#   From: 2010.03.12/outbox.cif.g09.slc.cpg/sg54_13_cif.got.tgz:25072.got - 2010.04.16 15:00:50.
