data_PCOD8223983
_publ_section_title
;
Structure prediction by ZEFSAII (Michael W. Deem and Ramdas Pophale) SiO2 
 PCOD8223983
Probable space group: P C C A
;
_chemical_formula_sum "Si O2"
_cell_formula_units_Z 60
_cell_length_a 17.061679
_cell_length_b 9.387258
_cell_length_c 17.035541
_cell_angle_alpha 90.000000
_cell_angle_beta 90.000000
_cell_angle_gamma 90.000000
_cell_volume 2728.452837
_symmetry_space_group_name_H-M "P C C A"
_symmetry_group_IT_number 54
_symmetry_cell_setting 'orthorhombic'
loop_
_space_group_symop_operation_xyz
x,y,z
1/2-x,-y,z
1/2+x,-y,1/2-z
-x,y,1/2-z
-x,-y,-z
1/2+x,y,-z
1/2-x,y,1/2+z
x,-y,1/2+z
loop_
_atom_site_type_symbol
_atom_site_label
_atom_site_fract_x
_atom_site_fract_y
_atom_site_fract_z
Si Si1 0.852091 0.567204 0.804261
Si Si2 0.994722 0.770975 0.419719
Si Si3 0.295430 0.866304 0.178287
Si Si4 0.988556 0.324044 0.409378
Si Si5 0.527744 0.952467 0.335140
Si Si6 0.315706 0.679843 0.589048
Si Si7 0.398181 0.450284 0.358750
Si Si8 0.250000 0.500000 0.952318
O O1 0.807903 0.714382 0.775992
O O2 0.910191 0.604437 0.875847
O O3 0.800450 0.438923 0.842290
O O4 0.897261 0.507572 0.729530
O O5 0.905910 0.721237 0.410924
O O6 0.030004 0.738645 0.505118
O O7 0.051091 0.693423 0.356983
O O8 0.000314 0.937114 0.400783
O O9 0.379421 0.928884 0.154532
O O10 0.239648 0.817934 0.105385
O O11 0.250000 0.000000 0.221714
O O12 0.016332 0.195848 0.352571
O O13 0.057610 0.437869 0.415298
O O14 0.500000 0.006229 0.250000
O O15 0.290284 0.621349 0.504486
O O16 0.312475 0.425012 0.394551
#
# Coordination Sequence:
#
# PCOD8223983 Si02
#       8
#     8   8   8   8   8   8   8   4
#     4  11  24  42  71 101 137 185 237 294 356 429
#     4  12  25  43  72 103 134 185 240 296 354 431
#     4  11  23  42  71  97 136 185 235 277 361 434
#     4  11  22  44  69  99 139 183 230 288 357 434
#     4  11  26  45  68 103 141 183 239 295 352 432
#     4  12  23  43  70 101 136 184 237 288 355 433
#     4  12  26  42  69 105 139 179 237 301 358 417
#     4  12  26  44  66 104 146 174 238 302 360 420
#
# _framework density 21.990485
#
# number of rings (size 3 to 8) (size 9 to 14) (size 15 to 20)
#    0.000    0.533    5.333    3.600    5.600    0.000 
#    0.000    0.000    0.000    0.000    0.000    0.000 
#    0.000    0.000    0.000    0.000    0.000    0.000 
#
# Total GULP energy -743556.515652 kJ/mol
# GULP energy per Si atom -12392.608594 kJ/mol
# Density = 2.194043 g / cm^3
# Si number density = 21.990485 Si / 1000 Ang^3
#
#
#
# Elastic Constant Matrix: (Units=GPa)
#
#
# Indices 1 2 3 4 5 6 
#
# 1 120.1215 38.6146 18.5702 0.0000 0.0000 0.0000
# 2 38.6146 112.9246 22.5946 0.0000 0.0000 0.0000
# 3 18.5702 22.5946 79.8776 0.0000 0.0000 0.0000
# 4 0.0000 0.0000 0.0000 24.3161 0.0000 0.0000
# 5 0.0000 0.0000 0.0000 0.0000 22.1174 0.0000
# 6 0.0000 0.0000 0.0000 0.0000 0.0000 33.3215
#
#
#
# Elastic Compliance Matrix: (Units=1/GPa)
#
#
# Indices 1 2 3 4 5 6 
#
# 1 0.009492 -0.002972 -0.001366 0.000000 0.000000 0.000000
# 2 -0.002972 0.010318 -0.002227 0.000000 0.000000 0.000000
# 3 -0.001366 -0.002227 0.013467 0.000000 0.000000 0.000000
# 4 0.000000 0.000000 0.000000 0.041125 0.000000 0.000000
# 5 0.000000 0.000000 0.000000 0.000000 0.045213 0.000000
# 6 0.000000 0.000000 0.000000 0.000000 0.000000 0.030011
#
#
# Mechanical properties :
#
#
# Convention : Reuss Voigt Hill
#
# Bulk Modulus (GPa) = 49.64121 52.49804 51.06963
# Shear Modulus (GPa) = 29.50360 31.49396 30.49878
#
# Velocity S-wave (km/s) = 3.66683 3.78850 3.72816
# Velocity P-wave (km/s) = 6.36793 6.56215 6.46577
#
# Compressibility (1/GPa) = 0.02014455
#
# Stress axis : x y z
#
# Youngs Moduli (GPa) = 105.35675 96.92226 74.25686
#
# Poissons Ratio (x) = 0.28809 0.10142
# Poissons Ratio (y) = 0.31316 0.16540
# Poissons Ratio (z) = 0.14390 0.21589
#
# Static dielectric constant tensor:
#      x y z
#    x 4.055320 0.000000 0.000000 
#    y 0.000000 4.391590 0.000000 
#    z 0.000000 0.000000 3.666740 
# 
# 
# High freq. dielectric constant tensor:
#      x y z
#    x 1.879190 0.000000 0.000000 
#    y 0.000000 1.876590 0.000000 
#    z 0.000000 0.000000 1.838530 
# 
# From -- ./inp_files/18671.got.cif
#   From: 2010.03.12/outbox.cif.g09.slc.cpg/sg54_10_cif.got.tgz:18671.got - 2010.04.16 15:00:50.
