data_PCOD8223681
_publ_section_title
;
Structure prediction by ZEFSAII (Michael W. Deem and Ramdas Pophale) SiO2 
 PCOD8223681
Probable space group: P C C A
;
_chemical_formula_sum "Si O2"
_cell_formula_units_Z 32
_cell_length_a 5.173292
_cell_length_b 7.732072
_cell_length_c 34.856285
_cell_angle_alpha 90.000000
_cell_angle_beta 90.000000
_cell_angle_gamma 90.000000
_cell_volume 1394.260679
_symmetry_space_group_name_H-M "P C C A"
_symmetry_group_IT_number 54
_symmetry_cell_setting 'orthorhombic'
loop_
_space_group_symop_operation_xyz
x,y,z
1/2-x,-y,z
1/2+x,-y,1/2-z
-x,y,1/2-z
-x,-y,-z
1/2+x,y,-z
1/2-x,y,1/2+z
x,-y,1/2+z
loop_
_atom_site_type_symbol
_atom_site_label
_atom_site_fract_x
_atom_site_fract_y
_atom_site_fract_z
Si Si1 0.059181 0.808299 0.984022
Si Si2 0.698503 0.202241 0.358877
Si Si3 0.247529 0.794336 0.228349
Si Si4 0.687652 0.693369 0.097323
O O1 0.153042 0.812824 0.940142
O O2 0.782880 0.713385 0.990370
O O3 0.000000 0.000000 0.000000
O O4 0.724279 0.268065 0.315350
O O5 0.411890 0.233765 0.375253
O O6 0.914526 0.310260 0.381119
O O7 0.750000 0.000000 0.362607
O O8 0.500000 0.719896 0.250000
O O9 0.000000 0.717936 0.250000
O O10 0.250000 0.000000 0.230074
O O11 0.750000 0.500000 0.083805
#
# Coordination Sequence:
#
# PCOD8223681 Si02
#       4
#     8   8   8   8
#     4  10  23  40  65  92 122 166 213 275 318 388
#     4  11  24  40  69  99 128 177 223 267 322 392
#     4   9  17  33  59  93 129 161 214 276 318 360
#     4  12  26  43  65  96 137 172 212 272 335 391
#
# _framework density 22.951231
#
# number of rings (size 3 to 8) (size 9 to 14) (size 15 to 20)
#    0.000    1.500    0.000    4.500   10.500    5.000 
#    0.000    0.000    0.000   15.000    0.000    0.000 
#    0.000    0.000    0.000    0.000    0.000    0.000 
#
# Total GULP energy -396670.583892 kJ/mol
# GULP energy per Si atom -12395.955747 kJ/mol
# Density = 2.289899 g / cm^3
# Si number density = 22.951231 Si / 1000 Ang^3
#
#
#
# Elastic Constant Matrix: (Units=GPa)
#
#
# Indices 1 2 3 4 5 6 
#
# 1 212.1569 6.5909 87.9112 0.0000 0.0000 0.0000
# 2 6.5909 56.7622 26.9910 0.0000 0.0000 0.0000
# 3 87.9112 26.9910 203.1713 0.0000 0.0000 0.0000
# 4 0.0000 0.0000 0.0000 0.0454 0.0000 0.0000
# 5 0.0000 0.0000 0.0000 0.0000 53.0780 0.0000
# 6 0.0000 0.0000 0.0000 0.0000 0.0000 22.5240
#
#
#
# Elastic Compliance Matrix: (Units=1/GPa)
#
#
# Indices 1 2 3 4 5 6 
#
# 1 0.005759 0.000551 -0.002565 0.000000 0.000000 0.000000
# 2 0.000551 0.018858 -0.002744 0.000000 0.000000 0.000000
# 3 -0.002565 -0.002744 0.006396 0.000000 0.000000 0.000000
# 4 0.000000 0.000000 0.000000 22.013066 0.000000 0.000000
# 5 0.000000 0.000000 0.000000 0.000000 0.018840 0.000000
# 6 0.000000 0.000000 0.000000 0.000000 0.000000 0.044397
#
#
# Mechanical properties :
#
#
# Convention : Reuss Voigt Hill
#
# Bulk Modulus (GPa) = 46.51594 79.45296 62.98445
# Shear Modulus (GPa) = 0.22600 38.50263 19.36431
#
# Velocity S-wave (km/s) = 0.31414 4.10028 2.90783
# Velocity P-wave (km/s) = 4.52138 7.55709 6.22706
#
# Compressibility (1/GPa) = 0.02149801
#
# Stress axis : x y z
#
# Youngs Moduli (GPa) = 173.63129 53.02781 156.33749
#
# Poissons Ratio (x) = -0.02922 0.40104
# Poissons Ratio (y) = -0.09568 0.42894
# Poissons Ratio (z) = 0.44541 0.14549
#
# Static dielectric constant tensor:
#      x y z
#    x 2.525280 0.000000 0.000000 
#    y 0.000000 3.576630 0.000000 
#    z 0.000000 0.000000 4.274540 
# 
# 
# High freq. dielectric constant tensor:
#      x y z
#    x 1.939910 0.000000 0.000000 
#    y 0.000000 1.871770 0.000000 
#    z 0.000000 0.000000 1.914220 
# 
# From -- ./inp_files/26943.got.cif
#   From: 2010.03.12/outbox.cif.g09.slc.cpg/sg54_14_cif.got.tgz:26943.got - 2010.04.16 15:00:50.
