data_PCOD8223743
_publ_section_title
;
Structure prediction by ZEFSAII (Michael W. Deem and Ramdas Pophale) SiO2 
 PCOD8223743
Probable space group: P C C A
;
_chemical_formula_sum "Si O2"
_cell_formula_units_Z 48
_cell_length_a 25.497538
_cell_length_b 5.550056
_cell_length_c 13.629398
_cell_angle_alpha 90.000000
_cell_angle_beta 90.000000
_cell_angle_gamma 90.000000
_cell_volume 1928.733779
_symmetry_space_group_name_H-M "P C C A"
_symmetry_group_IT_number 54
_symmetry_cell_setting 'orthorhombic'
loop_
_space_group_symop_operation_xyz
x,y,z
1/2-x,-y,z
1/2+x,-y,1/2-z
-x,y,1/2-z
-x,-y,-z
1/2+x,y,-z
1/2-x,y,1/2+z
x,-y,1/2+z
loop_
_atom_site_type_symbol
_atom_site_label
_atom_site_fract_x
_atom_site_fract_y
_atom_site_fract_z
Si Si1 0.613293 0.442455 0.112915
Si Si2 0.274388 0.749150 0.870923
Si Si3 0.449138 0.514714 0.697431
Si Si4 0.620654 0.212402 0.444936
Si Si5 0.228357 0.249266 0.645700
Si Si6 0.546350 0.175135 0.970043
O O1 0.662071 0.253940 0.118916
O O2 0.596894 0.528153 0.222185
O O3 0.633988 0.668213 0.049639
O O4 0.558887 0.359549 0.058944
O O5 0.250000 0.500000 0.917326
O O6 0.256020 0.751018 0.758702
O O7 0.250000 0.000000 0.917879
O O8 0.500000 0.626605 0.750000
O O9 0.430762 0.683374 0.608997
O O10 0.466146 0.272691 0.639171
O O11 0.666595 0.243576 0.367874
O O12 0.604828 0.939009 0.464247
O O13 0.250000 0.500000 0.597643
O O14 0.250000 0.000000 0.596341
O O15 0.500000 0.000000 0.000000
#
# Coordination Sequence:
#
# PCOD8223743 Si02
#       6
#     8   8   8   8   8   8
#     4  11  25  45  71 104 149 192 250 303 380 456
#     4  10  23  44  73 108 145 193 251 310 372 451
#     4  11  24  45  73 102 143 192 243 311 379 449
#     4  11  25  44  70 104 145 193 243 307 374 452
#     4  10  23  44  74 105 146 192 248 310 374 443
#     4  11  26  46  71 108 144 188 249 310 376 456
#
# _framework density 24.886793000000001
#
# number of rings (size 3 to 8) (size 9 to 14) (size 15 to 20)
#    0.000    1.333    1.667    2.000    7.000    8.000 
#    0.000    0.000    0.000    0.000    0.000    0.000 
#    0.000    0.000    0.000    0.000    0.000    0.000 
#
# Total GULP energy -594641.009646 kJ/mol
# GULP energy per Si atom -12388.354368 kJ/mol
# Density = 2.483015 g / cm^3
# Si number density = 24.886793 Si / 1000 Ang^3
#
#
#
# Elastic Constant Matrix: (Units=GPa)
#
#
# Indices 1 2 3 4 5 6 
#
# 1 106.3327 29.2874 21.3173 0.0000 0.0000 0.0000
# 2 29.2874 127.4037 19.2028 0.0000 0.0000 0.0000
# 3 21.3173 19.2028 124.9222 0.0000 0.0000 0.0000
# 4 0.0000 0.0000 0.0000 -5.8744 0.0000 0.0000
# 5 0.0000 0.0000 0.0000 0.0000 41.8460 0.0000
# 6 0.0000 0.0000 0.0000 0.0000 0.0000 44.6291
#
#
#
# Elastic Compliance Matrix: (Units=1/GPa)
#
#
# Indices 1 2 3 4 5 6 
#
# 1 0.010282 -0.002149 -0.001424 0.000000 0.000000 0.000000
# 2 -0.002149 0.008484 -0.000938 0.000000 0.000000 0.000000
# 3 -0.001424 -0.000938 0.008392 0.000000 0.000000 0.000000
# 4 0.000000 0.000000 0.000000 -0.170231 0.000000 0.000000
# 5 0.000000 0.000000 0.000000 0.000000 0.023897 0.000000
# 6 0.000000 0.000000 0.000000 0.000000 0.000000 0.022407
#
#
# Mechanical properties :
#
#
# Convention : Reuss Voigt Hill
#
# Bulk Modulus (GPa) = 55.13567 55.36373 55.24970
# Shear Modulus (GPa) = -61.19816 35.37689 -12.91063
#
# Velocity S-wave (km/s) = -4.96427 3.77439 -2.28013
# Velocity P-wave (km/s) = 3.26435 6.42567 3.91364
#
# Compressibility (1/GPa) = 0.01813708
#
# Stress axis : x y z
#
# Youngs Moduli (GPa) = 97.25880 117.86394 119.15927
#
# Poissons Ratio (x) = 0.25328 0.16971
# Poissons Ratio (y) = 0.20900 0.11171
# Poissons Ratio (z) = 0.13852 0.11050
#
# Static dielectric constant tensor:
#      x y z
#    x 4.272190 0.000000 0.000000 
#    y 0.000000 4.842530 0.000000 
#    z 0.000000 0.000000 4.333430 
# 
# 
# High freq. dielectric constant tensor:
#      x y z
#    x 1.994460 0.000000 0.000000 
#    y 0.000000 1.978790 0.000000 
#    z 0.000000 0.000000 2.003860 
# 
# From -- ./inp_files/15177.got.cif
#   From: 2010.03.12/outbox.cif.g09.slc.cpg/sg54_8_cif.got.tgz:15177.got - 2010.04.16 15:00:50.
