data_PCOD8223593
_publ_section_title
;
Structure prediction by ZEFSAII (Michael W. Deem and Ramdas Pophale) SiO2 
 PCOD8223593
Probable space group: P C C A
;
_chemical_formula_sum "Si O2"
_cell_formula_units_Z 60
_cell_length_a 9.099746
_cell_length_b 26.943139
_cell_length_c 11.376737
_cell_angle_alpha 90.000000
_cell_angle_beta 90.000000
_cell_angle_gamma 90.000000
_cell_volume 2789.299701
_symmetry_space_group_name_H-M "P C C A"
_symmetry_group_IT_number 54
_symmetry_cell_setting 'orthorhombic'
loop_
_space_group_symop_operation_xyz
x,y,z
1/2-x,-y,z
1/2+x,-y,1/2-z
-x,y,1/2-z
-x,-y,-z
1/2+x,y,-z
1/2-x,y,1/2+z
x,-y,1/2+z
loop_
_atom_site_type_symbol
_atom_site_label
_atom_site_fract_x
_atom_site_fract_y
_atom_site_fract_z
Si Si1 0.422820 0.484130 0.624702
Si Si2 0.484638 0.833150 0.378589
Si Si3 0.000000 0.746379 0.250000
Si Si4 0.053604 0.632998 0.624326
Si Si5 0.561374 0.045575 0.133530
Si Si6 0.335064 0.687248 0.549615
Si Si7 0.801247 0.216848 0.558293
Si Si8 0.617460 0.937812 0.087384
O O1 0.250000 0.500000 0.625630
O O2 0.500000 0.503151 0.750000
O O3 0.500000 0.500000 0.500000
O O4 0.442042 0.425692 0.621541
O O5 0.500000 0.809811 0.250000
O O6 0.605667 0.805759 0.453659
O O7 0.329468 0.821346 0.434343
O O8 0.488653 0.893041 0.370681
O O9 0.920597 0.712467 0.344604
O O10 0.887230 0.782072 0.181651
O O11 0.218861 0.650227 0.604894
O O12 0.000000 0.653044 0.750000
O O13 0.947099 0.654850 0.525796
O O14 0.500000 0.071882 0.250000
O O15 0.708071 0.074573 0.091325
O O16 0.591939 0.987566 0.162562
O O17 0.425914 0.049895 0.045268
O O18 0.253913 0.727886 0.469777
#
# Coordination Sequence:
#
# PCOD8223593 Si02
#       8
#     8   8   4   8   8   8   8   8
#     4  11  24  46  70 102 144 190 233 287 349 414
#     4  12  26  44  66  95 131 171 215 268 322 399
#     4  12  24  44  68  92 130 170 220 272 328 388
#     4  11  25  43  69 103 135 173 232 278 332 397
#     4  10  22  42  68  91 128 165 205 270 323 381
#     4  12  23  45  69  99 131 174 222 278 337 389
#     4  12  25  45  68  95 131 175 214 270 335 394
#     4  10  23  42  64  97 123 164 219 257 323 393
#
# _framework density 21.510774999999999
#
# number of rings (size 3 to 8) (size 9 to 14) (size 15 to 20)
#    0.000    0.800    2.667    4.000    0.000    8.533 
#    4.800    0.000    0.000    0.000    0.000    0.000 
#    0.000    0.000    0.000    0.000    0.000    0.000 
#
# Total GULP energy -743720.963939 kJ/mol
# GULP energy per Si atom -12395.349399 kJ/mol
# Density = 2.146182 g / cm^3
# Si number density = 21.510775 Si / 1000 Ang^3
#
#
#
# Elastic Constant Matrix: (Units=GPa)
#
#
# Indices 1 2 3 4 5 6 
#
# 1 132.6792 14.9387 55.0465 0.0000 0.0000 0.0000
# 2 14.9387 68.8394 11.5187 0.0000 0.0000 0.0000
# 3 55.0465 11.5187 129.8288 0.0000 0.0000 0.0000
# 4 0.0000 0.0000 0.0000 -9.1274 0.0000 0.0000
# 5 0.0000 0.0000 0.0000 0.0000 28.5060 0.0000
# 6 0.0000 0.0000 0.0000 0.0000 0.0000 -7.5552
#
#
#
# Elastic Compliance Matrix: (Units=1/GPa)
#
#
# Indices 1 2 3 4 5 6 
#
# 1 0.009272 -0.001375 -0.003809 0.000000 0.000000 0.000000
# 2 -0.001375 0.014949 -0.000743 0.000000 0.000000 0.000000
# 3 -0.003809 -0.000743 0.009384 0.000000 0.000000 0.000000
# 4 0.000000 0.000000 0.000000 -0.109561 0.000000 0.000000
# 5 0.000000 0.000000 0.000000 0.000000 0.035080 0.000000
# 6 0.000000 0.000000 0.000000 0.000000 0.000000 -0.132359
#
#
# Mechanical properties :
#
#
# Convention : Reuss Voigt Hill
#
# Bulk Modulus (GPa) = 45.97718 54.92836 50.45277
# Shear Modulus (GPa) = -32.44043 19.02092 -6.70976
#
# Velocity S-wave (km/s) = -3.88764 2.97686 -1.76806
# Velocity P-wave (km/s) = 1.12639 6.11607 4.39745
#
# Compressibility (1/GPa) = 0.02174992
#
# Stress axis : x y z
#
# Youngs Moduli (GPa) = 107.84917 66.89279 106.56934
#
# Poissons Ratio (x) = 0.09196 0.40596
# Poissons Ratio (y) = 0.14826 0.07923
# Poissons Ratio (z) = 0.41084 0.04973
#
# Static dielectric constant tensor:
#      x y z
#    x 3.517240 0.000000 0.000000 
#    y 0.000000 3.858900 0.000000 
#    z 0.000000 0.000000 4.038750 
# 
# 
# High freq. dielectric constant tensor:
#      x y z
#    x 1.860830 0.000000 0.000000 
#    y 0.000000 1.842000 0.000000 
#    z 0.000000 0.000000 1.858750 
# 
# From -- ./inp_files/7003.got.cif
#   From: 2010.03.12/outbox.cif.g09.slc.cpg/sg54_4_cif.got.tgz:7003.got - 2010.04.16 15:00:50.
