data_PCOD8223084
_publ_section_title
;
Structure prediction by ZEFSAII (Michael W. Deem and Ramdas Pophale) SiO2 
 PCOD8223084
Probable space group: P C C A
;
_chemical_formula_sum "Si O2"
_cell_formula_units_Z 56
_cell_length_a 18.880887
_cell_length_b 8.973531
_cell_length_c 14.669085
_cell_angle_alpha 90.000000
_cell_angle_beta 90.000000
_cell_angle_gamma 90.000000
_cell_volume 2485.357031
_symmetry_space_group_name_H-M "P C C A"
_symmetry_group_IT_number 54
_symmetry_cell_setting 'orthorhombic'
loop_
_space_group_symop_operation_xyz
x,y,z
1/2-x,-y,z
1/2+x,-y,1/2-z
-x,y,1/2-z
-x,-y,-z
1/2+x,y,-z
1/2-x,y,1/2+z
x,-y,1/2+z
loop_
_atom_site_type_symbol
_atom_site_label
_atom_site_fract_x
_atom_site_fract_y
_atom_site_fract_z
Si Si1 0.093495 0.183709 0.898038
Si Si2 0.122538 0.938277 0.583412
Si Si3 0.262721 0.670235 0.885982
Si Si4 0.978149 0.895304 0.648992
Si Si5 0.817042 0.747368 0.435854
Si Si6 0.469041 0.336820 0.015554
Si Si7 0.725628 0.833479 0.278609
O O1 0.157409 0.280011 0.854266
O O2 0.084899 0.019984 0.849769
O O3 0.120879 0.174086 0.000525
O O4 0.017911 0.267190 0.904234
O O5 0.152285 0.842053 0.667089
O O6 0.043559 0.991352 0.608261
O O7 0.168768 0.077512 0.552172
O O8 0.250000 0.500000 0.864499
O O9 0.209768 0.758058 0.818380
O O10 0.241558 0.703272 0.989727
O O11 0.000000 0.837578 0.750000
O O12 0.964127 0.757562 0.579693
O O13 0.782173 0.732328 0.335755
O O14 0.888819 0.650799 0.445482
O O15 0.500000 0.500000 0.000000
O O16 0.750000 0.000000 0.259987
#
# Coordination Sequence:
#
# PCOD8223084 Si02
#       7
#     8   8   8   8   8   8   8
#     4  11  22  44  68  94 137 182 235 285 355 422
#     4  10  20  42  67 100 124 175 234 297 335 406
#     4  12  28  44  65 105 147 187 228 296 371 440
#     4  11  24  40  71 103 138 175 240 304 350 416
#     4  11  22  44  71  96 135 184 235 289 352 419
#     4  11  23  44  69 100 137 190 231 284 368 441
#     4  10  25  40  69 101 131 178 244 294 354 410
#
# _framework density 22.531974000000002
#
# number of rings (size 3 to 8) (size 9 to 14) (size 15 to 20)
#    0.000    1.143    4.286    1.714    8.000    0.571 
#    5.143    0.714    0.000    0.000    0.000    0.000 
#    0.000    0.000    0.000    0.000    0.000    0.000 
#
# Total GULP energy -693927.086107 kJ/mol
# GULP energy per Si atom -12391.555109 kJ/mol
# Density = 2.248069 g / cm^3
# Si number density = 22.531974 Si / 1000 Ang^3
#
#
#
# Elastic Constant Matrix: (Units=GPa)
#
#
# Indices 1 2 3 4 5 6 
#
# 1 92.0971 35.1388 -2.3376 0.0000 0.0000 0.0000
# 2 35.1388 116.2662 31.2093 0.0000 0.0000 0.0000
# 3 -2.3376 31.2093 77.0749 0.0000 0.0000 0.0000
# 4 0.0000 0.0000 0.0000 24.0199 0.0000 0.0000
# 5 0.0000 0.0000 0.0000 0.0000 30.9288 0.0000
# 6 0.0000 0.0000 0.0000 0.0000 0.0000 36.4889
#
#
#
# Elastic Compliance Matrix: (Units=1/GPa)
#
#
# Indices 1 2 3 4 5 6 
#
# 1 0.012585 -0.004382 0.002156 0.000000 0.000000 0.000000
# 2 -0.004382 0.011176 -0.004658 0.000000 0.000000 0.000000
# 3 0.002156 -0.004658 0.014926 0.000000 0.000000 0.000000
# 4 0.000000 0.000000 0.000000 0.041632 0.000000 0.000000
# 5 0.000000 0.000000 0.000000 0.000000 0.032332 0.000000
# 6 0.000000 0.000000 0.000000 0.000000 0.000000 0.027406
#
#
# Mechanical properties :
#
#
# Convention : Reuss Voigt Hill
#
# Bulk Modulus (GPa) = 40.13165 45.93991 43.03578
# Shear Modulus (GPa) = 30.83918 33.04937 31.94427
#
# Velocity S-wave (km/s) = 3.70359 3.83401 3.76936
# Velocity P-wave (km/s) = 6.01152 6.32712 6.17134
#
# Compressibility (1/GPa) = 0.02491799
#
# Stress axis : x y z
#
# Youngs Moduli (GPa) = 79.46060 89.47905 66.99712
#
# Poissons Ratio (x) = 0.39212 -0.14446
# Poissons Ratio (y) = 0.34822 0.31209
# Poissons Ratio (z) = -0.17133 0.41681
#
# Static dielectric constant tensor:
#      x y z
#    x 4.676860 0.000000 0.000000 
#    y 0.000000 3.766660 0.000000 
#    z 0.000000 0.000000 4.084280 
# 
# 
# High freq. dielectric constant tensor:
#      x y z
#    x 1.903370 0.000000 0.000000 
#    y 0.000000 1.862760 0.000000 
#    z 0.000000 0.000000 1.882250 
# 
# From -- ./inp_files/14653.got.cif
#   From: 2010.03.12/outbox.cif.g09.slc.cpg/sg54_8_cif.got.tgz:14653.got - 2010.04.16 15:00:50.
