data_PCOD8223703
_publ_section_title
;
Structure prediction by ZEFSAII (Michael W. Deem and Ramdas Pophale) SiO2 
 PCOD8223703
Probable space group: P C C A
;
_chemical_formula_sum "Si O2"
_cell_formula_units_Z 32
_cell_length_a 7.552349
_cell_length_b 6.639747
_cell_length_c 29.160771
_cell_angle_alpha 90.000000
_cell_angle_beta 90.000000
_cell_angle_gamma 90.000000
_cell_volume 1462.286884
_symmetry_space_group_name_H-M "P C C A"
_symmetry_group_IT_number 54
_symmetry_cell_setting 'orthorhombic'
loop_
_space_group_symop_operation_xyz
x,y,z
1/2-x,-y,z
1/2+x,-y,1/2-z
-x,y,1/2-z
-x,-y,-z
1/2+x,y,-z
1/2-x,y,1/2+z
x,-y,1/2+z
loop_
_atom_site_type_symbol
_atom_site_label
_atom_site_fract_x
_atom_site_fract_y
_atom_site_fract_z
Si Si1 0.494835 0.687035 0.035800
Si Si2 0.586795 0.632258 0.362598
Si Si3 0.500000 0.782981 0.750000
Si Si4 0.250000 0.500000 0.805616
Si Si5 0.750000 0.000000 0.819156
Si Si6 0.250000 0.000000 0.988685
O O1 0.437358 0.589278 0.083552
O O2 0.679156 0.809756 0.041592
O O3 0.500000 0.500000 0.000000
O O4 0.379885 0.880192 0.022117
O O5 0.750000 0.500000 0.343175
O O6 0.403076 0.593072 0.336976
O O7 0.647002 0.857066 0.353847
O O8 0.339773 0.659962 0.772269
O O9 0.408152 0.914003 0.711213
#
# Coordination Sequence:
#
# PCOD8223703 Si02
#       6
#     8   8   4   4   4   4
#     4  11  24  43  71  99 147 192 237 300 364 426
#     4  12  26  47  70 110 145 185 246 298 359 425
#     4  12  24  48  74 106 142 186 240 284 394 424
#     4  12  26  46  76 104 146 186 232 306 354 456
#     4  12  25  46  75 104 140 188 234 309 350 447
#     4  10  23  42  65 104 130 198 240 287 356 439
#
# _framework density 21.88353
#
# number of rings (size 3 to 8) (size 9 to 14) (size 15 to 20)
#    0.000    0.500    2.500    6.000    3.500    4.000 
#    0.000    0.000    0.000    0.000    0.000    0.000 
#    0.000    0.000    0.000    0.000    0.000    0.000 
#
# Total GULP energy -396443.058480 kJ/mol
# GULP energy per Si atom -12388.845578 kJ/mol
# Density = 2.183372 g / cm^3
# Si number density = 21.883530 Si / 1000 Ang^3
#
#
#
# Elastic Constant Matrix: (Units=GPa)
#
#
# Indices 1 2 3 4 5 6 
#
# 1 138.2160 57.7859 47.3181 0.0000 0.0000 0.0000
# 2 57.7859 137.5629 53.5651 0.0000 0.0000 0.0000
# 3 47.3181 53.5651 122.2022 0.0000 0.0000 0.0000
# 4 0.0000 0.0000 0.0000 44.8379 0.0000 0.0000
# 5 0.0000 0.0000 0.0000 0.0000 31.1594 0.0000
# 6 0.0000 0.0000 0.0000 0.0000 0.0000 59.4904
#
#
#
# Elastic Compliance Matrix: (Units=1/GPa)
#
#
# Indices 1 2 3 4 5 6 
#
# 1 0.009271 -0.003010 -0.002270 0.000000 0.000000 0.000000
# 2 -0.003010 0.009743 -0.003105 0.000000 0.000000 0.000000
# 3 -0.002270 -0.003105 0.010423 0.000000 0.000000 0.000000
# 4 0.000000 0.000000 0.000000 0.022303 0.000000 0.000000
# 5 0.000000 0.000000 0.000000 0.000000 0.032093 0.000000
# 6 0.000000 0.000000 0.000000 0.000000 0.000000 0.016809
#
#
# Mechanical properties :
#
#
# Convention : Reuss Voigt Hill
#
# Bulk Modulus (GPa) = 78.95255 79.47994 79.21624
# Shear Modulus (GPa) = 41.10643 43.05167 42.07905
#
# Velocity S-wave (km/s) = 4.33877 4.44025 4.38980
# Velocity P-wave (km/s) = 7.82667 7.91746 7.87220
#
# Compressibility (1/GPa) = 0.01266584
#
# Stress axis : x y z
#
# Youngs Moduli (GPa) = 107.86482 102.63749 95.93945
#
# Poissons Ratio (x) = 0.30898 0.21780
# Poissons Ratio (y) = 0.32472 0.29789
# Poissons Ratio (z) = 0.24488 0.31869
#
# Static dielectric constant tensor:
#      x y z
#    x 4.596360 0.000000 0.000000 
#    y 0.000000 4.124760 0.000000 
#    z 0.000000 0.000000 3.825650 
# 
# 
# High freq. dielectric constant tensor:
#      x y z
#    x 1.885330 0.000000 0.000000 
#    y 0.000000 1.875550 0.000000 
#    z 0.000000 0.000000 1.855440 
# 
# From -- ./inp_files/27451.got.cif
#   From: 2010.03.12/outbox.cif.g09.slc.cpg/sg54_14_cif.got.tgz:27451.got - 2010.04.16 15:00:50.
