data_PCOD8223729
_publ_section_title
;
Structure prediction by ZEFSAII (Michael W. Deem and Ramdas Pophale) SiO2 
 PCOD8223729
Probable space group: P C C A
;
_chemical_formula_sum "Si O2"
_cell_formula_units_Z 40
_cell_length_a 9.922488
_cell_length_b 11.819980
_cell_length_c 15.889967
_cell_angle_alpha 90.000000
_cell_angle_beta 90.000000
_cell_angle_gamma 90.000000
_cell_volume 1863.632688
_symmetry_space_group_name_H-M "P C C A"
_symmetry_group_IT_number 54
_symmetry_cell_setting 'orthorhombic'
loop_
_space_group_symop_operation_xyz
x,y,z
1/2-x,-y,z
1/2+x,-y,1/2-z
-x,y,1/2-z
-x,-y,-z
1/2+x,y,-z
1/2-x,y,1/2+z
x,-y,1/2+z
loop_
_atom_site_type_symbol
_atom_site_label
_atom_site_fract_x
_atom_site_fract_y
_atom_site_fract_z
Si Si1 0.869736 0.246670 0.883247
Si Si2 0.500000 0.615565 0.750000
Si Si3 0.076950 0.237918 0.164417
Si Si4 0.071149 0.388345 0.460478
Si Si5 0.750000 0.500000 0.672156
Si Si6 0.401993 0.013921 0.176334
O O1 0.736535 0.256270 0.824784
O O2 0.904451 0.112725 0.895037
O O3 0.988247 0.308503 0.832957
O O4 0.854450 0.310226 0.971284
O O5 0.632984 0.541143 0.734975
O O6 0.000000 0.273833 0.250000
O O7 0.042037 0.314904 0.085052
O O8 0.045264 0.106599 0.141108
O O9 0.185923 0.409102 0.391256
O O10 0.000000 0.500000 0.500000
O O11 0.500000 0.056097 0.250000
O O12 0.250000 0.000000 0.211966
#
# Coordination Sequence:
#
# PCOD8223729 Si02
#       6
#     8   4   8   8   4   8
#     4  11  23  41  69  97 136 172 220 274 336 396
#     4  12  26  42  70  96 134 182 234 276 330 414
#     4  10  23  43  69  96 134 177 221 271 331 401
#     4  12  25  43  65  98 137 177 220 280 334 398
#     4  12  28  44  64 100 132 182 234 274 344 394
#     4   9  19  40  66  99 130 171 220 271 328 397
#
# _framework density 21.463456999999998
#
# number of rings (size 3 to 8) (size 9 to 14) (size 15 to 20)
#    0.000    1.200    3.000    2.400    4.200    1.600 
#    0.000    0.000    0.000    0.000    0.000    0.000 
#    0.000    0.000    0.000    0.000    0.000    0.000 
#
# Total GULP energy -495778.006809 kJ/mol
# GULP energy per Si atom -12394.450170 kJ/mol
# Density = 2.141461 g / cm^3
# Si number density = 21.463457 Si / 1000 Ang^3
#
#
#
# Elastic Constant Matrix: (Units=GPa)
#
#
# Indices 1 2 3 4 5 6 
#
# 1 89.2992 47.3770 27.4359 0.0000 0.0000 0.0000
# 2 47.3770 138.5819 61.1320 0.0000 0.0000 0.0000
# 3 27.4359 61.1320 88.8212 0.0000 0.0000 0.0000
# 4 0.0000 0.0000 0.0000 32.3349 0.0000 0.0000
# 5 0.0000 0.0000 0.0000 0.0000 38.2993 0.0000
# 6 0.0000 0.0000 0.0000 0.0000 0.0000 30.0453
#
#
#
# Elastic Compliance Matrix: (Units=1/GPa)
#
#
# Indices 1 2 3 4 5 6 
#
# 1 0.013810 -0.004077 -0.001459 0.000000 0.000000 0.000000
# 2 -0.004077 0.011566 -0.006701 0.000000 0.000000 0.000000
# 3 -0.001459 -0.006701 0.016321 0.000000 0.000000 0.000000
# 4 0.000000 0.000000 0.000000 0.030926 0.000000 0.000000
# 5 0.000000 0.000000 0.000000 0.000000 0.026110 0.000000
# 6 0.000000 0.000000 0.000000 0.000000 0.000000 0.033283
#
#
# Mechanical properties :
#
#
# Convention : Reuss Voigt Hill
#
# Bulk Modulus (GPa) = 58.06622 65.39914 61.73268
# Shear Modulus (GPa) = 30.81999 32.18639 31.50319
#
# Velocity S-wave (km/s) = 3.79348 3.87666 3.83529
# Velocity P-wave (km/s) = 6.80438 7.11155 6.95966
#
# Compressibility (1/GPa) = 0.01722172
#
# Stress axis : x y z
#
# Youngs Moduli (GPa) = 72.41163 86.46192 61.26982
#
# Poissons Ratio (x) = 0.35254 0.08942
# Poissons Ratio (y) = 0.29525 0.41056
# Poissons Ratio (z) = 0.10568 0.57936
#
# Static dielectric constant tensor:
#      x y z
#    x 4.016850 0.000000 0.000000 
#    y 0.000000 4.195520 0.000000 
#    z 0.000000 0.000000 3.596390 
# 
# 
# High freq. dielectric constant tensor:
#      x y z
#    x 1.849740 0.000000 0.000000 
#    y 0.000000 1.861530 0.000000 
#    z 0.000000 0.000000 1.816630 
# 
# From -- ./inp_files/16381.got.cif
#   From: 2010.03.12/outbox.cif.g09.slc.cpg/sg54_9_cif.got.tgz:16381.got - 2010.04.16 15:00:50.
