data_PCOD8223142
_publ_section_title
;
Structure prediction by ZEFSAII (Michael W. Deem and Ramdas Pophale) SiO2 
 PCOD8223142
Probable space group: P C C A
;
_chemical_formula_sum "Si O2"
_cell_formula_units_Z 60
_cell_length_a 5.066353
_cell_length_b 24.144124
_cell_length_c 24.490591
_cell_angle_alpha 90.000000
_cell_angle_beta 90.000000
_cell_angle_gamma 90.000000
_cell_volume 2995.754115
_symmetry_space_group_name_H-M "P C C A"
_symmetry_group_IT_number 54
_symmetry_cell_setting 'orthorhombic'
loop_
_space_group_symop_operation_xyz
x,y,z
1/2-x,-y,z
1/2+x,-y,1/2-z
-x,y,1/2-z
-x,-y,-z
1/2+x,y,-z
1/2-x,y,1/2+z
x,-y,1/2+z
loop_
_atom_site_type_symbol
_atom_site_label
_atom_site_fract_x
_atom_site_fract_y
_atom_site_fract_z
Si Si1 0.485251 0.619019 0.849036
Si Si2 0.000000 0.463263 0.750000
Si Si3 0.370332 0.208897 0.695636
Si Si4 0.889859 0.649499 0.035806
Si Si5 0.607420 0.222812 0.035286
Si Si6 0.247563 0.937101 0.287431
Si Si7 0.010607 0.667619 0.691501
Si Si8 0.853480 0.835280 0.143824
O O1 0.429101 0.570671 0.805397
O O2 0.427024 0.607252 0.912978
O O3 0.282247 0.669264 0.833811
O O4 0.792025 0.634984 0.847934
O O5 0.250000 0.500000 0.734851
O O6 0.500000 0.181247 0.750000
O O7 0.347841 0.274227 0.702735
O O8 0.580414 0.198822 0.647607
O O9 0.081142 0.184252 0.685711
O O10 0.918671 0.713567 0.056244
O O11 0.605635 0.637336 0.010412
O O12 0.547968 0.177626 0.082728
O O13 0.397385 0.211657 0.987854
O O14 0.500000 0.923837 0.250000
O O15 0.223360 0.898785 0.341693
O O16 0.000000 0.925467 0.250000
O O17 0.250000 0.000000 0.309300
O O18 0.000000 0.636314 0.750000
#
# Coordination Sequence:
#
# PCOD8223142 Si02
#       8
#     8   4   8   8   8   8   8   8
#     4  12  22  40  64  85 123 160 199 246 297 350
#     4  12  26  44  66  94 122 158 208 254 306 352
#     4  11  22  31  50  83 121 148 180 226 286 366
#     4  10  21  37  59  88 117 157 203 239 286 357
#     4  10  21  36  54  80 114 152 196 238 283 349
#     4  10  21  37  57  80 109 149 201 251 299 361
#     4  11  20  34  53  86 119 156 191 226 291 367
#     4  12  21  35  54  78 112 156 194 237 300 346
#
# _framework density 20.028348000000001
#
# number of rings (size 3 to 8) (size 9 to 14) (size 15 to 20)
#    0.000    1.067    1.333    7.200    0.000    4.267 
#    0.000    0.000    0.000    3.200    0.000    0.000 
#    0.000    0.000    0.000    0.000    0.000    0.000 
#
# Total GULP energy -743680.060392 kJ/mol
# GULP energy per Si atom -12394.667673 kJ/mol
# Density = 1.998276 g / cm^3
# Si number density = 20.028348 Si / 1000 Ang^3
#
#
#
# Elastic Constant Matrix: (Units=GPa)
#
#
# Indices 1 2 3 4 5 6 
#
# 1 104.9465 19.7268 10.8347 0.0000 0.0000 0.0000
# 2 19.7268 73.6297 40.1135 0.0000 0.0000 0.0000
# 3 10.8347 40.1135 111.2893 0.0000 0.0000 0.0000
# 4 0.0000 0.0000 0.0000 -229.4202 0.0000 0.0000
# 5 0.0000 0.0000 0.0000 0.0000 27.7280 0.0000
# 6 0.0000 0.0000 0.0000 0.0000 0.0000 23.2595
#
#
#
# Elastic Compliance Matrix: (Units=1/GPa)
#
#
# Indices 1 2 3 4 5 6 
#
# 1 0.010034 -0.002683 -0.000010 0.000000 0.000000 0.000000
# 2 -0.002683 0.017618 -0.006089 0.000000 0.000000 0.000000
# 3 -0.000010 -0.006089 0.011181 0.000000 0.000000 0.000000
# 4 0.000000 0.000000 0.000000 -0.004359 0.000000 0.000000
# 5 0.000000 0.000000 0.000000 0.000000 0.036065 0.000000
# 6 0.000000 0.000000 0.000000 0.000000 0.000000 0.042993
#
#
# Mechanical properties :
#
#
# Convention : Reuss Voigt Hill
#
# Bulk Modulus (GPa) = 47.01590 47.91285 47.46438
# Shear Modulus (GPa) = 36.18338 -21.07383 7.55477
#
# Velocity S-wave (km/s) = 4.25503 -3.24728 1.94428
# Velocity P-wave (km/s) = 6.90406 3.14876 5.36566
#
# Compressibility (1/GPa) = 0.02126940
#
# Stress axis : x y z
#
# Youngs Moduli (GPa) = 99.66128 56.76160 89.43534
#
# Poissons Ratio (x) = 0.15229 0.00088
# Poissons Ratio (y) = 0.26739 0.54457
# Poissons Ratio (z) = 0.00098 0.34562
#
# Static dielectric constant tensor:
#      x y z
#    x 3.790190 0.000000 0.000000 
#    y 0.000000 3.467180 0.000000 
#    z 0.000000 0.000000 3.562420 
# 
# 
# High freq. dielectric constant tensor:
#      x y z
#    x 1.809220 0.000000 0.000000 
#    y 0.000000 1.742850 0.000000 
#    z 0.000000 0.000000 1.769460 
# 
# From -- ./inp_files/19887.got.cif
#   From: 2010.03.12/outbox.cif.g09.slc.cpg/sg54_10_cif.got.tgz:19887.got - 2010.04.16 15:00:50.
