data_PCOD8223371
_publ_section_title
;
Structure prediction by ZEFSAII (Michael W. Deem and Ramdas Pophale) SiO2 
 PCOD8223371
Probable space group: P C C A
;
_chemical_formula_sum "Si O2"
_cell_formula_units_Z 64
_cell_length_a 14.935370
_cell_length_b 20.611981
_cell_length_c 9.251507
_cell_angle_alpha 90.000000
_cell_angle_beta 90.000000
_cell_angle_gamma 90.000000
_cell_volume 2848.053881
_symmetry_space_group_name_H-M "P C C A"
_symmetry_group_IT_number 54
_symmetry_cell_setting 'orthorhombic'
loop_
_space_group_symop_operation_xyz
x,y,z
1/2-x,-y,z
1/2+x,-y,1/2-z
-x,y,1/2-z
-x,-y,-z
1/2+x,y,-z
1/2-x,y,1/2+z
x,-y,1/2+z
loop_
_atom_site_type_symbol
_atom_site_label
_atom_site_fract_x
_atom_site_fract_y
_atom_site_fract_z
Si Si1 0.661455 0.536119 0.401866
Si Si2 0.003259 0.185412 0.082976
Si Si3 0.743487 0.340989 0.292148
Si Si4 0.540540 0.941816 0.908267
Si Si5 0.407146 0.429005 0.309313
Si Si6 0.191578 0.847799 0.510711
Si Si7 0.829411 0.260314 0.050092
Si Si8 0.718352 0.068564 0.264629
O O1 0.750000 0.500000 0.464994
O O2 0.683857 0.605433 0.333277
O O3 0.617083 0.491893 0.282273
O O4 0.587792 0.546973 0.525963
O O5 0.936435 0.246132 0.052622
O O6 0.000000 0.166805 0.250000
O O7 0.106120 0.200087 0.034973
O O8 0.974432 0.124151 0.991661
O O9 0.667323 0.373001 0.193081
O O10 0.794767 0.284172 0.206534
O O11 0.692287 0.314720 0.432654
O O12 0.500000 0.940737 0.750000
O O13 0.646967 0.947928 0.890106
O O14 0.500000 0.000000 0.000000
O O15 0.500000 0.399995 0.250000
O O16 0.280594 0.806190 0.489629
O O17 0.175560 0.891350 0.368170
O O18 0.202244 0.891707 0.655196
O O19 0.750000 0.000000 0.199676
#
# Coordination Sequence:
#
# PCOD8223371 Si02
#       8
#     8   8   8   8   8   8   8   8
#     4  10  21  42  70 100 143 193 236 292 360 421
#     4  12  26  49  71 102 141 187 241 295 362 433
#     4  11  24  45  71 101 142 195 248 291 360 434
#     4  12  26  45  71 106 140 180 232 296 366 444
#     4  11  23  41  70 110 149 185 237 302 354 418
#     4  12  26  47  72 102 142 184 242 295 366 440
#     4  12  26  47  73  99 141 199 242 300 359 428
#     4  12  26  45  72 106 138 183 231 301 375 447
#
# _framework density 22.471485000000001
#
# number of rings (size 3 to 8) (size 9 to 14) (size 15 to 20)
#    0.000    0.500    3.750    5.250    3.500    1.000 
#    2.250    0.000    0.000    0.000    0.000    0.000 
#    0.000    0.000    0.000    0.000    0.000    0.000 
#
# Total GULP energy -793802.007422 kJ/mol
# GULP energy per Si atom -12403.156366 kJ/mol
# Density = 2.242034 g / cm^3
# Si number density = 22.471485 Si / 1000 Ang^3
#
#
#
# Elastic Constant Matrix: (Units=GPa)
#
#
# Indices 1 2 3 4 5 6 
#
# 1 118.8184 30.8976 30.8851 0.0000 0.0000 0.0000
# 2 30.8976 76.8548 22.0404 0.0000 0.0000 0.0000
# 3 30.8851 22.0404 105.9074 0.0000 0.0000 0.0000
# 4 0.0000 0.0000 0.0000 24.7276 0.0000 0.0000
# 5 0.0000 0.0000 0.0000 0.0000 25.2901 0.0000
# 6 0.0000 0.0000 0.0000 0.0000 0.0000 33.6077
#
#
#
# Elastic Compliance Matrix: (Units=1/GPa)
#
#
# Indices 1 2 3 4 5 6 
#
# 1 0.009850 -0.003335 -0.002178 0.000000 0.000000 0.000000
# 2 -0.003335 0.014967 -0.002142 0.000000 0.000000 0.000000
# 3 -0.002178 -0.002142 0.010523 0.000000 0.000000 0.000000
# 4 0.000000 0.000000 0.000000 0.040441 0.000000 0.000000
# 5 0.000000 0.000000 0.000000 0.000000 0.039541 0.000000
# 6 0.000000 0.000000 0.000000 0.000000 0.000000 0.029755
#
#
# Mechanical properties :
#
#
# Convention : Reuss Voigt Hill
#
# Bulk Modulus (GPa) = 49.92890 52.13631 51.03260
# Shear Modulus (GPa) = 29.92869 31.24225 30.58547
#
# Velocity S-wave (km/s) = 3.65341 3.73273 3.69328
# Velocity P-wave (km/s) = 6.32958 6.46754 6.39893
#
# Compressibility (1/GPa) = 0.02002848
#
# Stress axis : x y z
#
# Youngs Moduli (GPa) = 101.52596 66.81517 95.02765
#
# Poissons Ratio (x) = 0.22284 0.20700
# Poissons Ratio (y) = 0.33860 0.20356
# Poissons Ratio (z) = 0.22116 0.14313
#
# Static dielectric constant tensor:
#      x y z
#    x 4.216710 0.000000 0.000000 
#    y 0.000000 3.945560 0.000000 
#    z 0.000000 0.000000 3.842100 
# 
# 
# High freq. dielectric constant tensor:
#      x y z
#    x 1.888370 0.000000 0.000000 
#    y 0.000000 1.880690 0.000000 
#    z 0.000000 0.000000 1.899440 
# 
# From -- ./inp_files/3745.got.cif
#   From: 2010.03.12/outbox.cif.g09.slc.cpg/sg54_2_cif.got.tgz:3745.got - 2010.04.16 15:00:50.
