data_PCOD8223929
_publ_section_title
;
Structure prediction by ZEFSAII (Michael W. Deem and Ramdas Pophale) SiO2 
 PCOD8223929
Probable space group: P C C A
;
_chemical_formula_sum "Si O2"
_cell_formula_units_Z 48
_cell_length_a 18.248527
_cell_length_b 11.224245
_cell_length_c 11.435898
_cell_angle_alpha 90.000000
_cell_angle_beta 90.000000
_cell_angle_gamma 90.000000
_cell_volume 2342.368534
_symmetry_space_group_name_H-M "P C C A"
_symmetry_group_IT_number 54
_symmetry_cell_setting 'orthorhombic'
loop_
_space_group_symop_operation_xyz
x,y,z
1/2-x,-y,z
1/2+x,-y,1/2-z
-x,y,1/2-z
-x,-y,-z
1/2+x,y,-z
1/2-x,y,1/2+z
x,-y,1/2+z
loop_
_atom_site_type_symbol
_atom_site_label
_atom_site_fract_x
_atom_site_fract_y
_atom_site_fract_z
Si Si1 0.690920 0.333281 0.856492
Si Si2 0.920690 0.227541 0.192221
Si Si3 0.466838 0.629245 0.508126
Si Si4 0.649241 0.396018 0.303309
Si Si5 0.111467 0.262365 0.923822
Si Si6 0.456015 0.019155 0.375830
O O1 0.646814 0.239460 0.779452
O O2 0.776948 0.324001 0.832370
O O3 0.660462 0.464540 0.827187
O O4 0.678377 0.290604 0.989102
O O5 0.000000 0.232531 0.250000
O O6 0.908380 0.100691 0.131231
O O7 0.916693 0.338415 0.102662
O O8 0.500000 0.500000 0.500000
O O9 0.417650 0.650054 0.620537
O O10 0.534151 0.720179 0.511314
O O11 0.623728 0.363165 0.173847
O O12 0.104225 0.126006 0.880947
O O13 0.500000 0.034286 0.250000
O O14 0.500000 0.000000 0.500000
#
# Coordination Sequence:
#
# PCOD8223929 Si02
#       6
#     8   8   8   8   8   8
#     4  11  25  44  63  96 136 183 212 277 359 414
#     4  11  21  40  67  95 132 174 220 275 332 404
#     4  12  21  38  67  98 127 162 223 278 332 393
#     4  11  26  40  66  95 136 172 219 277 348 415
#     4  12  23  43  67  96 131 172 232 280 335 411
#     4  11  22  41  69 101 133 177 230 292 342 396
#
# _framework density 20.492076999999998
#
# number of rings (size 3 to 8) (size 9 to 14) (size 15 to 20)
#    0.000    0.667    5.000    3.500    2.333    1.333 
#    0.000    0.833    0.000    0.000    0.000    0.000 
#    0.000    0.000    0.000    0.000    0.000    0.000 
#
# Total GULP energy -594831.970392 kJ/mol
# GULP energy per Si atom -12392.332716 kJ/mol
# Density = 2.044544 g / cm^3
# Si number density = 20.492077 Si / 1000 Ang^3
#
#
#
# Elastic Constant Matrix: (Units=GPa)
#
#
# Indices 1 2 3 4 5 6 
#
# 1 79.9785 17.3469 20.1103 0.0000 0.0000 0.0000
# 2 17.3469 125.9774 38.0722 0.0000 0.0000 0.0000
# 3 20.1103 38.0722 129.7542 0.0000 0.0000 0.0000
# 4 0.0000 0.0000 0.0000 27.1315 0.0000 0.0000
# 5 0.0000 0.0000 0.0000 0.0000 14.4061 0.0000
# 6 0.0000 0.0000 0.0000 0.0000 0.0000 16.4323
#
#
#
# Elastic Compliance Matrix: (Units=1/GPa)
#
#
# Indices 1 2 3 4 5 6 
#
# 1 0.013206 -0.001317 -0.001660 0.000000 0.000000 0.000000
# 2 -0.001317 0.008842 -0.002390 0.000000 0.000000 0.000000
# 3 -0.001660 -0.002390 0.008666 0.000000 0.000000 0.000000
# 4 0.000000 0.000000 0.000000 0.036858 0.000000 0.000000
# 5 0.000000 0.000000 0.000000 0.000000 0.069415 0.000000
# 6 0.000000 0.000000 0.000000 0.000000 0.000000 0.060856
#
#
# Mechanical properties :
#
#
# Convention : Reuss Voigt Hill
#
# Bulk Modulus (GPa) = 50.05294 54.08540 52.06917
# Shear Modulus (GPa) = 23.23029 28.93936 26.08483
#
# Velocity S-wave (km/s) = 3.37058 3.76203 3.57167
# Velocity P-wave (km/s) = 6.29494 6.73210 6.51719
#
# Compressibility (1/GPa) = 0.01997885
#
# Stress axis : x y z
#
# Youngs Moduli (GPa) = 75.72049 113.10179 115.39923
#
# Poissons Ratio (x) = 0.14892 0.19162
# Poissons Ratio (y) = 0.09970 0.27583
# Poissons Ratio (z) = 0.12573 0.27034
#
# Static dielectric constant tensor:
#      x y z
#    x 3.679540 0.000000 0.000000 
#    y 0.000000 -4.902930 0.000000 
#    z 0.000000 0.000000 4.068320 
# 
# 
# High freq. dielectric constant tensor:
#      x y z
#    x 1.781480 0.000000 0.000000 
#    y 0.000000 1.804840 0.000000 
#    z 0.000000 0.000000 1.821280 
# 
# From -- ./inp_files/8966.got.cif
#   From: 2010.03.12/outbox.cif.g09.slc.cpg/sg54_5_cif.got.tgz:8966.got - 2010.04.16 15:00:50.
