data_PCOD8223559
_publ_section_title
;
Structure prediction by ZEFSAII (Michael W. Deem and Ramdas Pophale) SiO2 
 PCOD8223559
Probable space group: P C C A
;
_chemical_formula_sum "Si O2"
_cell_formula_units_Z 56
_cell_length_a 8.024785
_cell_length_b 13.918257
_cell_length_c 22.163856
_cell_angle_alpha 90.000000
_cell_angle_beta 90.000000
_cell_angle_gamma 90.000000
_cell_volume 2475.503684
_symmetry_space_group_name_H-M "P C C A"
_symmetry_group_IT_number 54
_symmetry_cell_setting 'orthorhombic'
loop_
_space_group_symop_operation_xyz
x,y,z
1/2-x,-y,z
1/2+x,-y,1/2-z
-x,y,1/2-z
-x,-y,-z
1/2+x,y,-z
1/2-x,y,1/2+z
x,-y,1/2+z
loop_
_atom_site_type_symbol
_atom_site_label
_atom_site_fract_x
_atom_site_fract_y
_atom_site_fract_z
Si Si1 0.154341 0.595536 0.932439
Si Si2 0.500000 0.083423 0.750000
Si Si3 0.750000 0.000000 0.040643
Si Si4 0.343367 0.598066 0.293623
Si Si5 0.321291 0.200617 0.281888
Si Si6 0.298738 0.838172 0.554968
Si Si7 0.988874 0.938592 0.139524
Si Si8 0.424607 0.708346 0.994258
O O1 0.250000 0.500000 0.950352
O O2 0.096290 0.593507 0.862809
O O3 0.274773 0.684857 0.948200
O O4 0.994775 0.610229 0.975626
O O5 0.665354 0.149436 0.751267
O O6 0.512152 0.015653 0.808068
O O7 0.916897 0.988654 0.080020
O O8 0.710823 0.908294 0.001204
O O9 0.250000 0.500000 0.274955
O O10 0.500000 0.613506 0.250000
O O11 0.215030 0.686586 0.287977
O O12 0.500000 0.185378 0.250000
O O13 0.352360 0.143816 0.344191
O O14 0.331444 0.892816 0.618852
O O15 0.449381 0.764006 0.547991
O O16 0.131680 0.774027 0.552013
#
# Coordination Sequence:
#
# PCOD8223559 Si02
#       8
#     8   4   4   8   8   8   8   8
#     4  10  22  43  71 102 138 182 224 298 362 424
#     4  12  26  50  70 104 150 196 242 308 364 422
#     4  12  24  44  64  96 140 188 238 298 350 426
#     4  11  25  48  75 106 145 187 239 307 369 438
#     4  12  26  47  73 104 140 193 247 297 369 431
#     4  11  24  42  64  98 137 188 229 291 355 417
#     4  12  25  45  68 100 148 188 247 301 356 440
#     4  10  22  41  68 101 136 178 238 280 359 424
#
# _framework density 22.621659000000001
#
# number of rings (size 3 to 8) (size 9 to 14) (size 15 to 20)
#    0.000    0.857    4.286    2.143    2.000    2.286 
#    0.000    6.429    0.000    0.000    0.000    0.000 
#    0.000    0.000    0.000    0.000    0.000    0.000 
#
# Total GULP energy -694073.259197 kJ/mol
# GULP energy per Si atom -12394.165343 kJ/mol
# Density = 2.257017 g / cm^3
# Si number density = 22.621659 Si / 1000 Ang^3
#
#
#
# Elastic Constant Matrix: (Units=GPa)
#
#
# Indices 1 2 3 4 5 6 
#
# 1 76.6687 30.1443 34.5020 0.0000 0.0000 0.0000
# 2 30.1443 133.0023 39.3265 0.0000 0.0000 0.0000
# 3 34.5020 39.3265 92.8049 0.0000 0.0000 0.0000
# 4 0.0000 0.0000 0.0000 25.7193 0.0000 0.0000
# 5 0.0000 0.0000 0.0000 0.0000 38.3146 0.0000
# 6 0.0000 0.0000 0.0000 0.0000 0.0000 42.6309
#
#
#
# Elastic Compliance Matrix: (Units=1/GPa)
#
#
# Indices 1 2 3 4 5 6 
#
# 1 0.016189 -0.002160 -0.005103 0.000000 0.000000 0.000000
# 2 -0.002160 0.008884 -0.002961 0.000000 0.000000 0.000000
# 3 -0.005103 -0.002961 0.013927 0.000000 0.000000 0.000000
# 4 0.000000 0.000000 0.000000 0.038881 0.000000 0.000000
# 5 0.000000 0.000000 0.000000 0.000000 0.026100 0.000000
# 6 0.000000 0.000000 0.000000 0.000000 0.000000 0.023457
#
#
# Mechanical properties :
#
#
# Convention : Reuss Voigt Hill
#
# Bulk Modulus (GPa) = 53.90668 56.71349 55.31008
# Shear Modulus (GPa) = 32.45239 34.56649 33.50944
#
# Velocity S-wave (km/s) = 3.79168 3.91324 3.85294
# Velocity P-wave (km/s) = 6.56129 6.74854 6.65557
#
# Compressibility (1/GPa) = 0.01855058
#
# Stress axis : x y z
#
# Youngs Moduli (GPa) = 61.77046 112.56270 71.80078
#
# Poissons Ratio (x) = 0.24316 0.36641
# Poissons Ratio (y) = 0.13344 0.21264
# Poissons Ratio (z) = 0.31522 0.33335
#
# Static dielectric constant tensor:
#      x y z
#    x 4.240770 0.000000 0.000000 
#    y 0.000000 4.393960 0.000000 
#    z 0.000000 0.000000 4.058230 
# 
# 
# High freq. dielectric constant tensor:
#      x y z
#    x 1.895360 0.000000 0.000000 
#    y 0.000000 1.907830 0.000000 
#    z 0.000000 0.000000 1.884560 
# 
# From -- ./inp_files/20602.got.cif
#   From: 2010.03.12/outbox.cif.g09.slc.cpg/sg54_11_cif.got.tgz:20602.got - 2010.04.16 15:00:50.
