data_PCOD8223827
_publ_section_title
;
Structure prediction by ZEFSAII (Michael W. Deem and Ramdas Pophale) SiO2 
 PCOD8223827
Probable space group: P C C A
;
_chemical_formula_sum "Si O2"
_cell_formula_units_Z 52
_cell_length_a 19.946542
_cell_length_b 13.039072
_cell_length_c 8.811809
_cell_angle_alpha 90.000000
_cell_angle_beta 90.000000
_cell_angle_gamma 90.000000
_cell_volume 2291.814033
_symmetry_space_group_name_H-M "P C C A"
_symmetry_group_IT_number 54
_symmetry_cell_setting 'orthorhombic'
loop_
_space_group_symop_operation_xyz
x,y,z
1/2-x,-y,z
1/2+x,-y,1/2-z
-x,y,1/2-z
-x,-y,-z
1/2+x,y,-z
1/2-x,y,1/2+z
x,-y,1/2+z
loop_
_atom_site_type_symbol
_atom_site_label
_atom_site_fract_x
_atom_site_fract_y
_atom_site_fract_z
Si Si1 0.676681 0.190571 0.619859
Si Si2 0.526812 0.199963 0.580362
Si Si3 0.567804 0.368437 0.007313
Si Si4 0.699504 0.240334 0.965611
Si Si5 0.354747 0.049276 0.400282
Si Si6 0.944853 0.018963 0.864577
Si Si7 0.500000 0.504255 0.250000
O O1 0.603367 0.236545 0.585986
O O2 0.695858 0.211258 0.792125
O O3 0.723295 0.263175 0.511153
O O4 0.675165 0.066284 0.592006
O O5 0.500000 0.193666 0.750000
O O6 0.482865 0.273787 0.476322
O O7 0.522419 0.090184 0.494616
O O8 0.553122 0.439152 0.152064
O O9 0.645230 0.328547 0.008122
O O10 0.549299 0.426875 0.852103
O O11 0.697899 0.139302 0.076022
O O12 0.390643 0.076102 0.241132
O O13 0.404970 0.069423 0.544485
O O14 0.000000 0.970931 0.750000
#
# Coordination Sequence:
#
# PCOD8223827 Si02
#       7
#     8   8   8   8   8   8   4
#     4  11  26  41  65  96 144 190 233 288 334 406
#     4  11  23  45  69 100 139 180 233 291 350 431
#     4  11  23  46  75 105 137 173 229 292 366 443
#     4  12  25  44  66  96 140 189 239 282 346 421
#     4  11  24  41  58  94 141 196 242 286 332 406
#     4  11  24  36  61  96 138 185 240 291 344 394
#     4  10  24  44  78 110 136 172 226 302 390 436
#
# _framework density 22.689449
#
# number of rings (size 3 to 8) (size 9 to 14) (size 15 to 20)
#    0.000    0.923    3.846    1.846    7.538    4.923 
#    1.385    0.000    0.000   15.692    0.000    0.000 
#    0.000    0.000    0.000    0.000    0.000    0.000 
#
# Total GULP energy -644295.023549 kJ/mol
# GULP energy per Si atom -12390.288914 kJ/mol
# Density = 2.263781 g / cm^3
# Si number density = 22.689449 Si / 1000 Ang^3
#
#
#
# Elastic Constant Matrix: (Units=GPa)
#
#
# Indices 1 2 3 4 5 6 
#
# 1 155.1421 39.6500 42.2931 0.0000 0.0000 0.0000
# 2 39.6500 84.0185 23.5540 0.0000 0.0000 0.0000
# 3 42.2931 23.5540 108.9482 0.0000 0.0000 0.0000
# 4 0.0000 0.0000 0.0000 13.6424 0.0000 0.0000
# 5 0.0000 0.0000 0.0000 0.0000 47.1369 0.0000
# 6 0.0000 0.0000 0.0000 0.0000 0.0000 26.0316
#
#
#
# Elastic Compliance Matrix: (Units=1/GPa)
#
#
# Indices 1 2 3 4 5 6 
#
# 1 0.007878 -0.003045 -0.002400 0.000000 0.000000 0.000000
# 2 -0.003045 0.013847 -0.001812 0.000000 0.000000 0.000000
# 3 -0.002400 -0.001812 0.010502 0.000000 0.000000 0.000000
# 4 0.000000 0.000000 0.000000 0.073301 0.000000 0.000000
# 5 0.000000 0.000000 0.000000 0.000000 0.021215 0.000000
# 6 0.000000 0.000000 0.000000 0.000000 0.000000 0.038415
#
#
# Mechanical properties :
#
#
# Convention : Reuss Voigt Hill
#
# Bulk Modulus (GPa) = 56.45246 62.12257 59.28752
# Shear Modulus (GPa) = 26.94323 33.53630 30.23976
#
# Velocity S-wave (km/s) = 3.44972 3.84872 3.65467
# Velocity P-wave (km/s) = 6.38764 6.86944 6.63291
#
# Compressibility (1/GPa) = 0.01771402
#
# Stress axis : x y z
#
# Youngs Moduli (GPa) = 126.93284 72.21771 95.22018
#
# Poissons Ratio (x) = 0.21991 0.22852
# Poissons Ratio (y) = 0.38652 0.17250
# Poissons Ratio (z) = 0.30463 0.13083
#
# Static dielectric constant tensor:
#      x y z
#    x 4.515390 0.000000 0.000000 
#    y 0.000000 3.943950 0.000000 
#    z 0.000000 0.000000 4.372940 
# 
# 
# High freq. dielectric constant tensor:
#      x y z
#    x 1.911050 0.000000 0.000000 
#    y 0.000000 1.853870 0.000000 
#    z 0.000000 0.000000 1.920390 
# 
# From -- ./inp_files/4756.got.cif
#   From: 2010.03.12/outbox.cif.g09.slc.cpg/sg54_3_cif.got.tgz:4756.got - 2010.04.16 15:00:50.
