data_PCOD8223011
_publ_section_title
;
Structure prediction by ZEFSAII (Michael W. Deem and Ramdas Pophale) SiO2 
 PCOD8223011
Probable space group: P C C A
;
_chemical_formula_sum "Si O2"
_cell_formula_units_Z 32
_cell_length_a 14.064777
_cell_length_b 8.871526
_cell_length_c 10.104789
_cell_angle_alpha 90.000000
_cell_angle_beta 90.000000
_cell_angle_gamma 90.000000
_cell_volume 1260.835504
_symmetry_space_group_name_H-M "P C C A"
_symmetry_group_IT_number 54
_symmetry_cell_setting 'orthorhombic'
loop_
_space_group_symop_operation_xyz
x,y,z
1/2-x,-y,z
1/2+x,-y,1/2-z
-x,y,1/2-z
-x,-y,-z
1/2+x,y,-z
1/2-x,y,1/2+z
x,-y,1/2+z
loop_
_atom_site_type_symbol
_atom_site_label
_atom_site_fract_x
_atom_site_fract_y
_atom_site_fract_z
Si Si1 0.914410 0.873110 0.098840
Si Si2 0.542231 0.398173 0.383472
Si Si3 0.775445 0.658142 0.242325
Si Si4 0.651422 0.914514 0.315302
O O1 0.826952 0.761400 0.133247
O O2 0.010926 0.777517 0.108990
O O3 0.911736 0.016765 0.196767
O O4 0.908312 0.932818 0.949283
O O5 0.500000 0.472050 0.250000
O O6 0.500000 0.500000 0.500000
O O7 0.656601 0.383182 0.369543
O O8 0.750000 0.500000 0.172625
O O9 0.677839 0.739351 0.288883
O O10 0.750000 0.000000 0.333061
#
# Coordination Sequence:
#
# PCOD8223011 Si02
#       4
#     8   8   8   8
#     4  10  22  41  64  94 131 175 217 268 330 397
#     4  10  22  42  65  96 133 170 220 278 337 399
#     4  10  21  38  66  99 129 168 219 275 332 394
#     4  10  20  39  64  93 129 173 221 269 325 394
#
# _framework density 25.379998000000001
#
# number of rings (size 3 to 8) (size 9 to 14) (size 15 to 20)
#    0.000    2.000    0.000    3.750    0.000    5.000 
#    0.000   35.000    0.000   31.500    0.000    0.000 
#    0.000    0.000    0.000    0.000    0.000    0.000 
#
# Total GULP energy -396724.175244 kJ/mol
# GULP energy per Si atom -12397.630476 kJ/mol
# Density = 2.532223 g / cm^3
# Si number density = 25.379998 Si / 1000 Ang^3
#
#
#
# Elastic Constant Matrix: (Units=GPa)
#
#
# Indices 1 2 3 4 5 6 
#
# 1 65.1405 29.3335 25.4578 0.0000 0.0000 0.0000
# 2 29.3335 155.5465 68.3975 0.0000 0.0000 0.0000
# 3 25.4578 68.3975 171.8385 0.0000 0.0000 0.0000
# 4 0.0000 0.0000 0.0000 32.6609 0.0000 0.0000
# 5 0.0000 0.0000 0.0000 0.0000 30.2218 0.0000
# 6 0.0000 0.0000 0.0000 0.0000 0.0000 32.3132
#
#
#
# Elastic Compliance Matrix: (Units=1/GPa)
#
#
# Indices 1 2 3 4 5 6 
#
# 1 0.017095 -0.002558 -0.001515 0.000000 0.000000 0.000000
# 2 -0.002558 0.008176 -0.002875 0.000000 0.000000 0.000000
# 3 -0.001515 -0.002875 0.007188 0.000000 0.000000 0.000000
# 4 0.000000 0.000000 0.000000 0.030618 0.000000 0.000000
# 5 0.000000 0.000000 0.000000 0.000000 0.033089 0.000000
# 6 0.000000 0.000000 0.000000 0.000000 0.000000 0.030947
#
#
# Mechanical properties :
#
#
# Convention : Reuss Voigt Hill
#
# Bulk Modulus (GPa) = 53.86839 70.98924 62.42881
# Shear Modulus (GPa) = 33.96837 36.99495 35.48166
#
# Velocity S-wave (km/s) = 3.66237 3.82205 3.74306
# Velocity P-wave (km/s) = 6.25738 6.89265 6.58268
#
# Compressibility (1/GPa) = 0.01856376
#
# Stress axis : x y z
#
# Youngs Moduli (GPa) = 58.49599 122.31485 139.11639
#
# Poissons Ratio (x) = 0.31287 0.21069
# Poissons Ratio (y) = 0.14963 0.39999
# Poissons Ratio (z) = 0.08859 0.35168
#
# Static dielectric constant tensor:
#      x y z
#    x 4.602610 0.000000 0.000000 
#    y 0.000000 4.877470 0.000000 
#    z 0.000000 0.000000 4.568860 
# 
# 
# High freq. dielectric constant tensor:
#      x y z
#    x 2.012410 0.000000 0.000000 
#    y 0.000000 2.022440 0.000000 
#    z 0.000000 0.000000 1.997290 
# 
# From -- ./inp_files/7969.got.cif
#   From: 2010.03.12/outbox.cif.g09.slc.cpg/sg54_4_cif.got.tgz:7969.got - 2010.04.16 15:00:50.
