data_PCOD8223543
_publ_section_title
;
Structure prediction by ZEFSAII (Michael W. Deem and Ramdas Pophale) SiO2 
 PCOD8223543
Probable space group: P C C A
;
_chemical_formula_sum "Si O2"
_cell_formula_units_Z 40
_cell_length_a 25.619148
_cell_length_b 5.105521
_cell_length_c 15.136037
_cell_angle_alpha 90.000000
_cell_angle_beta 90.000000
_cell_angle_gamma 90.000000
_cell_volume 1979.779989
_symmetry_space_group_name_H-M "P C C A"
_symmetry_group_IT_number 54
_symmetry_cell_setting 'orthorhombic'
loop_
_space_group_symop_operation_xyz
x,y,z
1/2-x,-y,z
1/2+x,-y,1/2-z
-x,y,1/2-z
-x,-y,-z
1/2+x,y,-z
1/2-x,y,1/2+z
x,-y,1/2+z
loop_
_atom_site_type_symbol
_atom_site_label
_atom_site_fract_x
_atom_site_fract_y
_atom_site_fract_z
Si Si1 0.902722 0.743036 0.580687
Si Si2 0.492776 0.459447 0.647155
Si Si3 0.853418 0.995232 0.735232
Si Si4 0.191501 0.510607 0.838462
Si Si5 0.072129 0.962363 0.105646
O O1 0.849962 0.563501 0.581843
O O2 0.905916 0.903553 0.490902
O O3 0.952761 0.557680 0.594938
O O4 0.899385 0.950143 0.662206
O O5 0.500000 0.398057 0.750000
O O6 0.470712 0.749916 0.634535
O O7 0.453262 0.249131 0.605302
O O8 0.818947 0.242248 0.710934
O O9 0.878533 0.042509 0.830035
O O10 0.815348 0.741564 0.734708
O O11 0.250000 0.500000 0.877496
#
# Coordination Sequence:
#
# PCOD8223543 Si02
#       5
#     8   8   8   8   8
#     4  10  25  38  65  93 127 163 216 252 318 373
#     4  12  23  39  61  92 132 169 206 248 314 381
#     4  10  22  41  64  90 126 163 210 258 316 373
#     4  10  22  43  68  87 121 166 210 268 325 366
#     4  12  24  39  63  93 132 165 206 256 309 382
#
# _framework density 20.204266000000001
#
# number of rings (size 3 to 8) (size 9 to 14) (size 15 to 20)
#    1.200    0.000    2.000    4.800    5.600    0.000 
#    0.000    1.000    4.400    0.000    0.000    0.000 
#    0.000    0.000    0.000    0.000    0.000    0.000 
#
# Total GULP energy -495909.725797 kJ/mol
# GULP energy per Si atom -12397.743145 kJ/mol
# Density = 2.015828 g / cm^3
# Si number density = 20.204266 Si / 1000 Ang^3
#
#
#
# Elastic Constant Matrix: (Units=GPa)
#
#
# Indices 1 2 3 4 5 6 
#
# 1 78.9649 -12.5337 7.5322 0.0000 0.0000 0.0000
# 2 -12.5337 72.9879 -14.5135 0.0000 0.0000 0.0000
# 3 7.5322 -14.5135 75.5502 0.0000 0.0000 0.0000
# 4 0.0000 0.0000 0.0000 15.6689 0.0000 0.0000
# 5 0.0000 0.0000 0.0000 0.0000 16.5317 0.0000
# 6 0.0000 0.0000 0.0000 0.0000 0.0000 12.6683
#
#
#
# Elastic Compliance Matrix: (Units=1/GPa)
#
#
# Indices 1 2 3 4 5 6 
#
# 1 0.013078 0.002065 -0.000907 0.000000 0.000000 0.000000
# 2 0.002065 0.014571 0.002593 0.000000 0.000000 0.000000
# 3 -0.000907 0.002593 0.013825 0.000000 0.000000 0.000000
# 4 0.000000 0.000000 0.000000 0.063821 0.000000 0.000000
# 5 0.000000 0.000000 0.000000 0.000000 0.060490 0.000000
# 6 0.000000 0.000000 0.000000 0.000000 0.000000 0.078937
#
#
# Mechanical properties :
#
#
# Convention : Reuss Voigt Hill
#
# Bulk Modulus (GPa) = 20.41748 20.94143 20.67945
# Shear Modulus (GPa) = 19.72039 25.44164 22.58101
#
# Velocity S-wave (km/s) = 3.12757 3.55240 3.34673
# Velocity P-wave (km/s) = 4.81349 5.21665 5.01912
#
# Compressibility (1/GPa) = 0.04897765
#
# Stress axis : x y z
#
# Youngs Moduli (GPa) = 76.46299 68.62822 72.33348
#
# Poissons Ratio (x) = -0.14175 0.06561
# Poissons Ratio (y) = -0.15793 -0.18758
# Poissons Ratio (z) = 0.06936 -0.17797
#
# Static dielectric constant tensor:
#      x y z
#    x 3.571790 0.000000 0.000000 
#    y 0.000000 3.705120 0.000000 
#    z 0.000000 0.000000 3.630250 
# 
# 
# High freq. dielectric constant tensor:
#      x y z
#    x 1.779500 0.000000 0.000000 
#    y 0.000000 1.804630 0.000000 
#    z 0.000000 0.000000 1.770450 
# 
# From -- ./inp_files/14808.got.cif
#   From: 2010.03.12/outbox.cif.g09.slc.cpg/sg54_8_cif.got.tgz:14808.got - 2010.04.16 15:00:50.
