data_PCOD8223316
_publ_section_title
;
Structure prediction by ZEFSAII (Michael W. Deem and Ramdas Pophale) SiO2 
 PCOD8223316
Probable space group: P C C A
;
_chemical_formula_sum "Si O2"
_cell_formula_units_Z 36
_cell_length_a 4.956680
_cell_length_b 24.369875
_cell_length_c 13.255350
_cell_angle_alpha 90.000000
_cell_angle_beta 90.000000
_cell_angle_gamma 90.000000
_cell_volume 1601.162400
_symmetry_space_group_name_H-M "P C C A"
_symmetry_group_IT_number 54
_symmetry_cell_setting 'orthorhombic'
loop_
_space_group_symop_operation_xyz
x,y,z
1/2-x,-y,z
1/2+x,-y,1/2-z
-x,y,1/2-z
-x,-y,-z
1/2+x,y,-z
1/2-x,y,1/2+z
x,-y,1/2+z
loop_
_atom_site_type_symbol
_atom_site_label
_atom_site_fract_x
_atom_site_fract_y
_atom_site_fract_z
Si Si1 0.750000 0.000000 0.311789
Si Si2 0.248054 0.438241 0.820970
Si Si3 0.198431 0.667996 0.436746
Si Si4 0.500000 0.814933 0.250000
Si Si5 0.006430 0.899405 0.569748
Si Si6 0.000000 0.261328 0.750000
O O1 0.916062 0.043934 0.376281
O O2 0.500000 0.028433 0.250000
O O3 0.250000 0.500000 0.865386
O O4 0.500000 0.424173 0.750000
O O5 0.214559 0.397036 0.914456
O O6 0.000000 0.429308 0.750000
O O7 0.499321 0.683651 0.471388
O O8 0.100357 0.700479 0.339929
O O9 0.490402 0.851317 0.349648
O O10 0.753633 0.777589 0.276117
O O11 0.710053 0.895028 0.523052
#
# Coordination Sequence:
#
# PCOD8223316 Si02
#       6
#     4   8   8   4   8   4
#     4  12  24  44  76 106 152 194 230 280 356 430
#     4  10  21  40  68  99 140 184 224 284 358 425
#     4  12  26  43  72 103 134 182 236 286 354 425
#     4  12  28  48  73 101 138 190 234 298 348 414
#     4  12  26  46  74 108 144 184 235 289 351 417
#     4  12  28  48  71  97 142 182 238 300 350 400
#
# _framework density 22.483667000000001
#
# number of rings (size 3 to 8) (size 9 to 14) (size 15 to 20)
#    0.000    0.444    2.222    6.000    3.111    6.222 
#    0.000    0.000    0.000    0.000    0.000    0.000 
#    0.000    0.000    0.000    0.000    0.000    0.000 
#
# Total GULP energy -446173.525752 kJ/mol
# GULP energy per Si atom -12393.709049 kJ/mol
# Density = 2.243249 g / cm^3
# Si number density = 22.483667 Si / 1000 Ang^3
#
#
#
# Elastic Constant Matrix: (Units=GPa)
#
#
# Indices 1 2 3 4 5 6 
#
# 1 106.0265 13.0438 8.9884 0.0000 0.0000 0.0000
# 2 13.0438 103.8767 40.1640 0.0000 0.0000 0.0000
# 3 8.9884 40.1640 89.5387 0.0000 0.0000 0.0000
# 4 0.0000 0.0000 0.0000 100.3598 0.0000 0.0000
# 5 0.0000 0.0000 0.0000 0.0000 49.6150 0.0000
# 6 0.0000 0.0000 0.0000 0.0000 0.0000 39.8526
#
#
#
# Elastic Compliance Matrix: (Units=1/GPa)
#
#
# Indices 1 2 3 4 5 6 
#
# 1 0.009599 -0.001008 -0.000512 0.000000 0.000000 0.000000
# 2 -0.001008 0.011753 -0.005171 0.000000 0.000000 0.000000
# 3 -0.000512 -0.005171 0.013539 0.000000 0.000000 0.000000
# 4 0.000000 0.000000 0.000000 0.009964 0.000000 0.000000
# 5 0.000000 0.000000 0.000000 0.000000 0.020155 0.000000
# 6 0.000000 0.000000 0.000000 0.000000 0.000000 0.025092
#
#
# Mechanical properties :
#
#
# Convention : Reuss Voigt Hill
#
# Bulk Modulus (GPa) = 46.48799 47.09270 46.79035
# Shear Modulus (GPa) = 45.18658 53.78187 49.48422
#
# Velocity S-wave (km/s) = 4.48789 4.89616 4.69646
# Velocity P-wave (km/s) = 6.89754 7.27694 7.08978
#
# Compressibility (1/GPa) = 0.02151093
#
# Stress axis : x y z
#
# Youngs Moduli (GPa) = 104.17829 85.08794 73.86019
#
# Poissons Ratio (x) = 0.08573 0.03779
# Poissons Ratio (y) = 0.10496 0.38191
# Poissons Ratio (z) = 0.05330 0.43996
#
# Static dielectric constant tensor:
#      x y z
#    x 4.430520 0.000000 0.000000 
#    y 0.000000 4.076750 0.000000 
#    z 0.000000 0.000000 4.065780 
# 
# 
# High freq. dielectric constant tensor:
#      x y z
#    x 1.913700 0.000000 0.000000 
#    y 0.000000 1.890620 0.000000 
#    z 0.000000 0.000000 1.891160 
# 
# From -- ./inp_files/10832.got.cif
#   From: 2010.03.12/outbox.cif.g09.slc.cpg/sg54_6_cif.got.tgz:10832.got - 2010.04.16 15:00:50.
