data_PCOD8223192
_publ_section_title
;
Structure prediction by ZEFSAII (Michael W. Deem and Ramdas Pophale) SiO2 
 PCOD8223192
Probable space group: P C C A
;
_chemical_formula_sum "Si O2"
_cell_formula_units_Z 64
_cell_length_a 17.289630
_cell_length_b 9.249154
_cell_length_c 20.405897
_cell_angle_alpha 90.000000
_cell_angle_beta 90.000000
_cell_angle_gamma 90.000000
_cell_volume 3263.197805
_symmetry_space_group_name_H-M "P C C A"
_symmetry_group_IT_number 54
_symmetry_cell_setting 'orthorhombic'
loop_
_space_group_symop_operation_xyz
x,y,z
1/2-x,-y,z
1/2+x,-y,1/2-z
-x,y,1/2-z
-x,-y,-z
1/2+x,y,-z
1/2-x,y,1/2+z
x,-y,1/2+z
loop_
_atom_site_type_symbol
_atom_site_label
_atom_site_fract_x
_atom_site_fract_y
_atom_site_fract_z
Si Si1 0.112093 0.866391 0.861985
Si Si2 0.820663 0.108929 0.277084
Si Si3 0.470524 0.052984 0.180968
Si Si4 0.108594 0.654378 0.515385
Si Si5 0.233506 0.655499 0.625300
Si Si6 0.608755 0.788345 0.924902
Si Si7 0.438132 0.380011 0.952686
Si Si8 0.162409 0.971700 0.483964
O O1 0.161207 0.841810 0.796703
O O2 0.105556 0.710979 0.897336
O O3 0.157231 0.975004 0.909416
O O4 0.029102 0.934376 0.846819
O O5 0.807910 0.252116 0.319095
O O6 0.750000 0.000000 0.277072
O O7 0.890024 0.027126 0.311358
O O8 0.500000 0.117769 0.250000
O O9 0.455192 0.186971 0.132091
O O10 0.179754 0.618828 0.562979
O O11 0.096874 0.543336 0.453621
O O12 0.128781 0.810464 0.485401
O O13 0.029819 0.642309 0.558330
O O14 0.250000 0.500000 0.657749
O O15 0.308978 0.742951 0.603668
O O16 0.577813 0.665370 0.972291
O O17 0.610599 0.937047 0.965995
O O18 0.250000 0.000000 0.507725
#
# Coordination Sequence:
#
# PCOD8223192 Si02
#       8
#     8   8   8   8   8   8   8   8
#     4  10  22  40  58  89 124 157 201 249 316 370
#     4  11  22  39  63  86 115 160 206 256 305 363
#     4  10  21  37  64  90 117 156 211 262 303 362
#     4  11  22  37  61  94 121 160 202 249 309 367
#     4  12  23  38  61  90 123 159 212 249 301 371
#     4  11  20  37  62  88 119 158 200 255 303 356
#     4  10  22  39  61  88 129 162 198 251 313 376
#     4  11  21  34  60  93 121 154 198 255 305 368
#
# _framework density 19.612663999999999
#
# number of rings (size 3 to 8) (size 9 to 14) (size 15 to 20)
#    0.000    1.250    3.750    3.375    0.000    2.000 
#    0.000    2.500    5.500    0.000    0.000    0.000 
#    0.000    0.000    0.000    0.000    0.000    0.000 
#
# Total GULP energy -793430.443379 kJ/mol
# GULP energy per Si atom -12397.350678 kJ/mol
# Density = 1.956803 g / cm^3
# Si number density = 19.612664 Si / 1000 Ang^3
#
#
#
# Elastic Constant Matrix: (Units=GPa)
#
#
# Indices 1 2 3 4 5 6 
#
# 1 83.9704 22.0967 12.2341 0.0000 0.0000 0.0000
# 2 22.0967 93.7553 10.3870 0.0000 0.0000 0.0000
# 3 12.2341 10.3870 66.8032 0.0000 0.0000 0.0000
# 4 0.0000 0.0000 0.0000 28.6507 0.0000 0.0000
# 5 0.0000 0.0000 0.0000 0.0000 33.5384 0.0000
# 6 0.0000 0.0000 0.0000 0.0000 0.0000 27.7887
#
#
#
# Elastic Compliance Matrix: (Units=1/GPa)
#
#
# Indices 1 2 3 4 5 6 
#
# 1 0.012936 -0.002835 -0.001928 0.000000 0.000000 0.000000
# 2 -0.002835 0.011474 -0.001265 0.000000 0.000000 0.000000
# 3 -0.001928 -0.001265 0.015519 0.000000 0.000000 0.000000
# 4 0.000000 0.000000 0.000000 0.034903 0.000000 0.000000
# 5 0.000000 0.000000 0.000000 0.000000 0.029817 0.000000
# 6 0.000000 0.000000 0.000000 0.000000 0.000000 0.035986
#
#
# Mechanical properties :
#
#
# Convention : Reuss Voigt Hill
#
# Bulk Modulus (GPa) = 35.87709 37.10716 36.49212
# Shear Modulus (GPa) = 30.86750 31.31630 31.09190
#
# Velocity S-wave (km/s) = 3.97149 4.00026 3.98590
# Velocity P-wave (km/s) = 6.27398 6.34800 6.31110
#
# Compressibility (1/GPa) = 0.02787294
#
# Stress axis : x y z
#
# Youngs Moduli (GPa) = 77.30387 87.15044 64.43657
#
# Poissons Ratio (x) = 0.24709 0.12425
# Poissons Ratio (y) = 0.21917 0.08151
# Poissons Ratio (z) = 0.14906 0.11024
#
# Static dielectric constant tensor:
#      x y z
#    x 3.671010 0.000000 0.000000 
#    y 0.000000 3.598880 0.000000 
#    z 0.000000 0.000000 3.602200 
# 
# 
# High freq. dielectric constant tensor:
#      x y z
#    x 1.776770 0.000000 0.000000 
#    y 0.000000 1.763640 0.000000 
#    z 0.000000 0.000000 1.756150 
# 
# From -- ./inp_files/21953.got.cif
#   From: 2010.03.12/outbox.cif.g09.slc.cpg/sg54_11_cif.got.tgz:21953.got - 2010.04.16 15:00:50.
