data_PCOD8223164
_publ_section_title
;
Structure prediction by ZEFSAII (Michael W. Deem and Ramdas Pophale) SiO2 
 PCOD8223164
Probable space group: P C C A
;
_chemical_formula_sum "Si O2"
_cell_formula_units_Z 56
_cell_length_a 17.448925
_cell_length_b 13.722759
_cell_length_c 9.680140
_cell_angle_alpha 90.000000
_cell_angle_beta 90.000000
_cell_angle_gamma 90.000000
_cell_volume 2317.884283
_symmetry_space_group_name_H-M "P C C A"
_symmetry_group_IT_number 54
_symmetry_cell_setting 'orthorhombic'
loop_
_space_group_symop_operation_xyz
x,y,z
1/2-x,-y,z
1/2+x,-y,1/2-z
-x,y,1/2-z
-x,-y,-z
1/2+x,y,-z
1/2-x,y,1/2+z
x,-y,1/2+z
loop_
_atom_site_type_symbol
_atom_site_label
_atom_site_fract_x
_atom_site_fract_y
_atom_site_fract_z
Si Si1 0.070444 0.574030 0.471582
Si Si2 0.618055 0.909509 0.031474
Si Si3 0.221724 0.366294 0.108867
Si Si4 0.170366 0.052407 0.765726
Si Si5 0.974926 0.753866 0.399304
Si Si6 0.252930 0.769142 0.359670
Si Si7 0.385304 0.424299 0.159821
O O1 0.143162 0.574145 0.582210
O O2 0.099675 0.546393 0.318802
O O3 0.044513 0.474125 0.561376
O O4 0.033781 0.681367 0.477490
O O5 0.648711 0.959556 0.892768
O O6 0.541643 0.846526 0.997877
O O7 0.677259 0.835428 0.096830
O O8 0.605480 0.998980 0.138890
O O9 0.215361 0.308300 0.251151
O O10 0.296266 0.437191 0.115130
O O11 0.220437 0.288876 0.987242
O O12 0.181232 0.166339 0.803161
O O13 0.250000 0.000000 0.797164
O O14 0.898859 0.691064 0.362873
O O15 0.000000 0.795567 0.250000
#
# Coordination Sequence:
#
# PCOD8223164 Si02
#       7
#     8   8   8   8   8   8   8
#     4  11  26  41  69 100 138 179 227 279 346 405
#     4  11  22  41  68  99 137 177 231 282 345 414
#     4  12  23  39  67 105 138 176 223 279 344 403
#     4  10  21  36  65 106 135 171 221 288 347 407
#     4  10  23  46  67  92 133 190 231 284 342 412
#     4  11  21  38  66 101 140 174 219 277 342 405
#     4  11  23  43  65  97 136 180 232 282 336 410
#
# _framework density 24.159963999999999
#
# number of rings (size 3 to 8) (size 9 to 14) (size 15 to 20)
#    0.000    1.143    4.286    2.143    6.000    1.143 
#    0.000    2.857    0.000    1.714    0.000    0.000 
#    0.000    0.000    0.000    0.000    0.000    0.000 
#
# Total GULP energy -693982.474935 kJ/mol
# GULP energy per Si atom -12392.544195 kJ/mol
# Density = 2.410498 g / cm^3
# Si number density = 24.159964 Si / 1000 Ang^3
#
#
#
# Elastic Constant Matrix: (Units=GPa)
#
#
# Indices 1 2 3 4 5 6 
#
# 1 60.2223 23.2717 16.7525 0.0000 0.0000 0.0000
# 2 23.2717 93.8898 66.5087 0.0000 0.0000 0.0000
# 3 16.7525 66.5087 170.1145 0.0000 0.0000 0.0000
# 4 0.0000 0.0000 0.0000 61.6545 0.0000 0.0000
# 5 0.0000 0.0000 0.0000 0.0000 23.7685 0.0000
# 6 0.0000 0.0000 0.0000 0.0000 0.0000 -75.9447
#
#
#
# Elastic Compliance Matrix: (Units=1/GPa)
#
#
# Indices 1 2 3 4 5 6 
#
# 1 0.018364 -0.004523 -0.000040 0.000000 0.000000 0.000000
# 2 -0.004523 0.015845 -0.005749 0.000000 0.000000 0.000000
# 3 -0.000040 -0.005749 0.008130 0.000000 0.000000 0.000000
# 4 0.000000 0.000000 0.000000 0.016219 0.000000 0.000000
# 5 0.000000 0.000000 0.000000 0.000000 0.042073 0.000000
# 6 0.000000 0.000000 0.000000 0.000000 0.000000 -0.013167
#
#
# Mechanical properties :
#
#
# Convention : Reuss Voigt Hill
#
# Bulk Modulus (GPa) = 46.05409 59.69915 52.87662
# Shear Modulus (GPa) = 43.35518 16.40856 29.88187
#
# Velocity S-wave (km/s) = 4.24076 2.60890 3.52068
# Velocity P-wave (km/s) = 6.56370 5.81711 6.20165
#
# Compressibility (1/GPa) = 0.02171360
#
# Stress axis : x y z
#
# Youngs Moduli (GPa) = 54.45358 63.11324 123.00035
#
# Poissons Ratio (x) = 0.28549 0.00491
# Poissons Ratio (y) = 0.24632 0.70715
# Poissons Ratio (z) = 0.00218 0.36285
#
# Static dielectric constant tensor:
#      x y z
#    x 4.749680 0.000000 0.000000 
#    y 0.000000 4.779230 0.000000 
#    z 0.000000 0.000000 4.347500 
# 
# 
# High freq. dielectric constant tensor:
#      x y z
#    x 1.963510 0.000000 0.000000 
#    y 0.000000 1.986740 0.000000 
#    z 0.000000 0.000000 1.960200 
# 
# From -- ./inp_files/4814.got.cif
#   From: 2010.03.12/outbox.cif.g09.slc.cpg/sg54_3_cif.got.tgz:4814.got - 2010.04.16 15:00:50.
