data_PCOD8223404
_publ_section_title
;
Structure prediction by ZEFSAII (Michael W. Deem and Ramdas Pophale) SiO2 
 PCOD8223404
Probable space group: P C C A
;
_chemical_formula_sum "Si O2"
_cell_formula_units_Z 52
_cell_length_a 17.422751
_cell_length_b 16.652132
_cell_length_c 8.939162
_cell_angle_alpha 90.000000
_cell_angle_beta 90.000000
_cell_angle_gamma 90.000000
_cell_volume 2593.482863
_symmetry_space_group_name_H-M "P C C A"
_symmetry_group_IT_number 54
_symmetry_cell_setting 'orthorhombic'
loop_
_space_group_symop_operation_xyz
x,y,z
1/2-x,-y,z
1/2+x,-y,1/2-z
-x,y,1/2-z
-x,-y,-z
1/2+x,y,-z
1/2-x,y,1/2+z
x,-y,1/2+z
loop_
_atom_site_type_symbol
_atom_site_label
_atom_site_fract_x
_atom_site_fract_y
_atom_site_fract_z
Si Si1 0.116183 0.396850 0.369528
Si Si2 0.250000 0.000000 0.205547
Si Si3 0.289307 0.244058 0.580213
Si Si4 0.312724 0.893268 0.462179
Si Si5 0.581111 0.218417 0.686664
Si Si6 0.287981 0.350782 0.314750
Si Si7 0.419488 0.459308 0.188053
O O1 0.078320 0.308747 0.377007
O O2 0.207970 0.391437 0.363067
O O3 0.086664 0.445403 0.223901
O O4 0.086842 0.447523 0.511127
O O5 0.295915 0.937188 0.305890
O O6 0.186457 0.955780 0.100176
O O7 0.254609 0.170160 0.489686
O O8 0.358059 0.212515 0.680328
O O9 0.322699 0.305654 0.458405
O O10 0.224270 0.288065 0.679353
O O11 0.392871 0.844543 0.443140
O O12 0.500000 0.190511 0.750000
O O13 0.348473 0.417400 0.269697
O O14 0.500000 0.424391 0.250000
#
# Coordination Sequence:
#
# PCOD8223404 Si02
#       7
#     8   4   8   8   8   8   8
#     4  11  25  42  60  86 122 172 217 263 319 382
#     4  10  22  34  72  98 124 160 206 248 296 382
#     4  11  20  40  66  89 122 162 213 256 297 383
#     4  11  19  41  65  97 124 164 205 247 303 378
#     4  11  24  40  66  93 131 165 210 264 324 364
#     4  11  22  39  64  87 117 164 215 262 308 373
#     4  12  26  40  59  89 126 162 215 277 326 369
#
# _framework density 20.050256999999998
#
# number of rings (size 3 to 8) (size 9 to 14) (size 15 to 20)
#    0.000    0.923    6.154    1.385    6.462    1.231 
#    0.000    0.769    0.000    0.000    0.000    0.000 
#    0.000    0.000    0.000    0.000    0.000    0.000 
#
# Total GULP energy -644850.951383 kJ/mol
# GULP energy per Si atom -12400.979834 kJ/mol
# Density = 2.000462 g / cm^3
# Si number density = 20.050257 Si / 1000 Ang^3
#
#
#
# Elastic Constant Matrix: (Units=GPa)
#
#
# Indices 1 2 3 4 5 6 
#
# 1 88.3406 35.0246 16.2234 0.0000 0.0000 0.0000
# 2 35.0246 115.6601 57.2512 0.0000 0.0000 0.0000
# 3 16.2234 57.2512 107.9603 0.0000 0.0000 0.0000
# 4 0.0000 0.0000 0.0000 45.6779 0.0000 0.0000
# 5 0.0000 0.0000 0.0000 0.0000 19.2449 0.0000
# 6 0.0000 0.0000 0.0000 0.0000 0.0000 17.7124
#
#
#
# Elastic Compliance Matrix: (Units=1/GPa)
#
#
# Indices 1 2 3 4 5 6 
#
# 1 0.012867 -0.003985 0.000180 0.000000 0.000000 0.000000
# 2 -0.003985 0.012958 -0.006273 0.000000 0.000000 0.000000
# 3 0.000180 -0.006273 0.012562 0.000000 0.000000 0.000000
# 4 0.000000 0.000000 0.000000 0.021892 0.000000 0.000000
# 5 0.000000 0.000000 0.000000 0.000000 0.051962 0.000000
# 6 0.000000 0.000000 0.000000 0.000000 0.000000 0.056458
#
#
# Mechanical properties :
#
#
# Convention : Reuss Voigt Hill
#
# Bulk Modulus (GPa) = 54.85327 58.77325 56.81326
# Shear Modulus (GPa) = 25.65001 30.09117 27.87059
#
# Velocity S-wave (km/s) = 3.58059 3.87820 3.73236
# Velocity P-wave (km/s) = 6.67169 7.03069 6.85354
#
# Compressibility (1/GPa) = 0.01823045
#
# Stress axis : x y z
#
# Youngs Moduli (GPa) = 77.71877 77.17333 79.60525
#
# Poissons Ratio (x) = 0.30757 -0.01433
# Poissons Ratio (y) = 0.30975 0.49933
# Poissons Ratio (z) = -0.01399 0.48408
#
# Static dielectric constant tensor:
#      x y z
#    x 3.518360 0.000000 0.000000 
#    y 0.000000 3.841420 0.000000 
#    z 0.000000 0.000000 3.849960 
# 
# 
# High freq. dielectric constant tensor:
#      x y z
#    x 1.756200 0.000000 0.000000 
#    y 0.000000 1.789750 0.000000 
#    z 0.000000 0.000000 1.796240 
# 
# From -- ./inp_files/4311.got.cif
#   From: 2010.03.12/outbox.cif.g09.slc.cpg/sg54_3_cif.got.tgz:4311.got - 2010.04.16 15:00:50.
