data_PCOD8223337
_publ_section_title
;
Structure prediction by ZEFSAII (Michael W. Deem and Ramdas Pophale) SiO2 
 PCOD8223337
Probable space group: P C C A
;
_chemical_formula_sum "Si O2"
_cell_formula_units_Z 40
_cell_length_a 12.832432
_cell_length_b 11.297197
_cell_length_c 14.255609
_cell_angle_alpha 90.000000
_cell_angle_beta 90.000000
_cell_angle_gamma 90.000000
_cell_volume 2066.642940
_symmetry_space_group_name_H-M "P C C A"
_symmetry_group_IT_number 54
_symmetry_cell_setting 'orthorhombic'
loop_
_space_group_symop_operation_xyz
x,y,z
1/2-x,-y,z
1/2+x,-y,1/2-z
-x,y,1/2-z
-x,-y,-z
1/2+x,y,-z
1/2-x,y,1/2+z
x,-y,1/2+z
loop_
_atom_site_type_symbol
_atom_site_label
_atom_site_fract_x
_atom_site_fract_y
_atom_site_fract_z
Si Si1 0.000000 0.010619 0.250000
Si Si2 0.306066 0.885716 0.682477
Si Si3 0.904707 0.468862 0.436713
Si Si4 0.649805 0.803390 0.166441
Si Si5 0.500000 0.614223 0.250000
Si Si6 0.229335 0.696511 0.027341
O O1 0.063671 0.090835 0.326141
O O2 0.074418 0.921347 0.194880
O O3 0.252532 0.846346 0.779667
O O4 0.295500 0.779192 0.613035
O O5 0.250000 0.000000 0.638702
O O6 0.946937 0.464636 0.330320
O O7 0.851789 0.343620 0.471269
O O8 0.826643 0.575310 0.450154
O O9 0.000000 0.500000 0.500000
O O10 0.596170 0.688935 0.210104
O O11 0.689760 0.767158 0.063694
#
# Coordination Sequence:
#
# PCOD8223337 Si02
#       6
#     4   8   8   8   4   8
#     4   9  22  39  64  96 124 173 215 254 332 382
#     4  10  22  41  62  92 128 165 217 262 316 384
#     4  11  24  41  63  96 125 170 218 260 325 394
#     4  10  21  41  65  89 132 170 204 268 325 378
#     4  11  20  43  66  84 130 175 201 262 330 376
#     4  11  24  40  64  97 128 163 221 268 319 385
#
# _framework density 19.355060999999999
#
# number of rings (size 3 to 8) (size 9 to 14) (size 15 to 20)
#    0.000    1.600    4.000    0.000    0.000    7.200 
#    0.000    0.000    0.000    0.000    0.000    0.000 
#    0.000    0.000    0.000    0.000    0.000    0.000 
#
# Total GULP energy -495642.161093 kJ/mol
# GULP energy per Si atom -12391.054027 kJ/mol
# Density = 1.931101 g / cm^3
# Si number density = 19.355061 Si / 1000 Ang^3
#
#
#
# Elastic Constant Matrix: (Units=GPa)
#
#
# Indices 1 2 3 4 5 6 
#
# 1 129.6186 52.7887 74.5414 0.0000 0.0000 0.0000
# 2 52.7887 97.7079 56.9207 0.0000 0.0000 0.0000
# 3 74.5414 56.9207 93.0899 0.0000 0.0000 0.0000
# 4 0.0000 0.0000 0.0000 38.8022 0.0000 0.0000
# 5 0.0000 0.0000 0.0000 0.0000 28.3482 0.0000
# 6 0.0000 0.0000 0.0000 0.0000 0.0000 28.3908
#
#
#
# Elastic Compliance Matrix: (Units=1/GPa)
#
#
# Indices 1 2 3 4 5 6 
#
# 1 0.014471 -0.001659 -0.010573 0.000000 0.000000 0.000000
# 2 -0.001659 0.016088 -0.008509 0.000000 0.000000 0.000000
# 3 -0.010573 -0.008509 0.024412 0.000000 0.000000 0.000000
# 4 0.000000 0.000000 0.000000 0.025772 0.000000 0.000000
# 5 0.000000 0.000000 0.000000 0.000000 0.035276 0.000000
# 6 0.000000 0.000000 0.000000 0.000000 0.000000 0.035223
#
#
# Mechanical properties :
#
#
# Convention : Reuss Voigt Hill
#
# Bulk Modulus (GPa) = 74.13636 76.54645 75.34140
# Shear Modulus (GPa) = 25.35263 28.18595 26.76929
#
# Velocity S-wave (km/s) = 3.62314 3.82023 3.72299
# Velocity P-wave (km/s) = 7.47592 7.68722 7.58230
#
# Compressibility (1/GPa) = 0.01348866
#
# Stress axis : x y z
#
# Youngs Moduli (GPa) = 69.10340 62.15990 40.96389
#
# Poissons Ratio (x) = 0.10310 0.43313
# Poissons Ratio (y) = 0.11462 0.34855
# Poissons Ratio (z) = 0.73066 0.52890
#
# Static dielectric constant tensor:
#      x y z
#    x 6.103900 0.000000 0.000000 
#    y 0.000000 1.706930 0.000000 
#    z 0.000000 0.000000 3.755880 
# 
# 
# High freq. dielectric constant tensor:
#      x y z
#    x 1.771360 0.000000 0.000000 
#    y 0.000000 1.763160 0.000000 
#    z 0.000000 0.000000 1.740000 
# 
# From -- ./inp_files/8279.got.cif
#   From: 2010.03.12/outbox.cif.g09.slc.cpg/sg54_5_cif.got.tgz:8279.got - 2010.04.16 15:00:50.
