data_PCOD8223567
_publ_section_title
;
Structure prediction by ZEFSAII (Michael W. Deem and Ramdas Pophale) SiO2 
 PCOD8223567
Probable space group: P C C A
;
_chemical_formula_sum "Si O2"
_cell_formula_units_Z 60
_cell_length_a 10.773373
_cell_length_b 8.481985
_cell_length_c 30.401783
_cell_angle_alpha 90.000000
_cell_angle_beta 90.000000
_cell_angle_gamma 90.000000
_cell_volume 2778.102411
_symmetry_space_group_name_H-M "P C C A"
_symmetry_group_IT_number 54
_symmetry_cell_setting 'orthorhombic'
loop_
_space_group_symop_operation_xyz
x,y,z
1/2-x,-y,z
1/2+x,-y,1/2-z
-x,y,1/2-z
-x,-y,-z
1/2+x,y,-z
1/2-x,y,1/2+z
x,-y,1/2+z
loop_
_atom_site_type_symbol
_atom_site_label
_atom_site_fract_x
_atom_site_fract_y
_atom_site_fract_z
Si Si1 0.791852 0.673808 0.098978
Si Si2 0.000000 0.644747 0.250000
Si Si3 0.329603 0.850465 0.068319
Si Si4 0.873444 0.398595 0.504063
Si Si5 0.940385 0.838495 0.631075
Si Si6 0.944612 0.159253 0.671337
Si Si7 0.914582 0.416258 0.323394
Si Si8 0.181967 0.291313 0.642795
O O1 0.750000 0.500000 0.111252
O O2 0.861270 0.677248 0.052311
O O3 0.673316 0.791494 0.099336
O O4 0.887475 0.725082 0.135684
O O5 0.082953 0.762761 0.280691
O O6 0.077763 0.523168 0.220228
O O7 0.444867 0.893434 0.100455
O O8 0.230167 0.748251 0.094727
O O9 0.250000 0.000000 0.051194
O O10 0.383306 0.750117 0.028217
O O11 0.750000 0.500000 0.493803
O O12 0.000000 0.500000 0.500000
O O13 0.967883 0.690616 0.663550
O O14 0.898558 0.980234 0.664002
O O15 0.093122 0.157705 0.663203
O O16 0.890194 0.541579 0.362870
O O17 0.793851 0.304068 0.321355
#
# Coordination Sequence:
#
# PCOD8223567 Si02
#       8
#     8   4   8   8   8   8   8   8
#     4  11  24  46  66  93 136 186 230 275 344 427
#     4  10  22  42  62 100 126 174 226 280 336 428
#     4  11  22  39  69 103 136 177 227 284 352 411
#     4  11  27  43  68 104 141 184 241 295 341 418
#     4  11  23  42  68 100 135 182 224 279 358 414
#     4  11  23  42  67  94 137 172 221 283 353 405
#     4   9  20  37  65  93 129 167 229 269 339 398
#     4   9  19  38  62  96 125 172 216 276 326 406
#
# _framework density 21.597476
#
# number of rings (size 3 to 8) (size 9 to 14) (size 15 to 20)
#    0.000    1.600    1.333    3.600    5.600    2.667 
#   14.400    2.000   14.667    0.000    0.000    0.000 
#    0.000    0.000    0.000    0.000    0.000    0.000 
#
# Total GULP energy -743420.624783 kJ/mol
# GULP energy per Si atom -12390.343746 kJ/mol
# Density = 2.154832 g / cm^3
# Si number density = 21.597476 Si / 1000 Ang^3
#
#
#
# Elastic Constant Matrix: (Units=GPa)
#
#
# Indices 1 2 3 4 5 6 
#
# 1 100.2577 42.1993 43.7559 0.0000 0.0000 0.0000
# 2 42.1993 129.8669 77.0404 0.0000 0.0000 0.0000
# 3 43.7559 77.0404 138.5122 0.0000 0.0000 0.0000
# 4 0.0000 0.0000 0.0000 41.7349 0.0000 0.0000
# 5 0.0000 0.0000 0.0000 0.0000 27.8933 0.0000
# 6 0.0000 0.0000 0.0000 0.0000 0.0000 39.1048
#
#
#
# Elastic Compliance Matrix: (Units=1/GPa)
#
#
# Indices 1 2 3 4 5 6 
#
# 1 0.012082 -0.002480 -0.002437 0.000000 0.000000 0.000000
# 2 -0.002480 0.012001 -0.005892 0.000000 0.000000 0.000000
# 3 -0.002437 -0.005892 0.011266 0.000000 0.000000 0.000000
# 4 0.000000 0.000000 0.000000 0.023961 0.000000 0.000000
# 5 0.000000 0.000000 0.000000 0.000000 0.035851 0.000000
# 6 0.000000 0.000000 0.000000 0.000000 0.000000 0.025572
#
#
# Mechanical properties :
#
#
# Convention : Reuss Voigt Hill
#
# Bulk Modulus (GPa) = 72.82462 77.18087 75.00274
# Shear Modulus (GPa) = 34.03022 35.45601 34.74312
#
# Velocity S-wave (km/s) = 3.97376 4.05615 4.01517
# Velocity P-wave (km/s) = 7.40585 7.59935 7.50322
#
# Compressibility (1/GPa) = 0.01373162
#
# Stress axis : x y z
#
# Youngs Moduli (GPa) = 82.76862 83.32573 88.75967
#
# Poissons Ratio (x) = 0.20665 0.21633
# Poissons Ratio (y) = 0.20527 0.52293
# Poissons Ratio (z) = 0.20173 0.49092
#
# Static dielectric constant tensor:
#      x y z
#    x 4.164500 0.000000 0.000000 
#    y 0.000000 4.013560 0.000000 
#    z 0.000000 0.000000 3.797500 
# 
# 
# High freq. dielectric constant tensor:
#      x y z
#    x 1.853050 0.000000 0.000000 
#    y 0.000000 1.854680 0.000000 
#    z 0.000000 0.000000 1.827690 
# 
# From -- ./inp_files/26315.got.cif
#   From: 2010.03.12/outbox.cif.g09.slc.cpg/sg54_14_cif.got.tgz:26315.got - 2010.04.16 15:00:50.
