data_PCOD8223965
_publ_section_title
;
Structure prediction by ZEFSAII (Michael W. Deem and Ramdas Pophale) SiO2 
 PCOD8223965
Probable space group: P C C A
;
_chemical_formula_sum "Si O2"
_cell_formula_units_Z 40
_cell_length_a 11.870128
_cell_length_b 16.328970
_cell_length_c 8.965581
_cell_angle_alpha 90.000000
_cell_angle_beta 90.000000
_cell_angle_gamma 90.000000
_cell_volume 1737.771346
_symmetry_space_group_name_H-M "P C C A"
_symmetry_group_IT_number 54
_symmetry_cell_setting 'orthorhombic'
loop_
_space_group_symop_operation_xyz
x,y,z
1/2-x,-y,z
1/2+x,-y,1/2-z
-x,y,1/2-z
-x,-y,-z
1/2+x,y,-z
1/2-x,y,1/2+z
x,-y,1/2+z
loop_
_atom_site_type_symbol
_atom_site_label
_atom_site_fract_x
_atom_site_fract_y
_atom_site_fract_z
Si Si1 0.834897 0.900410 0.383680
Si Si2 0.121449 0.064197 0.275070
Si Si3 0.779868 0.634078 0.610040
Si Si4 0.917898 0.517040 0.128473
Si Si5 0.119124 0.719781 0.177328
O O1 0.704591 0.888143 0.336629
O O2 0.841494 0.930399 0.553582
O O3 0.897432 0.814911 0.361518
O O4 0.885314 0.968596 0.272279
O O5 0.000000 0.105291 0.250000
O O6 0.671139 0.581454 0.562380
O O7 0.860978 0.567405 0.691071
O O8 0.851234 0.670833 0.473610
O O9 0.728660 0.705359 0.715860
O O10 0.000000 0.557939 0.250000
O O11 0.000000 0.500000 0.000000
O O12 0.000000 0.691361 0.250000
#
# Coordination Sequence:
#
# PCOD8223965 Si02
#       5
#     8   8   8   8   8
#     4  11  24  42  67 100 135 177 232 280 339 410
#     4  11  23  43  69  97 132 178 230 287 336 398
#     4  11  24  41  66  97 132 175 224 267 329 405
#     4  11  22  41  67  96 129 172 220 271 321 385
#     4  12  26  45  66  98 141 179 218 281 346 403
#
# _framework density 23.017987999999999
#
# number of rings (size 3 to 8) (size 9 to 14) (size 15 to 20)
#    0.000    0.800    0.000    9.000    0.000    6.400 
#    0.000    4.000    0.000    0.000    0.000    0.000 
#    0.000    0.000    0.000    0.000    0.000    0.000 
#
# Total GULP energy -495540.186388 kJ/mol
# GULP energy per Si atom -12388.504660 kJ/mol
# Density = 2.296560 g / cm^3
# Si number density = 23.017988 Si / 1000 Ang^3
#
#
#
# Elastic Constant Matrix: (Units=GPa)
#
#
# Indices 1 2 3 4 5 6 
#
# 1 124.3877 18.8673 41.8531 0.0000 0.0000 0.0000
# 2 18.8673 119.7836 48.0487 0.0000 0.0000 0.0000
# 3 41.8531 48.0487 145.8546 0.0000 0.0000 0.0000
# 4 0.0000 0.0000 0.0000 31.7488 0.0000 0.0000
# 5 0.0000 0.0000 0.0000 0.0000 43.9259 0.0000
# 6 0.0000 0.0000 0.0000 0.0000 0.0000 24.8604
#
#
#
# Elastic Compliance Matrix: (Units=1/GPa)
#
#
# Indices 1 2 3 4 5 6 
#
# 1 0.008918 -0.000436 -0.002416 0.000000 0.000000 0.000000
# 2 -0.000436 0.009641 -0.003051 0.000000 0.000000 0.000000
# 3 -0.002416 -0.003051 0.008554 0.000000 0.000000 0.000000
# 4 0.000000 0.000000 0.000000 0.031497 0.000000 0.000000
# 5 0.000000 0.000000 0.000000 0.000000 0.022766 0.000000
# 6 0.000000 0.000000 0.000000 0.000000 0.000000 0.040225
#
#
# Mechanical properties :
#
#
# Convention : Reuss Voigt Hill
#
# Bulk Modulus (GPa) = 65.32130 67.50713 66.41422
# Shear Modulus (GPa) = 36.09890 38.85749 37.47819
#
# Velocity S-wave (km/s) = 3.96446 4.11315 4.03949
# Velocity P-wave (km/s) = 7.02822 7.20757 7.11846
#
# Compressibility (1/GPa) = 0.01530894
#
# Stress axis : x y z
#
# Youngs Moduli (GPa) = 112.12974 103.72537 116.89971
#
# Poissons Ratio (x) = 0.04520 0.28238
# Poissons Ratio (y) = 0.04886 0.35665
# Poissons Ratio (z) = 0.27085 0.31646
#
# Static dielectric constant tensor:
#      x y z
#    x 6.373950 0.000000 0.000000 
#    y 0.000000 5.028670 0.000000 
#    z 0.000000 0.000000 3.980500 
# 
# 
# High freq. dielectric constant tensor:
#      x y z
#    x 1.926000 0.000000 0.000000 
#    y 0.000000 1.912760 0.000000 
#    z 0.000000 0.000000 1.901450 
# 
# From -- ./inp_files/2928.got.cif
#   From: 2010.03.12/outbox.cif.g09.slc.cpg/sg54_2_cif.got.tgz:2928.got - 2010.04.16 15:00:50.
