data_PCOD8223335
_publ_section_title
;
Structure prediction by ZEFSAII (Michael W. Deem and Ramdas Pophale) SiO2 
 PCOD8223335
Probable space group: P C C A
;
_chemical_formula_sum "Si O2"
_cell_formula_units_Z 52
_cell_length_a 20.567561
_cell_length_b 8.583581
_cell_length_c 15.163562
_cell_angle_alpha 90.000000
_cell_angle_beta 90.000000
_cell_angle_gamma 90.000000
_cell_volume 2677.025667
_symmetry_space_group_name_H-M "P C C A"
_symmetry_group_IT_number 54
_symmetry_cell_setting 'orthorhombic'
loop_
_space_group_symop_operation_xyz
x,y,z
1/2-x,-y,z
1/2+x,-y,1/2-z
-x,y,1/2-z
-x,-y,-z
1/2+x,y,-z
1/2-x,y,1/2+z
x,-y,1/2+z
loop_
_atom_site_type_symbol
_atom_site_label
_atom_site_fract_x
_atom_site_fract_y
_atom_site_fract_z
Si Si1 0.250000 0.000000 0.588800
Si Si2 0.663742 0.762310 0.506977
Si Si3 0.000000 0.086033 0.250000
Si Si4 0.030672 0.665233 0.089382
Si Si5 0.086526 0.182256 0.817056
Si Si6 0.750000 0.500000 0.445748
Si Si7 0.460388 0.311773 0.593542
Si Si8 0.661324 0.744707 0.848588
O O1 0.285290 0.110950 0.521061
O O2 0.200445 0.093131 0.651219
O O3 0.631400 0.822834 0.596646
O O4 0.702633 0.597430 0.511271
O O5 0.610642 0.747415 0.430770
O O6 0.986749 0.196918 0.332605
O O7 0.935844 0.984567 0.223787
O O8 0.043257 0.490337 0.123919
O O9 0.098891 0.757363 0.087398
O O10 0.981030 0.733803 0.160464
O O11 0.007106 0.687542 0.990581
O O12 0.130483 0.280270 0.748499
O O13 0.791666 0.606043 0.378843
#
# Coordination Sequence:
#
# PCOD8223335 Si02
#       8
#     4   8   4   8   8   4   8   8
#     4  10  24  38  64  82 122 176 196 252 300 374
#     4  10  22  41  60  88 123 163 211 247 309 375
#     4  12  24  36  60 100 124 156 198 256 326 376
#     4  10  21  41  65  89 122 160 202 258 317 368
#     4  11  24  39  63  93 126 158 202 265 319 365
#     4  10  22  40  64  84 118 176 214 252 298 368
#     4  10  23  38  63  92 122 160 202 259 314 368
#     4  11  21  41  62  89 123 160 211 252 306 366
#
# _framework density 19.424544000000001
#
# number of rings (size 3 to 8) (size 9 to 14) (size 15 to 20)
#    0.000    1.538    3.077    0.923    4.308    2.462 
#    0.000    0.000    0.000    0.000    0.000    0.000 
#    0.000    0.000    0.000    0.000    0.000    0.000 
#
# Total GULP energy -644503.998023 kJ/mol
# GULP energy per Si atom -12394.307654 kJ/mol
# Density = 1.938033 g / cm^3
# Si number density = 19.424544 Si / 1000 Ang^3
#
#
#
# Elastic Constant Matrix: (Units=GPa)
#
#
# Indices 1 2 3 4 5 6 
#
# 1 111.5272 41.6760 39.2619 0.0000 0.0000 0.0000
# 2 41.6760 99.2557 55.5760 0.0000 0.0000 0.0000
# 3 39.2619 55.5760 86.1338 0.0000 0.0000 0.0000
# 4 0.0000 0.0000 0.0000 31.2020 0.0000 0.0000
# 5 0.0000 0.0000 0.0000 0.0000 29.5658 0.0000
# 6 0.0000 0.0000 0.0000 0.0000 0.0000 26.6156
#
#
#
# Elastic Compliance Matrix: (Units=1/GPa)
#
#
# Indices 1 2 3 4 5 6 
#
# 1 0.011183 -0.002883 -0.003237 0.000000 0.000000 0.000000
# 2 -0.002883 0.016517 -0.009343 0.000000 0.000000 0.000000
# 3 -0.003237 -0.009343 0.019114 0.000000 0.000000 0.000000
# 4 0.000000 0.000000 0.000000 0.032049 0.000000 0.000000
# 5 0.000000 0.000000 0.000000 0.000000 0.033823 0.000000
# 6 0.000000 0.000000 0.000000 0.000000 0.000000 0.037572
#
#
# Mechanical properties :
#
#
# Convention : Reuss Voigt Hill
#
# Bulk Modulus (GPa) = 62.94349 63.32718 63.13534
# Shear Modulus (GPa) = 26.81230 28.17018 27.49124
#
# Velocity S-wave (km/s) = 3.71931 3.81233 3.76611
# Velocity P-wave (km/s) = 7.13574 7.21463 7.17529
#
# Compressibility (1/GPa) = 0.01588727
#
# Stress axis : x y z
#
# Youngs Moduli (GPa) = 89.41755 60.54374 52.31767
#
# Poissons Ratio (x) = 0.17455 0.16938
# Poissons Ratio (y) = 0.25779 0.48881
# Poissons Ratio (z) = 0.28949 0.56567
#
# Static dielectric constant tensor:
#      x y z
#    x 3.875910 0.000000 0.000000 
#    y 0.000000 3.729730 0.000000 
#    z 0.000000 0.000000 3.404890 
# 
# 
# High freq. dielectric constant tensor:
#      x y z
#    x 1.775330 0.000000 0.000000 
#    y 0.000000 1.760770 0.000000 
#    z 0.000000 0.000000 1.746750 
# 
# From -- ./inp_files/14645.got.cif
#   From: 2010.03.12/outbox.cif.g09.slc.cpg/sg54_8_cif.got.tgz:14645.got - 2010.04.16 15:00:50.
