data_PCOD8223112
_publ_section_title
;
Structure prediction by ZEFSAII (Michael W. Deem and Ramdas Pophale) SiO2 
 PCOD8223112
Probable space group: P C C A
;
_chemical_formula_sum "Si O2"
_cell_formula_units_Z 40
_cell_length_a 7.616474
_cell_length_b 10.245631
_cell_length_c 24.302636
_cell_angle_alpha 90.000000
_cell_angle_beta 90.000000
_cell_angle_gamma 90.000000
_cell_volume 1896.470347
_symmetry_space_group_name_H-M "P C C A"
_symmetry_group_IT_number 54
_symmetry_cell_setting 'orthorhombic'
loop_
_space_group_symop_operation_xyz
x,y,z
1/2-x,-y,z
1/2+x,-y,1/2-z
-x,y,1/2-z
-x,-y,-z
1/2+x,y,-z
1/2-x,y,1/2+z
x,-y,1/2+z
loop_
_atom_site_type_symbol
_atom_site_label
_atom_site_fract_x
_atom_site_fract_y
_atom_site_fract_z
Si Si1 0.639351 0.114473 0.293984
Si Si2 0.051461 0.992816 0.398965
Si Si3 0.955934 0.722067 0.563561
Si Si4 0.253082 0.356841 0.141313
Si Si5 0.051680 0.720853 0.441839
O O1 0.500000 0.167032 0.250000
O O2 0.747308 0.242956 0.312760
O O3 0.750000 0.000000 0.263740
O O4 0.563817 0.037097 0.346013
O O5 0.994817 0.125647 0.428861
O O6 0.250000 0.000000 0.377999
O O7 0.024598 0.877023 0.442755
O O8 0.752378 0.688070 0.574622
O O9 0.074028 0.644720 0.606563
O O10 0.006773 0.672309 0.502829
O O11 0.250000 0.500000 0.169757
O O12 0.424044 0.344892 0.102444
#
# Coordination Sequence:
#
# PCOD8223112 Si02
#       5
#     8   8   8   8   8
#     4  11  22  42  71  94 118 154 209 271 327 382
#     4   9  19  34  59  93 128 156 207 266 320 365
#     4  11  19  37  59  94 130 176 210 256 309 364
#     4  11  25  43  63  92 133 172 211 260 313 375
#     4  10  21  34  60  94 130 175 218 253 298 380
#
# _framework density 21.091812000000001
#
# number of rings (size 3 to 8) (size 9 to 14) (size 15 to 20)
#    0.000    1.600    4.000    1.200    0.000    1.600 
#    0.000    1.000    0.000    0.000    0.000    0.000 
#    0.000    0.000    0.000    0.000    0.000    0.000 
#
# Total GULP energy -495905.633566 kJ/mol
# GULP energy per Si atom -12397.640839 kJ/mol
# Density = 2.104381 g / cm^3
# Si number density = 21.091812 Si / 1000 Ang^3
#
#
#
# Elastic Constant Matrix: (Units=GPa)
#
#
# Indices 1 2 3 4 5 6 
#
# 1 102.2209 28.7529 16.9789 0.0000 0.0000 0.0000
# 2 28.7529 130.8800 13.1711 0.0000 0.0000 0.0000
# 3 16.9789 13.1711 53.1699 0.0000 0.0000 0.0000
# 4 0.0000 0.0000 0.0000 8.1704 0.0000 0.0000
# 5 0.0000 0.0000 0.0000 0.0000 23.4909 0.0000
# 6 0.0000 0.0000 0.0000 0.0000 0.0000 12.1938
#
#
#
# Elastic Compliance Matrix: (Units=1/GPa)
#
#
# Indices 1 2 3 4 5 6 
#
# 1 0.010860 -0.002089 -0.002951 0.000000 0.000000 0.000000
# 2 -0.002089 0.008238 -0.001374 0.000000 0.000000 0.000000
# 3 -0.002951 -0.001374 0.020090 0.000000 0.000000 0.000000
# 4 0.000000 0.000000 0.000000 0.122393 0.000000 0.000000
# 5 0.000000 0.000000 0.000000 0.000000 0.042570 0.000000
# 6 0.000000 0.000000 0.000000 0.000000 0.000000 0.082009
#
#
# Mechanical properties :
#
#
# Convention : Reuss Voigt Hill
#
# Bulk Modulus (GPa) = 37.93341 44.89740 41.41540
# Shear Modulus (GPa) = 16.24574 23.92889 20.08732
#
# Velocity S-wave (km/s) = 2.77833 3.37190 3.08941
# Velocity P-wave (km/s) = 5.32129 6.04090 5.69248
#
# Compressibility (1/GPa) = 0.02636199
#
# Stress axis : x y z
#
# Youngs Moduli (GPa) = 92.07739 121.39256 49.77572
#
# Poissons Ratio (x) = 0.25359 0.14687
# Poissons Ratio (y) = 0.19235 0.06837
# Poissons Ratio (z) = 0.27169 0.16674
#
# Static dielectric constant tensor:
#      x y z
#    x 3.985430 0.000000 0.000000 
#    y 0.000000 3.815650 0.000000 
#    z 0.000000 0.000000 3.439050 
# 
# 
# High freq. dielectric constant tensor:
#      x y z
#    x 1.837360 0.000000 0.000000 
#    y 0.000000 1.824450 0.000000 
#    z 0.000000 0.000000 1.796210 
# 
# From -- ./inp_files/23272.got.cif
#   From: 2010.03.12/outbox.cif.g09.slc.cpg/sg54_12_cif.got.tgz:23272.got - 2010.04.16 15:00:50.
