data_PCOD8223933
_publ_section_title
;
Structure prediction by ZEFSAII (Michael W. Deem and Ramdas Pophale) SiO2 
 PCOD8223933
Probable space group: P C C A
;
_chemical_formula_sum "Si O2"
_cell_formula_units_Z 48
_cell_length_a 17.757619
_cell_length_b 13.283766
_cell_length_c 9.281728
_cell_angle_alpha 90.000000
_cell_angle_beta 90.000000
_cell_angle_gamma 90.000000
_cell_volume 2189.448770
_symmetry_space_group_name_H-M "P C C A"
_symmetry_group_IT_number 54
_symmetry_cell_setting 'orthorhombic'
loop_
_space_group_symop_operation_xyz
x,y,z
1/2-x,-y,z
1/2+x,-y,1/2-z
-x,y,1/2-z
-x,-y,-z
1/2+x,y,-z
1/2-x,y,1/2+z
x,-y,1/2+z
loop_
_atom_site_type_symbol
_atom_site_label
_atom_site_fract_x
_atom_site_fract_y
_atom_site_fract_z
Si Si1 0.285542 0.108615 0.734104
Si Si2 0.432058 0.785860 0.136604
Si Si3 0.819853 0.597256 0.534492
Si Si4 0.674188 0.184547 0.471248
Si Si5 0.835568 0.412676 0.368016
Si Si6 0.516918 0.900719 0.914280
O O1 0.371707 0.128028 0.683544
O O2 0.233281 0.193711 0.659828
O O3 0.250000 0.000000 0.693692
O O4 0.280389 0.126795 0.903618
O O5 0.500000 0.785739 0.250000
O O6 0.396202 0.675708 0.122367
O O7 0.465417 0.811860 0.979770
O O8 0.857581 0.707307 0.523231
O O9 0.868021 0.516050 0.440855
O O10 0.736897 0.610022 0.466650
O O11 0.814451 0.566052 0.701897
O O12 0.604770 0.118685 0.423571
O O13 0.500000 0.918343 0.750000
O O14 0.500000 0.000000 0.000000
#
# Coordination Sequence:
#
# PCOD8223933 Si02
#       6
#     8   8   8   8   8   8
#     4  12  26  44  74 106 143 186 248 295 361 441
#     4  12  24  50  70 104 151 195 234 312 377 438
#     4  11  21  41  65 107 135 191 241 311 351 433
#     4  12  25  46  71 106 141 183 248 298 359 434
#     4  11  23  40  72 101 147 189 248 300 374 423
#     4  12  29  46  72  99 145 192 239 293 378 448
#
# _framework density 21.923324999999998
#
# number of rings (size 3 to 8) (size 9 to 14) (size 15 to 20)
#    0.000    0.333    5.000    4.000    4.667    2.667 
#    0.000    4.167    0.000    0.000    0.000    0.000 
#    0.000    0.000    0.000    0.000    0.000    0.000 
#
# Total GULP energy -595139.101477 kJ/mol
# GULP energy per Si atom -12398.731281 kJ/mol
# Density = 2.187343 g / cm^3
# Si number density = 21.923325 Si / 1000 Ang^3
#
#
#
# Elastic Constant Matrix: (Units=GPa)
#
#
# Indices 1 2 3 4 5 6 
#
# 1 124.5491 45.0171 64.1043 0.0000 0.0000 0.0000
# 2 45.0171 112.1343 53.5211 0.0000 0.0000 0.0000
# 3 64.1043 53.5211 195.9024 0.0000 0.0000 0.0000
# 4 0.0000 0.0000 0.0000 33.8768 0.0000 0.0000
# 5 0.0000 0.0000 0.0000 0.0000 31.2437 0.0000
# 6 0.0000 0.0000 0.0000 0.0000 0.0000 17.6221
#
#
#
# Elastic Compliance Matrix: (Units=1/GPa)
#
#
# Indices 1 2 3 4 5 6 
#
# 1 0.010437 -0.002944 -0.002611 0.000000 0.000000 0.000000
# 2 -0.002944 0.011085 -0.002065 0.000000 0.000000 0.000000
# 3 -0.002611 -0.002065 0.006523 0.000000 0.000000 0.000000
# 4 0.000000 0.000000 0.000000 0.029519 0.000000 0.000000
# 5 0.000000 0.000000 0.000000 0.000000 0.032006 0.000000
# 6 0.000000 0.000000 0.000000 0.000000 0.000000 0.056747
#
#
# Mechanical properties :
#
#
# Convention : Reuss Voigt Hill
#
# Bulk Modulus (GPa) = 78.09187 84.20789 81.14988
# Shear Modulus (GPa) = 30.15208 34.54473 32.34841
#
# Velocity S-wave (km/s) = 3.71258 3.97382 3.84542
# Velocity P-wave (km/s) = 7.35360 7.71677 7.53738
#
# Compressibility (1/GPa) = 0.01280543
#
# Stress axis : x y z
#
# Youngs Moduli (GPa) = 95.81501 90.20861 153.29895
#
# Poissons Ratio (x) = 0.26555 0.40026
# Poissons Ratio (y) = 0.28205 0.31661
# Poissons Ratio (z) = 0.25017 0.18631
#
# Static dielectric constant tensor:
#      x y z
#    x 3.959450 0.000000 0.000000 
#    y 0.000000 4.388600 0.000000 
#    z 0.000000 0.000000 4.261770 
# 
# 
# High freq. dielectric constant tensor:
#      x y z
#    x 1.848840 0.000000 0.000000 
#    y 0.000000 1.874860 0.000000 
#    z 0.000000 0.000000 1.878680 
# 
# From -- ./inp_files/4198.got.cif
#   From: 2010.03.12/outbox.cif.g09.slc.cpg/sg54_3_cif.got.tgz:4198.got - 2010.04.16 15:00:50.
