data_PCOD8223499
_publ_section_title
;
Structure prediction by ZEFSAII (Michael W. Deem and Ramdas Pophale) SiO2 
 PCOD8223499
Probable space group: P C C A
;
_chemical_formula_sum "Si O2"
_cell_formula_units_Z 40
_cell_length_a 20.267613
_cell_length_b 7.975331
_cell_length_c 10.963021
_cell_angle_alpha 90.000000
_cell_angle_beta 90.000000
_cell_angle_gamma 90.000000
_cell_volume 1772.072825
_symmetry_space_group_name_H-M "P C C A"
_symmetry_group_IT_number 54
_symmetry_cell_setting 'orthorhombic'
loop_
_space_group_symop_operation_xyz
x,y,z
1/2-x,-y,z
1/2+x,-y,1/2-z
-x,y,1/2-z
-x,-y,-z
1/2+x,y,-z
1/2-x,y,1/2+z
x,-y,1/2+z
loop_
_atom_site_type_symbol
_atom_site_label
_atom_site_fract_x
_atom_site_fract_y
_atom_site_fract_z
Si Si1 0.430499 0.639420 0.272198
Si Si2 0.052569 0.990069 0.850401
Si Si3 0.818125 0.076886 0.787389
Si Si4 0.183461 0.603552 0.339966
Si Si5 0.877518 0.831661 0.961397
O O1 0.500000 0.541188 0.250000
O O2 0.451991 0.789489 0.364795
O O3 0.379285 0.517073 0.334829
O O4 0.398846 0.717351 0.151019
O O5 0.000000 0.057961 0.750000
O O6 0.126763 0.028028 0.809285
O O7 0.053286 0.096433 0.977715
O O8 0.811745 0.281144 0.782997
O O9 0.750000 0.000000 0.740143
O O10 0.837250 0.997911 0.918215
O O11 0.250000 0.500000 0.358246
O O12 0.171821 0.723050 0.456076
#
# Coordination Sequence:
#
# PCOD8223499 Si02
#       5
#     8   8   8   8   8
#     4  10  23  41  63  96 130 162 210 269 321 375
#     4   9  20  40  64  92 127 167 215 259 305 378
#     4  10  22  40  63  90 124 164 214 258 302 377
#     4  11  24  42  64  95 132 164 209 268 320 372
#     4  10  23  41  65  91 124 175 215 254 320 380
#
# _framework density 22.572434000000001
#
# number of rings (size 3 to 8) (size 9 to 14) (size 15 to 20)
#    0.000    2.000    0.000    2.400    0.000   20.000 
#    0.000    0.000    0.000    0.000    0.000    0.000 
#    0.000    0.000    0.000    0.000    0.000    0.000 
#
# Total GULP energy -495598.824278 kJ/mol
# GULP energy per Si atom -12389.970607 kJ/mol
# Density = 2.252106 g / cm^3
# Si number density = 22.572434 Si / 1000 Ang^3
#
#
#
# Elastic Constant Matrix: (Units=GPa)
#
#
# Indices 1 2 3 4 5 6 
#
# 1 107.6332 34.1364 -5.1938 0.0000 0.0000 0.0000
# 2 34.1364 106.5929 48.5710 0.0000 0.0000 0.0000
# 3 -5.1938 48.5710 74.4315 0.0000 0.0000 0.0000
# 4 0.0000 0.0000 0.0000 44.5374 0.0000 0.0000
# 5 0.0000 0.0000 0.0000 0.0000 22.8483 0.0000
# 6 0.0000 0.0000 0.0000 0.0000 0.0000 44.3962
#
#
#
# Elastic Compliance Matrix: (Units=1/GPa)
#
#
# Indices 1 2 3 4 5 6 
#
# 1 0.011303 -0.005663 0.004484 0.000000 0.000000 0.000000
# 2 -0.005663 0.016189 -0.010959 0.000000 0.000000 0.000000
# 3 0.004484 -0.010959 0.020900 0.000000 0.000000 0.000000
# 4 0.000000 0.000000 0.000000 0.022453 0.000000 0.000000
# 5 0.000000 0.000000 0.000000 0.000000 0.043767 0.000000
# 6 0.000000 0.000000 0.000000 0.000000 0.000000 0.022524
#
#
# Mechanical properties :
#
#
# Convention : Reuss Voigt Hill
#
# Bulk Modulus (GPa) = 41.46731 49.29831 45.38281
# Shear Modulus (GPa) = 29.50691 36.43266 32.96978
#
# Velocity S-wave (km/s) = 3.61946 4.02186 3.82595
# Velocity P-wave (km/s) = 5.98982 6.59201 6.29812
#
# Compressibility (1/GPa) = 0.02411538
#
# Stress axis : x y z
#
# Youngs Moduli (GPa) = 88.46945 61.77018 47.84733
#
# Poissons Ratio (x) = 0.34982 -0.21456
# Poissons Ratio (y) = 0.50103 0.52438
# Poissons Ratio (z) = -0.39673 0.67697
#
# Static dielectric constant tensor:
#      x y z
#    x 4.420020 0.000000 0.000000 
#    y 0.000000 4.382220 0.000000 
#    z 0.000000 0.000000 4.269560 
# 
# 
# High freq. dielectric constant tensor:
#      x y z
#    x 1.913530 0.000000 0.000000 
#    y 0.000000 1.886560 0.000000 
#    z 0.000000 0.000000 1.873860 
# 
# From -- ./inp_files/9401.got.cif
#   From: 2010.03.12/outbox.cif.g09.slc.cpg/sg54_5_cif.got.tgz:9401.got - 2010.04.16 15:00:50.
