data_PCOD8223677
_publ_section_title
;
Structure prediction by ZEFSAII (Michael W. Deem and Ramdas Pophale) SiO2 
 PCOD8223677
Probable space group: P C C A
;
_chemical_formula_sum "Si O2"
_cell_formula_units_Z 40
_cell_length_a 5.169334
_cell_length_b 26.541867
_cell_length_c 12.430379
_cell_angle_alpha 90.000000
_cell_angle_beta 90.000000
_cell_angle_gamma 90.000000
_cell_volume 1705.494930
_symmetry_space_group_name_H-M "P C C A"
_symmetry_group_IT_number 54
_symmetry_cell_setting 'orthorhombic'
loop_
_space_group_symop_operation_xyz
x,y,z
1/2-x,-y,z
1/2+x,-y,1/2-z
-x,y,1/2-z
-x,-y,-z
1/2+x,y,-z
1/2-x,y,1/2+z
x,-y,1/2+z
loop_
_atom_site_type_symbol
_atom_site_label
_atom_site_fract_x
_atom_site_fract_y
_atom_site_fract_z
Si Si1 0.607301 0.249554 0.075486
Si Si2 0.750000 0.000000 0.323431
Si Si3 0.000000 0.829839 0.250000
Si Si4 0.500000 0.395598 0.750000
Si Si5 0.000000 0.331303 0.750000
Si Si6 0.279326 0.105391 0.070168
Si Si7 0.477692 0.442996 0.959044
O O1 0.642467 0.204237 0.160766
O O2 0.593024 0.300175 0.145803
O O3 0.349208 0.246495 0.004164
O O4 0.793815 0.953320 0.402408
O O5 0.500000 0.990514 0.250000
O O6 0.797126 0.864444 0.316491
O O7 0.747531 0.362879 0.784941
O O8 0.402753 0.436071 0.836640
O O9 0.514998 0.119787 0.990405
O O10 0.500000 0.500000 0.000000
O O11 0.249350 0.414831 0.023245
#
# Coordination Sequence:
#
# PCOD8223677 Si02
#       7
#     8   4   4   4   4   8   8
#     4  11  25  47  72 100 137 175 219 280 350 413
#     4  12  24  46  70  98 140 192 232 296 344 404
#     4  11  26  46  72 104 138 178 230 280 346 419
#     4  12  24  42  67 100 134 174 227 276 332 394
#     4  11  26  42  69 102 132 174 223 282 336 407
#     4  12  26  44  70 101 138 183 233 284 344 409
#     4  10  23  40  62  92 130 177 222 271 323 385
#
# _framework density 23.453602
#
# number of rings (size 3 to 8) (size 9 to 14) (size 15 to 20)
#    0.000    0.800    1.000    5.400    0.000   12.000 
#    0.000    0.000    0.000    0.000    0.000    0.000 
#    0.000    0.000    0.000    0.000    0.000    0.000 
#
# Total GULP energy -495662.269267 kJ/mol
# GULP energy per Si atom -12391.556732 kJ/mol
# Density = 2.340022 g / cm^3
# Si number density = 23.453602 Si / 1000 Ang^3
#
#
#
# Elastic Constant Matrix: (Units=GPa)
#
#
# Indices 1 2 3 4 5 6 
#
# 1 183.2706 27.7342 51.1866 0.0000 0.0000 0.0000
# 2 27.7342 107.7926 62.1807 0.0000 0.0000 0.0000
# 3 51.1866 62.1807 148.0369 0.0000 0.0000 0.0000
# 4 0.0000 0.0000 0.0000 33.8494 0.0000 0.0000
# 5 0.0000 0.0000 0.0000 0.0000 34.4776 0.0000
# 6 0.0000 0.0000 0.0000 0.0000 0.0000 58.6549
#
#
#
# Elastic Compliance Matrix: (Units=1/GPa)
#
#
# Indices 1 2 3 4 5 6 
#
# 1 0.006057 -0.000462 -0.001900 0.000000 0.000000 0.000000
# 2 -0.000462 0.012279 -0.004998 0.000000 0.000000 0.000000
# 3 -0.001900 -0.004998 0.009511 0.000000 0.000000 0.000000
# 4 0.000000 0.000000 0.000000 0.029543 0.000000 0.000000
# 5 0.000000 0.000000 0.000000 0.000000 0.029004 0.000000
# 6 0.000000 0.000000 0.000000 0.000000 0.000000 0.017049
#
#
# Mechanical properties :
#
#
# Convention : Reuss Voigt Hill
#
# Bulk Modulus (GPa) = 76.17926 80.14478 78.16202
# Shear Modulus (GPa) = 40.80324 45.26297 43.03310
#
# Velocity S-wave (km/s) = 4.17555 4.39782 4.28813
# Velocity P-wave (km/s) = 7.46982 7.74813 7.61025
#
# Compressibility (1/GPa) = 0.01312693
#
# Stress axis : x y z
#
# Youngs Moduli (GPa) = 165.09603 81.43984 105.13791
#
# Poissons Ratio (x) = 0.03765 0.19978
# Poissons Ratio (y) = 0.07633 0.52545
# Poissons Ratio (z) = 0.31371 0.40702
#
# Static dielectric constant tensor:
#      x y z
#    x 5.411780 0.000000 0.000000 
#    y 0.000000 4.215440 0.000000 
#    z 0.000000 0.000000 4.536760 
# 
# 
# High freq. dielectric constant tensor:
#      x y z
#    x 1.941850 0.000000 0.000000 
#    y 0.000000 1.928630 0.000000 
#    z 0.000000 0.000000 1.948120 
# 
# From -- ./inp_files/6476.got.cif
#   From: 2010.03.12/outbox.cif.g09.slc.cpg/sg54_4_cif.got.tgz:6476.got - 2010.04.16 15:00:50.
