data_PCOD8223104
_publ_section_title
;
Structure prediction by ZEFSAII (Michael W. Deem and Ramdas Pophale) SiO2 
 PCOD8223104
Probable space group: P C C A
;
_chemical_formula_sum "Si O2"
_cell_formula_units_Z 52
_cell_length_a 20.042348
_cell_length_b 5.671680
_cell_length_c 23.799645
_cell_angle_alpha 90.000000
_cell_angle_beta 90.000000
_cell_angle_gamma 90.000000
_cell_volume 2705.395712
_symmetry_space_group_name_H-M "P C C A"
_symmetry_group_IT_number 54
_symmetry_cell_setting 'orthorhombic'
loop_
_space_group_symop_operation_xyz
x,y,z
1/2-x,-y,z
1/2+x,-y,1/2-z
-x,y,1/2-z
-x,-y,-z
1/2+x,y,-z
1/2-x,y,1/2+z
x,-y,1/2+z
loop_
_atom_site_type_symbol
_atom_site_label
_atom_site_fract_x
_atom_site_fract_y
_atom_site_fract_z
Si Si1 0.250000 0.000000 0.607934
Si Si2 0.054388 0.137604 0.798872
Si Si3 0.946522 0.300515 0.009109
Si Si4 0.135622 0.699928 0.644446
Si Si5 0.819571 0.381520 0.953840
Si Si6 0.516231 0.008951 0.904932
Si Si7 0.578346 0.631242 0.238190
O O1 0.207765 0.826950 0.647427
O O2 0.303527 0.880576 0.566536
O O3 0.095952 0.386244 0.795453
O O4 0.000000 0.142762 0.750000
O O5 0.021133 0.156141 0.860394
O O6 0.095191 0.885717 0.792396
O O7 0.869662 0.390915 0.007314
O O8 0.950825 0.123708 0.956805
O O9 0.960457 0.184820 0.069378
O O10 0.000000 0.500000 0.000000
O O11 0.141420 0.497879 0.598182
O O12 0.121886 0.598259 0.705766
O O13 0.073815 0.863498 0.629308
O O14 0.750000 0.500000 0.971581
O O15 0.500000 0.635695 0.250000
#
# Coordination Sequence:
#
# PCOD8223104 Si02
#       7
#     4   8   8   8   8   8   8
#     4  10  22  36  58  80 126 166 196 260 310 392
#     4  10  21  34  54  87 120 160 190 242 309 370
#     4  11  23  35  58  86 127 160 199 269 316 375
#     4  11  20  36  56  88 126 156 207 253 318 388
#     4  10  22  36  57  84 121 163 208 253 317 384
#     4  11  22  35  55  87 129 157 199 255 323 373
#     4  10  21  32  56  86 119 159 192 246 306 358
#
# _framework density 19.220846999999999
#
# number of rings (size 3 to 8) (size 9 to 14) (size 15 to 20)
#    0.000    1.538    6.154    0.000    8.615    0.000 
#    0.000    0.000    0.000    0.000    0.000    6.462 
#    0.000    0.000    0.000    0.000    0.000    0.000 
#
# Total GULP energy -644255.608268 kJ/mol
# GULP energy per Si atom -12389.530928 kJ/mol
# Density = 1.917710 g / cm^3
# Si number density = 19.220847 Si / 1000 Ang^3
#
#
#
# Elastic Constant Matrix: (Units=GPa)
#
#
# Indices 1 2 3 4 5 6 
#
# 1 89.9949 17.2445 23.4602 0.0000 0.0000 0.0000
# 2 17.2445 114.1146 9.6761 0.0000 0.0000 0.0000
# 3 23.4602 9.6761 60.7725 0.0000 0.0000 0.0000
# 4 0.0000 0.0000 0.0000 16.5577 0.0000 0.0000
# 5 0.0000 0.0000 0.0000 0.0000 34.3536 0.0000
# 6 0.0000 0.0000 0.0000 0.0000 0.0000 25.8884
#
#
#
# Elastic Compliance Matrix: (Units=1/GPa)
#
#
# Indices 1 2 3 4 5 6 
#
# 1 0.012608 -0.001513 -0.004626 0.000000 0.000000 0.000000
# 2 -0.001513 0.009065 -0.000859 0.000000 0.000000 0.000000
# 3 -0.004626 -0.000859 0.018377 0.000000 0.000000 0.000000
# 4 0.000000 0.000000 0.000000 0.060395 0.000000 0.000000
# 5 0.000000 0.000000 0.000000 0.000000 0.029109 0.000000
# 6 0.000000 0.000000 0.000000 0.000000 0.000000 0.038627
#
#
# Mechanical properties :
#
#
# Convention : Reuss Voigt Hill
#
# Bulk Modulus (GPa) = 38.38300 40.62706 39.50503
# Shear Modulus (GPa) = 26.19697 29.66002 27.92849
#
# Velocity S-wave (km/s) = 3.69581 3.93251 3.81600
# Velocity P-wave (km/s) = 6.18263 6.46548 6.32563
#
# Compressibility (1/GPa) = 0.02605320
#
# Stress axis : x y z
#
# Youngs Moduli (GPa) = 79.31734 110.31923 54.41463
#
# Poissons Ratio (x) = 0.16691 0.25172
# Poissons Ratio (y) = 0.12000 0.04675
# Poissons Ratio (z) = 0.36693 0.09479
#
# Static dielectric constant tensor:
#      x y z
#    x 5.390420 0.000000 0.000000 
#    y 0.000000 4.307700 0.000000 
#    z 0.000000 0.000000 3.570130 
# 
# 
# High freq. dielectric constant tensor:
#      x y z
#    x 1.716730 0.000000 0.000000 
#    y 0.000000 1.768900 0.000000 
#    z 0.000000 0.000000 1.722720 
# 
# From -- ./inp_files/22135.got.cif
#   From: 2010.03.12/outbox.cif.g09.slc.cpg/sg54_12_cif.got.tgz:22135.got - 2010.04.16 15:00:50.
