data_PCOD8223027
_publ_section_title
;
Structure prediction by ZEFSAII (Michael W. Deem and Ramdas Pophale) SiO2 
 PCOD8223027
Probable space group: P C C A
;
_chemical_formula_sum "Si O2"
_cell_formula_units_Z 64
_cell_length_a 18.598120
_cell_length_b 10.934137
_cell_length_c 15.388921
_cell_angle_alpha 90.000000
_cell_angle_beta 90.000000
_cell_angle_gamma 90.000000
_cell_volume 3129.404674
_symmetry_space_group_name_H-M "P C C A"
_symmetry_group_IT_number 54
_symmetry_cell_setting 'orthorhombic'
loop_
_space_group_symop_operation_xyz
x,y,z
1/2-x,-y,z
1/2+x,-y,1/2-z
-x,y,1/2-z
-x,-y,-z
1/2+x,y,-z
1/2-x,y,1/2+z
x,-y,1/2+z
loop_
_atom_site_type_symbol
_atom_site_label
_atom_site_fract_x
_atom_site_fract_y
_atom_site_fract_z
Si Si1 0.837550 0.758826 0.707428
Si Si2 0.538205 0.124692 0.163742
Si Si3 0.935039 0.880764 0.579051
Si Si4 0.547905 0.706387 0.332774
Si Si5 0.080097 0.490165 0.029215
Si Si6 0.908402 0.245931 0.908268
Si Si7 0.828521 0.251235 0.737109
Si Si8 0.168432 0.508425 0.363117
O O1 0.866437 0.859244 0.640604
O O2 0.882231 0.778374 0.796604
O O3 0.753819 0.784921 0.721204
O O4 0.857095 0.623257 0.671344
O O5 0.500000 0.068539 0.250000
O O6 0.488299 0.239071 0.134132
O O7 0.619361 0.170161 0.177068
O O8 0.539225 0.020439 0.089714
O O9 0.906386 0.858092 0.482016
O O10 0.000954 0.790465 0.603127
O O11 0.500000 0.661615 0.250000
O O12 0.582754 0.595594 0.386704
O O13 0.109711 0.623042 0.052682
O O14 0.125832 0.442686 0.947348
O O15 0.000000 0.500000 0.000000
O O16 0.847128 0.221873 0.836869
O O17 0.840776 0.394213 0.715033
O O18 0.250000 0.500000 0.394055
#
# Coordination Sequence:
#
# PCOD8223027 Si02
#       8
#     8   8   8   8   8   8   8   8
#     4  10  20  40  60  85 119 160 193 240 299 362
#     4  10  22  39  61  86 115 159 202 248 299 352
#     4  11  21  40  61  85 120 154 200 251 300 343
#     4  10  21  35  59  88 121 160 193 243 302 359
#     4  12  20  34  59  91 121 150 201 246 294 353
#     4  11  22  38  60  89 120 154 198 251 297 356
#     4  10  23  39  61  87 121 158 201 240 301 362
#     4  10  21  38  58  85 124 158 192 238 304 365
#
# _framework density 20.451174999999999
#
# number of rings (size 3 to 8) (size 9 to 14) (size 15 to 20)
#    0.000    1.500    2.500    3.750    0.000    3.000 
#    0.000    0.000    0.000    4.500    0.000    0.000 
#    0.000    0.000    0.000    0.000    0.000    0.000 
#
# Total GULP energy -793531.283671 kJ/mol
# GULP energy per Si atom -12398.926307 kJ/mol
# Density = 2.040463 g / cm^3
# Si number density = 20.451175 Si / 1000 Ang^3
#
#
#
# Elastic Constant Matrix: (Units=GPa)
#
#
# Indices 1 2 3 4 5 6 
#
# 1 126.3503 16.7324 40.6118 0.0000 0.0000 0.0000
# 2 16.7324 56.0933 12.4620 0.0000 0.0000 0.0000
# 3 40.6118 12.4620 108.1188 0.0000 0.0000 0.0000
# 4 0.0000 0.0000 0.0000 30.4373 0.0000 0.0000
# 5 0.0000 0.0000 0.0000 0.0000 25.5443 0.0000
# 6 0.0000 0.0000 0.0000 0.0000 0.0000 20.6908
#
#
#
# Elastic Compliance Matrix: (Units=1/GPa)
#
#
# Indices 1 2 3 4 5 6 
#
# 1 0.009222 -0.002033 -0.003230 0.000000 0.000000 0.000000
# 2 -0.002033 0.018744 -0.001397 0.000000 0.000000 0.000000
# 3 -0.003230 -0.001397 0.010623 0.000000 0.000000 0.000000
# 4 0.000000 0.000000 0.000000 0.032854 0.000000 0.000000
# 5 0.000000 0.000000 0.000000 0.000000 0.039148 0.000000
# 6 0.000000 0.000000 0.000000 0.000000 0.000000 0.048331
#
#
# Mechanical properties :
#
#
# Convention : Reuss Voigt Hill
#
# Bulk Modulus (GPa) = 39.57258 47.79720 43.68489
# Shear Modulus (GPa) = 27.67561 30.05158 28.86360
#
# Velocity S-wave (km/s) = 3.68265 3.83747 3.76086
# Velocity P-wave (km/s) = 6.12163 6.56179 6.34553
#
# Compressibility (1/GPa) = 0.02527003
#
# Stress axis : x y z
#
# Youngs Moduli (GPa) = 108.43843 53.34957 94.13393
#
# Poissons Ratio (x) = 0.10848 0.30401
# Poissons Ratio (y) = 0.22049 0.13148
# Poissons Ratio (z) = 0.35021 0.07452
#
# Static dielectric constant tensor:
#      x y z
#    x 3.617800 0.000000 0.000000 
#    y 0.000000 3.130360 0.000000 
#    z 0.000000 0.000000 5.653670 
# 
# 
# High freq. dielectric constant tensor:
#      x y z
#    x 1.797580 0.000000 0.000000 
#    y 0.000000 1.782680 0.000000 
#    z 0.000000 0.000000 1.805790 
# 
# From -- ./inp_files/14354.got.cif
#   From: 2010.03.12/outbox.cif.g09.slc.cpg/sg54_8_cif.got.tgz:14354.got - 2010.04.16 15:00:50.
