data_PCOD8223184
_publ_section_title
;
Structure prediction by ZEFSAII (Michael W. Deem and Ramdas Pophale) SiO2 
 PCOD8223184
Probable space group: P C C A
;
_chemical_formula_sum "Si O2"
_cell_formula_units_Z 40
_cell_length_a 11.275118
_cell_length_b 4.921195
_cell_length_c 33.577180
_cell_angle_alpha 90.000000
_cell_angle_beta 90.000000
_cell_angle_gamma 90.000000
_cell_volume 1863.098811
_symmetry_space_group_name_H-M "P C C A"
_symmetry_group_IT_number 54
_symmetry_cell_setting 'orthorhombic'
loop_
_space_group_symop_operation_xyz
x,y,z
1/2-x,-y,z
1/2+x,-y,1/2-z
-x,y,1/2-z
-x,-y,-z
1/2+x,y,-z
1/2-x,y,1/2+z
x,-y,1/2+z
loop_
_atom_site_type_symbol
_atom_site_label
_atom_site_fract_x
_atom_site_fract_y
_atom_site_fract_z
Si Si1 0.176293 0.254770 0.464774
Si Si2 0.022220 0.633055 0.587945
Si Si3 0.382630 0.477566 0.168935
Si Si4 0.386878 0.974513 0.221766
Si Si5 0.124672 0.865080 0.048980
O O1 0.250000 0.500000 0.484823
O O2 0.095831 0.143499 0.501624
O O3 0.109259 0.415179 0.429158
O O4 0.250000 0.000000 0.447502
O O5 0.025571 0.576383 0.635136
O O6 0.117210 0.437511 0.566717
O O7 0.036214 0.947683 0.574634
O O8 0.250000 0.500000 0.151159
O O9 0.402334 0.169546 0.183369
O O10 0.399882 0.665706 0.207537
O O11 0.500000 0.038477 0.250000
O O12 0.250000 0.000000 0.239783
O O13 0.250000 0.000000 0.057115
#
# Coordination Sequence:
#
# PCOD8223184 Si02
#       5
#     8   8   8   8   8
#     4  11  23  39  54  77 114 158 202 246 289 343
#     4  12  22  37  59  83 114 153 194 243 301 351
#     4  10  21  37  60  91 119 146 186 240 294 343
#     4  10  21  40  64  90 121 154 190 235 290 357
#     4  11  21  35  56  83 110 147 199 248 294 348
#
# _framework density 21.469607
#
# number of rings (size 3 to 8) (size 9 to 14) (size 15 to 20)
#    0.000    1.200    0.000    8.400    0.000    1.600 
#    0.000    3.000    0.000    0.000    0.000    0.000 
#    0.000    0.000    0.000    0.000    0.000    0.000 
#
# Total GULP energy -495599.265625 kJ/mol
# GULP energy per Si atom -12389.981641 kJ/mol
# Density = 2.142074 g / cm^3
# Si number density = 21.469607 Si / 1000 Ang^3
#
#
#
# Elastic Constant Matrix: (Units=GPa)
#
#
# Indices 1 2 3 4 5 6 
#
# 1 87.8688 23.0523 49.5539 0.0000 0.0000 0.0000
# 2 23.0523 97.1120 14.6768 0.0000 0.0000 0.0000
# 3 49.5539 14.6768 88.2364 0.0000 0.0000 0.0000
# 4 0.0000 0.0000 0.0000 18.8081 0.0000 0.0000
# 5 0.0000 0.0000 0.0000 0.0000 21.6875 0.0000
# 6 0.0000 0.0000 0.0000 0.0000 0.0000 27.8037
#
#
#
# Elastic Compliance Matrix: (Units=1/GPa)
#
#
# Indices 1 2 3 4 5 6 
#
# 1 0.017324 -0.002710 -0.009279 0.000000 0.000000 0.000000
# 2 -0.002710 0.010987 -0.000306 0.000000 0.000000 0.000000
# 3 -0.009279 -0.000306 0.016595 0.000000 0.000000 0.000000
# 4 0.000000 0.000000 0.000000 0.053169 0.000000 0.000000
# 5 0.000000 0.000000 0.000000 0.000000 0.046109 0.000000
# 6 0.000000 0.000000 0.000000 0.000000 0.000000 0.035966
#
#
# Mechanical properties :
#
#
# Convention : Reuss Voigt Hill
#
# Bulk Modulus (GPa) = 49.21826 49.75369 49.48598
# Shear Modulus (GPa) = 23.63936 26.05546 24.84741
#
# Velocity S-wave (km/s) = 3.32182 3.48745 3.40565
# Velocity P-wave (km/s) = 6.13898 6.28019 6.20999
#
# Compressibility (1/GPa) = 0.02031766
#
# Stress axis : x y z
#
# Youngs Moduli (GPa) = 57.72241 91.01760 60.25944
#
# Poissons Ratio (x) = 0.24667 0.55912
# Poissons Ratio (y) = 0.15643 0.01841
# Poissons Ratio (z) = 0.53558 0.02781
#
# Static dielectric constant tensor:
#      x y z
#    x 4.748720 0.000000 0.000000 
#    y 0.000000 4.176690 0.000000 
#    z 0.000000 0.000000 3.458910 
# 
# 
# High freq. dielectric constant tensor:
#      x y z
#    x 1.828680 0.000000 0.000000 
#    y 0.000000 1.870640 0.000000 
#    z 0.000000 0.000000 1.806300 
# 
# From -- ./inp_files/28007.got.cif
#   From: 2010.03.12/outbox.cif.g09.slc.cpg/sg54_15_cif.got.tgz:28007.got - 2010.04.16 15:00:50.
