data_PCOD8223388
_publ_section_title
;
Structure prediction by ZEFSAII (Michael W. Deem and Ramdas Pophale) SiO2 
 PCOD8223388
Probable space group: P C C A
;
_chemical_formula_sum "Si O2"
_cell_formula_units_Z 48
_cell_length_a 27.128884
_cell_length_b 8.390936
_cell_length_c 9.988791
_cell_angle_alpha 90.000000
_cell_angle_beta 90.000000
_cell_angle_gamma 90.000000
_cell_volume 2273.815714
_symmetry_space_group_name_H-M "P C C A"
_symmetry_group_IT_number 54
_symmetry_cell_setting 'orthorhombic'
loop_
_space_group_symop_operation_xyz
x,y,z
1/2-x,-y,z
1/2+x,-y,1/2-z
-x,y,1/2-z
-x,-y,-z
1/2+x,y,-z
1/2-x,y,1/2+z
x,-y,1/2+z
loop_
_atom_site_type_symbol
_atom_site_label
_atom_site_fract_x
_atom_site_fract_y
_atom_site_fract_z
Si Si1 0.877435 0.327887 0.022220
Si Si2 0.236691 0.324956 0.739040
Si Si3 0.629278 0.614452 0.720680
Si Si4 0.221029 0.840076 0.976963
Si Si5 0.461811 0.826229 0.858196
Si Si6 0.476776 0.183519 0.881013
O O1 0.879502 0.418468 0.878981
O O2 0.839089 0.175873 0.011593
O O3 0.865228 0.449716 0.141063
O O4 0.932140 0.272384 0.050884
O O5 0.250000 0.500000 0.685612
O O6 0.181517 0.298684 0.792409
O O7 0.246924 0.207780 0.615160
O O8 0.272065 0.288395 0.861166
O O9 0.589081 0.731696 0.655935
O O10 0.250000 0.000000 0.931930
O O11 0.500000 0.752821 0.750000
O O12 0.455821 0.013869 0.828765
O O13 0.479837 0.817071 0.010583
O O14 0.500000 0.271073 0.750000
#
# Coordination Sequence:
#
# PCOD8223388 Si02
#       6
#     8   8   8   8   8   8
#     4  11  25  44  64 100 132 174 225 272 341 400
#     4  11  23  45  67  95 137 177 218 278 339 407
#     4  11  25  41  67  96 130 176 220 274 334 405
#     4  11  25  44  67  99 134 174 227 280 337 408
#     4  10  21  44  64  91 133 174 221 276 336 389
#     4  10  23  42  66  94 132 177 222 280 335 402
#
# _framework density 21.109888999999999
#
# number of rings (size 3 to 8) (size 9 to 14) (size 15 to 20)
#    0.000    1.333    3.333    1.000    7.000    1.333 
#    0.000    0.000    0.000    0.000    0.000    0.000 
#    0.000    0.000    0.000    0.000    0.000    0.000 
#
# Total GULP energy -594798.149340 kJ/mol
# GULP energy per Si atom -12391.628111 kJ/mol
# Density = 2.106184 g / cm^3
# Si number density = 21.109889 Si / 1000 Ang^3
#
#
#
# Elastic Constant Matrix: (Units=GPa)
#
#
# Indices 1 2 3 4 5 6 
#
# 1 88.4053 31.5655 45.0829 0.0000 0.0000 0.0000
# 2 31.5655 70.0652 23.2161 0.0000 0.0000 0.0000
# 3 45.0829 23.2161 114.5529 0.0000 0.0000 0.0000
# 4 0.0000 0.0000 0.0000 29.4006 0.0000 0.0000
# 5 0.0000 0.0000 0.0000 0.0000 33.3984 0.0000
# 6 0.0000 0.0000 0.0000 0.0000 0.0000 27.8468
#
#
#
# Elastic Compliance Matrix: (Units=1/GPa)
#
#
# Indices 1 2 3 4 5 6 
#
# 1 0.015882 -0.005450 -0.005146 0.000000 0.000000 0.000000
# 2 -0.005450 0.017170 -0.001335 0.000000 0.000000 0.000000
# 3 -0.005146 -0.001335 0.011025 0.000000 0.000000 0.000000
# 4 0.000000 0.000000 0.000000 0.034013 0.000000 0.000000
# 5 0.000000 0.000000 0.000000 0.000000 0.029942 0.000000
# 6 0.000000 0.000000 0.000000 0.000000 0.000000 0.035911
#
#
# Mechanical properties :
#
#
# Convention : Reuss Voigt Hill
#
# Bulk Modulus (GPa) = 49.46655 52.52803 50.99729
# Shear Modulus (GPa) = 28.64643 29.67309 29.15976
#
# Velocity S-wave (km/s) = 3.68776 3.75327 3.72066
# Velocity P-wave (km/s) = 6.45109 6.61210 6.53209
#
# Compressibility (1/GPa) = 0.02021568
#
# Stress axis : x y z
#
# Youngs Moduli (GPa) = 62.96618 58.24110 90.70055
#
# Poissons Ratio (x) = 0.31740 0.46672
# Poissons Ratio (y) = 0.34316 0.12108
# Poissons Ratio (z) = 0.32401 0.07775
#
# Static dielectric constant tensor:
#      x y z
#    x 3.231680 0.000000 0.000000 
#    y 0.000000 3.587820 0.000000 
#    z 0.000000 0.000000 3.862240 
# 
# 
# High freq. dielectric constant tensor:
#      x y z
#    x 1.835340 0.000000 0.000000 
#    y 0.000000 1.799950 0.000000 
#    z 0.000000 0.000000 1.849820 
# 
# From -- ./inp_files/5853.got.cif
#   From: 2010.03.12/outbox.cif.g09.slc.cpg/sg54_3_cif.got.tgz:5853.got - 2010.04.16 15:00:50.
