data_PCOD8223349
_publ_section_title
;
Structure prediction by ZEFSAII (Michael W. Deem and Ramdas Pophale) SiO2 
 PCOD8223349
Probable space group: P C C A
;
_chemical_formula_sum "Si O2"
_cell_formula_units_Z 60
_cell_length_a 16.784225
_cell_length_b 18.168171
_cell_length_c 9.764323
_cell_angle_alpha 90.000000
_cell_angle_beta 90.000000
_cell_angle_gamma 90.000000
_cell_volume 2977.519668
_symmetry_space_group_name_H-M "P C C A"
_symmetry_group_IT_number 54
_symmetry_cell_setting 'orthorhombic'
loop_
_space_group_symop_operation_xyz
x,y,z
1/2-x,-y,z
1/2+x,-y,1/2-z
-x,y,1/2-z
-x,-y,-z
1/2+x,y,-z
1/2-x,y,1/2+z
x,-y,1/2+z
loop_
_atom_site_type_symbol
_atom_site_label
_atom_site_fract_x
_atom_site_fract_y
_atom_site_fract_z
Si Si1 0.834279 0.701377 0.994153
Si Si2 0.278793 0.365280 0.235426
Si Si3 0.250000 0.500000 0.395498
Si Si4 0.198289 0.928284 0.793939
Si Si5 0.817648 0.130947 0.507796
Si Si6 0.477501 0.606120 0.106035
Si Si7 0.555720 0.020419 0.124475
Si Si8 0.107354 0.461460 0.570669
O O1 0.767979 0.672697 0.887666
O O2 0.917026 0.659152 0.973601
O O3 0.803852 0.693049 0.149707
O O4 0.847737 0.787523 0.973099
O O5 0.226055 0.428663 0.306805
O O6 0.356221 0.408819 0.184859
O O7 0.172779 0.510769 0.489829
O O8 0.237746 0.867931 0.896762
O O9 0.203832 0.905869 0.636441
O O10 0.250000 0.000000 0.818290
O O11 0.107564 0.947867 0.835873
O O12 0.888690 0.089013 0.585128
O O13 0.500000 0.644341 0.250000
O O14 0.445408 0.524241 0.140609
O O15 0.557151 0.595920 0.018842
O O16 0.500000 0.044942 0.250000
O O17 0.500000 0.000000 0.000000
#
# Coordination Sequence:
#
# PCOD8223349 Si02
#       8
#     8   8   4   8   8   8   8   8
#     4  12  26  44  63  93 138 171 216 260 335 415
#     4  12  23  41  66  93 123 171 222 274 325 384
#     4  12  20  42  68  96 116 166 232 290 316 388
#     4  10  21  41  73  97 129 166 222 269 308 374
#     4  11  24  43  64 101 131 177 214 260 329 397
#     4  11  24  41  62  90 127 165 212 275 334 381
#     4  11  22  42  71 101 132 166 217 275 321 377
#     4  11  22  39  66  91 120 162 225 280 325 376
#
# _framework density 20.151001999999998
#
# number of rings (size 3 to 8) (size 9 to 14) (size 15 to 20)
#    0.000    0.800    4.000    4.800    3.733    0.000 
#    4.800    0.000    0.000    0.000    0.000    0.000 
#    0.000    0.000    0.000    0.000    0.000    0.000 
#
# Total GULP energy -743997.286845 kJ/mol
# GULP energy per Si atom -12399.954781 kJ/mol
# Density = 2.010514 g / cm^3
# Si number density = 20.151002 Si / 1000 Ang^3
#
#
#
# Elastic Constant Matrix: (Units=GPa)
#
#
# Indices 1 2 3 4 5 6 
#
# 1 95.2005 18.5554 44.1191 0.0000 0.0000 0.0000
# 2 18.5554 69.6401 16.3948 0.0000 0.0000 0.0000
# 3 44.1191 16.3948 127.2724 0.0000 0.0000 0.0000
# 4 0.0000 0.0000 0.0000 16.4931 0.0000 0.0000
# 5 0.0000 0.0000 0.0000 0.0000 29.5776 0.0000
# 6 0.0000 0.0000 0.0000 0.0000 0.0000 18.3702
#
#
#
# Elastic Compliance Matrix: (Units=1/GPa)
#
#
# Indices 1 2 3 4 5 6 
#
# 1 0.012911 -0.002461 -0.004159 0.000000 0.000000 0.000000
# 2 -0.002461 0.015278 -0.001115 0.000000 0.000000 0.000000
# 3 -0.004159 -0.001115 0.009442 0.000000 0.000000 0.000000
# 4 0.000000 0.000000 0.000000 0.060631 0.000000 0.000000
# 5 0.000000 0.000000 0.000000 0.000000 0.033809 0.000000
# 6 0.000000 0.000000 0.000000 0.000000 0.000000 0.054436
#
#
# Mechanical properties :
#
#
# Convention : Reuss Voigt Hill
#
# Bulk Modulus (GPa) = 45.12222 50.02794 47.57508
# Shear Modulus (GPa) = 23.88180 27.09109 25.48645
#
# Velocity S-wave (km/s) = 3.44632 3.67059 3.56022
# Velocity P-wave (km/s) = 6.18683 6.54559 6.36874
#
# Compressibility (1/GPa) = 0.02216203
#
# Stress axis : x y z
#
# Youngs Moduli (GPa) = 77.45284 65.45459 105.90564
#
# Poissons Ratio (x) = 0.16109 0.44042
# Poissons Ratio (y) = 0.19062 0.11807
# Poissons Ratio (z) = 0.32210 0.07297
#
# Static dielectric constant tensor:
#      x y z
#    x 3.751810 0.000000 0.000000 
#    y 0.000000 3.490470 0.000000 
#    z 0.000000 0.000000 3.791480 
# 
# 
# High freq. dielectric constant tensor:
#      x y z
#    x 1.792410 0.000000 0.000000 
#    y 0.000000 1.762670 0.000000 
#    z 0.000000 0.000000 1.808100 
# 
# From -- ./inp_files/4343.got.cif
#   From: 2010.03.12/outbox.cif.g09.slc.cpg/sg54_3_cif.got.tgz:4343.got - 2010.04.16 15:00:50.
