data_PCOD8223457
_publ_section_title
;
Structure prediction by ZEFSAII (Michael W. Deem and Ramdas Pophale) SiO2 
 PCOD8223457
Probable space group: P C C A
;
_chemical_formula_sum "Si O2"
_cell_formula_units_Z 40
_cell_length_a 8.863541
_cell_length_b 8.543196
_cell_length_c 23.971322
_cell_angle_alpha 90.000000
_cell_angle_beta 90.000000
_cell_angle_gamma 90.000000
_cell_volume 1815.179649
_symmetry_space_group_name_H-M "P C C A"
_symmetry_group_IT_number 54
_symmetry_cell_setting 'orthorhombic'
loop_
_space_group_symop_operation_xyz
x,y,z
1/2-x,-y,z
1/2+x,-y,1/2-z
-x,y,1/2-z
-x,-y,-z
1/2+x,y,-z
1/2-x,y,1/2+z
x,-y,1/2+z
loop_
_atom_site_type_symbol
_atom_site_label
_atom_site_fract_x
_atom_site_fract_y
_atom_site_fract_z
Si Si1 0.088215 0.799314 0.304346
Si Si2 0.422376 0.829504 0.303838
Si Si3 0.233711 0.316257 0.508601
Si Si4 0.453995 0.804378 0.928722
Si Si5 0.893539 0.893204 0.905206
O O1 0.261438 0.742653 0.307809
O O2 0.014728 0.750784 0.364168
O O3 0.000000 0.728368 0.250000
O O4 0.092836 0.984794 0.298383
O O5 0.500000 0.755386 0.250000
O O6 0.533350 0.794930 0.355146
O O7 0.250000 0.500000 0.504894
O O8 0.283173 0.238838 0.448778
O O9 0.348422 0.240520 0.552329
O O10 0.063978 0.281449 0.527468
O O11 0.480958 0.991479 0.932466
O O12 0.750000 0.000000 0.886132
#
# Coordination Sequence:
#
# PCOD8223457 Si02
#       5
#     8   8   8   8   8
#     4   9  19  34  55  86 121 150 191 245 309 351
#     4   9  18  29  57  87 118 149 192 245 302 355
#     4  11  23  39  60  84 119 160 203 245 304 359
#     4  10  22  39  60  86 119 157 197 254 299 364
#     4   9  20  36  59  89 120 154 199 253 303 359
#
# _framework density 22.036386
#
# number of rings (size 3 to 8) (size 9 to 14) (size 15 to 20)
#    0.000    2.400    0.000    1.200   14.000    0.000 
#    7.200    0.000    0.000    2.400    0.000    0.000 
#    0.000    0.000    0.000    0.000    0.000    0.000 
#
# Total GULP energy -495598.972235 kJ/mol
# GULP energy per Si atom -12389.974306 kJ/mol
# Density = 2.198623 g / cm^3
# Si number density = 22.036386 Si / 1000 Ang^3
#
#
#
# Elastic Constant Matrix: (Units=GPa)
#
#
# Indices 1 2 3 4 5 6 
#
# 1 102.3871 26.0577 71.0373 0.0000 0.0000 0.0000
# 2 26.0577 47.7043 11.4649 0.0000 0.0000 0.0000
# 3 71.0373 11.4649 138.2740 0.0000 0.0000 0.0000
# 4 0.0000 0.0000 0.0000 0.6904 0.0000 0.0000
# 5 0.0000 0.0000 0.0000 0.0000 46.0549 0.0000
# 6 0.0000 0.0000 0.0000 0.0000 0.0000 10.2367
#
#
#
# Elastic Compliance Matrix: (Units=1/GPa)
#
#
# Indices 1 2 3 4 5 6 
#
# 1 0.017485 -0.007542 -0.008357 0.000000 0.000000 0.000000
# 2 -0.007542 0.024642 0.001832 0.000000 0.000000 0.000000
# 3 -0.008357 0.001832 0.011374 0.000000 0.000000 0.000000
# 4 0.000000 0.000000 0.000000 1.448426 0.000000 0.000000
# 5 0.000000 0.000000 0.000000 0.000000 0.021713 0.000000
# 6 0.000000 0.000000 0.000000 0.000000 0.000000 0.097687
#
#
# Mechanical properties :
#
#
# Convention : Reuss Voigt Hill
#
# Bulk Modulus (GPa) = 39.42505 56.16504 47.79505
# Shear Modulus (GPa) = 3.01583 23.38344 13.19963
#
# Velocity S-wave (km/s) = 1.17113 3.26103 2.45009
# Velocity P-wave (km/s) = 4.44505 6.30253 5.45345
#
# Compressibility (1/GPa) = 0.02536458
#
# Stress axis : x y z
#
# Youngs Moduli (GPa) = 57.19266 40.58098 87.92246
#
# Poissons Ratio (x) = 0.30607 0.73480
# Poissons Ratio (y) = 0.43136 -0.16104
# Poissons Ratio (z) = 0.47798 -0.07433
#
# Static dielectric constant tensor:
#      x y z
#    x 4.382950 0.000000 0.000000 
#    y 0.000000 3.290870 0.000000 
#    z 0.000000 0.000000 4.244920 
# 
# 
# High freq. dielectric constant tensor:
#      x y z
#    x 1.879680 0.000000 0.000000 
#    y 0.000000 1.796330 0.000000 
#    z 0.000000 0.000000 1.878820 
# 
# From -- ./inp_files/23231.got.cif
#   From: 2010.03.12/outbox.cif.g09.slc.cpg/sg54_12_cif.got.tgz:23231.got - 2010.04.16 15:00:50.
