data_PCOD8223114
_publ_section_title
;
Structure prediction by ZEFSAII (Michael W. Deem and Ramdas Pophale) SiO2 
 PCOD8223114
Probable space group: P C C A
;
_chemical_formula_sum "Si O2"
_cell_formula_units_Z 40
_cell_length_a 26.830428
_cell_length_b 7.401495
_cell_length_c 8.793573
_cell_angle_alpha 90.000000
_cell_angle_beta 90.000000
_cell_angle_gamma 90.000000
_cell_volume 1746.274145
_symmetry_space_group_name_H-M "P C C A"
_symmetry_group_IT_number 54
_symmetry_cell_setting 'orthorhombic'
loop_
_space_group_symop_operation_xyz
x,y,z
1/2-x,-y,z
1/2+x,-y,1/2-z
-x,y,1/2-z
-x,-y,-z
1/2+x,y,-z
1/2-x,y,1/2+z
x,-y,1/2+z
loop_
_atom_site_type_symbol
_atom_site_label
_atom_site_fract_x
_atom_site_fract_y
_atom_site_fract_z
Si Si1 0.964560 0.928929 0.369980
Si Si2 0.680637 0.168291 0.138781
Si Si3 0.099497 0.869011 0.862714
Si Si4 0.253702 0.756356 0.605598
Si Si5 0.317161 0.412412 0.844974
O O1 0.922854 0.821550 0.467960
O O2 0.000000 0.815465 0.250000
O O3 0.940889 0.093385 0.270022
O O4 0.000000 0.000000 0.500000
O O5 0.711528 0.113350 0.290441
O O6 0.666752 0.379520 0.147918
O O7 0.631058 0.053077 0.121907
O O8 0.716184 0.123684 0.995552
O O9 0.133027 0.701468 0.813797
O O10 0.222046 0.621452 0.711494
O O11 0.290572 0.637325 0.502128
#
# Coordination Sequence:
#
# PCOD8223114 Si02
#       5
#     8   8   8   8   8
#     4   9  20  40  62  80 106 136 166 220 292 343
#     4  11  21  35  53  78 114 148 185 220 252 305
#     4  11  22  35  60  85 100 139 184 221 270 317
#     4  10  21  35  50  75 117 160 181 213 262 293
#     4  11  21  35  53  78 114 148 185 220 252 305
#
# _framework density 22.905911
#
# number of rings (size 3 to 8) (size 9 to 14) (size 15 to 20)
#    0.000    1.600    0.000    7.200    0.000    4.800 
#    0.000    0.000    0.000   24.000    0.000    0.000 
#    0.000    0.000    0.000    0.000    0.000    0.000 
#
# Total GULP energy -495646.925322 kJ/mol
# GULP energy per Si atom -12391.173133 kJ/mol
# Density = 2.285378 g / cm^3
# Si number density = 22.905911 Si / 1000 Ang^3
#
#
#
# Elastic Constant Matrix: (Units=GPa)
#
#
# Indices 1 2 3 4 5 6 
#
# 1 127.8611 41.5456 59.4478 0.0000 0.0000 0.0000
# 2 41.5456 66.1260 15.8492 0.0000 0.0000 0.0000
# 3 59.4478 15.8492 159.4929 0.0000 0.0000 0.0000
# 4 0.0000 0.0000 0.0000 21.5324 0.0000 0.0000
# 5 0.0000 0.0000 0.0000 0.0000 106.0376 0.0000
# 6 0.0000 0.0000 0.0000 0.0000 0.0000 14.1969
#
#
#
# Elastic Compliance Matrix: (Units=1/GPa)
#
#
# Indices 1 2 3 4 5 6 
#
# 1 0.011624 -0.006418 -0.003695 0.000000 0.000000 0.000000
# 2 -0.006418 0.019035 0.000501 0.000000 0.000000 0.000000
# 3 -0.003695 0.000501 0.007597 0.000000 0.000000 0.000000
# 4 0.000000 0.000000 0.000000 0.046442 0.000000 0.000000
# 5 0.000000 0.000000 0.000000 0.000000 0.009431 0.000000
# 6 0.000000 0.000000 0.000000 0.000000 0.000000 0.070438
#
#
# Mechanical properties :
#
#
# Convention : Reuss Voigt Hill
#
# Bulk Modulus (GPa) = 52.54265 65.24058 58.89161
# Shear Modulus (GPa) = 26.29715 44.12921 35.21318
#
# Velocity S-wave (km/s) = 3.39197 4.39400 3.92509
# Velocity P-wave (km/s) = 6.19103 7.36796 6.80499
#
# Compressibility (1/GPa) = 0.01903216
#
# Stress axis : x y z
#
# Youngs Moduli (GPa) = 86.02759 52.53553 131.62485
#
# Poissons Ratio (x) = 0.33715 0.48635
# Poissons Ratio (y) = 0.55209 -0.06588
# Poissons Ratio (z) = 0.31787 -0.02629
#
# Static dielectric constant tensor:
#      x y z
#    x 4.772320 0.000000 0.000000 
#    y 0.000000 3.105100 0.000000 
#    z 0.000000 0.000000 5.156680 
# 
# 
# High freq. dielectric constant tensor:
#      x y z
#    x 1.905530 0.000000 0.000000 
#    y 0.000000 1.865270 0.000000 
#    z 0.000000 0.000000 1.945800 
# 
# From -- ./inp_files/5446.got.cif
#   From: 2010.03.12/outbox.cif.g09.slc.cpg/sg54_3_cif.got.tgz:5446.got - 2010.04.16 15:00:50.
