data_PCOD8223520
_publ_section_title
;
Structure prediction by ZEFSAII (Michael W. Deem and Ramdas Pophale) SiO2 
 PCOD8223520
Probable space group: P C C A
;
_chemical_formula_sum "Si O2"
_cell_formula_units_Z 40
_cell_length_a 18.706667
_cell_length_b 11.639226
_cell_length_c 8.991381
_cell_angle_alpha 90.000000
_cell_angle_beta 90.000000
_cell_angle_gamma 90.000000
_cell_volume 1957.703500
_symmetry_space_group_name_H-M "P C C A"
_symmetry_group_IT_number 54
_symmetry_cell_setting 'orthorhombic'
loop_
_space_group_symop_operation_xyz
x,y,z
1/2-x,-y,z
1/2+x,-y,1/2-z
-x,y,1/2-z
-x,-y,-z
1/2+x,y,-z
1/2-x,y,1/2+z
x,-y,1/2+z
loop_
_atom_site_type_symbol
_atom_site_label
_atom_site_fract_x
_atom_site_fract_y
_atom_site_fract_z
Si Si1 0.000000 0.029609 0.750000
Si Si2 0.920221 0.480835 0.056511
Si Si3 0.500000 0.673933 0.250000
Si Si4 0.825106 0.299971 0.583748
Si Si5 0.063163 0.853762 0.537845
Si Si6 0.207101 0.388146 0.623941
O O1 0.967068 0.107382 0.621349
O O2 0.939446 0.952081 0.834180
O O3 0.930209 0.402869 0.206374
O O4 0.884745 0.601158 0.095489
O O5 0.871482 0.417099 0.936193
O O6 0.000000 0.500000 0.000000
O O7 0.518175 0.747575 0.396823
O O8 0.856389 0.187261 0.501362
O O9 0.801741 0.286051 0.755218
O O10 0.752701 0.336552 0.507543
O O11 0.250000 0.500000 0.689592
#
# Coordination Sequence:
#
# PCOD8223520 Si02
#       6
#     4   8   4   8   8   8
#     4   9  22  45  64  98 116 149 216 295 320 362
#     4  11  21  35  58  94 137 163 206 250 287 379
#     4  11  22  35  60 102 126 161 206 257 308 380
#     4  11  23  38  60  88 126 174 203 240 314 371
#     4  10  22  40  68  90 122 159 209 269 333 365
#     4  10  23  38  55  86 135 176 202 240 289 377
#
# _framework density 20.432102
#
# number of rings (size 3 to 8) (size 9 to 14) (size 15 to 20)
#    0.000    1.600    2.000    3.000    8.400    0.800 
#    0.000    0.000    0.000    3.600    0.000    0.000 
#    0.000    0.000    0.000    0.000    0.000    0.000 
#
# Total GULP energy -495596.516598 kJ/mol
# GULP energy per Si atom -12389.912915 kJ/mol
# Density = 2.038560 g / cm^3
# Si number density = 20.432102 Si / 1000 Ang^3
#
#
#
# Elastic Constant Matrix: (Units=GPa)
#
#
# Indices 1 2 3 4 5 6 
#
# 1 123.6220 35.2798 54.8702 0.0000 0.0000 0.0000
# 2 35.2798 70.4071 48.9663 0.0000 0.0000 0.0000
# 3 54.8702 48.9663 141.4845 0.0000 0.0000 0.0000
# 4 0.0000 0.0000 0.0000 41.8960 0.0000 0.0000
# 5 0.0000 0.0000 0.0000 0.0000 19.8757 0.0000
# 6 0.0000 0.0000 0.0000 0.0000 0.0000 13.5539
#
#
#
# Elastic Compliance Matrix: (Units=1/GPa)
#
#
# Indices 1 2 3 4 5 6 
#
# 1 0.010269 -0.003129 -0.002900 0.000000 0.000000 0.000000
# 2 -0.003129 0.019659 -0.005590 0.000000 0.000000 0.000000
# 3 -0.002900 -0.005590 0.010127 0.000000 0.000000 0.000000
# 4 0.000000 0.000000 0.000000 0.023869 0.000000 0.000000
# 5 0.000000 0.000000 0.000000 0.000000 0.050313 0.000000
# 6 0.000000 0.000000 0.000000 0.000000 0.000000 0.073780
#
#
# Mechanical properties :
#
#
# Convention : Reuss Voigt Hill
#
# Bulk Modulus (GPa) = 59.46238 68.19402 63.82820
# Shear Modulus (GPa) = 23.05636 28.15827 25.60732
#
# Velocity S-wave (km/s) = 3.36287 3.71636 3.54402
# Velocity P-wave (km/s) = 6.65162 7.20163 6.93208
#
# Compressibility (1/GPa) = 0.01681735
#
# Stress axis : x y z
#
# Youngs Moduli (GPa) = 97.37876 50.86748 98.74438
#
# Poissons Ratio (x) = 0.15917 0.28632
# Poissons Ratio (y) = 0.30471 0.55200
# Poissons Ratio (z) = 0.28236 0.28436
#
# Static dielectric constant tensor:
#      x y z
#    x 4.074720 0.000000 0.000000 
#    y 0.000000 3.894630 0.000000 
#    z 0.000000 0.000000 4.068890 
# 
# 
# High freq. dielectric constant tensor:
#      x y z
#    x 1.787660 0.000000 0.000000 
#    y 0.000000 1.769180 0.000000 
#    z 0.000000 0.000000 1.824750 
# 
# From -- ./inp_files/3997.got.cif
#   From: 2010.03.12/outbox.cif.g09.slc.cpg/sg54_2_cif.got.tgz:3997.got - 2010.04.16 15:00:50.
