data_PCOD8223617
_publ_section_title
;
Structure prediction by ZEFSAII (Michael W. Deem and Ramdas Pophale) SiO2 
 PCOD8223617
Probable space group: P C C A
;
_chemical_formula_sum "Si O2"
_cell_formula_units_Z 36
_cell_length_a 13.894238
_cell_length_b 8.840177
_cell_length_c 12.354957
_cell_angle_alpha 90.000000
_cell_angle_beta 90.000000
_cell_angle_gamma 90.000000
_cell_volume 1517.528768
_symmetry_space_group_name_H-M "P C C A"
_symmetry_group_IT_number 54
_symmetry_cell_setting 'orthorhombic'
loop_
_space_group_symop_operation_xyz
x,y,z
1/2-x,-y,z
1/2+x,-y,1/2-z
-x,y,1/2-z
-x,-y,-z
1/2+x,y,-z
1/2-x,y,1/2+z
x,-y,1/2+z
loop_
_atom_site_type_symbol
_atom_site_label
_atom_site_fract_x
_atom_site_fract_y
_atom_site_fract_z
Si Si1 0.144524 0.544898 0.706632
Si Si2 0.250000 0.000000 0.302463
Si Si3 0.943110 0.656224 0.996927
Si Si4 0.070083 0.813144 0.842532
Si Si5 0.899424 0.233872 0.729100
O O1 0.250000 0.500000 0.743660
O O2 0.140520 0.634348 0.593498
O O3 0.100448 0.645865 0.802292
O O4 0.090392 0.382907 0.695723
O O5 0.162208 0.078968 0.368200
O O6 0.306102 0.132384 0.235867
O O7 0.014541 0.790014 0.955677
O O8 0.889472 0.712835 0.104274
O O9 0.000000 0.500000 0.000000
O O10 0.000000 0.884154 0.750000
O O11 0.000000 0.144412 0.750000
#
# Coordination Sequence:
#
# PCOD8223617 Si02
#       5
#     8   4   8   8   8
#     4  11  21  40  72 101 126 174 234 284 334 390
#     4  12  26  42  68  98 144 184 218 270 338 436
#     4  11  22  40  71  99 130 169 229 295 328 384
#     4  10  22  43  65  98 135 176 224 276 338 399
#     4  12  24  45  70 100 138 181 225 279 346 399
#
# _framework density 23.722777000000001
#
# number of rings (size 3 to 8) (size 9 to 14) (size 15 to 20)
#    0.000    0.889    6.667    1.333    0.000    3.556 
#    0.000    5.556    0.000    0.000    0.000    0.000 
#    0.000    0.000    0.000    0.000    0.000    0.000 
#
# Total GULP energy -445977.410898 kJ/mol
# GULP energy per Si atom -12388.261414 kJ/mol
# Density = 2.366878 g / cm^3
# Si number density = 23.722777 Si / 1000 Ang^3
#
#
#
# Elastic Constant Matrix: (Units=GPa)
#
#
# Indices 1 2 3 4 5 6 
#
# 1 133.1664 40.1984 14.5964 0.0000 0.0000 0.0000
# 2 40.1984 121.2307 13.9494 0.0000 0.0000 0.0000
# 3 14.5964 13.9494 76.7819 0.0000 0.0000 0.0000
# 4 0.0000 0.0000 0.0000 -2.4179 0.0000 0.0000
# 5 0.0000 0.0000 0.0000 0.0000 20.8083 0.0000
# 6 0.0000 0.0000 0.0000 0.0000 0.0000 56.3774
#
#
#
# Elastic Compliance Matrix: (Units=1/GPa)
#
#
# Indices 1 2 3 4 5 6 
#
# 1 0.008438 -0.002669 -0.001119 0.000000 0.000000 0.000000
# 2 -0.002669 0.009269 -0.001177 0.000000 0.000000 0.000000
# 3 -0.001119 -0.001177 0.013450 0.000000 0.000000 0.000000
# 4 0.000000 0.000000 0.000000 -0.413587 0.000000 0.000000
# 5 0.000000 0.000000 0.000000 0.000000 0.048058 0.000000
# 6 0.000000 0.000000 0.000000 0.000000 0.000000 0.017738
#
#
# Mechanical properties :
#
#
# Convention : Reuss Voigt Hill
#
# Bulk Modulus (GPa) = 47.10815 52.07415 49.59115
# Shear Modulus (GPa) = -16.68731 32.44922 7.88096
#
# Velocity S-wave (km/s) = -2.65510 3.70246 1.82464
# Velocity P-wave (km/s) = 3.24060 6.34637 5.03874
#
# Compressibility (1/GPa) = 0.02122775
#
# Stress axis : x y z
#
# Youngs Moduli (GPa) = 118.51468 107.88482 74.34719
#
# Poissons Ratio (x) = 0.28795 0.08320
# Poissons Ratio (y) = 0.31632 0.08748
# Poissons Ratio (z) = 0.13263 0.12693
#
# Static dielectric constant tensor:
#      x y z
#    x 4.487840 0.000000 0.000000 
#    y 0.000000 4.547330 0.000000 
#    z 0.000000 0.000000 3.877350 
# 
# 
# High freq. dielectric constant tensor:
#      x y z
#    x 1.951550 0.000000 0.000000 
#    y 0.000000 1.954120 0.000000 
#    z 0.000000 0.000000 1.894980 
# 
# From -- ./inp_files/13055.got.cif
#   From: 2010.03.12/outbox.cif.g09.slc.cpg/sg54_7_cif.got.tgz:13055.got - 2010.04.16 15:00:50.
