data_PCOD8223171
_publ_section_title
;
Structure prediction by ZEFSAII (Michael W. Deem and Ramdas Pophale) SiO2 
 PCOD8223171
Probable space group: P C C A
;
_chemical_formula_sum "Si O2"
_cell_formula_units_Z 56
_cell_length_a 5.220849
_cell_length_b 28.755876
_cell_length_c 17.339806
_cell_angle_alpha 90.000000
_cell_angle_beta 90.000000
_cell_angle_gamma 90.000000
_cell_volume 2603.226574
_symmetry_space_group_name_H-M "P C C A"
_symmetry_group_IT_number 54
_symmetry_cell_setting 'orthorhombic'
loop_
_space_group_symop_operation_xyz
x,y,z
1/2-x,-y,z
1/2+x,-y,1/2-z
-x,y,1/2-z
-x,-y,-z
1/2+x,y,-z
1/2-x,y,1/2+z
x,-y,1/2+z
loop_
_atom_site_type_symbol
_atom_site_label
_atom_site_fract_x
_atom_site_fract_y
_atom_site_fract_z
Si Si1 0.483178 0.881520 0.947539
Si Si2 0.692616 0.428340 0.029242
Si Si3 0.861387 0.674129 0.965213
Si Si4 0.499616 0.030039 0.338681
Si Si5 0.489092 0.735689 0.337824
Si Si6 0.750968 0.554855 0.202727
Si Si7 0.511896 0.207010 0.339885
O O1 0.496295 0.926443 0.894410
O O2 0.475534 0.837760 0.891590
O O3 0.726912 0.880937 0.002650
O O4 0.738966 0.419950 0.119855
O O5 0.428207 0.456011 0.011224
O O6 0.643705 0.380853 0.980773
O O7 0.956891 0.686582 0.879769
O O8 0.583162 0.696639 0.980090
O O9 0.500000 0.047127 0.250000
O O10 0.750000 0.000000 0.357150
O O11 0.250000 0.000000 0.356737
O O12 0.500000 0.721293 0.250000
O O13 0.213520 0.756575 0.359892
O O14 0.710462 0.772165 0.359987
O O15 0.750000 0.500000 0.186723
O O16 0.500000 0.570338 0.250000
O O17 0.000000 0.570455 0.250000
O O18 0.500000 0.192743 0.250000
#
# Coordination Sequence:
#
# PCOD8223171 Si02
#       7
#     8   8   8   8   8   8   8
#     4  12  25  38  58  90 121 150 189 241 298 345
#     4  10  21  38  58  87 121 157 199 246 304 360
#     4  10  21  37  56  82 116 152 190 235 292 352
#     4  10  22  41  63  84 113 158 200 234 282 346
#     4  10  21  38  61  84 110 150 196 240 289 347
#     4  10  21  38  61  89 122 162 207 254 303 360
#     4  10  22  40  60  84 115 152 193 239 291 350
#
# _framework density 21.511765
#
# number of rings (size 3 to 8) (size 9 to 14) (size 15 to 20)
#    0.000    1.714    0.000    3.857    0.000    5.714 
#    0.000   14.286    0.000    0.000    0.000    0.000 
#    0.000    0.000    0.000    0.000    0.000    0.000 
#
# Total GULP energy -694135.890414 kJ/mol
# GULP energy per Si atom -12395.283757 kJ/mol
# Density = 2.146280 g / cm^3
# Si number density = 21.511765 Si / 1000 Ang^3
#
#
#
# Elastic Constant Matrix: (Units=GPa)
#
#
# Indices 1 2 3 4 5 6 
#
# 1 203.8396 27.2609 58.5554 0.0000 0.0000 0.0000
# 2 27.2609 77.6412 54.4704 0.0000 0.0000 0.0000
# 3 58.5554 54.4704 101.8704 0.0000 0.0000 0.0000
# 4 0.0000 0.0000 0.0000 1402.5839 0.0000 0.0000
# 5 0.0000 0.0000 0.0000 0.0000 42.6164 0.0000
# 6 0.0000 0.0000 0.0000 0.0000 0.0000 43.3372
#
#
#
# Elastic Compliance Matrix: (Units=1/GPa)
#
#
# Indices 1 2 3 4 5 6 
#
# 1 0.005888 0.000491 -0.003647 0.000000 0.000000 0.000000
# 2 0.000491 0.020653 -0.011326 0.000000 0.000000 0.000000
# 3 -0.003647 -0.011326 0.017969 0.000000 0.000000 0.000000
# 4 0.000000 0.000000 0.000000 0.000713 0.000000 0.000000
# 5 0.000000 0.000000 0.000000 0.000000 0.023465 0.000000
# 6 0.000000 0.000000 0.000000 0.000000 0.000000 0.023075
#
#
# Mechanical properties :
#
#
# Convention : Reuss Voigt Hill
#
# Bulk Modulus (GPa) = 64.32252 73.76940 69.04596
# Shear Modulus (GPa) = 39.71189 313.91179 176.81184
#
# Velocity S-wave (km/s) = 4.30123 12.09307 9.07588
# Velocity P-wave (km/s) = 7.39145 15.14453 11.91617
#
# Compressibility (1/GPa) = 0.01554666
#
# Stress axis : x y z
#
# Youngs Moduli (GPa) = 169.84382 48.41946 55.65283
#
# Poissons Ratio (x) = -0.02379 0.20297
# Poissons Ratio (y) = -0.08345 0.63030
# Poissons Ratio (z) = 0.61943 0.54838
#
# Static dielectric constant tensor:
#      x y z
#    x 5.213530 0.000000 0.000000 
#    y 0.000000 3.561330 0.000000 
#    z 0.000000 0.000000 3.955830 
# 
# 
# High freq. dielectric constant tensor:
#      x y z
#    x 1.881570 0.000000 0.000000 
#    y 0.000000 1.821780 0.000000 
#    z 0.000000 0.000000 1.852550 
# 
# From -- ./inp_files/11009.got.cif
#   From: 2010.03.12/outbox.cif.g09.slc.cpg/sg54_6_cif.got.tgz:11009.got - 2010.04.16 15:00:50.
