data_PCOD8223039
_publ_section_title
;
Structure prediction by ZEFSAII (Michael W. Deem and Ramdas Pophale) SiO2 
 PCOD8223039
Probable space group: P C C A
;
_chemical_formula_sum "Si O2"
_cell_formula_units_Z 40
_cell_length_a 8.035908
_cell_length_b 11.299617
_cell_length_c 22.318669
_cell_angle_alpha 90.000000
_cell_angle_beta 90.000000
_cell_angle_gamma 90.000000
_cell_volume 2026.595018
_symmetry_space_group_name_H-M "P C C A"
_symmetry_group_IT_number 54
_symmetry_cell_setting 'orthorhombic'
loop_
_space_group_symop_operation_xyz
x,y,z
1/2-x,-y,z
1/2+x,-y,1/2-z
-x,y,1/2-z
-x,-y,-z
1/2+x,y,-z
1/2-x,y,1/2+z
x,-y,1/2+z
loop_
_atom_site_type_symbol
_atom_site_label
_atom_site_fract_x
_atom_site_fract_y
_atom_site_fract_z
Si Si1 0.072208 0.439517 0.815764
Si Si2 0.250000 0.000000 0.383413
Si Si3 0.714684 0.241401 0.423364
Si Si4 0.750000 0.500000 0.388830
Si Si5 0.518093 0.179001 0.179297
Si Si6 0.963966 0.874452 0.528071
O O1 0.250000 0.500000 0.824619
O O2 0.111477 0.303290 0.833092
O O3 0.000000 0.448124 0.750000
O O4 0.924629 0.500666 0.853203
O O5 0.111184 0.938333 0.342763
O O6 0.316909 0.892045 0.424082
O O7 0.752374 0.380872 0.427755
O O8 0.654371 0.195591 0.357808
O O9 0.580302 0.216449 0.475307
O O10 0.879293 0.168819 0.435324
O O11 0.500000 0.160214 0.250000
O O12 0.000000 0.000000 0.500000
#
# Coordination Sequence:
#
# PCOD8223039 Si02
#       6
#     8   4   8   4   8   8
#     4  10  20  40  64  90 129 177 219 259 317 398
#     4  12  24  40  64  94 122 172 216 256 328 378
#     4  11  23  43  65  94 128 166 220 266 325 390
#     4  10  24  40  62 100 132 170 214 276 336 384
#     4  10  24  42  61  96 135 160 210 268 322 396
#     4  12  22  41  68  88 120 172 218 268 309 379
#
# _framework density 19.737538000000001
#
# number of rings (size 3 to 8) (size 9 to 14) (size 15 to 20)
#    0.000    1.200    5.000    0.000    2.800    2.400 
#    0.000    1.000    0.000    0.000    0.000    0.000 
#    0.000    0.000    0.000    0.000    0.000    0.000 
#
# Total GULP energy -495745.585609 kJ/mol
# GULP energy per Si atom -12393.639640 kJ/mol
# Density = 1.969261 g / cm^3
# Si number density = 19.737538 Si / 1000 Ang^3
#
#
#
# Elastic Constant Matrix: (Units=GPa)
#
#
# Indices 1 2 3 4 5 6 
#
# 1 124.0283 51.5459 49.6099 0.0000 0.0000 0.0000
# 2 51.5459 139.8721 58.0898 0.0000 0.0000 0.0000
# 3 49.6099 58.0898 124.1812 0.0000 0.0000 0.0000
# 4 0.0000 0.0000 0.0000 33.6399 0.0000 0.0000
# 5 0.0000 0.0000 0.0000 0.0000 26.7528 0.0000
# 6 0.0000 0.0000 0.0000 0.0000 0.0000 41.1700
#
#
#
# Elastic Compliance Matrix: (Units=1/GPa)
#
#
# Indices 1 2 3 4 5 6 
#
# 1 0.010300 -0.002590 -0.002903 0.000000 0.000000 0.000000
# 2 -0.002590 0.009525 -0.003421 0.000000 0.000000 0.000000
# 3 -0.002903 -0.003421 0.010813 0.000000 0.000000 0.000000
# 4 0.000000 0.000000 0.000000 0.029727 0.000000 0.000000
# 5 0.000000 0.000000 0.000000 0.000000 0.037379 0.000000
# 6 0.000000 0.000000 0.000000 0.000000 0.000000 0.024290
#
#
# Mechanical properties :
#
#
# Convention : Reuss Voigt Hill
#
# Bulk Modulus (GPa) = 78.06769 78.50811 78.28790
# Shear Modulus (GPa) = 34.69058 35.56826 35.12942
#
# Velocity S-wave (km/s) = 4.19692 4.24968 4.22338
# Velocity P-wave (km/s) = 7.94508 7.99638 7.97077
#
# Compressibility (1/GPa) = 0.01280940
#
# Stress axis : x y z
#
# Youngs Moduli (GPa) = 97.08314 104.99197 92.48335
#
# Poissons Ratio (x) = 0.27195 0.26851
# Poissons Ratio (y) = 0.25146 0.31635
# Poissons Ratio (z) = 0.28187 0.35914
#
# Static dielectric constant tensor:
#      x y z
#    x 3.429880 0.000000 0.000000 
#    y 0.000000 3.725880 0.000000 
#    z 0.000000 0.000000 3.886640 
# 
# 
# High freq. dielectric constant tensor:
#      x y z
#    x 1.772380 0.000000 0.000000 
#    y 0.000000 1.776520 0.000000 
#    z 0.000000 0.000000 1.772370 
# 
# From -- ./inp_files/20333.got.cif
#   From: 2010.03.12/outbox.cif.g09.slc.cpg/sg54_11_cif.got.tgz:20333.got - 2010.04.16 15:00:50.
