data_PCOD8223323
_publ_section_title
;
Structure prediction by ZEFSAII (Michael W. Deem and Ramdas Pophale) SiO2 
 PCOD8223323
Probable space group: P C C A
;
_chemical_formula_sum "Si O2"
_cell_formula_units_Z 36
_cell_length_a 12.784023
_cell_length_b 25.246230
_cell_length_c 5.210909
_cell_angle_alpha 90.000000
_cell_angle_beta 90.000000
_cell_angle_gamma 90.000000
_cell_volume 1681.812464
_symmetry_space_group_name_H-M "P C C A"
_symmetry_group_IT_number 54
_symmetry_cell_setting 'orthorhombic'
loop_
_space_group_symop_operation_xyz
x,y,z
1/2-x,-y,z
1/2+x,-y,1/2-z
-x,y,1/2-z
-x,-y,-z
1/2+x,y,-z
1/2-x,y,1/2+z
x,-y,1/2+z
loop_
_atom_site_type_symbol
_atom_site_label
_atom_site_fract_x
_atom_site_fract_y
_atom_site_fract_z
Si Si1 0.500000 0.035654 0.750000
Si Si2 0.315106 0.765821 0.255539
Si Si3 0.685330 0.884469 0.192590
Si Si4 0.500000 0.687076 0.250000
Si Si5 0.130910 0.522466 0.138238
Si Si6 0.000000 0.618635 0.250000
O O1 0.399538 0.072284 0.742067
O O2 0.500000 0.000000 0.500000
O O3 0.224398 0.757171 0.465556
O O4 0.361315 0.825224 0.280146
O O5 0.402796 0.723542 0.321001
O O6 0.777424 0.892590 0.400201
O O7 0.526260 0.652573 0.499688
O O8 0.250000 0.500000 0.113896
O O9 0.075156 0.491205 0.370417
O O10 0.106653 0.584350 0.194904
#
# Coordination Sequence:
#
# PCOD8223323 Si02
#       6
#     4   8   8   4   8   4
#     4  12  25  38  59  96 133 168 217 274 326 366
#     4  10  22  44  67  93 127 169 214 256 314 387
#     4  10  22  41  66  89 122 176 221 257 314 384
#     4  12  25  43  64 100 134 157 197 268 328 368
#     4  10  21  41  63  86 117 161 206 244 290 363
#     4  12  24  41  63  96 125 159 202 254 316 368
#
# _framework density 21.405480000000001
#
# number of rings (size 3 to 8) (size 9 to 14) (size 15 to 20)
#    0.000    1.333    0.000    5.333    0.000    2.667 
#   24.000    8.889    0.000    0.000    0.000    0.000 
#    0.000    0.000    0.000    0.000    0.000    0.000 
#
# Total GULP energy -446180.464714 kJ/mol
# GULP energy per Si atom -12393.901798 kJ/mol
# Density = 2.135676 g / cm^3
# Si number density = 21.405480 Si / 1000 Ang^3
#
#
#
# Elastic Constant Matrix: (Units=GPa)
#
#
# Indices 1 2 3 4 5 6 
#
# 1 71.7869 57.2539 15.5766 0.0000 0.0000 0.0000
# 2 57.2539 142.5164 50.0740 0.0000 0.0000 0.0000
# 3 15.5766 50.0740 163.7134 0.0000 0.0000 0.0000
# 4 0.0000 0.0000 0.0000 35.2395 0.0000 0.0000
# 5 0.0000 0.0000 0.0000 0.0000 22.0530 0.0000
# 6 0.0000 0.0000 0.0000 0.0000 0.0000 41.1672
#
#
#
# Elastic Compliance Matrix: (Units=1/GPa)
#
#
# Indices 1 2 3 4 5 6 
#
# 1 0.020557 -0.008483 0.000639 0.000000 0.000000 0.000000
# 2 -0.008483 0.011362 -0.002668 0.000000 0.000000 0.000000
# 3 0.000639 -0.002668 0.006864 0.000000 0.000000 0.000000
# 4 0.000000 0.000000 0.000000 0.028377 0.000000 0.000000
# 5 0.000000 0.000000 0.000000 0.000000 0.045345 0.000000
# 6 0.000000 0.000000 0.000000 0.000000 0.000000 0.024291
#
#
# Mechanical properties :
#
#
# Convention : Reuss Voigt Hill
#
# Bulk Modulus (GPa) = 56.31258 69.31398 62.81328
# Shear Modulus (GPa) = 30.53609 36.69940 33.61775
#
# Velocity S-wave (km/s) = 3.78107 4.14513 3.96728
# Velocity P-wave (km/s) = 6.73993 7.44051 7.09887
#
# Compressibility (1/GPa) = 0.01775802
#
# Stress axis : x y z
#
# Youngs Moduli (GPa) = 48.64496 88.01191 145.69708
#
# Poissons Ratio (x) = 0.74660 -0.09306
# Poissons Ratio (y) = 0.41265 0.38874
# Poissons Ratio (z) = -0.03107 0.23483
#
# Static dielectric constant tensor:
#      x y z
#    x 3.834200 0.000000 0.000000 
#    y 0.000000 4.031960 0.000000 
#    z 0.000000 0.000000 4.631870 
# 
# 
# High freq. dielectric constant tensor:
#      x y z
#    x 1.831320 0.000000 0.000000 
#    y 0.000000 1.845770 0.000000 
#    z 0.000000 0.000000 1.876790 
# 
# From -- ./inp_files/504.got.cif
#   From: 2010.03.12/outbox.cif.g09.slc.cpg/sg54_1_cif.got.tgz:504.got - 2010.04.16 15:00:50.
