data_PCOD8224093
_publ_section_title
;
Structure prediction by ZEFSAII (Michael W. Deem and Ramdas Pophale) SiO2 
 PCOD8224093
Probable space group: P C C A
;
_chemical_formula_sum "Si O2"
_cell_formula_units_Z 40
_cell_length_a 8.460419
_cell_length_b 9.193252
_cell_length_c 21.845984
_cell_angle_alpha 90.000000
_cell_angle_beta 90.000000
_cell_angle_gamma 90.000000
_cell_volume 1699.153632
_symmetry_space_group_name_H-M "P C C A"
_symmetry_group_IT_number 54
_symmetry_cell_setting 'orthorhombic'
loop_
_space_group_symop_operation_xyz
x,y,z
1/2-x,-y,z
1/2+x,-y,1/2-z
-x,y,1/2-z
-x,-y,-z
1/2+x,y,-z
1/2-x,y,1/2+z
x,-y,1/2+z
loop_
_atom_site_type_symbol
_atom_site_label
_atom_site_fract_x
_atom_site_fract_y
_atom_site_fract_z
Si Si1 0.500000 0.619376 0.750000
Si Si2 0.750000 0.500000 0.337491
Si Si3 0.250000 0.000000 0.662971
Si Si4 0.327556 0.744103 0.576563
Si Si5 0.500000 0.845185 0.250000
Si Si6 0.235104 0.674464 0.828020
Si Si7 0.319361 0.338223 0.457917
O O1 0.404020 0.513984 0.704577
O O2 0.389061 0.727994 0.789551
O O3 0.773626 0.361173 0.380097
O O4 0.159048 0.109913 0.616567
O O5 0.381436 0.062225 0.708600
O O6 0.223732 0.765777 0.514925
O O7 0.493384 0.669057 0.556502
O O8 0.582556 0.739121 0.202281
O O9 0.250000 0.500000 0.824286
O O10 0.234803 0.727115 0.897931
O O11 0.250000 0.500000 0.471374
#
# Coordination Sequence:
#
# PCOD8224093 Si02
#       7
#     4   4   4   8   4   8   8
#     4  12  23  37  72 120 149 193 252 336 405 449
#     4  12  26  44  78 108 162 196 278 342 388 472
#     4  12  34  52  82 114 164 230 252 328 404 496
#     4  12  28  50  77 114 160 212 274 323 404 473
#     4  12  31  55  78 114 173 207 272 328 411 495
#     4  11  25  44  81 118 149 203 261 337 402 454
#     4  11  26  47  81 117 157 203 271 343 397 456
#
# _framework density 23.541131
#
# number of rings (size 3 to 8) (size 9 to 14) (size 15 to 20)
#    0.000    0.400    4.000    2.400    8.400    1.600 
#    0.000    0.000    0.000    0.000    0.000    0.000 
#    0.000    0.000    0.000    0.000    0.000    0.000 
#
# Total GULP energy -495742.359366 kJ/mol
# GULP energy per Si atom -12393.558984 kJ/mol
# Density = 2.348755 g / cm^3
# Si number density = 23.541131 Si / 1000 Ang^3
#
#
#
# Elastic Constant Matrix: (Units=GPa)
#
#
# Indices 1 2 3 4 5 6 
#
# 1 137.2150 46.3457 76.8380 0.0000 0.0000 0.0000
# 2 46.3457 87.1619 56.8101 0.0000 0.0000 0.0000
# 3 76.8380 56.8101 224.3842 0.0000 0.0000 0.0000
# 4 0.0000 0.0000 0.0000 26.4470 0.0000 0.0000
# 5 0.0000 0.0000 0.0000 0.0000 34.8992 0.0000
# 6 0.0000 0.0000 0.0000 0.0000 0.0000 34.1215
#
#
#
# Elastic Compliance Matrix: (Units=1/GPa)
#
#
# Indices 1 2 3 4 5 6 
#
# 1 0.009904 -0.003660 -0.002465 0.000000 0.000000 0.000000
# 2 -0.003660 0.015093 -0.002568 0.000000 0.000000 0.000000
# 3 -0.002465 -0.002568 0.005951 0.000000 0.000000 0.000000
# 4 0.000000 0.000000 0.000000 0.037811 0.000000 0.000000
# 5 0.000000 0.000000 0.000000 0.000000 0.028654 0.000000
# 6 0.000000 0.000000 0.000000 0.000000 0.000000 0.029307
#
#
# Mechanical properties :
#
#
# Convention : Reuss Voigt Hill
#
# Bulk Modulus (GPa) = 73.73295 89.86096 81.79696
# Shear Modulus (GPa) = 33.64138 37.01135 35.32636
#
# Velocity S-wave (km/s) = 3.78437 3.96940 3.87799
# Velocity P-wave (km/s) = 7.10523 7.69824 7.40767
#
# Compressibility (1/GPa) = 0.01356246
#
# Stress axis : x y z
#
# Youngs Moduli (GPa) = 100.96618 66.25787 168.04067
#
# Poissons Ratio (x) = 0.24248 0.41423
# Poissons Ratio (y) = 0.36950 0.43152
# Poissons Ratio (z) = 0.24889 0.17015
#
# Static dielectric constant tensor:
#      x y z
#    x 4.923860 0.000000 0.000000 
#    y 0.000000 4.024820 0.000000 
#    z 0.000000 0.000000 5.000820 
# 
# 
# High freq. dielectric constant tensor:
#      x y z
#    x 1.944740 0.000000 0.000000 
#    y 0.000000 1.892020 0.000000 
#    z 0.000000 0.000000 1.969850 
# 
# From -- ./inp_files/23352.got.cif
#   From: 2010.03.12/outbox.cif.g09.slc.cpg/sg54_12_cif.got.tgz:23352.got - 2010.04.16 15:00:50.
