data_PCOD8224209
_publ_section_title
;
Structure prediction by ZEFSAII (Michael W. Deem and Ramdas Pophale) SiO2 
 PCOD8224209
Probable space group: P C C A
;
_chemical_formula_sum "Si O2"
_cell_formula_units_Z 28
_cell_length_a 15.361605
_cell_length_b 5.092599
_cell_length_c 13.829467
_cell_angle_alpha 90.000000
_cell_angle_beta 90.000000
_cell_angle_gamma 90.000000
_cell_volume 1081.886039
_symmetry_space_group_name_H-M "P C C A"
_symmetry_group_IT_number 54
_symmetry_cell_setting 'orthorhombic'
loop_
_space_group_symop_operation_xyz
x,y,z
1/2-x,-y,z
1/2+x,-y,1/2-z
-x,y,1/2-z
-x,-y,-z
1/2+x,y,-z
1/2-x,y,1/2+z
x,-y,1/2+z
loop_
_atom_site_type_symbol
_atom_site_label
_atom_site_fract_x
_atom_site_fract_y
_atom_site_fract_z
Si Si1 0.750000 0.500000 0.255696
Si Si2 0.821206 0.189780 0.427570
Si Si3 0.889270 0.488011 0.596948
Si Si4 0.994936 0.006679 0.136419
O O1 0.782136 0.264853 0.323533
O O2 0.670070 0.412422 0.188795
O O3 0.835851 0.440871 0.497542
O O4 0.912572 0.045077 0.413454
O O5 0.750000 0.000000 0.478244
O O6 0.923874 0.784856 0.597280
O O7 0.969582 0.286263 0.604395
O O8 0.000000 0.042493 0.250000
#
# Coordination Sequence:
#
# PCOD8224209 Si02
#       4
#     4   8   8   8
#     4  12  28  50  78 114 156 206 258 330 382 462
#     4  12  29  48  81 113 157 205 263 322 390 461
#     4  12  29  50  80 111 159 202 260 317 392 460
#     4  12  26  52  78 114 157 206 253 319 388 467
#
# _framework density 25.88073
#
# number of rings (size 3 to 8) (size 9 to 14) (size 15 to 20)
#    0.000    0.000    2.857    5.143   12.000    0.000 
#    0.000    0.000    0.000    0.000    0.000    0.000 
#    0.000    0.000    0.000    0.000    0.000    0.000 
#
# Total GULP energy -347387.640713 kJ/mol
# GULP energy per Si atom -12406.701454 kJ/mol
# Density = 2.582182 g / cm^3
# Si number density = 25.880730 Si / 1000 Ang^3
#
#
#
# Elastic Constant Matrix: (Units=GPa)
#
#
# Indices 1 2 3 4 5 6 
#
# 1 115.4977 -2.8136 11.1474 0.0000 0.0000 0.0000
# 2 -2.8136 54.8445 -17.0953 0.0000 0.0000 0.0000
# 3 11.1474 -17.0953 110.3702 0.0000 0.0000 0.0000
# 4 0.0000 0.0000 0.0000 37.8819 0.0000 0.0000
# 5 0.0000 0.0000 0.0000 0.0000 0.5363 0.0000
# 6 0.0000 0.0000 0.0000 0.0000 0.0000 38.9479
#
#
#
# Elastic Compliance Matrix: (Units=1/GPa)
#
#
# Indices 1 2 3 4 5 6 
#
# 1 0.008745 0.000182 -0.000855 0.000000 0.000000 0.000000
# 2 0.000182 0.019162 0.002950 0.000000 0.000000 0.000000
# 3 -0.000855 0.002950 0.009604 0.000000 0.000000 0.000000
# 4 0.000000 0.000000 0.000000 0.026398 0.000000 0.000000
# 5 0.000000 0.000000 0.000000 0.000000 1.864519 0.000000
# 6 0.000000 0.000000 0.000000 0.000000 0.000000 0.025675
#
#
# Mechanical properties :
#
#
# Convention : Reuss Voigt Hill
#
# Bulk Modulus (GPa) = 23.77312 29.24326 26.50819
# Shear Modulus (GPa) = 2.54638 34.77148 18.65893
#
# Velocity S-wave (km/s) = 0.99299 3.66939 2.68798
# Velocity P-wave (km/s) = 3.24350 5.41076 4.46075
#
# Compressibility (1/GPa) = 0.04206431
#
# Stress axis : x y z
#
# Youngs Moduli (GPa) = 114.34916 52.18629 104.12709
#
# Poissons Ratio (x) = -0.00950 0.08903
# Poissons Ratio (y) = -0.02082 -0.30714
# Poissons Ratio (z) = 0.09777 -0.15393
#
# Static dielectric constant tensor:
#      x y z
#    x 4.949270 0.000000 0.000000 
#    y 0.000000 4.348350 0.000000 
#    z 0.000000 0.000000 5.018920 
# 
# 
# High freq. dielectric constant tensor:
#      x y z
#    x 2.057050 0.000000 0.000000 
#    y 0.000000 2.028190 0.000000 
#    z 0.000000 0.000000 2.057240 
# 
# From -- ./inp_files/17523.got.cif
#   From: 2010.03.12/outbox.cif.g09.slc.cpg/sg54_9_cif.got.tgz:17523.got - 2010.04.16 15:00:50.
