data_PCOD8224555
_publ_section_title
;
Structure prediction by ZEFSAII (Michael W. Deem and Ramdas Pophale) SiO2 
 PCOD8224555
Probable space group: P B A M
;
_chemical_formula_sum "Si O2"
_cell_formula_units_Z 56
_cell_length_a 14.089744
_cell_length_b 22.097710
_cell_length_c 9.261775
_cell_angle_alpha 90.000000
_cell_angle_beta 90.000000
_cell_angle_gamma 90.000000
_cell_volume 2883.663620
_symmetry_space_group_name_H-M "P B A M"
_symmetry_group_IT_number 55
_symmetry_cell_setting 'orthorhombic'
loop_
_space_group_symop_operation_xyz
x,y,z
-x,-y,z
1/2+x,1/2-y,-z
1/2-x,1/2+y,-z
-x,-y,-z
x,y,-z
1/2-x,1/2+y,z
1/2+x,1/2-y,z
loop_
_atom_site_type_symbol
_atom_site_label
_atom_site_fract_x
_atom_site_fract_y
_atom_site_fract_z
Si Si1 0.891604 0.662921 0.830300
Si Si2 0.283156 0.543115 0.166596
Si Si3 0.416831 0.620095 0.668821
Si Si4 0.416279 0.430636 0.838624
Si Si5 0.985356 0.244619 0.330451
Si Si6 0.183352 0.806960 0.163268
Si Si7 0.900306 0.525620 0.171747
O O1 0.793969 0.698394 0.795950
O O2 0.886481 0.594097 0.772892
O O3 0.975674 0.695526 0.745004
O O4 0.914554 0.664453 0.000000
O O5 0.317210 0.602601 0.254457
O O6 0.363259 0.492833 0.189926
O O7 0.183820 0.517810 0.230061
O O8 0.271587 0.561431 0.000000
O O9 0.404970 0.610672 0.500000
O O10 0.499492 0.575782 0.724599
O O11 0.445297 0.688730 0.708510
O O12 0.339848 0.377675 0.822063
O O13 0.460797 0.429542 0.000000
O O14 0.978155 0.255200 0.500000
O O15 0.879389 0.232820 0.271632
O O16 0.164293 0.784394 0.000000
O O17 0.000000 0.500000 0.229794
O O18 0.895722 0.525395 0.000000
#
# Coordination Sequence:
#
# PCOD8224555 Si02
#       7
#     8   8   8   8   8   8   8
#     4  10  19  36  62  86 109 141 186 237 280 327
#     4  10  18  31  53  80 108 142 177 217 272 325
#     4  10  21  34  48  74 112 146 177 218 267 324
#     4   9  16  29  51  78 106 136 173 218 268 323
#     4  10  22  38  54  78 114 153 188 228 280 334
#     4   9  17  33  57  81 105 138 184 233 276 326
#     4   9  18  35  59  86 113 139 177 230 281 331
#
# _framework density 19.419741999999999
#
# number of rings (size 3 to 8) (size 9 to 14) (size 15 to 20)
#    0.000    2.429    1.429    1.286    0.000    4.571 
#    2.571    0.714    0.000    0.857    0.000    0.000 
#    0.000    0.000    0.000    0.000    0.000    0.000 
#
# Total GULP energy -694373.936288 kJ/mol
# GULP energy per Si atom -12399.534577 kJ/mol
# Density = 1.937554 g / cm^3
# Si number density = 19.419742 Si / 1000 Ang^3
#
#
#
# Elastic Constant Matrix: (Units=GPa)
#
#
# Indices 1 2 3 4 5 6 
#
# 1 83.0128 42.3180 40.5627 0.0000 0.0000 0.0000
# 2 42.3180 43.0566 26.8854 0.0000 0.0000 0.0000
# 3 40.5627 26.8854 62.9004 0.0000 0.0000 0.0000
# 4 0.0000 0.0000 0.0000 20.5976 0.0000 0.0000
# 5 0.0000 0.0000 0.0000 0.0000 5.6535 0.0000
# 6 0.0000 0.0000 0.0000 0.0000 0.0000 30.2820
#
#
#
# Elastic Compliance Matrix: (Units=1/GPa)
#
#
# Indices 1 2 3 4 5 6 
#
# 1 0.026965 -0.021340 -0.008268 0.000000 0.000000 0.000000
# 2 -0.021340 0.048569 -0.006998 0.000000 0.000000 0.000000
# 3 -0.008268 -0.006998 0.024221 0.000000 0.000000 0.000000
# 4 0.000000 0.000000 0.000000 0.048549 0.000000 0.000000
# 5 0.000000 0.000000 0.000000 0.000000 0.176881 0.000000
# 6 0.000000 0.000000 0.000000 0.000000 0.000000 0.033023
#
#
# Mechanical properties :
#
#
# Convention : Reuss Voigt Hill
#
# Bulk Modulus (GPa) = 37.67429 45.38911 41.53170
# Shear Modulus (GPa) = 11.35676 16.58687 13.97181
#
# Velocity S-wave (km/s) = 2.42090 2.92571 2.68519
# Velocity P-wave (km/s) = 5.22077 5.90224 5.57193
#
# Compressibility (1/GPa) = 0.02654330
#
# Stress axis : x y z
#
# Youngs Moduli (GPa) = 37.08564 20.58937 41.28656
#
# Poissons Ratio (x) = 0.43937 0.34134
# Poissons Ratio (y) = 0.79140 0.28893
# Poissons Ratio (z) = 0.30661 0.14409
#
# Static dielectric constant tensor:
#      x y z
#    x 3.610400 0.000000 0.000000 
#    y 0.000000 3.452820 0.000000 
#    z 0.000000 0.000000 3.271070 
# 
# 
# High freq. dielectric constant tensor:
#      x y z
#    x 1.756360 0.000000 0.000000 
#    y 0.000000 1.747160 0.000000 
#    z 0.000000 0.000000 1.727420 
# 
# From -- ./inp_files/6199.got.cif
#   From: 2010.03.12/outbox.cif.g09.slc.cpg/sg55_4_cif.got.tgz:6199.got - 2010.04.16 15:19:21.
