data_PCOD8224002
_publ_section_title
;
Structure prediction by ZEFSAII (Michael W. Deem and Ramdas Pophale) SiO2 
 PCOD8224002
Probable space group: P C C A
;
_chemical_formula_sum "Si O2"
_cell_formula_units_Z 44
_cell_length_a 9.079649
_cell_length_b 9.647652
_cell_length_c 24.461362
_cell_angle_alpha 90.000000
_cell_angle_beta 90.000000
_cell_angle_gamma 90.000000
_cell_volume 2142.749115
_symmetry_space_group_name_H-M "P C C A"
_symmetry_group_IT_number 54
_symmetry_cell_setting 'orthorhombic'
loop_
_space_group_symop_operation_xyz
x,y,z
1/2-x,-y,z
1/2+x,-y,1/2-z
-x,y,1/2-z
-x,-y,-z
1/2+x,y,-z
1/2-x,y,1/2+z
x,-y,1/2+z
loop_
_atom_site_type_symbol
_atom_site_label
_atom_site_fract_x
_atom_site_fract_y
_atom_site_fract_z
Si Si1 0.027105 0.284848 0.576974
Si Si2 0.478216 0.289998 0.546393
Si Si3 0.121895 0.104180 0.295662
Si Si4 0.775997 0.653176 0.633207
Si Si5 0.588675 0.017172 0.890154
Si Si6 0.750000 0.500000 0.924004
O O1 0.051894 0.303921 0.512324
O O2 0.862151 0.298640 0.597874
O O3 0.068937 0.127254 0.581287
O O4 0.135147 0.396646 0.608613
O O5 0.584787 0.347821 0.593246
O O6 0.341770 0.393339 0.539912
O O7 0.421158 0.137159 0.563714
O O8 0.197086 0.247539 0.314701
O O9 0.000000 0.136576 0.250000
O O10 0.250000 0.000000 0.274636
O O11 0.038800 0.034533 0.346055
O O12 0.750000 0.500000 0.657273
O O13 0.750000 0.000000 0.862400
#
# Coordination Sequence:
#
# PCOD8224002 Si02
#       6
#     8   8   8   8   8   4
#     4  12  23  39  60  94 138 178 220 254 315 379
#     4  11  24  36  61  93 136 183 221 258 309 384
#     4  11  24  47  73  98 120 164 219 279 340 391
#     4  11  24  42  66  97 139 172 214 269 325 392
#     4  11  23  42  63  94 129 170 219 275 322 379
#     4  12  22  36  58  90 126 182 222 250 308 368
#
# _framework density 20.534368000000001
#
# number of rings (size 3 to 8) (size 9 to 14) (size 15 to 20)
#    0.000    0.727    5.455    2.727    2.545    0.000 
#    0.000    0.909    8.000    0.000    0.000    0.000 
#    0.000    0.000    0.000    0.000    0.000    0.000 
#
# Total GULP energy -545158.281452 kJ/mol
# GULP energy per Si atom -12389.960942 kJ/mol
# Density = 2.048763 g / cm^3
# Si number density = 20.534368 Si / 1000 Ang^3
#
#
#
# Elastic Constant Matrix: (Units=GPa)
#
#
# Indices 1 2 3 4 5 6 
#
# 1 108.0874 69.9676 25.1399 0.0000 0.0000 0.0000
# 2 69.9676 182.9349 43.7525 0.0000 0.0000 0.0000
# 3 25.1399 43.7525 71.7397 0.0000 0.0000 0.0000
# 4 0.0000 0.0000 0.0000 8.7573 0.0000 0.0000
# 5 0.0000 0.0000 0.0000 0.0000 36.7435 0.0000
# 6 0.0000 0.0000 0.0000 0.0000 0.0000 45.1675
#
#
#
# Elastic Compliance Matrix: (Units=1/GPa)
#
#
# Indices 1 2 3 4 5 6 
#
# 1 0.012473 -0.004361 -0.001711 0.000000 0.000000 0.000000
# 2 -0.004361 0.007925 -0.003305 0.000000 0.000000 0.000000
# 3 -0.001711 -0.003305 0.016554 0.000000 0.000000 0.000000
# 4 0.000000 0.000000 0.000000 0.114191 0.000000 0.000000
# 5 0.000000 0.000000 0.000000 0.000000 0.027216 0.000000
# 6 0.000000 0.000000 0.000000 0.000000 0.000000 0.022140
#
#
# Mechanical properties :
#
#
# Convention : Reuss Voigt Hill
#
# Bulk Modulus (GPa) = 54.95162 71.16463 63.05812
# Shear Modulus (GPa) = 22.19077 33.06046 27.62561
#
# Velocity S-wave (km/s) = 3.29091 4.01684 3.67186
# Velocity P-wave (km/s) = 6.42332 7.49966 6.98226
#
# Compressibility (1/GPa) = 0.01819783
#
# Stress axis : x y z
#
# Youngs Moduli (GPa) = 80.17368 126.18382 60.40660
#
# Poissons Ratio (x) = 0.55033 0.10336
# Poissons Ratio (y) = 0.34966 0.19964
# Poissons Ratio (z) = 0.13718 0.41703
#
# Static dielectric constant tensor:
#      x y z
#    x 21.093940 0.000000 0.000000 
#    y 0.000000 4.191520 0.000000 
#    z 0.000000 0.000000 3.223880 
# 
# 
# High freq. dielectric constant tensor:
#      x y z
#    x 1.833100 0.000000 0.000000 
#    y 0.000000 1.829900 0.000000 
#    z 0.000000 0.000000 1.748710 
# 
# From -- ./inp_files/27629.got.cif
#   From: 2010.03.12/outbox.cif.g09.slc.cpg/sg54_14_cif.got.tgz:27629.got - 2010.04.16 15:00:50.
