data_PCOD8224501
_publ_section_title
;
Structure prediction by ZEFSAII (Michael W. Deem and Ramdas Pophale) SiO2 
 PCOD8224501
Probable space group: P B A M
;
_chemical_formula_sum "Si O2"
_cell_formula_units_Z 64
_cell_length_a 14.619197
_cell_length_b 24.090000
_cell_length_c 9.185893
_cell_angle_alpha 90.000000
_cell_angle_beta 90.000000
_cell_angle_gamma 90.000000
_cell_volume 3235.055239
_symmetry_space_group_name_H-M "P B A M"
_symmetry_group_IT_number 55
_symmetry_cell_setting 'orthorhombic'
loop_
_space_group_symop_operation_xyz
x,y,z
-x,-y,z
1/2+x,1/2-y,-z
1/2-x,1/2+y,-z
-x,-y,-z
x,y,-z
1/2-x,1/2+y,z
1/2+x,1/2-y,z
loop_
_atom_site_type_symbol
_atom_site_label
_atom_site_fract_x
_atom_site_fract_y
_atom_site_fract_z
Si Si1 0.429620 0.044954 0.668196
Si Si2 0.573187 0.129995 0.333073
Si Si3 0.735235 0.084218 0.166036
Si Si4 0.686979 0.705356 0.834601
Si Si5 0.645257 0.248249 0.329578
Si Si6 0.011401 0.176263 0.168104
Si Si7 0.442717 0.553315 0.831516
Si Si8 0.728480 0.478640 0.673204
O O1 0.419148 0.029188 0.500000
O O2 0.469590 0.107593 0.688947
O O3 0.327447 0.042272 0.733981
O O4 0.500000 0.000000 0.738586
O O5 0.605199 0.121742 0.500000
O O6 0.634438 0.090912 0.232087
O O7 0.583669 0.194331 0.289148
O O8 0.788440 0.141259 0.178158
O O9 0.790210 0.039735 0.261868
O O10 0.727991 0.063712 0.000000
O O11 0.751972 0.742447 0.732885
O O12 0.581310 0.708355 0.783713
O O13 0.698912 0.726283 0.000000
O O14 0.654353 0.257615 0.500000
O O15 0.596115 0.301254 0.261229
O O16 0.000309 0.110076 0.192047
O O17 0.031964 0.189021 0.000000
O O18 0.500000 0.500000 0.775529
O O19 0.350137 0.560546 0.738223
O O20 0.416657 0.544795 0.000000
O O21 0.721697 0.478762 0.500000
#
# Coordination Sequence:
#
# PCOD8224501 Si02
#       8
#     8   8   8   8   8   8   8   8
#     4   9  16  30  52  76 110 154 191 226 280 343
#     4   9  17  33  53  75 107 150 193 232 279 333
#     4  10  18  30  52  81 112 145 189 239 280 330
#     4   9  19  37  61  84 107 147 196 238 286 341
#     4  10  21  36  58  87 117 146 186 241 291 343
#     4  10  21  40  64  85 113 152 192 238 293 355
#     4  10  22  42  64  85 113 149 189 240 300 353
#     4  11  21  33  53  82 115 153 191 232 284 346
#
# _framework density 19.783279
#
# number of rings (size 3 to 8) (size 9 to 14) (size 15 to 20)
#    0.000    2.250    1.250    1.875    0.000    4.250 
#    2.250    3.125    0.000    0.000    0.000    0.000 
#    0.000    0.000    0.000    0.000    0.000    0.000 
#
# Total GULP energy -793436.873621 kJ/mol
# GULP energy per Si atom -12397.451150 kJ/mol
# Density = 1.973825 g / cm^3
# Si number density = 19.783279 Si / 1000 Ang^3
#
#
#
# Elastic Constant Matrix: (Units=GPa)
#
#
# Indices 1 2 3 4 5 6 
#
# 1 126.2827 34.9634 48.7809 0.0000 0.0000 0.0000
# 2 34.9634 66.5648 30.2486 0.0000 0.0000 0.0000
# 3 48.7809 30.2486 78.0463 0.0000 0.0000 0.0000
# 4 0.0000 0.0000 0.0000 24.9573 0.0000 0.0000
# 5 0.0000 0.0000 0.0000 0.0000 30.5553 0.0000
# 6 0.0000 0.0000 0.0000 0.0000 0.0000 29.6233
#
#
#
# Elastic Compliance Matrix: (Units=1/GPa)
#
#
# Indices 1 2 3 4 5 6 
#
# 1 0.010978 -0.003214 -0.005616 0.000000 0.000000 0.000000
# 2 -0.003214 0.019176 -0.005423 0.000000 0.000000 0.000000
# 3 -0.005616 -0.005423 0.018425 0.000000 0.000000 0.000000
# 4 0.000000 0.000000 0.000000 0.040069 0.000000 0.000000
# 5 0.000000 0.000000 0.000000 0.000000 0.032728 0.000000
# 6 0.000000 0.000000 0.000000 0.000000 0.000000 0.033757
#
#
# Mechanical properties :
#
#
# Convention : Reuss Voigt Hill
#
# Bulk Modulus (GPa) = 49.81989 55.43109 52.62549
# Shear Modulus (GPa) = 26.27043 27.48722 26.87882
#
# Velocity S-wave (km/s) = 3.64800 3.73153 3.69000
# Velocity P-wave (km/s) = 6.55602 6.82977 6.69430
#
# Compressibility (1/GPa) = 0.02007230
#
# Stress axis : x y z
#
# Youngs Moduli (GPa) = 91.09190 52.14971 54.27510
#
# Poissons Ratio (x) = 0.16762 0.30479
# Poissons Ratio (y) = 0.29280 0.29433
# Poissons Ratio (z) = 0.51155 0.28280
#
# Static dielectric constant tensor:
#      x y z
#    x 3.696630 0.000000 0.000000 
#    y 0.000000 3.438450 0.000000 
#    z 0.000000 0.000000 3.516500 
# 
# 
# High freq. dielectric constant tensor:
#      x y z
#    x 1.771580 0.000000 0.000000 
#    y 0.000000 1.756800 0.000000 
#    z 0.000000 0.000000 1.755430 
# 
# From -- ./inp_files/6737.got.cif
#   From: 2010.03.12/outbox.cif.g09.slc.cpg/sg55_4_cif.got.tgz:6737.got - 2010.04.16 15:19:21.
