data_PCOD8224841
_publ_section_title
;
Structure prediction by ZEFSAII (Michael W. Deem and Ramdas Pophale) SiO2 
 PCOD8224841
Probable space group: P B A M
;
_chemical_formula_sum "Si O2"
_cell_formula_units_Z 64
_cell_length_a 22.890303
_cell_length_b 19.056690
_cell_length_c 9.044193
_cell_angle_alpha 90.000000
_cell_angle_beta 90.000000
_cell_angle_gamma 90.000000
_cell_volume 3945.198254
_symmetry_space_group_name_H-M "P B A M"
_symmetry_group_IT_number 55
_symmetry_cell_setting 'orthorhombic'
loop_
_space_group_symop_operation_xyz
x,y,z
-x,-y,z
1/2+x,1/2-y,-z
1/2-x,1/2+y,-z
-x,-y,-z
x,y,-z
1/2-x,1/2+y,z
1/2+x,1/2-y,z
loop_
_atom_site_type_symbol
_atom_site_label
_atom_site_fract_x
_atom_site_fract_y
_atom_site_fract_z
Si Si1 0.553523 0.352706 0.330636
Si Si2 0.247583 0.007670 0.825752
Si Si3 0.658438 0.260905 0.670714
Si Si4 0.759696 0.337486 0.829224
Si Si5 0.176569 0.798073 0.830261
Si Si6 0.221598 0.375154 0.673490
Si Si7 0.622901 0.494235 0.327248
Si Si8 0.562959 0.620248 0.828673
O O1 0.531633 0.354328 0.500000
O O2 0.591558 0.282531 0.298107
O O3 0.593920 0.419393 0.297053
O O4 0.499044 0.349663 0.221608
O O5 0.290022 0.948707 0.755967
O O6 0.275547 0.083016 0.782160
O O7 0.182895 0.999720 0.761025
O O8 0.243759 0.996144 0.000000
O O9 0.674093 0.269562 0.500000
O O10 0.700591 0.314925 0.750930
O O11 0.670846 0.180342 0.719358
O O12 0.813077 0.284371 0.792288
O O13 0.744047 0.336116 0.000000
O O14 0.215729 0.845537 0.723679
O O15 0.109373 0.817213 0.802145
O O16 0.194658 0.813774 0.000000
O O17 0.223022 0.389149 0.500000
O O18 0.635127 0.506539 0.500000
O O19 0.578070 0.552451 0.268177
O O20 0.560281 0.598299 0.000000
#
# Coordination Sequence:
#
# PCOD8224841 Si02
#       8
#     8   8   8   8   8   8   8   8
#     4  10  21  35  49  66  94 129 164 200 236 276
#     4  11  20  30  47  72  99 127 157 192 236 286
#     4   9  18  33  49  69  93 122 159 199 237 279
#     4   9  18  31  49  69  93 124 155 192 240 287
#     4   9  18  33  48  67  94 123 156 197 239 278
#     4  10  19  30  49  71  94 124 157 193 238 286
#     4  11  21  33  48  66  94 131 166 197 230 272
#     4  11  22  33  48  69  96 127 163 201 234 278
#
# _framework density 16.222252000000001
#
# number of rings (size 3 to 8) (size 9 to 14) (size 15 to 20)
#    0.000    2.000    2.500    1.875    0.000    4.500 
#    0.000    0.000    0.000    0.000    0.000    0.875 
#    0.000    7.000    0.000    0.000    0.000    0.000 
#
# Total GULP energy -793522.745765 kJ/mol
# GULP energy per Si atom -12398.792903 kJ/mol
# Density = 1.618533 g / cm^3
# Si number density = 16.222252 Si / 1000 Ang^3
#
#
#
# Elastic Constant Matrix: (Units=GPa)
#
#
# Indices 1 2 3 4 5 6 
#
# 1 41.5516 29.4665 19.0792 0.0000 0.0000 0.0000
# 2 29.4665 109.6720 41.8261 0.0000 0.0000 0.0000
# 3 19.0792 41.8261 60.1556 0.0000 0.0000 0.0000
# 4 0.0000 0.0000 0.0000 23.0712 0.0000 0.0000
# 5 0.0000 0.0000 0.0000 0.0000 22.2887 0.0000
# 6 0.0000 0.0000 0.0000 0.0000 0.0000 20.2696
#
#
#
# Elastic Compliance Matrix: (Units=1/GPa)
#
#
# Indices 1 2 3 4 5 6 
#
# 1 0.031014 -0.006235 -0.005502 0.000000 0.000000 0.000000
# 2 -0.006235 0.013662 -0.007522 0.000000 0.000000 0.000000
# 3 -0.005502 -0.007522 0.023598 0.000000 0.000000 0.000000
# 4 0.000000 0.000000 0.000000 0.043344 0.000000 0.000000
# 5 0.000000 0.000000 0.000000 0.000000 0.044866 0.000000
# 6 0.000000 0.000000 0.000000 0.000000 0.000000 0.049335
#
#
# Mechanical properties :
#
#
# Convention : Reuss Voigt Hill
#
# Bulk Modulus (GPa) = 33.60410 43.56921 38.58665
# Shear Modulus (GPa) = 19.66539 21.19306 20.42923
#
# Velocity S-wave (km/s) = 3.48551 3.61836 3.55256
# Velocity P-wave (km/s) = 6.07932 6.66129 6.37695
#
# Compressibility (1/GPa) = 0.02975828
#
# Stress axis : x y z
#
# Youngs Moduli (GPa) = 32.24359 73.19711 42.37605
#
# Poissons Ratio (x) = 0.45635 0.23314
# Poissons Ratio (y) = 0.20103 0.31874
# Poissons Ratio (z) = 0.17739 0.55056
#
# Static dielectric constant tensor:
#      x y z
#    x 2.883020 0.000000 0.000000 
#    y 0.000000 3.479550 0.000000 
#    z 0.000000 0.000000 3.161930 
# 
# 
# High freq. dielectric constant tensor:
#      x y z
#    x 1.588860 0.000000 0.000000 
#    y 0.000000 1.626880 0.000000 
#    z 0.000000 0.000000 1.635270 
# 
# From -- ./inp_files/8141.got.cif
#   From: 2010.03.12/outbox.cif.g09.slc.cpg/sg55_5_cif.got.tgz:8141.got - 2010.04.16 15:19:21.
