data_PCOD8224985
_publ_section_title
;
Structure prediction by ZEFSAII (Michael W. Deem and Ramdas Pophale) SiO2 
 PCOD8224985
Probable space group: P B A M
;
_chemical_formula_sum "Si O2"
_cell_formula_units_Z 64
_cell_length_a 35.866811
_cell_length_b 5.241918
_cell_length_c 15.500810
_cell_angle_alpha 90.000000
_cell_angle_beta 90.000000
_cell_angle_gamma 90.000000
_cell_volume 2914.320963
_symmetry_space_group_name_H-M "P B A M"
_symmetry_group_IT_number 55
_symmetry_cell_setting 'orthorhombic'
loop_
_space_group_symop_operation_xyz
x,y,z
-x,-y,z
1/2+x,1/2-y,-z
1/2-x,1/2+y,-z
-x,-y,-z
x,y,-z
1/2-x,1/2+y,z
1/2+x,1/2-y,z
loop_
_atom_site_type_symbol
_atom_site_label
_atom_site_fract_x
_atom_site_fract_y
_atom_site_fract_z
Si Si1 0.357970 0.663012 0.841677
Si Si2 0.895257 0.334819 0.832233
Si Si3 0.033620 0.693487 0.407037
Si Si4 0.272856 0.689149 0.101988
Si Si5 0.352256 0.606718 0.645629
Si Si6 0.886286 0.395003 0.631922
Si Si7 0.022815 0.763045 0.219092
Si Si8 0.271209 0.601317 0.398952
O O1 0.374197 0.398879 0.881289
O O2 0.313906 0.693491 0.856791
O O3 0.368306 0.636913 0.741272
O O4 0.381415 0.904475 0.879651
O O5 0.882107 0.366000 0.734271
O O6 0.939822 0.287280 0.835921
O O7 0.032711 0.846109 0.500000
O O8 0.072361 0.539832 0.400895
O O9 0.031674 0.857607 0.318444
O O10 0.000000 0.500000 0.407336
O O11 0.250115 0.438685 0.132629
O O12 0.278113 0.688414 0.000000
O O13 0.371978 0.374828 0.593813
O O14 0.308715 0.551960 0.652465
O O15 0.360744 0.873263 0.596773
O O16 0.000000 0.500000 0.218602
O O17 0.000000 0.000000 0.177074
O O18 0.279514 0.588296 0.500000
O O19 0.243610 0.376787 0.370441
#
# Coordination Sequence:
#
# PCOD8224985 Si02
#       8
#     8   8   8   8   8   8   8   8
#     4  10  19  33  53  75 103 134 166 208 247 286
#     4   9  18  32  49  73 101 129 167 210 249 291
#     4   9  19  33  48  68  95 130 171 210 253 311
#     4  10  21  36  54  80 114 146 173 202 241 294
#     4  10  20  34  52  72  93 123 163 204 248 298
#     4   9  19  33  48  68  94 123 157 204 253 289
#     4  10  19  32  50  71 100 134 167 213 268 313
#     4  10  21  35  49  66  89 116 150 198 249 293
#
# _framework density 21.960518
#
# number of rings (size 3 to 8) (size 9 to 14) (size 15 to 20)
#    0.000    2.375    0.000    2.250    0.000    8.250 
#    0.000    2.500    0.000    0.000    0.000    0.000 
#    0.000   10.000    0.000    0.000    0.000    0.000 
#
# Total GULP energy -792957.509315 kJ/mol
# GULP energy per Si atom -12389.961083 kJ/mol
# Density = 2.191053 g / cm^3
# Si number density = 21.960518 Si / 1000 Ang^3
#
#
#
# Elastic Constant Matrix: (Units=GPa)
#
#
# Indices 1 2 3 4 5 6 
#
# 1 154.5520 73.9767 9.6375 0.0000 0.0000 0.0000
# 2 73.9767 188.4668 15.4223 0.0000 0.0000 0.0000
# 3 9.6375 15.4223 15.7917 0.0000 0.0000 0.0000
# 4 0.0000 0.0000 0.0000 3.4671 0.0000 0.0000
# 5 0.0000 0.0000 0.0000 0.0000 25.7353 0.0000
# 6 0.0000 0.0000 0.0000 0.0000 0.0000 45.5573
#
#
#
# Elastic Compliance Matrix: (Units=1/GPa)
#
#
# Indices 1 2 3 4 5 6 
#
# 1 0.008024 -0.002987 -0.001979 0.000000 0.000000 0.000000
# 2 -0.002987 0.006879 -0.004895 0.000000 0.000000 0.000000
# 3 -0.001979 -0.004895 0.069313 0.000000 0.000000 0.000000
# 4 0.000000 0.000000 0.000000 0.288429 0.000000 0.000000
# 5 0.000000 0.000000 0.000000 0.000000 0.038857 0.000000
# 6 0.000000 0.000000 0.000000 0.000000 0.000000 0.021950
#
#
# Mechanical properties :
#
#
# Convention : Reuss Voigt Hill
#
# Bulk Modulus (GPa) = 15.50573 61.87594 38.69084
# Shear Modulus (GPa) = 10.53357 32.27021 21.40189
#
# Velocity S-wave (km/s) = 2.19249 3.83752 3.12518
# Velocity P-wave (km/s) = 3.67225 6.91900 5.53886
#
# Compressibility (1/GPa) = 0.06449228
#
# Stress axis : x y z
#
# Youngs Moduli (GPa) = 124.63079 145.36615 14.42737
#
# Poissons Ratio (x) = 0.43428 0.02855
# Poissons Ratio (y) = 0.37233 0.07062
# Poissons Ratio (z) = 0.24666 0.71157
#
# Static dielectric constant tensor:
#      x y z
#    x 3.891840 0.000000 0.000000 
#    y 0.000000 4.425580 0.000000 
#    z 0.000000 0.000000 3.539680 
# 
# 
# High freq. dielectric constant tensor:
#      x y z
#    x 1.874140 0.000000 0.000000 
#    y 0.000000 1.873240 0.000000 
#    z 0.000000 0.000000 1.808420 
# 
# From -- ./inp_files/22162.got.cif
#   From: 2010.03.12/outbox.cif.g09.slc.cpg/sg55_12_cif.got.tgz:22162.got - 2010.04.16 15:19:21.
