data_PCOD8224108
_publ_section_title
;
Structure prediction by ZEFSAII (Michael W. Deem and Ramdas Pophale) SiO2 
 PCOD8224108
Probable space group: P C C A
;
_chemical_formula_sum "Si O2"
_cell_formula_units_Z 32
_cell_length_a 12.521691
_cell_length_b 5.440986
_cell_length_c 19.077952
_cell_angle_alpha 90.000000
_cell_angle_beta 90.000000
_cell_angle_gamma 90.000000
_cell_volume 1299.787460
_symmetry_space_group_name_H-M "P C C A"
_symmetry_group_IT_number 54
_symmetry_cell_setting 'orthorhombic'
loop_
_space_group_symop_operation_xyz
x,y,z
1/2-x,-y,z
1/2+x,-y,1/2-z
-x,y,1/2-z
-x,-y,-z
1/2+x,y,-z
1/2-x,y,1/2+z
x,-y,1/2+z
loop_
_atom_site_type_symbol
_atom_site_label
_atom_site_fract_x
_atom_site_fract_y
_atom_site_fract_z
Si Si1 0.250000 0.000000 0.244760
Si Si2 0.750000 0.500000 0.840215
Si Si3 0.367422 0.399495 0.439287
Si Si4 0.561504 0.271136 0.921472
Si Si5 0.949208 0.915487 0.179888
O O1 0.274664 0.247585 0.200991
O O2 0.351462 0.915753 0.292378
O O3 0.642352 0.466573 0.886276
O O4 0.250000 0.500000 0.442874
O O5 0.384840 0.200828 0.503085
O O6 0.447776 0.625933 0.445741
O O7 0.390700 0.291926 0.363593
O O8 0.540205 0.051905 0.866355
O O9 0.000000 0.797252 0.250000
#
# Coordination Sequence:
#
# PCOD8224108 Si02
#       5
#     4   4   8   8   8
#     4  12  28  46  80 114 162 204 264 322 412 474
#     4  12  26  52  76 122 154 214 258 336 402 482
#     4  11  25  47  74 107 151 206 269 329 404 477
#     4  11  25  47  74 108 152 205 270 328 401 475
#     4  12  25  45  71 112 151 210 255 338 391 496
#
# _framework density 24.619410999999999
#
# number of rings (size 3 to 8) (size 9 to 14) (size 15 to 20)
#    0.000    0.500    3.750    3.750    5.250    1.000 
#    0.000    0.000    0.000    0.000    0.000    0.000 
#    0.000    0.000    0.000    0.000    0.000    0.000 
#
# Total GULP energy -396435.002682 kJ/mol
# GULP energy per Si atom -12388.593834 kJ/mol
# Density = 2.456338 g / cm^3
# Si number density = 24.619411 Si / 1000 Ang^3
#
#
#
# Elastic Constant Matrix: (Units=GPa)
#
#
# Indices 1 2 3 4 5 6 
#
# 1 182.2831 30.8702 69.4594 0.0000 0.0000 0.0000
# 2 30.8702 77.2466 42.0735 0.0000 0.0000 0.0000
# 3 69.4594 42.0735 195.2215 0.0000 0.0000 0.0000
# 4 0.0000 0.0000 0.0000 33.5636 0.0000 0.0000
# 5 0.0000 0.0000 0.0000 0.0000 22.1377 0.0000
# 6 0.0000 0.0000 0.0000 0.0000 0.0000 20.5649
#
#
#
# Elastic Compliance Matrix: (Units=1/GPa)
#
#
# Indices 1 2 3 4 5 6 
#
# 1 0.006499 -0.001516 -0.001986 0.000000 0.000000 0.000000
# 2 -0.001516 0.015021 -0.002698 0.000000 0.000000 0.000000
# 3 -0.001986 -0.002698 0.006410 0.000000 0.000000 0.000000
# 4 0.000000 0.000000 0.000000 0.029794 0.000000 0.000000
# 5 0.000000 0.000000 0.000000 0.000000 0.045172 0.000000
# 6 0.000000 0.000000 0.000000 0.000000 0.000000 0.048627
#
#
# Mechanical properties :
#
#
# Convention : Reuss Voigt Hill
#
# Bulk Modulus (GPa) = 64.38503 82.17302 73.27903
# Shear Modulus (GPa) = 29.56846 36.07645 32.82245
#
# Velocity S-wave (km/s) = 3.46934 3.83216 3.65525
# Velocity P-wave (km/s) = 6.50056 7.28220 6.90245
#
# Compressibility (1/GPa) = 0.01553156
#
# Stress axis : x y z
#
# Youngs Moduli (GPa) = 153.86131 66.57449 155.99719
#
# Poissons Ratio (x) = 0.10091 0.30978
# Poissons Ratio (y) = 0.23322 0.42087
# Poissons Ratio (z) = 0.30554 0.17961
#
# Static dielectric constant tensor:
#      x y z
#    x 5.101120 0.000000 0.000000 
#    y 0.000000 3.777400 0.000000 
#    z 0.000000 0.000000 5.076760 
# 
# 
# High freq. dielectric constant tensor:
#      x y z
#    x 2.013000 0.000000 0.000000 
#    y 0.000000 1.931140 0.000000 
#    z 0.000000 0.000000 2.008480 
# 
# From -- ./inp_files/20858.got.cif
#   From: 2010.03.12/outbox.cif.g09.slc.cpg/sg54_11_cif.got.tgz:20858.got - 2010.04.16 15:00:50.
