data_PCOD8224920
_publ_section_title
;
Structure prediction by ZEFSAII (Michael W. Deem and Ramdas Pophale) SiO2 
 PCOD8224920
Probable space group: P B A M
;
_chemical_formula_sum "Si O2"
_cell_formula_units_Z 48
_cell_length_a 18.306508
_cell_length_b 16.420168
_cell_length_c 9.236197
_cell_angle_alpha 90.000000
_cell_angle_beta 90.000000
_cell_angle_gamma 90.000000
_cell_volume 2776.363290
_symmetry_space_group_name_H-M "P B A M"
_symmetry_group_IT_number 55
_symmetry_cell_setting 'orthorhombic'
loop_
_space_group_symop_operation_xyz
x,y,z
-x,-y,z
1/2+x,1/2-y,-z
1/2-x,1/2+y,-z
-x,-y,-z
x,y,-z
1/2-x,1/2+y,z
1/2+x,1/2-y,z
loop_
_atom_site_type_symbol
_atom_site_label
_atom_site_fract_x
_atom_site_fract_y
_atom_site_fract_z
Si Si1 0.412667 0.161468 0.668274
Si Si2 0.414733 0.346571 0.668570
Si Si3 0.959890 0.914409 0.840988
Si Si4 0.170924 0.983780 0.170074
Si Si5 0.163743 0.517811 0.829434
Si Si6 0.447785 0.922852 0.659208
O O1 0.402737 0.137571 0.500000
O O2 0.389688 0.254158 0.697675
O O3 0.360926 0.103311 0.761750
O O4 0.498880 0.150633 0.710481
O O5 0.416568 0.367850 0.500000
O O6 0.497299 0.357361 0.728795
O O7 0.356118 0.403906 0.746027
O O8 0.877412 0.936097 0.789042
O O9 0.959108 0.872449 0.000000
O O10 0.000000 0.000000 0.852059
O O11 0.253070 0.002879 0.216078
O O12 0.163376 0.964939 0.000000
O O13 0.117454 0.440515 0.771046
O O14 0.152957 0.522912 0.000000
O O15 0.414154 0.904739 0.500000
O O16 0.500000 0.000000 0.651221
#
# Coordination Sequence:
#
# PCOD8224920 Si02
#       6
#     8   8   8   8   8   8
#     4   9  19  34  49  69  98 127 156 195 243 286
#     4  10  19  31  50  74  95 120 160 203 237 278
#     4   8  15  30  49  66  90 124 155 186 232 283
#     4   9  19  34  49  69  99 130 157 192 240 286
#     4  10  19  31  50  74  97 124 162 199 230 279
#     4   8  15  30  49  66  91 125 154 187 234 280
#
# _framework density 17.288803000000001
#
# number of rings (size 3 to 8) (size 9 to 14) (size 15 to 20)
#    0.000    3.000    0.000    3.000    0.000    8.667 
#    0.000    1.667    0.000    8.000    0.000    0.000 
#    0.000    0.000    0.000    0.000    0.000    0.000 
#
# Total GULP energy -594890.428711 kJ/mol
# GULP energy per Si atom -12393.550598 kJ/mol
# Density = 1.724945 g / cm^3
# Si number density = 17.288803 Si / 1000 Ang^3
#
#
#
# Elastic Constant Matrix: (Units=GPa)
#
#
# Indices 1 2 3 4 5 6 
#
# 1 138.9898 46.9531 65.6124 0.0000 0.0000 0.0000
# 2 46.9531 71.9427 49.4467 0.0000 0.0000 0.0000
# 3 65.6124 49.4467 90.2469 0.0000 0.0000 0.0000
# 4 0.0000 0.0000 0.0000 18.5885 0.0000 0.0000
# 5 0.0000 0.0000 0.0000 0.0000 18.9158 0.0000
# 6 0.0000 0.0000 0.0000 0.0000 0.0000 18.4739
#
#
#
# Elastic Compliance Matrix: (Units=1/GPa)
#
#
# Indices 1 2 3 4 5 6 
#
# 1 0.011288 -0.002769 -0.006690 0.000000 0.000000 0.000000
# 2 -0.002769 0.022976 -0.010575 0.000000 0.000000 0.000000
# 3 -0.006690 -0.010575 0.021738 0.000000 0.000000 0.000000
# 4 0.000000 0.000000 0.000000 0.053797 0.000000 0.000000
# 5 0.000000 0.000000 0.000000 0.000000 0.052866 0.000000
# 6 0.000000 0.000000 0.000000 0.000000 0.000000 0.054130
#
#
# Mechanical properties :
#
#
# Convention : Reuss Voigt Hill
#
# Bulk Modulus (GPa) = 62.75779 69.46709 66.11244
# Shear Modulus (GPa) = 19.07127 20.47346 19.77236
#
# Velocity S-wave (km/s) = 3.32490 3.44496 3.38546
# Velocity P-wave (km/s) = 7.14971 7.48941 7.32153
#
# Compressibility (1/GPa) = 0.01593428
#
# Stress axis : x y z
#
# Youngs Moduli (GPa) = 88.58770 43.52426 46.00182
#
# Poissons Ratio (x) = 0.12054 0.30773
# Poissons Ratio (y) = 0.24534 0.48647
# Poissons Ratio (z) = 0.59261 0.46027
#
# Static dielectric constant tensor:
#      x y z
#    x 3.525630 0.000000 0.000000 
#    y 0.000000 3.202710 0.000000 
#    z 0.000000 0.000000 3.256600 
# 
# 
# High freq. dielectric constant tensor:
#      x y z
#    x 1.661290 0.000000 0.000000 
#    y 0.000000 1.643770 0.000000 
#    z 0.000000 0.000000 1.670490 
# 
# From -- ./inp_files/7557.got.cif
#   From: 2010.03.12/outbox.cif.g09.slc.cpg/sg55_4_cif.got.tgz:7557.got - 2010.04.16 15:19:21.
