data_PCOD8224188
_publ_section_title
;
Structure prediction by ZEFSAII (Michael W. Deem and Ramdas Pophale) SiO2 
 PCOD8224188
Probable space group: P C C A
;
_chemical_formula_sum "Si O2"
_cell_formula_units_Z 32
_cell_length_a 32.328532
_cell_length_b 4.757931
_cell_length_c 8.387420
_cell_angle_alpha 90.000000
_cell_angle_beta 90.000000
_cell_angle_gamma 90.000000
_cell_volume 1290.127150
_symmetry_space_group_name_H-M "P C C A"
_symmetry_group_IT_number 54
_symmetry_cell_setting 'orthorhombic'
loop_
_space_group_symop_operation_xyz
x,y,z
1/2-x,-y,z
1/2+x,-y,1/2-z
-x,y,1/2-z
-x,-y,-z
1/2+x,y,-z
1/2-x,y,1/2+z
x,-y,1/2+z
loop_
_atom_site_type_symbol
_atom_site_label
_atom_site_fract_x
_atom_site_fract_y
_atom_site_fract_z
Si Si1 0.703562 0.893419 0.922415
Si Si2 0.172128 0.619118 0.758065
Si Si3 0.453543 0.106777 0.503711
Si Si4 0.422001 0.619064 0.323204
O O1 0.697124 0.661706 0.784677
O O2 0.750000 0.000000 0.914800
O O3 0.673664 0.160088 0.889025
O O4 0.693876 0.762688 0.092405
O O5 0.125074 0.535045 0.790896
O O6 0.447130 0.338859 0.366169
O O7 0.443710 0.237561 0.673623
O O8 0.500000 0.000000 0.500000
O O9 0.423646 0.840356 0.469974
#
# Coordination Sequence:
#
# PCOD8224188 Si02
#       4
#     8   8   8   8
#     4  12  26  45  71 106 141 182 233 291 353 421
#     4  12  25  47  74 105 143 187 235 293 356 426
#     4  12  26  45  71 106 144 187 239 296 356 425
#     4  12  25  47  73 105 142 188 237 292 357 426
#
# _framework density 24.803758999999999
#
# number of rings (size 3 to 8) (size 9 to 14) (size 15 to 20)
#    0.000    0.000    0.000   10.500    0.000    4.000 
#    0.000    1.250    0.000    0.000    0.000    0.000 
#    0.000    0.000    0.000    0.000    0.000    0.000 
#
# Total GULP energy -397098.229334 kJ/mol
# GULP energy per Si atom -12409.319667 kJ/mol
# Density = 2.474730 g / cm^3
# Si number density = 24.803759 Si / 1000 Ang^3
#
#
#
# Elastic Constant Matrix: (Units=GPa)
#
#
# Indices 1 2 3 4 5 6 
#
# 1 172.3022 91.8314 75.7317 0.0000 0.0000 0.0000
# 2 91.8314 147.6754 26.6433 0.0000 0.0000 0.0000
# 3 75.7317 26.6433 73.4844 0.0000 0.0000 0.0000
# 4 0.0000 0.0000 0.0000 48.4078 0.0000 0.0000
# 5 0.0000 0.0000 0.0000 0.0000 40.3724 0.0000
# 6 0.0000 0.0000 0.0000 0.0000 0.0000 53.1453
#
#
#
# Elastic Compliance Matrix: (Units=1/GPa)
#
#
# Indices 1 2 3 4 5 6 
#
# 1 0.015569 -0.007262 -0.013412 0.000000 0.000000 0.000000
# 2 -0.007262 0.010633 0.003629 0.000000 0.000000 0.000000
# 3 -0.013412 0.003629 0.026115 0.000000 0.000000 0.000000
# 4 0.000000 0.000000 0.000000 0.020658 0.000000 0.000000
# 5 0.000000 0.000000 0.000000 0.000000 0.024769 0.000000
# 6 0.000000 0.000000 0.000000 0.000000 0.000000 0.018816
#
#
# Mechanical properties :
#
#
# Convention : Reuss Voigt Hill
#
# Bulk Modulus (GPa) = 54.86602 86.87495 70.87049
# Shear Modulus (GPa) = 31.90266 41.66881 36.78573
#
# Velocity S-wave (km/s) = 3.59026 4.10315 3.85524
# Velocity P-wave (km/s) = 6.27333 7.58609 6.96073
#
# Compressibility (1/GPa) = 0.01822622
#
# Stress axis : x y z
#
# Youngs Moduli (GPa) = 64.22949 94.05011 38.29189
#
# Poissons Ratio (x) = 0.68297 0.51359
# Poissons Ratio (y) = 0.46642 -0.13895
# Poissons Ratio (z) = 0.86147 -0.34129
#
# Static dielectric constant tensor:
#      x y z
#    x 4.495430 0.000000 0.000000 
#    y 0.000000 5.123710 0.000000 
#    z 0.000000 0.000000 4.892610 
# 
# 
# High freq. dielectric constant tensor:
#      x y z
#    x 1.989280 0.000000 0.000000 
#    y 0.000000 2.017020 0.000000 
#    z 0.000000 0.000000 2.002170 
# 
# From -- ./inp_files/5691.got.cif
#   From: 2010.03.12/outbox.cif.g09.slc.cpg/sg54_3_cif.got.tgz:5691.got - 2010.04.16 15:00:50.
