data_PCOD8224431
_publ_section_title
;
Structure prediction by ZEFSAII (Michael W. Deem and Ramdas Pophale) SiO2 
 PCOD8224431
Probable space group: P B A M
;
_chemical_formula_sum "Si O2"
_cell_formula_units_Z 64
_cell_length_a 23.295332
_cell_length_b 18.860434
_cell_length_c 9.065627
_cell_angle_alpha 90.000000
_cell_angle_beta 90.000000
_cell_angle_gamma 90.000000
_cell_volume 3983.074529
_symmetry_space_group_name_H-M "P B A M"
_symmetry_group_IT_number 55
_symmetry_cell_setting 'orthorhombic'
loop_
_space_group_symop_operation_xyz
x,y,z
-x,-y,z
1/2+x,1/2-y,-z
1/2-x,1/2+y,-z
-x,-y,-z
x,y,-z
1/2-x,1/2+y,z
1/2+x,1/2-y,z
loop_
_atom_site_type_symbol
_atom_site_label
_atom_site_fract_x
_atom_site_fract_y
_atom_site_fract_z
Si Si1 0.335970 0.778058 0.672928
Si Si2 0.746521 0.995641 0.170489
Si Si3 0.229592 0.140217 0.330614
Si Si4 0.661518 0.768181 0.325588
Si Si5 0.433612 0.852745 0.172823
Si Si6 0.066449 0.647321 0.827446
Si Si7 0.617715 0.000164 0.174967
Si Si8 0.770134 0.152923 0.827655
O O1 0.332114 0.795719 0.500000
O O2 0.321668 0.695432 0.701404
O O3 0.398962 0.793152 0.736919
O O4 0.291005 0.827431 0.758061
O O5 0.682333 0.999563 0.238856
O O6 0.779904 0.069130 0.196909
O O7 0.782337 0.932033 0.243313
O O8 0.741271 0.977461 0.000000
O O9 0.232583 0.119461 0.500000
O O10 0.289796 0.175116 0.280253
O O11 0.658204 0.757462 0.500000
O O12 0.600825 0.793257 0.262489
O O13 0.677710 0.693027 0.252325
O O14 0.500049 0.840292 0.206570
O O15 0.415450 0.930304 0.232660
O O16 0.419921 0.844863 0.000000
O O17 0.084120 0.569402 0.769670
O O18 0.080519 0.655349 0.000000
O O19 0.618283 0.002701 0.000000
O O20 0.768806 0.172469 0.000000
#
# Coordination Sequence:
#
# PCOD8224431 Si02
#       8
#     8   8   8   8   8   8   8   8
#     4  10  20  33  47  68  96 128 162 199 242 283
#     4  10  18  29  49  73  95 124 159 195 239 284
#     4   9  19  32  46  66  94 125 158 195 237 287
#     4  10  20  33  47  68  97 128 162 199 240 284
#     4  10  19  32  49  70  95 129 170 204 235 276
#     4  10  19  31  50  70  94 131 169 203 237 275
#     4   9  16  29  45  68  98 128 165 201 232 273
#     4  10  19  32  50  71  95 122 159 201 240 287
#
# _framework density 16.067989000000001
#
# number of rings (size 3 to 8) (size 9 to 14) (size 15 to 20)
#    0.000    2.250    2.500    2.250    0.000    5.500 
#    0.000    0.625    0.000    1.500    0.000    0.875 
#    0.000    7.000    0.000    0.000    0.000    0.000 
#
# Total GULP energy -793656.950504 kJ/mol
# GULP energy per Si atom -12400.889852 kJ/mol
# Density = 1.603142 g / cm^3
# Si number density = 16.067989 Si / 1000 Ang^3
#
#
#
# Elastic Constant Matrix: (Units=GPa)
#
#
# Indices 1 2 3 4 5 6 
#
# 1 90.2629 58.3757 41.1305 0.0000 0.0000 0.0000
# 2 58.3757 112.2907 57.0814 0.0000 0.0000 0.0000
# 3 41.1305 57.0814 69.4785 0.0000 0.0000 0.0000
# 4 0.0000 0.0000 0.0000 20.6917 0.0000 0.0000
# 5 0.0000 0.0000 0.0000 0.0000 21.8182 0.0000
# 6 0.0000 0.0000 0.0000 0.0000 0.0000 26.0924
#
#
#
# Elastic Compliance Matrix: (Units=1/GPa)
#
#
# Indices 1 2 3 4 5 6 
#
# 1 0.017645 -0.006634 -0.004996 0.000000 0.000000 0.000000
# 2 -0.006634 0.017786 -0.010685 0.000000 0.000000 0.000000
# 3 -0.004996 -0.010685 0.026129 0.000000 0.000000 0.000000
# 4 0.000000 0.000000 0.000000 0.048329 0.000000 0.000000
# 5 0.000000 0.000000 0.000000 0.000000 0.045833 0.000000
# 6 0.000000 0.000000 0.000000 0.000000 0.000000 0.038325
#
#
# Mechanical properties :
#
#
# Convention : Reuss Voigt Hill
#
# Bulk Modulus (GPa) = 59.06390 65.02302 62.04346
# Shear Modulus (GPa) = 20.46495 21.41676 20.94085
#
# Velocity S-wave (km/s) = 3.57269 3.65483 3.61399
# Velocity P-wave (km/s) = 7.33876 7.63974 7.49076
#
# Compressibility (1/GPa) = 0.01693081
#
# Stress axis : x y z
#
# Youngs Moduli (GPa) = 56.67203 56.22514 38.27153
#
# Poissons Ratio (x) = 0.37297 0.19120
# Poissons Ratio (y) = 0.37594 0.40894
# Poissons Ratio (z) = 0.28313 0.60077
#
# Static dielectric constant tensor:
#      x y z
#    x 2.869880 0.000000 0.000000 
#    y 0.000000 3.047100 0.000000 
#    z 0.000000 0.000000 2.944800 
# 
# 
# High freq. dielectric constant tensor:
#      x y z
#    x 1.591410 0.000000 0.000000 
#    y 0.000000 1.612690 0.000000 
#    z 0.000000 0.000000 1.612840 
# 
# From -- ./inp_files/8146.got.cif
#   From: 2010.03.12/outbox.cif.g09.slc.cpg/sg55_5_cif.got.tgz:8146.got - 2010.04.16 15:19:21.
