data_PCOD8224125
_publ_section_title
;
Structure prediction by ZEFSAII (Michael W. Deem and Ramdas Pophale) SiO2 
 PCOD8224125
Probable space group: P C C A
;
_chemical_formula_sum "Si O2"
_cell_formula_units_Z 24
_cell_length_a 12.347007
_cell_length_b 6.271012
_cell_length_c 13.606409
_cell_angle_alpha 90.000000
_cell_angle_beta 90.000000
_cell_angle_gamma 90.000000
_cell_volume 1053.520153
_symmetry_space_group_name_H-M "P C C A"
_symmetry_group_IT_number 54
_symmetry_cell_setting 'orthorhombic'
loop_
_space_group_symop_operation_xyz
x,y,z
1/2-x,-y,z
1/2+x,-y,1/2-z
-x,y,1/2-z
-x,-y,-z
1/2+x,y,-z
1/2-x,y,1/2+z
x,-y,1/2+z
loop_
_atom_site_type_symbol
_atom_site_label
_atom_site_fract_x
_atom_site_fract_y
_atom_site_fract_z
Si Si1 0.250000 0.500000 0.467358
Si Si2 0.000000 0.133291 0.250000
Si Si3 0.371134 0.750611 0.823309
Si Si4 0.085365 0.516770 0.136534
O O1 0.229552 0.709662 0.397727
O O2 0.354396 0.540685 0.533782
O O3 0.936606 0.272888 0.331030
O O4 0.906199 0.994775 0.195432
O O5 0.470951 0.631345 0.875069
O O6 0.343861 0.639454 0.719113
#
# Coordination Sequence:
#
# PCOD8224125 Si02
#       4
#     4   4   8   8
#     4  12  20  34  62  90 116 148 192 246 294 338
#     4   8  18  42  62  74 120 168 190 230 294 350
#     4   9  20  39  57  81 117 155 193 239 289 344
#     4   9  20  39  57  81 117 155 193 239 289 344
#
# _framework density 22.78077
#
# number of rings (size 3 to 8) (size 9 to 14) (size 15 to 20)
#    0.000    3.333    0.000    2.000    0.000    1.333 
#    0.000   43.333    0.000    0.000    0.000    0.000 
#    0.000    0.000    0.000    0.000    0.000    0.000 
#
# Total GULP energy -297366.384010 kJ/mol
# GULP energy per Si atom -12390.266000 kJ/mol
# Density = 2.272892 g / cm^3
# Si number density = 22.780770 Si / 1000 Ang^3
#
#
#
# Elastic Constant Matrix: (Units=GPa)
#
#
# Indices 1 2 3 4 5 6 
#
# 1 40.2171 44.7923 51.5291 0.0000 0.0000 0.0000
# 2 44.7923 153.8022 48.0584 0.0000 0.0000 0.0000
# 3 51.5291 48.0584 136.9708 0.0000 0.0000 0.0000
# 4 0.0000 0.0000 0.0000 5.8597 0.0000 0.0000
# 5 0.0000 0.0000 0.0000 0.0000 42.0054 0.0000
# 6 0.0000 0.0000 0.0000 0.0000 0.0000 20.0068
#
#
#
# Elastic Compliance Matrix: (Units=1/GPa)
#
#
# Indices 1 2 3 4 5 6 
#
# 1 0.064017 -0.012488 -0.019702 0.000000 0.000000 0.000000
# 2 -0.012488 0.009738 0.001281 0.000000 0.000000 0.000000
# 3 -0.019702 0.001281 0.014263 0.000000 0.000000 0.000000
# 4 0.000000 0.000000 0.000000 0.170657 0.000000 0.000000
# 5 0.000000 0.000000 0.000000 0.000000 0.023806 0.000000
# 6 0.000000 0.000000 0.000000 0.000000 0.000000 0.049983
#
#
# Mechanical properties :
#
#
# Convention : Reuss Voigt Hill
#
# Bulk Modulus (GPa) = 38.16582 68.86108 53.51345
# Shear Modulus (GPa) = 12.40645 26.01507 19.21076
#
# Velocity S-wave (km/s) = 2.33620 3.38298 2.90709
# Velocity P-wave (km/s) = 4.90581 6.74928 5.89999
#
# Compressibility (1/GPa) = 0.02620145
#
# Stress axis : x y z
#
# Youngs Moduli (GPa) = 15.62092 102.68668 70.10980
#
# Poissons Ratio (x) = 1.28230 1.38130
# Poissons Ratio (y) = 0.19507 -0.08981
# Poissons Ratio (z) = 0.30776 -0.13154
#
# Static dielectric constant tensor:
#      x y z
#    x 4.005870 0.000000 0.000000 
#    y 0.000000 4.096770 0.000000 
#    z 0.000000 0.000000 4.182960 
# 
# 
# High freq. dielectric constant tensor:
#      x y z
#    x 1.897460 0.000000 0.000000 
#    y 0.000000 1.880810 0.000000 
#    z 0.000000 0.000000 1.899670 
# 
# From -- ./inp_files/12030.got.cif
#   From: 2010.03.12/outbox.cif.g09.slc.cpg/sg54_7_cif.got.tgz:12030.got - 2010.04.16 15:00:50.
