data_PCOD8224507
_publ_section_title
;
Structure prediction by ZEFSAII (Michael W. Deem and Ramdas Pophale) SiO2 
 PCOD8224507
Probable space group: P B A M
;
_chemical_formula_sum "Si O2"
_cell_formula_units_Z 48
_cell_length_a 8.051221
_cell_length_b 20.452368
_cell_length_c 15.665601
_cell_angle_alpha 90.000000
_cell_angle_beta 90.000000
_cell_angle_gamma 90.000000
_cell_volume 2579.600231
_symmetry_space_group_name_H-M "P B A M"
_symmetry_group_IT_number 55
_symmetry_cell_setting 'orthorhombic'
loop_
_space_group_symop_operation_xyz
x,y,z
-x,-y,z
1/2+x,1/2-y,-z
1/2-x,1/2+y,-z
-x,-y,-z
x,y,-z
1/2-x,1/2+y,z
1/2+x,1/2-y,z
loop_
_atom_site_type_symbol
_atom_site_label
_atom_site_fract_x
_atom_site_fract_y
_atom_site_fract_z
Si Si1 0.957938 0.227780 0.158960
Si Si2 0.651908 0.153559 0.094679
Si Si3 0.158060 0.348296 0.402929
Si Si4 0.251141 0.179181 0.739820
Si Si5 0.487242 0.714790 0.597158
Si Si6 0.475062 0.923566 0.750116
O O1 0.834849 0.183445 0.104835
O O2 0.873117 0.257717 0.245644
O O3 0.015120 0.289459 0.102708
O O4 0.113400 0.183212 0.185319
O O5 0.625846 0.097969 0.165760
O O6 0.637255 0.122729 0.000000
O O7 0.151796 0.375629 0.500000
O O8 0.014747 0.293629 0.386711
O O9 0.333312 0.314447 0.382756
O O10 0.128604 0.406144 0.335525
O O11 0.158588 0.180078 0.649703
O O12 0.345637 0.110753 0.748587
O O13 0.435233 0.701716 0.500000
O O14 0.500000 0.000000 0.753207
#
# Coordination Sequence:
#
# PCOD8224507 Si02
#       6
#     8   8   8   8   8   8
#     4   9  18  32  55  84 106 128 161 210 273 318
#     4  10  19  34  57  82 108 133 165 212 263 316
#     4  10  20  34  54  80 107 133 168 216 266 317
#     4  10  18  32  53  77 108 136 167 212 259 314
#     4  10  18  30  54  85 109 129 162 216 278 322
#     4  11  24  38  52  71 102 149 189 214 248 298
#
# _framework density 18.607534999999999
#
# number of rings (size 3 to 8) (size 9 to 14) (size 15 to 20)
#    0.000    2.000    0.000    6.500    0.000    2.667 
#    0.000    4.167    0.000    3.000    0.000    0.000 
#    0.000    0.000    0.000    0.000    0.000    0.000 
#
# Total GULP energy -595193.931041 kJ/mol
# GULP energy per Si atom -12399.873563 kJ/mol
# Density = 1.856518 g / cm^3
# Si number density = 18.607535 Si / 1000 Ang^3
#
#
#
# Elastic Constant Matrix: (Units=GPa)
#
#
# Indices 1 2 3 4 5 6 
#
# 1 82.1345 42.4185 27.3971 0.0000 0.0000 0.0000
# 2 42.4185 108.6455 51.4464 0.0000 0.0000 0.0000
# 3 27.3971 51.4464 127.6058 0.0000 0.0000 0.0000
# 4 0.0000 0.0000 0.0000 13.1648 0.0000 0.0000
# 5 0.0000 0.0000 0.0000 0.0000 19.8211 0.0000
# 6 0.0000 0.0000 0.0000 0.0000 0.0000 18.1307
#
#
#
# Elastic Compliance Matrix: (Units=1/GPa)
#
#
# Indices 1 2 3 4 5 6 
#
# 1 0.015372 -0.005486 -0.001088 0.000000 0.000000 0.000000
# 2 -0.005486 0.013334 -0.004198 0.000000 0.000000 0.000000
# 3 -0.001088 -0.004198 0.009763 0.000000 0.000000 0.000000
# 4 0.000000 0.000000 0.000000 0.075960 0.000000 0.000000
# 5 0.000000 0.000000 0.000000 0.000000 0.050451 0.000000
# 6 0.000000 0.000000 0.000000 0.000000 0.000000 0.055155
#
#
# Mechanical properties :
#
#
# Convention : Reuss Voigt Hill
#
# Bulk Modulus (GPa) = 59.09012 62.32332 60.70672
# Shear Modulus (GPa) = 20.22481 23.36489 21.79485
#
# Velocity S-wave (km/s) = 3.30042 3.54739 3.42613
# Velocity P-wave (km/s) = 6.80798 7.09541 6.95318
#
# Compressibility (1/GPa) = 0.01692330
#
# Stress axis : x y z
#
# Youngs Moduli (GPa) = 65.05528 74.99607 102.42952
#
# Poissons Ratio (x) = 0.41144 0.11149
# Poissons Ratio (y) = 0.35690 0.43000
# Poissons Ratio (z) = 0.07081 0.31483
#
# Static dielectric constant tensor:
#      x y z
#    x 3.615060 0.000000 0.000000 
#    y 0.000000 2.882600 0.000000 
#    z 0.000000 0.000000 3.529000 
# 
# 
# High freq. dielectric constant tensor:
#      x y z
#    x 1.737600 0.000000 0.000000 
#    y 0.000000 1.661670 0.000000 
#    z 0.000000 0.000000 1.739820 
# 
# From -- ./inp_files/17335.got.cif
#   From: 2010.03.12/outbox.cif.g09.slc.cpg/sg55_9_cif.got.tgz:17335.got - 2010.04.16 15:19:21.
