data_PCOD8224085
_publ_section_title
;
Structure prediction by ZEFSAII (Michael W. Deem and Ramdas Pophale) SiO2 
 PCOD8224085
Probable space group: P C C A
;
_chemical_formula_sum "Si O2"
_cell_formula_units_Z 40
_cell_length_a 9.593999
_cell_length_b 11.912589
_cell_length_c 17.716611
_cell_angle_alpha 90.000000
_cell_angle_beta 90.000000
_cell_angle_gamma 90.000000
_cell_volume 2024.820256
_symmetry_space_group_name_H-M "P C C A"
_symmetry_group_IT_number 54
_symmetry_cell_setting 'orthorhombic'
loop_
_space_group_symop_operation_xyz
x,y,z
1/2-x,-y,z
1/2+x,-y,1/2-z
-x,y,1/2-z
-x,-y,-z
1/2+x,y,-z
1/2-x,y,1/2+z
x,-y,1/2+z
loop_
_atom_site_type_symbol
_atom_site_label
_atom_site_fract_x
_atom_site_fract_y
_atom_site_fract_z
Si Si1 0.993241 0.613345 0.955579
Si Si2 0.269773 0.259568 0.448906
Si Si3 0.097299 0.519625 0.180116
Si Si4 0.877004 0.072168 0.960962
Si Si5 0.497951 0.762337 0.838838
O O1 0.927120 0.584023 0.875618
O O2 0.153888 0.645442 0.945311
O O3 0.898528 0.708620 0.995133
O O4 0.000000 0.500000 0.000000
O O5 0.192929 0.146699 0.473723
O O6 0.336641 0.245171 0.365637
O O7 0.250000 0.500000 0.212001
O O8 0.000000 0.505360 0.250000
O O9 0.074453 0.643404 0.143564
O O10 0.929624 0.142423 0.889198
O O11 0.750000 0.000000 0.927529
O O12 0.000000 0.000000 0.000000
O O13 0.500000 0.792778 0.750000
#
# Coordination Sequence:
#
# PCOD8224085 Si02
#       5
#     8   8   8   8   8
#     4  12  22  37  66  95 133 172 226 254 322 396
#     4  12  23  42  68  98 130 176 218 280 324 400
#     4  11  25  40  63  95 138 178 215 265 330 397
#     4  12  23  45  73  94 123 167 225 281 338 400
#     4  11  25  44  67  97 139 169 219 280 340 396
#
# _framework density 19.754840999999999
#
# number of rings (size 3 to 8) (size 9 to 14) (size 15 to 20)
#    0.000    0.400    6.000    3.000    5.600    0.000 
#    3.600    0.000    0.000    0.000    0.000    0.000 
#    0.000    0.000    0.000    0.000    0.000    0.000 
#
# Total GULP energy -495896.896122 kJ/mol
# GULP energy per Si atom -12397.422403 kJ/mol
# Density = 1.970988 g / cm^3
# Si number density = 19.754841 Si / 1000 Ang^3
#
#
#
# Elastic Constant Matrix: (Units=GPa)
#
#
# Indices 1 2 3 4 5 6 
#
# 1 177.4276 53.5681 75.7667 0.0000 0.0000 0.0000
# 2 53.5681 83.0738 64.7398 0.0000 0.0000 0.0000
# 3 75.7667 64.7398 120.0861 0.0000 0.0000 0.0000
# 4 0.0000 0.0000 0.0000 23.9013 0.0000 0.0000
# 5 0.0000 0.0000 0.0000 0.0000 37.1714 0.0000
# 6 0.0000 0.0000 0.0000 0.0000 0.0000 228.4071
#
#
#
# Elastic Compliance Matrix: (Units=1/GPa)
#
#
# Indices 1 2 3 4 5 6 
#
# 1 0.007920 -0.002092 -0.003869 0.000000 0.000000 0.000000
# 2 -0.002092 0.021311 -0.010170 0.000000 0.000000 0.000000
# 3 -0.003869 -0.010170 0.016251 0.000000 0.000000 0.000000
# 4 0.000000 0.000000 0.000000 0.041839 0.000000 0.000000
# 5 0.000000 0.000000 0.000000 0.000000 0.026902 0.000000
# 6 0.000000 0.000000 0.000000 0.000000 0.000000 0.004378
#
#
# Mechanical properties :
#
#
# Convention : Reuss Voigt Hill
#
# Bulk Modulus (GPa) = 75.63433 85.41519 80.52476
# Shear Modulus (GPa) = 32.20200 70.33015 51.26607
#
# Velocity S-wave (km/s) = 4.04181 5.97317 5.09975
# Velocity P-wave (km/s) = 7.75572 9.53431 8.69064
#
# Compressibility (1/GPa) = 0.01322151
#
# Stress axis : x y z
#
# Youngs Moduli (GPa) = 126.26410 46.92338 61.53379
#
# Poissons Ratio (x) = 0.09814 0.23810
# Poissons Ratio (y) = 0.26408 0.62577
# Poissons Ratio (z) = 0.48857 0.47719
#
# Static dielectric constant tensor:
#      x y z
#    x 3.958350 0.000000 0.000000 
#    y 0.000000 3.466490 0.000000 
#    z 0.000000 0.000000 3.512030 
# 
# 
# High freq. dielectric constant tensor:
#      x y z
#    x 1.793360 0.000000 0.000000 
#    y 0.000000 1.772120 0.000000 
#    z 0.000000 0.000000 1.761690 
# 
# From -- ./inp_files/16280.got.cif
#   From: 2010.03.12/outbox.cif.g09.slc.cpg/sg54_9_cif.got.tgz:16280.got - 2010.04.16 15:00:50.
