data_PCOD8224881
_publ_section_title
;
Structure prediction by ZEFSAII (Michael W. Deem and Ramdas Pophale) SiO2 
 PCOD8224881
Probable space group: P B A M
;
_chemical_formula_sum "Si O2"
_cell_formula_units_Z 48
_cell_length_a 16.072567
_cell_length_b 5.029075
_cell_length_c 29.429831
_cell_angle_alpha 90.000000
_cell_angle_beta 90.000000
_cell_angle_gamma 90.000000
_cell_volume 2378.817504
_symmetry_space_group_name_H-M "P B A M"
_symmetry_group_IT_number 55
_symmetry_cell_setting 'orthorhombic'
loop_
_space_group_symop_operation_xyz
x,y,z
-x,-y,z
1/2+x,1/2-y,-z
1/2-x,1/2+y,-z
-x,-y,-z
x,y,-z
1/2-x,1/2+y,z
1/2+x,1/2-y,z
loop_
_atom_site_type_symbol
_atom_site_label
_atom_site_fract_x
_atom_site_fract_y
_atom_site_fract_z
Si Si1 0.403145 0.035769 0.283421
Si Si2 0.806540 0.853975 0.144725
Si Si3 0.901420 0.967492 0.233653
Si Si4 0.195974 0.782745 0.447926
Si Si5 0.444672 0.244098 0.622228
Si Si6 0.695441 0.460801 0.048507
O O1 0.361909 0.254213 0.250100
O O2 0.390999 0.130265 0.335406
O O3 0.500000 0.000000 0.273405
O O4 0.364882 0.750788 0.269610
O O5 0.729806 0.058362 0.149251
O O6 0.853396 0.895742 0.095529
O O7 0.875656 0.897627 0.182782
O O8 0.000000 0.000000 0.235723
O O9 0.166826 0.810378 0.500000
O O10 0.231595 0.492625 0.437015
O O11 0.116123 0.841077 0.417259
O O12 0.500000 0.500000 0.637397
O O13 0.500000 0.000000 0.603477
O O14 0.775766 0.266602 0.049499
O O15 0.646733 0.412246 0.000000
#
# Coordination Sequence:
#
# PCOD8224881 Si02
#       6
#     8   8   8   8   8   8
#     4   9  18  33  52  73  98 131 167 204 247 295
#     4  10  19  31  47  71  99 123 159 210 250 284
#     4  10  19  33  51  69  96 134 167 194 242 308
#     4  10  22  40  58  80 115 150 174 208 269 331
#     4  11  21  36  60  85 106 135 184 232 259 295
#     4   8  14  25  42  63  88 120 155 193 242 295
#
# _framework density 20.178091999999999
#
# number of rings (size 3 to 8) (size 9 to 14) (size 15 to 20)
#    0.000    2.333    0.000    4.500    0.000    0.667 
#    0.000    5.000    0.000    0.500    0.000    0.000 
#    0.000   17.333    0.000    0.000    0.000    3.167 
#
# Total GULP energy -594678.992530 kJ/mol
# GULP energy per Si atom -12389.145678 kJ/mol
# Density = 2.013217 g / cm^3
# Si number density = 20.178092 Si / 1000 Ang^3
#
#
#
# Elastic Constant Matrix: (Units=GPa)
#
#
# Indices 1 2 3 4 5 6 
#
# 1 21.6640 10.0312 35.0644 0.0000 0.0000 0.0000
# 2 10.0312 99.7388 33.3351 0.0000 0.0000 0.0000
# 3 35.0644 33.3351 151.9582 0.0000 0.0000 0.0000
# 4 0.0000 0.0000 0.0000 29.7514 0.0000 0.0000
# 5 0.0000 0.0000 0.0000 0.0000 25.7032 0.0000
# 6 0.0000 0.0000 0.0000 0.0000 0.0000 15.1782
#
#
#
# Elastic Compliance Matrix: (Units=1/GPa)
#
#
# Indices 1 2 3 4 5 6 
#
# 1 0.073999 -0.001873 -0.016665 0.000000 0.000000 0.000000
# 2 -0.001873 0.010867 -0.001952 0.000000 0.000000 0.000000
# 3 -0.016665 -0.001952 0.010854 0.000000 0.000000 0.000000
# 4 0.000000 0.000000 0.000000 0.033612 0.000000 0.000000
# 5 0.000000 0.000000 0.000000 0.000000 0.038906 0.000000
# 6 0.000000 0.000000 0.000000 0.000000 0.000000 0.065884
#
#
# Mechanical properties :
#
#
# Convention : Reuss Voigt Hill
#
# Bulk Modulus (GPa) = 18.26740 47.80251 33.03495
# Shear Modulus (GPa) = 17.04462 27.12190 22.08326
#
# Velocity S-wave (km/s) = 2.90954 3.67021 3.31179
# Velocity P-wave (km/s) = 4.51220 6.45773 5.57056
#
# Compressibility (1/GPa) = 0.05474234
#
# Stress axis : x y z
#
# Youngs Moduli (GPa) = 13.51363 92.02295 92.12967
#
# Poissons Ratio (x) = 0.17234 1.53530
# Poissons Ratio (y) = 0.02531 0.17981
# Poissons Ratio (z) = 0.22520 0.17960
#
# Static dielectric constant tensor:
#      x y z
#    x 2.912310 0.000000 0.000000 
#    y 0.000000 4.162490 0.000000 
#    z 0.000000 0.000000 3.985210 
# 
# 
# High freq. dielectric constant tensor:
#      x y z
#    x 1.708150 0.000000 0.000000 
#    y 0.000000 1.818560 0.000000 
#    z 0.000000 0.000000 1.807400 
# 
# From -- ./inp_files/23307.got.cif
#   From: 2010.03.12/outbox.cif.g09.slc.cpg/sg55_12_cif.got.tgz:23307.got - 2010.04.16 15:19:21.
