data_PCOD8224384
_publ_section_title
;
Structure prediction by ZEFSAII (Michael W. Deem and Ramdas Pophale) SiO2 
 PCOD8224384
Probable space group: P B A M
;
_chemical_formula_sum "Si O2"
_cell_formula_units_Z 48
_cell_length_a 23.657666
_cell_length_b 13.764243
_cell_length_c 9.244580
_cell_angle_alpha 90.000000
_cell_angle_beta 90.000000
_cell_angle_gamma 90.000000
_cell_volume 3010.311325
_symmetry_space_group_name_H-M "P B A M"
_symmetry_group_IT_number 55
_symmetry_cell_setting 'orthorhombic'
loop_
_space_group_symop_operation_xyz
x,y,z
-x,-y,z
1/2+x,1/2-y,-z
1/2-x,1/2+y,-z
-x,-y,-z
x,y,-z
1/2-x,1/2+y,z
1/2+x,1/2-y,z
loop_
_atom_site_type_symbol
_atom_site_label
_atom_site_fract_x
_atom_site_fract_y
_atom_site_fract_z
Si Si1 0.062490 0.886860 0.671066
Si Si2 0.724461 0.112464 0.168449
Si Si3 0.327940 0.716941 0.672012
Si Si4 0.231690 0.608076 0.166363
Si Si5 0.436805 0.604414 0.329017
Si Si6 0.659784 0.710515 0.164827
O O1 0.068612 0.879353 0.500000
O O2 0.105398 0.810046 0.738802
O O3 0.998742 0.859926 0.722166
O O4 0.076501 0.995599 0.728229
O O5 0.680747 0.176450 0.260866
O O6 0.788377 0.140929 0.211493
O O7 0.713272 0.000649 0.207455
O O8 0.714258 0.135493 0.000000
O O9 0.322852 0.722689 0.500000
O O10 0.282218 0.640711 0.730355
O O11 0.389380 0.679702 0.724165
O O12 0.177664 0.677465 0.189073
O O13 0.252769 0.613758 0.000000
O O14 0.437131 0.597016 0.500000
O O15 0.643036 0.690450 0.000000
#
# Coordination Sequence:
#
# PCOD8224384 Si02
#       6
#     8   8   8   8   8   8
#     4   9  16  29  47  63  85 118 148 171 210 266
#     4   9  18  32  47  63  88 122 151 176 215 264
#     4  10  18  28  45  69  93 113 142 185 224 258
#     4   9  18  32  47  63  89 122 149 176 216 265
#     4   8  16  29  44  64  89 116 143 175 215 259
#     4   9  17  28  43  66  90 109 139 183 220 250
#
# _framework density 15.945195
#
# number of rings (size 3 to 8) (size 9 to 14) (size 15 to 20)
#    0.000    3.000    0.000    3.500    0.000    3.333 
#    0.000    4.167    0.000    1.000    0.000    7.000 
#    0.000    0.000    0.000    0.000    0.000    0.000 
#
# Total GULP energy -595063.660542 kJ/mol
# GULP energy per Si atom -12397.159595 kJ/mol
# Density = 1.590890 g / cm^3
# Si number density = 15.945195 Si / 1000 Ang^3
#
#
#
# Elastic Constant Matrix: (Units=GPa)
#
#
# Indices 1 2 3 4 5 6 
#
# 1 116.1949 67.4423 44.2905 0.0000 0.0000 0.0000
# 2 67.4423 127.2013 39.7590 0.0000 0.0000 0.0000
# 3 44.2905 39.7590 49.1852 0.0000 0.0000 0.0000
# 4 0.0000 0.0000 0.0000 25.0207 0.0000 0.0000
# 5 0.0000 0.0000 0.0000 0.0000 15.9099 0.0000
# 6 0.0000 0.0000 0.0000 0.0000 0.0000 25.2950
#
#
#
# Elastic Compliance Matrix: (Units=1/GPa)
#
#
# Indices 1 2 3 4 5 6 
#
# 1 0.015202 -0.005060 -0.009599 0.000000 0.000000 0.000000
# 2 -0.005060 0.012204 -0.005309 0.000000 0.000000 0.000000
# 3 -0.009599 -0.005309 0.033266 0.000000 0.000000 0.000000
# 4 0.000000 0.000000 0.000000 0.039967 0.000000 0.000000
# 5 0.000000 0.000000 0.000000 0.000000 0.062854 0.000000
# 6 0.000000 0.000000 0.000000 0.000000 0.000000 0.039534
#
#
# Mechanical properties :
#
#
# Convention : Reuss Voigt Hill
#
# Bulk Modulus (GPa) = 48.22276 66.17388 57.19832
# Shear Modulus (GPa) = 20.01014 22.65107 21.33060
#
# Velocity S-wave (km/s) = 3.54635 3.77312 3.66149
# Velocity P-wave (km/s) = 6.86128 7.78285 7.33655
#
# Compressibility (1/GPa) = 0.02073710
#
# Stress axis : x y z
#
# Youngs Moduli (GPa) = 65.78106 81.94366 30.06044
#
# Poissons Ratio (x) = 0.41461 0.28855
# Poissons Ratio (y) = 0.33283 0.15958
# Poissons Ratio (z) = 0.63144 0.43500
#
# Static dielectric constant tensor:
#      x y z
#    x 3.062820 0.000000 0.000000 
#    y 0.000000 3.093620 0.000000 
#    z 0.000000 0.000000 2.863350 
# 
# 
# High freq. dielectric constant tensor:
#      x y z
#    x 1.600510 0.000000 0.000000 
#    y 0.000000 1.607530 0.000000 
#    z 0.000000 0.000000 1.601100 
# 
# From -- ./inp_files/4056.got.cif
#   From: 2010.03.12/outbox.cif.g09.slc.cpg/sg55_3_cif.got.tgz:4056.got - 2010.04.16 15:19:21.
