data_PCOD8224321
_publ_section_title
;
Structure prediction by ZEFSAII (Michael W. Deem and Ramdas Pophale) SiO2 
 PCOD8224321
Probable space group: P B A M
;
_chemical_formula_sum "Si O2"
_cell_formula_units_Z 64
_cell_length_a 11.878229
_cell_length_b 30.914722
_cell_length_c 9.423991
_cell_angle_alpha 90.000000
_cell_angle_beta 90.000000
_cell_angle_gamma 90.000000
_cell_volume 3460.603972
_symmetry_space_group_name_H-M "P B A M"
_symmetry_group_IT_number 55
_symmetry_cell_setting 'orthorhombic'
loop_
_space_group_symop_operation_xyz
x,y,z
-x,-y,z
1/2+x,1/2-y,-z
1/2-x,1/2+y,-z
-x,-y,-z
x,y,-z
1/2-x,1/2+y,z
1/2+x,1/2-y,z
loop_
_atom_site_type_symbol
_atom_site_label
_atom_site_fract_x
_atom_site_fract_y
_atom_site_fract_z
Si Si1 0.616312 0.630978 0.334334
Si Si2 0.353217 0.629762 0.333452
Si Si3 0.259884 0.950276 0.668843
Si Si4 0.761100 0.698026 0.167393
Si Si5 0.500264 0.920623 0.663151
Si Si6 0.499152 0.162106 0.838763
Si Si7 0.763017 0.455806 0.336530
Si Si8 0.768431 0.295872 0.837628
O O1 0.641991 0.638119 0.500000
O O2 0.485100 0.627838 0.302435
O O3 0.672349 0.586113 0.280315
O O4 0.666176 0.671043 0.248345
O O5 0.326357 0.634103 0.500000
O O6 0.298762 0.585729 0.267180
O O7 0.301659 0.671165 0.257278
O O8 0.265041 0.953389 0.500000
O O9 0.384344 0.939040 0.727774
O O10 0.223923 0.997809 0.728886
O O11 0.883389 0.681503 0.214937
O O12 0.755137 0.747599 0.216309
O O13 0.739947 0.693392 0.000000
O O14 0.483000 0.907896 0.500000
O O15 0.537802 0.877784 0.743639
O O16 0.601631 0.954573 0.681806
O O17 0.402365 0.197875 0.823155
O O18 0.510575 0.146061 0.000000
O O19 0.727874 0.454552 0.500000
O O20 0.728887 0.302022 0.000000
#
# Coordination Sequence:
#
# PCOD8224321 Si02
#       8
#     8   8   8   8   8   8   8   8
#     4  10  21  36  54  80 111 141 178 222 265 312
#     4  10  21  36  54  80 111 141 178 222 265 312
#     4   9  17  30  51  79 108 138 175 218 262 311
#     4  10  22  38  58  80 105 140 180 220 264 317
#     4  10  17  30  54  80 106 138 176 215 263 317
#     4  10  20  35  55  81 108 134 173 221 266 314
#     4   9  17  30  51  79 108 138 175 218 262 311
#     4  10  22  38  58  80 105 140 180 220 264 317
#
# _framework density 18.493881999999999
#
# number of rings (size 3 to 8) (size 9 to 14) (size 15 to 20)
#    0.000    2.250    2.500    0.375    1.750    3.000 
#    0.000    2.500    0.000    3.750    0.000    1.750 
#    0.000    0.000    0.000    0.000    0.000    0.000 
#
# Total GULP energy -793516.838332 kJ/mol
# GULP energy per Si atom -12398.700599 kJ/mol
# Density = 1.845179 g / cm^3
# Si number density = 18.493882 Si / 1000 Ang^3
#
#
#
# Elastic Constant Matrix: (Units=GPa)
#
#
# Indices 1 2 3 4 5 6 
#
# 1 102.1145 51.2225 29.0977 0.0000 0.0000 0.0000
# 2 51.2225 155.4901 38.6060 0.0000 0.0000 0.0000
# 3 29.0977 38.6060 33.7955 0.0000 0.0000 0.0000
# 4 0.0000 0.0000 0.0000 4.7689 0.0000 0.0000
# 5 0.0000 0.0000 0.0000 0.0000 21.7839 0.0000
# 6 0.0000 0.0000 0.0000 0.0000 0.0000 24.2813
#
#
#
# Elastic Compliance Matrix: (Units=1/GPa)
#
#
# Indices 1 2 3 4 5 6 
#
# 1 0.013485 -0.002177 -0.009123 0.000000 0.000000 0.000000
# 2 -0.002177 0.009329 -0.008783 0.000000 0.000000 0.000000
# 3 -0.009123 -0.008783 0.047477 0.000000 0.000000 0.000000
# 4 0.000000 0.000000 0.000000 0.209692 0.000000 0.000000
# 5 0.000000 0.000000 0.000000 0.000000 0.045905 0.000000
# 6 0.000000 0.000000 0.000000 0.000000 0.000000 0.041184
#
#
# Mechanical properties :
#
#
# Convention : Reuss Voigt Hill
#
# Bulk Modulus (GPa) = 33.19452 58.80585 46.00019
# Shear Modulus (GPa) = 11.98236 21.66508 16.82372
#
# Velocity S-wave (km/s) = 2.54817 3.42639 3.01938
# Velocity P-wave (km/s) = 5.16192 6.89348 6.08956
#
# Compressibility (1/GPa) = 0.03012545
#
# Stress axis : x y z
#
# Youngs Moduli (GPa) = 74.15829 107.19246 21.06262
#
# Poissons Ratio (x) = 0.23336 0.19216
# Poissons Ratio (y) = 0.16144 0.18498
# Poissons Ratio (z) = 0.67657 0.94142
#
# Static dielectric constant tensor:
#      x y z
#    x 3.469700 0.000000 0.000000 
#    y 0.000000 3.597340 0.000000 
#    z 0.000000 0.000000 3.086850 
# 
# 
# High freq. dielectric constant tensor:
#      x y z
#    x 1.725460 0.000000 0.000000 
#    y 0.000000 1.728710 0.000000 
#    z 0.000000 0.000000 1.677900 
# 
# From -- ./inp_files/4535.got.cif
#   From: 2010.03.12/outbox.cif.g09.slc.cpg/sg55_3_cif.got.tgz:4535.got - 2010.04.16 15:19:21.
