data_PCOD8224459
_publ_section_title
;
Structure prediction by ZEFSAII (Michael W. Deem and Ramdas Pophale) SiO2 
 PCOD8224459
Probable space group: P B A M
;
_chemical_formula_sum "Si O2"
_cell_formula_units_Z 56
_cell_length_a 19.142266
_cell_length_b 17.819155
_cell_length_c 8.975678
_cell_angle_alpha 90.000000
_cell_angle_beta 90.000000
_cell_angle_gamma 90.000000
_cell_volume 3061.594834
_symmetry_space_group_name_H-M "P B A M"
_symmetry_group_IT_number 55
_symmetry_cell_setting 'orthorhombic'
loop_
_space_group_symop_operation_xyz
x,y,z
-x,-y,z
1/2+x,1/2-y,-z
1/2-x,1/2+y,-z
-x,-y,-z
x,y,-z
1/2-x,1/2+y,z
1/2+x,1/2-y,z
loop_
_atom_site_type_symbol
_atom_site_label
_atom_site_fract_x
_atom_site_fract_y
_atom_site_fract_z
Si Si1 0.724701 0.574924 0.665357
Si Si2 0.578063 0.021035 0.676703
Si Si3 0.657830 0.149412 0.826838
Si Si4 0.929792 0.068106 0.671227
Si Si5 0.808467 0.815251 0.175461
Si Si6 0.708568 0.921993 0.668168
Si Si7 0.559448 0.410439 0.824505
O O1 0.752916 0.598188 0.500000
O O2 0.768563 0.609394 0.798887
O O3 0.646159 0.605186 0.685224
O O4 0.730449 0.484702 0.677780
O O5 0.581378 0.028107 0.500000
O O6 0.596980 0.103057 0.742889
O O7 0.500000 0.000000 0.731460
O O8 0.635191 0.958119 0.729724
O O9 0.670102 0.233153 0.764089
O O10 0.638864 0.149986 0.000000
O O11 0.946068 0.047824 0.500000
O O12 0.990291 0.122079 0.738988
O O13 0.929557 0.995103 0.773985
O O14 0.736087 0.849006 0.242154
O O15 0.873225 0.865179 0.226671
O O16 0.797174 0.813211 0.000000
O O17 0.696201 0.894810 0.500000
O O18 0.547448 0.404878 0.000000
#
# Coordination Sequence:
#
# PCOD8224459 Si02
#       7
#     8   8   8   8   8   8   8
#     4   9  18  33  51  74 101 130 168 214 257 303
#     4   9  19  38  60  82 107 136 176 226 273 320
#     4  10  21  35  53  77 105 137 175 216 262 314
#     4  10  18  30  48  72 100 127 166 212 249 293
#     4  10  21  35  49  73 108 141 172 212 260 314
#     4   9  17  31  54  79 100 131 172 213 260 311
#     4  10  19  30  46  70 102 137 169 201 247 300
#
# _framework density 18.291121
#
# number of rings (size 3 to 8) (size 9 to 14) (size 15 to 20)
#    0.000    2.429    1.429    3.000    0.000    5.429 
#    0.000    1.429    0.000    6.857    0.000    0.000 
#    0.000    0.000    0.000    0.000    0.000    0.000 
#
# Total GULP energy -693828.110931 kJ/mol
# GULP energy per Si atom -12389.787695 kJ/mol
# Density = 1.824949 g / cm^3
# Si number density = 18.291121 Si / 1000 Ang^3
#
#
#
# Elastic Constant Matrix: (Units=GPa)
#
#
# Indices 1 2 3 4 5 6 
#
# 1 130.7372 45.9635 35.2290 0.0000 0.0000 0.0000
# 2 45.9635 90.6474 26.7362 0.0000 0.0000 0.0000
# 3 35.2290 26.7362 38.2345 0.0000 0.0000 0.0000
# 4 0.0000 0.0000 0.0000 19.8326 0.0000 0.0000
# 5 0.0000 0.0000 0.0000 0.0000 25.4845 0.0000
# 6 0.0000 0.0000 0.0000 0.0000 0.0000 18.3122
#
#
#
# Elastic Compliance Matrix: (Units=1/GPa)
#
#
# Indices 1 2 3 4 5 6 
#
# 1 0.010875 -0.003224 -0.007766 0.000000 0.000000 0.000000
# 2 -0.003224 0.014854 -0.007417 0.000000 0.000000 0.000000
# 3 -0.007766 -0.007417 0.038496 0.000000 0.000000 0.000000
# 4 0.000000 0.000000 0.000000 0.050422 0.000000 0.000000
# 5 0.000000 0.000000 0.000000 0.000000 0.039240 0.000000
# 6 0.000000 0.000000 0.000000 0.000000 0.000000 0.054608
#
#
# Mechanical properties :
#
#
# Convention : Reuss Voigt Hill
#
# Bulk Modulus (GPa) = 36.47966 52.83074 44.65520
# Shear Modulus (GPa) = 19.65067 22.83856 21.24461
#
# Velocity S-wave (km/s) = 3.28125 3.53741 3.41173
# Velocity P-wave (km/s) = 5.86026 6.75502 6.32349
#
# Compressibility (1/GPa) = 0.02741254
#
# Stress axis : x y z
#
# Youngs Moduli (GPa) = 91.95474 67.32266 25.97678
#
# Poissons Ratio (x) = 0.21703 0.20173
# Poissons Ratio (y) = 0.29643 0.19266
# Poissons Ratio (z) = 0.71411 0.49930
#
# Static dielectric constant tensor:
#      x y z
#    x 3.870710 0.000000 0.000000 
#    y 0.000000 3.195220 0.000000 
#    z 0.000000 0.000000 3.286050 
# 
# 
# High freq. dielectric constant tensor:
#      x y z
#    x 1.716410 0.000000 0.000000 
#    y 0.000000 1.673480 0.000000 
#    z 0.000000 0.000000 1.706700 
# 
# From -- ./inp_files/7836.got.cif
#   From: 2010.03.12/outbox.cif.g09.slc.cpg/sg55_4_cif.got.tgz:7836.got - 2010.04.16 15:19:21.
