data_PCOD8224212
_publ_section_title
;
Structure prediction by ZEFSAII (Michael W. Deem and Ramdas Pophale) SiO2 
 PCOD8224212
Probable space group: P C C A
;
_chemical_formula_sum "Si O2"
_cell_formula_units_Z 40
_cell_length_a 21.965802
_cell_length_b 7.829418
_cell_length_c 9.147430
_cell_angle_alpha 90.000000
_cell_angle_beta 90.000000
_cell_angle_gamma 90.000000
_cell_volume 1573.169940
_symmetry_space_group_name_H-M "P C C A"
_symmetry_group_IT_number 54
_symmetry_cell_setting 'orthorhombic'
loop_
_space_group_symop_operation_xyz
x,y,z
1/2-x,-y,z
1/2+x,-y,1/2-z
-x,y,1/2-z
-x,-y,-z
1/2+x,y,-z
1/2-x,y,1/2+z
x,-y,1/2+z
loop_
_atom_site_type_symbol
_atom_site_label
_atom_site_fract_x
_atom_site_fract_y
_atom_site_fract_z
Si Si1 0.000000 0.106820 0.750000
Si Si2 0.946523 0.611458 0.436983
Si Si3 0.374659 0.034753 0.781442
Si Si4 0.873265 0.604647 0.724138
Si Si5 0.798590 0.857275 0.437632
Si Si6 0.250000 0.500000 0.654308
O O1 0.973777 0.209069 0.888244
O O2 0.945047 0.999071 0.676722
O O3 0.890841 0.633246 0.552226
O O4 0.921554 0.523835 0.291155
O O5 0.000000 0.500000 0.500000
O O6 0.376870 0.213391 0.690044
O O7 0.349069 0.871824 0.691912
O O8 0.329626 0.082783 0.913277
O O9 0.805241 0.534958 0.735404
O O10 0.767936 0.667721 0.443280
O O11 0.750000 0.000000 0.393638
#
# Coordination Sequence:
#
# PCOD8224212 Si02
#       6
#     4   8   8   8   8   4
#     4  12  28  50  80 114 168 210 274 342 414 484
#     4  12  27  50  78 117 159 213 275 337 403 490
#     4  12  29  50  81 118 161 210 271 340 404 485
#     4  12  27  49  79 117 158 211 271 331 408 480
#     4  12  28  56  81 121 163 211 272 338 406 489
#     4  12  28  54  84 118 162 216 266 344 408 490
#
# _framework density 25.426369000000001
#
# number of rings (size 3 to 8) (size 9 to 14) (size 15 to 20)
#    0.000    0.000    4.000    4.200    5.600    4.800 
#    3.600    0.000    0.000    0.000    0.000    0.000 
#    0.000    0.000    0.000    0.000    0.000    0.000 
#
# Total GULP energy -495861.612093 kJ/mol
# GULP energy per Si atom -12396.540302 kJ/mol
# Density = 2.536850 g / cm^3
# Si number density = 25.426369 Si / 1000 Ang^3
#
#
#
# Elastic Constant Matrix: (Units=GPa)
#
#
# Indices 1 2 3 4 5 6 
#
# 1 154.5246 44.4013 26.4350 0.0000 0.0000 0.0000
# 2 44.4013 143.1168 18.3056 0.0000 0.0000 0.0000
# 3 26.4350 18.3056 85.4257 0.0000 0.0000 0.0000
# 4 0.0000 0.0000 0.0000 25.9722 0.0000 0.0000
# 5 0.0000 0.0000 0.0000 0.0000 36.6588 0.0000
# 6 0.0000 0.0000 0.0000 0.0000 0.0000 58.1084
#
#
#
# Elastic Compliance Matrix: (Units=1/GPa)
#
#
# Indices 1 2 3 4 5 6 
#
# 1 0.007377 -0.002053 -0.001843 0.000000 0.000000 0.000000
# 2 -0.002053 0.007756 -0.001027 0.000000 0.000000 0.000000
# 3 -0.001843 -0.001027 0.012496 0.000000 0.000000 0.000000
# 4 0.000000 0.000000 0.000000 0.038503 0.000000 0.000000
# 5 0.000000 0.000000 0.000000 0.000000 0.027279 0.000000
# 6 0.000000 0.000000 0.000000 0.000000 0.000000 0.017209
#
#
# Mechanical properties :
#
#
# Convention : Reuss Voigt Hill
#
# Bulk Modulus (GPa) = 56.23080 62.37232 59.30156
# Shear Modulus (GPa) = 39.55963 43.74289 41.65126
#
# Velocity S-wave (km/s) = 3.94871 4.15224 4.05175
# Velocity P-wave (km/s) = 6.55384 6.89724 6.72773
#
# Compressibility (1/GPa) = 0.01778385
#
# Stress axis : x y z
#
# Youngs Moduli (GPa) = 135.56421 128.94073 80.02349
#
# Poissons Ratio (x) = 0.26469 0.14747
# Poissons Ratio (y) = 0.27829 0.08216
# Poissons Ratio (z) = 0.24982 0.13238
#
# Static dielectric constant tensor:
#      x y z
#    x 5.071960 0.000000 0.000000 
#    y 0.000000 5.003330 0.000000 
#    z 0.000000 0.000000 4.278960 
# 
# 
# High freq. dielectric constant tensor:
#      x y z
#    x 2.050210 0.000000 0.000000 
#    y 0.000000 2.033830 0.000000 
#    z 0.000000 0.000000 1.991990 
# 
# From -- ./inp_files/5058.got.cif
#   From: 2010.03.12/outbox.cif.g09.slc.cpg/sg54_3_cif.got.tgz:5058.got - 2010.04.16 15:00:50.
