data_PCOD8224953
_publ_section_title
;
Structure prediction by ZEFSAII (Michael W. Deem and Ramdas Pophale) SiO2 
 PCOD8224953
Probable space group: P B A M
;
_chemical_formula_sum "Si O2"
_cell_formula_units_Z 64
_cell_length_a 24.506659
_cell_length_b 14.539593
_cell_length_c 9.076415
_cell_angle_alpha 90.000000
_cell_angle_beta 90.000000
_cell_angle_gamma 90.000000
_cell_volume 3234.079581
_symmetry_space_group_name_H-M "P B A M"
_symmetry_group_IT_number 55
_symmetry_cell_setting 'orthorhombic'
loop_
_space_group_symop_operation_xyz
x,y,z
-x,-y,z
1/2+x,1/2-y,-z
1/2-x,1/2+y,-z
-x,-y,-z
x,y,-z
1/2-x,1/2+y,z
1/2+x,1/2-y,z
loop_
_atom_site_type_symbol
_atom_site_label
_atom_site_fract_x
_atom_site_fract_y
_atom_site_fract_z
Si Si1 0.051079 0.561047 0.826813
Si Si2 0.136028 0.447364 0.332469
Si Si3 0.314983 0.687046 0.165565
Si Si4 0.260427 0.868094 0.829664
Si Si5 0.554844 0.553898 0.325664
Si Si6 0.337400 0.486762 0.831781
Si Si7 0.085203 0.255342 0.334020
Si Si8 0.477498 0.267993 0.172487
O O1 0.107313 0.531958 0.749456
O O2 0.043004 0.667064 0.783381
O O3 0.000000 0.500000 0.770246
O O4 0.058139 0.547144 0.000000
O O5 0.148570 0.475045 0.500000
O O6 0.192649 0.421055 0.257435
O O7 0.092841 0.364372 0.323466
O O8 0.264300 0.757122 0.194688
O O9 0.300113 0.579541 0.180393
O O10 0.359473 0.706220 0.288960
O O11 0.337605 0.707367 0.000000
O O12 0.201065 0.903137 0.775508
O O13 0.267551 0.894959 0.000000
O O14 0.500000 0.500000 0.275487
O O15 0.557782 0.560725 0.500000
O O16 0.608527 0.501644 0.266815
O O17 0.557695 0.655815 0.257052
O O18 0.356157 0.470314 0.000000
O O19 0.069525 0.224939 0.500000
O O20 0.039749 0.221070 0.221786
O O21 0.472914 0.286188 0.000000
#
# Coordination Sequence:
#
# PCOD8224953 Si02
#       8
#     8   8   8   8   8   8   8   8
#     4  10  20  35  55  82 117 156 198 240 290 350
#     4  10  20  33  53  81 115 154 195 239 287 341
#     4   9  18  34  58  83 108 145 189 236 286 339
#     4   9  19  37  59  83 114 148 191 244 292 340
#     4  11  25  43  62  86 119 156 193 242 303 362
#     4  10  21  39  62  88 115 150 197 245 293 348
#     4  10  19  31  51  81 115 149 189 236 282 336
#     4  11  22  36  57  84 114 153 195 238 288 346
#
# _framework density 19.789247
#
# number of rings (size 3 to 8) (size 9 to 14) (size 15 to 20)
#    0.000    2.000    1.250    2.250    0.000    6.250 
#    2.250    0.000    0.000    0.000    0.000    0.000 
#    0.000    0.000    0.000    0.000    0.000    0.000 
#
# Total GULP energy -793501.770866 kJ/mol
# GULP energy per Si atom -12398.465170 kJ/mol
# Density = 1.974421 g / cm^3
# Si number density = 19.789247 Si / 1000 Ang^3
#
#
#
# Elastic Constant Matrix: (Units=GPa)
#
#
# Indices 1 2 3 4 5 6 
#
# 1 94.3638 47.8515 34.9718 0.0000 0.0000 0.0000
# 2 47.8515 117.6802 41.4560 0.0000 0.0000 0.0000
# 3 34.9718 41.4560 66.3897 0.0000 0.0000 0.0000
# 4 0.0000 0.0000 0.0000 23.1506 0.0000 0.0000
# 5 0.0000 0.0000 0.0000 0.0000 21.3161 0.0000
# 6 0.0000 0.0000 0.0000 0.0000 0.0000 28.5964
#
#
#
# Elastic Compliance Matrix: (Units=1/GPa)
#
#
# Indices 1 2 3 4 5 6 
#
# 1 0.014584 -0.004133 -0.005101 0.000000 0.000000 0.000000
# 2 -0.004133 0.012065 -0.005357 0.000000 0.000000 0.000000
# 3 -0.005101 -0.005357 0.021095 0.000000 0.000000 0.000000
# 4 0.000000 0.000000 0.000000 0.043195 0.000000 0.000000
# 5 0.000000 0.000000 0.000000 0.000000 0.046913 0.000000
# 6 0.000000 0.000000 0.000000 0.000000 0.000000 0.034969
#
#
# Mechanical properties :
#
#
# Convention : Reuss Voigt Hill
#
# Bulk Modulus (GPa) = 53.87550 58.55469 56.21510
# Shear Modulus (GPa) = 24.01639 24.88959 24.45299
#
# Velocity S-wave (km/s) = 3.48747 3.55030 3.51902
# Velocity P-wave (km/s) = 6.59548 6.81613 6.70671
#
# Compressibility (1/GPa) = 0.01856131
#
# Stress axis : x y z
#
# Youngs Moduli (GPa) = 68.56960 82.88262 47.40490
#
# Poissons Ratio (x) = 0.34255 0.24183
# Poissons Ratio (y) = 0.28340 0.25394
# Poissons Ratio (z) = 0.34980 0.44399
#
# Static dielectric constant tensor:
#      x y z
#    x 3.359380 0.000000 0.000000 
#    y 0.000000 3.789760 0.000000 
#    z 0.000000 0.000000 3.557600 
# 
# 
# High freq. dielectric constant tensor:
#      x y z
#    x 1.748530 0.000000 0.000000 
#    y 0.000000 1.777280 0.000000 
#    z 0.000000 0.000000 1.770250 
# 
# From -- ./inp_files/9668.got.cif
#   From: 2010.03.12/outbox.cif.g09.slc.cpg/sg55_5_cif.got.tgz:9668.got - 2010.04.16 15:19:21.
