data_PCOD8224196
_publ_section_title
;
Structure prediction by ZEFSAII (Michael W. Deem and Ramdas Pophale) SiO2 
 PCOD8224196
Probable space group: P C C A
;
_chemical_formula_sum "Si O2"
_cell_formula_units_Z 32
_cell_length_a 9.270411
_cell_length_b 15.951075
_cell_length_c 9.181017
_cell_angle_alpha 90.000000
_cell_angle_beta 90.000000
_cell_angle_gamma 90.000000
_cell_volume 1357.624721
_symmetry_space_group_name_H-M "P C C A"
_symmetry_group_IT_number 54
_symmetry_cell_setting 'orthorhombic'
loop_
_space_group_symop_operation_xyz
x,y,z
1/2-x,-y,z
1/2+x,-y,1/2-z
-x,y,1/2-z
-x,-y,-z
1/2+x,y,-z
1/2-x,y,1/2+z
x,-y,1/2+z
loop_
_atom_site_type_symbol
_atom_site_label
_atom_site_fract_x
_atom_site_fract_y
_atom_site_fract_z
Si Si1 0.741221 0.692536 0.986736
Si Si2 0.097213 0.950232 0.608109
Si Si3 0.161213 0.418034 0.268265
Si Si4 0.977205 0.199225 0.586503
O O1 0.797933 0.662107 0.830688
O O2 0.631395 0.770781 0.972896
O O3 0.674498 0.611599 0.065011
O O4 0.873459 0.720451 0.091306
O O5 0.110466 0.861364 0.525574
O O6 0.000000 0.937586 0.750000
O O7 0.250000 0.000000 0.636270
O O8 0.000000 0.000000 0.500000
O O9 0.250000 0.500000 0.230856
O O10 0.000000 0.447789 0.250000
O O11 0.000000 0.160475 0.750000
#
# Coordination Sequence:
#
# PCOD8224196 Si02
#       4
#     8   8   8   8
#     4  12  26  46  73 110 149 195 259 311 378 443
#     4  12  28  50  79 117 157 200 252 312 389 469
#     4  12  28  46  73 108 152 202 255 315 378 450
#     4  12  27  48  78 110 148 198 248 315 373 451
#
# _framework density 23.570578000000001
#
# number of rings (size 3 to 8) (size 9 to 14) (size 15 to 20)
#    0.000    0.000    5.000    3.750    7.000    6.000 
#    0.000    1.250    0.000    0.000    0.000    0.000 
#    0.000    0.000    0.000    0.000    0.000    0.000 
#
# Total GULP energy -396619.855027 kJ/mol
# GULP energy per Si atom -12394.370470 kJ/mol
# Density = 2.351693 g / cm^3
# Si number density = 23.570578 Si / 1000 Ang^3
#
#
#
# Elastic Constant Matrix: (Units=GPa)
#
#
# Indices 1 2 3 4 5 6 
#
# 1 165.8999 51.5980 50.4356 0.0000 0.0000 0.0000
# 2 51.5980 97.3846 37.8423 0.0000 0.0000 0.0000
# 3 50.4356 37.8423 138.2628 0.0000 0.0000 0.0000
# 4 0.0000 0.0000 0.0000 46.2666 0.0000 0.0000
# 5 0.0000 0.0000 0.0000 0.0000 37.4595 0.0000
# 6 0.0000 0.0000 0.0000 0.0000 0.0000 42.5929
#
#
#
# Elastic Compliance Matrix: (Units=1/GPa)
#
#
# Indices 1 2 3 4 5 6 
#
# 1 0.007628 -0.003313 -0.001876 0.000000 0.000000 0.000000
# 2 -0.003313 0.012929 -0.002330 0.000000 0.000000 0.000000
# 3 -0.001876 -0.002330 0.008555 0.000000 0.000000 0.000000
# 4 0.000000 0.000000 0.000000 0.021614 0.000000 0.000000
# 5 0.000000 0.000000 0.000000 0.000000 0.026696 0.000000
# 6 0.000000 0.000000 0.000000 0.000000 0.000000 0.023478
#
#
# Mechanical properties :
#
#
# Convention : Reuss Voigt Hill
#
# Bulk Modulus (GPa) = 71.05160 75.69991 73.37575
# Shear Modulus (GPa) = 41.44921 42.70855 42.07888
#
# Velocity S-wave (km/s) = 4.19801 4.26131 4.22978
# Velocity P-wave (km/s) = 7.32853 7.50984 7.41974
#
# Compressibility (1/GPa) = 0.01407428
#
# Stress axis : x y z
#
# Youngs Moduli (GPa) = 131.08901 77.34346 116.89453
#
# Poissons Ratio (x) = 0.25623 0.21929
# Poissons Ratio (y) = 0.43428 0.27240
# Poissons Ratio (z) = 0.24592 0.18023
#
# Static dielectric constant tensor:
#      x y z
#    x 4.240880 0.000000 0.000000 
#    y 0.000000 3.740470 0.000000 
#    z 0.000000 0.000000 3.828120 
# 
# 
# High freq. dielectric constant tensor:
#      x y z
#    x 1.950380 0.000000 0.000000 
#    y 0.000000 1.935620 0.000000 
#    z 0.000000 0.000000 1.942310 
# 
# From -- ./inp_files/2857.got.cif
#   From: 2010.03.12/outbox.cif.g09.slc.cpg/sg54_2_cif.got.tgz:2857.got - 2010.04.16 15:00:50.
