data_PCOD8224772
_publ_section_title
;
Structure prediction by ZEFSAII (Michael W. Deem and Ramdas Pophale) SiO2 
 PCOD8224772
Probable space group: P B A M
;
_chemical_formula_sum "Si O2"
_cell_formula_units_Z 64
_cell_length_a 26.478901
_cell_length_b 5.114227
_cell_length_c 30.129822
_cell_angle_alpha 90.000000
_cell_angle_beta 90.000000
_cell_angle_gamma 90.000000
_cell_volume 4080.153692
_symmetry_space_group_name_H-M "P B A M"
_symmetry_group_IT_number 55
_symmetry_cell_setting 'orthorhombic'
loop_
_space_group_symop_operation_xyz
x,y,z
-x,-y,z
1/2+x,1/2-y,-z
1/2-x,1/2+y,-z
-x,-y,-z
x,y,-z
1/2-x,1/2+y,z
1/2+x,1/2-y,z
loop_
_atom_site_type_symbol
_atom_site_label
_atom_site_fract_x
_atom_site_fract_y
_atom_site_fract_z
Si Si1 0.217838 0.959483 0.449083
Si Si2 0.382204 0.482743 0.290636
Si Si3 0.782336 0.048747 0.138121
Si Si4 0.784039 0.964335 0.234279
Si Si5 0.283322 0.588538 0.952446
Si Si6 0.383033 0.477991 0.395911
Si Si7 0.443710 0.979942 0.604274
Si Si8 0.943432 0.514675 0.290356
O O1 0.200130 0.982389 0.500000
O O2 0.239634 0.674188 0.438407
O O3 0.171022 0.014336 0.417658
O O4 0.326559 0.498754 0.270864
O O5 0.375631 0.480095 0.343311
O O6 0.416374 0.722717 0.274195
O O7 0.410206 0.225685 0.272715
O O8 0.766086 0.351874 0.136694
O O9 0.815017 0.976845 0.093109
O O10 0.809823 0.991903 0.185116
O O11 0.759560 0.679905 0.240627
O O12 0.263671 0.885326 0.950871
O O13 0.312594 0.547730 0.000000
O O14 0.419261 0.710900 0.411706
O O15 0.408972 0.214327 0.413573
O O16 0.446866 0.996408 0.656955
O O17 0.500000 0.000000 0.584094
O O18 0.000000 0.500000 0.270321
#
# Coordination Sequence:
#
# PCOD8224772 Si02
#       8
#     8   8   8   8   8   8   8   8
#     4  10  21  36  52  68  87 114 145 174 205 237
#     4  10  19  29  44  66  85 108 140 167 202 242
#     4   8  14  23  33  45  65  97 131 159 192 230
#     4  10  19  29  39  54  82 115 141 166 195 235
#     4   8  12  18  29  44  60  81 118 165 198 221
#     4  10  19  31  49  69  88 110 138 172 202 237
#     4   9  17  30  49  71  92 112 132 160 203 249
#     4   9  17  30  46  64  85 106 134 172 207 242
#
# _framework density 15.685684999999999
#
# number of rings (size 3 to 8) (size 9 to 14) (size 15 to 20)
#    0.000    2.750    0.000    2.250    0.000    4.000 
#    0.000    0.000    0.000    2.250    0.000    0.000 
#    0.000    0.000    0.000    0.000    0.000    3.750 
#
# Total GULP energy -792996.367696 kJ/mol
# GULP energy per Si atom -12390.568245 kJ/mol
# Density = 1.564998 g / cm^3
# Si number density = 15.685685 Si / 1000 Ang^3
#
#
#
# Elastic Constant Matrix: (Units=GPa)
#
#
# Indices 1 2 3 4 5 6 
#
# 1 61.8327 6.5149 33.9080 0.0000 0.0000 0.0000
# 2 6.5149 70.3304 20.7549 0.0000 0.0000 0.0000
# 3 33.9080 20.7549 47.7551 0.0000 0.0000 0.0000
# 4 0.0000 0.0000 0.0000 12.7008 0.0000 0.0000
# 5 0.0000 0.0000 0.0000 0.0000 -0.5502 0.0000
# 6 0.0000 0.0000 0.0000 0.0000 0.0000 19.7031
#
#
#
# Elastic Compliance Matrix: (Units=1/GPa)
#
#
# Indices 1 2 3 4 5 6 
#
# 1 0.027282 0.003659 -0.020961 0.000000 0.000000 0.000000
# 2 0.003659 0.016801 -0.009900 0.000000 0.000000 0.000000
# 3 -0.020961 -0.009900 0.040126 0.000000 0.000000 0.000000
# 4 0.000000 0.000000 0.000000 0.078735 0.000000 0.000000
# 5 0.000000 0.000000 0.000000 0.000000 -1.817387 0.000000
# 6 0.000000 0.000000 0.000000 0.000000 0.000000 0.050753
#
#
# Mechanical properties :
#
#
# Convention : Reuss Voigt Hill
#
# Bulk Modulus (GPa) = 33.55221 33.58599 33.56910
# Shear Modulus (GPa) = -3.24812 14.28677 5.51932
#
# Velocity S-wave (km/s) = -1.44057 3.02125 1.87786
# Velocity P-wave (km/s) = 4.32085 5.79905 5.11364
#
# Compressibility (1/GPa) = 0.02980429
#
# Stress axis : x y z
#
# Youngs Moduli (GPa) = 36.65417 59.51966 24.92145
#
# Poissons Ratio (x) = -0.21776 0.52239
# Poissons Ratio (y) = -0.13410 0.24672
# Poissons Ratio (z) = 0.76832 0.58923
#
# Static dielectric constant tensor:
#      x y z
#    x 2.676060 0.000000 0.000000 
#    y 0.000000 3.293130 0.000000 
#    z 0.000000 0.000000 3.137990 
# 
# 
# High freq. dielectric constant tensor:
#      x y z
#    x 1.553500 0.000000 0.000000 
#    y 0.000000 1.631380 0.000000 
#    z 0.000000 0.000000 1.584890 
# 
# From -- ./inp_files/23877.got.cif
#   From: 2010.03.12/outbox.cif.g09.slc.cpg/sg55_12_cif.got.tgz:23877.got - 2010.04.16 15:19:21.
