data_PCOD8224760
_publ_section_title
;
Structure prediction by ZEFSAII (Michael W. Deem and Ramdas Pophale) SiO2 
 PCOD8224760
Probable space group: P B A M
;
_chemical_formula_sum "Si O2"
_cell_formula_units_Z 56
_cell_length_a 16.385620
_cell_length_b 11.451334
_cell_length_c 14.528423
_cell_angle_alpha 90.000000
_cell_angle_beta 90.000000
_cell_angle_gamma 90.000000
_cell_volume 2726.072720
_symmetry_space_group_name_H-M "P B A M"
_symmetry_group_IT_number 55
_symmetry_cell_setting 'orthorhombic'
loop_
_space_group_symop_operation_xyz
x,y,z
-x,-y,z
1/2+x,1/2-y,-z
1/2-x,1/2+y,-z
-x,-y,-z
x,y,-z
1/2-x,1/2+y,z
1/2+x,1/2-y,z
loop_
_atom_site_type_symbol
_atom_site_label
_atom_site_fract_x
_atom_site_fract_y
_atom_site_fract_z
Si Si1 0.157713 0.768727 0.897269
Si Si2 0.597979 0.183560 0.309072
Si Si3 0.048575 0.799463 0.397857
Si Si4 0.223988 0.156481 0.752879
Si Si5 0.981291 0.378219 0.157410
Si Si6 0.091318 0.963564 0.230805
Si Si7 0.623826 0.926891 0.335091
O O1 0.226675 0.691984 0.845184
O O2 0.069295 0.705561 0.909305
O O3 0.138564 0.887446 0.844485
O O4 0.190734 0.794824 0.000000
O O5 0.544666 0.274851 0.367936
O O6 0.691006 0.226652 0.297680
O O7 0.562434 0.175649 0.204029
O O8 0.600365 0.059221 0.363884
O O9 0.049676 0.855083 0.500000
O O10 0.089475 0.891388 0.327196
O O11 0.095640 0.674820 0.404387
O O12 0.279746 0.084328 0.681993
O O13 0.143012 0.081376 0.768717
O O14 0.920998 0.401916 0.240928
O O15 0.000000 0.500000 0.105042
O O16 0.000000 0.000000 0.200904
#
# Coordination Sequence:
#
# PCOD8224760 Si02
#       7
#     8   8   8   8   8   8   8
#     4  11  23  40  63  94 126 164 218 266 324 399
#     4  10  18  37  63  88 122 171 215 261 327 384
#     4  11  22  41  67  97 125 167 223 269 323 390
#     4  11  21  39  64  86 132 175 208 259 334 389
#     4   8  15  33  57  85 114 156 202 255 316 375
#     4  12  23  44  68  92 133 180 212 273 327 387
#     4   9  19  34  62  90 121 162 207 266 325 381
#
# _framework density 20.542373000000001
#
# number of rings (size 3 to 8) (size 9 to 14) (size 15 to 20)
#    0.000    1.714    5.714    2.143    0.000    2.571 
#    0.000    3.571    0.000    0.000    0.000    0.000 
#    0.000    0.000    0.000    0.000    0.000    0.000 
#
# Total GULP energy -693807.297531 kJ/mol
# GULP energy per Si atom -12389.416027 kJ/mol
# Density = 2.049562 g / cm^3
# Si number density = 20.542373 Si / 1000 Ang^3
#
#
#
# Elastic Constant Matrix: (Units=GPa)
#
#
# Indices 1 2 3 4 5 6 
#
# 1 95.9670 23.1733 20.6823 0.0000 0.0000 0.0000
# 2 23.1733 80.1455 28.6444 0.0000 0.0000 0.0000
# 3 20.6823 28.6444 97.0734 0.0000 0.0000 0.0000
# 4 0.0000 0.0000 0.0000 7.2504 0.0000 0.0000
# 5 0.0000 0.0000 0.0000 0.0000 10.6425 0.0000
# 6 0.0000 0.0000 0.0000 0.0000 0.0000 45.3609
#
#
#
# Elastic Compliance Matrix: (Units=1/GPa)
#
#
# Indices 1 2 3 4 5 6 
#
# 1 0.011429 -0.002721 -0.001632 0.000000 0.000000 0.000000
# 2 -0.002721 0.014596 -0.003727 0.000000 0.000000 0.000000
# 3 -0.001632 -0.003727 0.011749 0.000000 0.000000 0.000000
# 4 0.000000 0.000000 0.000000 0.137923 0.000000 0.000000
# 5 0.000000 0.000000 0.000000 0.000000 0.093963 0.000000
# 6 0.000000 0.000000 0.000000 0.000000 0.000000 0.022045
#
#
# Mechanical properties :
#
#
# Convention : Reuss Voigt Hill
#
# Bulk Modulus (GPa) = 46.26811 46.46509 46.36660
# Shear Modulus (GPa) = 15.86940 26.02982 20.94961
#
# Velocity S-wave (km/s) = 2.78244 3.56354 3.19693
# Velocity P-wave (km/s) = 5.73540 6.29285 6.02058
#
# Compressibility (1/GPa) = 0.02161316
#
# Stress axis : x y z
#
# Youngs Moduli (GPa) = 87.49599 68.51055 85.11322
#
# Poissons Ratio (x) = 0.18644 0.13891
# Poissons Ratio (y) = 0.23810 0.31724
# Poissons Ratio (z) = 0.14280 0.25536
#
# Static dielectric constant tensor:
#      x y z
#    x 4.104690 0.000000 0.000000 
#    y 0.000000 4.175320 0.000000 
#    z 0.000000 0.000000 3.341590 
# 
# 
# High freq. dielectric constant tensor:
#      x y z
#    x 1.807720 0.000000 0.000000 
#    y 0.000000 1.814680 0.000000 
#    z 0.000000 0.000000 1.755340 
# 
# From -- ./inp_files/18945.got.cif
#   From: 2010.03.12/outbox.cif.g09.slc.cpg/sg55_10_cif.got.tgz:18945.got - 2010.04.16 15:19:21.
