data_PCOD8224211
_publ_section_title
;
Structure prediction by ZEFSAII (Michael W. Deem and Ramdas Pophale) SiO2 
 PCOD8224211
Probable space group: P C C A
;
_chemical_formula_sum "Si O2"
_cell_formula_units_Z 24
_cell_length_a 8.241324
_cell_length_b 12.262380
_cell_length_c 8.810250
_cell_angle_alpha 90.000000
_cell_angle_beta 90.000000
_cell_angle_gamma 90.000000
_cell_volume 890.348417
_symmetry_space_group_name_H-M "P C C A"
_symmetry_group_IT_number 54
_symmetry_cell_setting 'orthorhombic'
loop_
_space_group_symop_operation_xyz
x,y,z
1/2-x,-y,z
1/2+x,-y,1/2-z
-x,y,1/2-z
-x,-y,-z
1/2+x,y,-z
1/2-x,y,1/2+z
x,-y,1/2+z
loop_
_atom_site_type_symbol
_atom_site_label
_atom_site_fract_x
_atom_site_fract_y
_atom_site_fract_z
Si Si1 0.601832 0.425616 0.392425
Si Si2 0.095902 0.773392 0.894901
Si Si3 0.383067 0.089125 0.385846
O O1 0.750000 0.500000 0.334239
O O2 0.500000 0.384976 0.250000
O O3 0.500000 0.500000 0.500000
O O4 0.648163 0.317462 0.484298
O O5 0.270644 0.810957 0.830276
O O6 0.000000 0.724487 0.750000
O O7 0.992866 0.873903 0.969894
O O8 0.500000 0.049326 0.250000
O O9 0.250000 0.000000 0.438870
#
# Coordination Sequence:
#
# PCOD8224211 Si02
#       3
#     8   8   8
#     4  12  27  49  77 109 148 195 250 311 378 450
#     4  12  27  49  77 112 153 199 252 313 379 449
#     4  12  27  50  78 111 153 202 254 310 374 449
#
# _framework density 26.955736999999999
#
# number of rings (size 3 to 8) (size 9 to 14) (size 15 to 20)
#    0.000    0.000    0.000    9.000    0.000   10.667 
#    0.000    8.333    0.000    0.000    0.000    0.000 
#    0.000    0.000    0.000    0.000    0.000    0.000 
#
# Total GULP energy -297580.275302 kJ/mol
# GULP energy per Si atom -12399.178138 kJ/mol
# Density = 2.689438 g / cm^3
# Si number density = 26.955737 Si / 1000 Ang^3
#
#
#
# Elastic Constant Matrix: (Units=GPa)
#
#
# Indices 1 2 3 4 5 6 
#
# 1 157.8411 52.6377 45.1874 0.0000 0.0000 0.0000
# 2 52.6377 107.0174 39.4037 0.0000 0.0000 0.0000
# 3 45.1874 39.4037 124.0063 0.0000 0.0000 0.0000
# 4 0.0000 0.0000 0.0000 46.4647 0.0000 0.0000
# 5 0.0000 0.0000 0.0000 0.0000 54.7286 0.0000
# 6 0.0000 0.0000 0.0000 0.0000 0.0000 48.4627
#
#
#
# Elastic Compliance Matrix: (Units=1/GPa)
#
#
# Indices 1 2 3 4 5 6 
#
# 1 0.007945 -0.003218 -0.001872 0.000000 0.000000 0.000000
# 2 -0.003218 0.011886 -0.002604 0.000000 0.000000 0.000000
# 3 -0.001872 -0.002604 0.009574 0.000000 0.000000 0.000000
# 4 0.000000 0.000000 0.000000 0.021522 0.000000 0.000000
# 5 0.000000 0.000000 0.000000 0.000000 0.018272 0.000000
# 6 0.000000 0.000000 0.000000 0.000000 0.000000 0.020634
#
#
# Mechanical properties :
#
#
# Convention : Reuss Voigt Hill
#
# Bulk Modulus (GPa) = 71.35192 73.70250 72.52721
# Shear Modulus (GPa) = 45.49829 46.70694 46.10262
#
# Velocity S-wave (km/s) = 4.11285 4.16712 4.14007
# Velocity P-wave (km/s) = 7.00582 7.11017 7.05819
#
# Compressibility (1/GPa) = 0.01401504
#
# Stress axis : x y z
#
# Youngs Moduli (GPa) = 125.86863 84.13209 104.45080
#
# Poissons Ratio (x) = 0.27076 0.19558
# Poissons Ratio (y) = 0.40508 0.27200
# Poissons Ratio (z) = 0.23568 0.21909
#
# Static dielectric constant tensor:
#      x y z
#    x 5.223870 0.000000 0.000000 
#    y 0.000000 5.295650 0.000000 
#    z 0.000000 0.000000 4.437110 
# 
# 
# High freq. dielectric constant tensor:
#      x y z
#    x 2.109450 0.000000 0.000000 
#    y 0.000000 2.097410 0.000000 
#    z 0.000000 0.000000 2.080340 
# 
# From -- ./inp_files/2423.got.cif
#   From: 2010.03.12/outbox.cif.g09.slc.cpg/sg54_2_cif.got.tgz:2423.got - 2010.04.16 15:00:50.
