data_PCOD8224312
_publ_section_title
;
Structure prediction by ZEFSAII (Michael W. Deem and Ramdas Pophale) SiO2 
 PCOD8224312
Probable space group: P B A M
;
_chemical_formula_sum "Si O2"
_cell_formula_units_Z 40
_cell_length_a 13.377381
_cell_length_b 21.614980
_cell_length_c 8.028452
_cell_angle_alpha 90.000000
_cell_angle_beta 90.000000
_cell_angle_gamma 90.000000
_cell_volume 2321.441530
_symmetry_space_group_name_H-M "P B A M"
_symmetry_group_IT_number 55
_symmetry_cell_setting 'orthorhombic'
loop_
_space_group_symop_operation_xyz
x,y,z
-x,-y,z
1/2+x,1/2-y,-z
1/2-x,1/2+y,-z
-x,-y,-z
x,y,-z
1/2-x,1/2+y,z
1/2+x,1/2-y,z
loop_
_atom_site_type_symbol
_atom_site_label
_atom_site_fract_x
_atom_site_fract_y
_atom_site_fract_z
Si Si1 0.374885 0.289592 0.810088
Si Si2 0.087689 0.215938 0.312613
Si Si3 0.378042 0.066816 0.000000
Si Si4 0.223149 0.666798 0.183132
Si Si5 0.314760 0.846105 0.691212
Si Si6 0.886056 0.574759 0.000000
O O1 0.491844 0.304597 0.792715
O O2 0.355636 0.218353 0.751474
O O3 0.304801 0.334948 0.701458
O O4 0.344446 0.300724 0.000000
O O5 0.050321 0.217902 0.500000
O O6 0.176813 0.165220 0.295019
O O7 0.129415 0.282741 0.257527
O O8 0.331816 0.100001 0.833367
O O9 0.495283 0.078073 0.000000
O O10 0.347716 0.995696 0.000000
O O11 0.260030 0.688332 0.000000
O O12 0.340261 0.866550 0.500000
O O13 0.346767 0.896469 0.827526
#
# Coordination Sequence:
#
# PCOD8224312 Si02
#       6
#     8   8   4   8   8   4
#     4  10  17  29  53  81 105 139 168 205 264 314
#     4  10  19  29  49  80 111 137 165 209 262 316
#     4   9  20  35  55  77  97 133 185 216 248 317
#     4   8  17  32  48  71 101 134 168 209 250 305
#     4  10  21  34  51  80 111 137 173 213 256 314
#     4  11  20  37  57  75 101 141 177 216 264 293
#
# _framework density 17.230674
#
# number of rings (size 3 to 8) (size 9 to 14) (size 15 to 20)
#    0.600    1.800    1.000    2.400    2.800    0.800 
#    0.000    4.000    0.000    2.400    0.000    2.800 
#    0.000    0.000    0.000    0.000    0.000    0.000 
#
# Total GULP energy -495609.151983 kJ/mol
# GULP energy per Si atom -12390.228800 kJ/mol
# Density = 1.719146 g / cm^3
# Si number density = 17.230674 Si / 1000 Ang^3
#
#
#
# Elastic Constant Matrix: (Units=GPa)
#
#
# Indices 1 2 3 4 5 6 
#
# 1 106.4033 42.1567 27.0227 0.0000 0.0000 0.0000
# 2 42.1567 100.8153 40.1472 0.0000 0.0000 0.0000
# 3 27.0227 40.1472 76.9198 0.0000 0.0000 0.0000
# 4 0.0000 0.0000 0.0000 14.4882 0.0000 0.0000
# 5 0.0000 0.0000 0.0000 0.0000 21.5285 0.0000
# 6 0.0000 0.0000 0.0000 0.0000 0.0000 21.4211
#
#
#
# Elastic Compliance Matrix: (Units=1/GPa)
#
#
# Indices 1 2 3 4 5 6 
#
# 1 0.011487 -0.004035 -0.001929 0.000000 0.000000 0.000000
# 2 -0.004035 0.013939 -0.005858 0.000000 0.000000 0.000000
# 3 -0.001929 -0.005858 0.016736 0.000000 0.000000 0.000000
# 4 0.000000 0.000000 0.000000 0.069022 0.000000 0.000000
# 5 0.000000 0.000000 0.000000 0.000000 0.046450 0.000000
# 6 0.000000 0.000000 0.000000 0.000000 0.000000 0.046683
#
#
# Mechanical properties :
#
#
# Convention : Reuss Voigt Hill
#
# Bulk Modulus (GPa) = 54.00352 55.86575 54.93463
# Shear Modulus (GPa) = 21.35537 23.14169 22.24853
#
# Velocity S-wave (km/s) = 3.52430 3.66874 3.59725
# Velocity P-wave (km/s) = 6.92607 7.10203 7.01461
#
# Compressibility (1/GPa) = 0.01851731
#
# Stress axis : x y z
#
# Youngs Moduli (GPa) = 87.05600 71.74064 59.75224
#
# Poissons Ratio (x) = 0.28947 0.11529
# Poissons Ratio (y) = 0.35127 0.35002
# Poissons Ratio (z) = 0.16797 0.42024
#
# Static dielectric constant tensor:
#      x y z
#    x 3.149280 0.000000 0.000000 
#    y 0.000000 2.899870 0.000000 
#    z 0.000000 0.000000 3.134630 
# 
# 
# High freq. dielectric constant tensor:
#      x y z
#    x 1.673320 0.000000 0.000000 
#    y 0.000000 1.617170 0.000000 
#    z 0.000000 0.000000 1.661360 
# 
# From -- ./inp_files/3866.got.cif
#   From: 2010.03.12/outbox.cif.g09.slc.cpg/sg55_2_cif.got.tgz:3866.got - 2010.04.16 15:19:21.
