data_PCOD8224165
_publ_section_title
;
Structure prediction by ZEFSAII (Michael W. Deem and Ramdas Pophale) SiO2 
 PCOD8224165
Probable space group: P C C A
;
_chemical_formula_sum "Si O2"
_cell_formula_units_Z 24
_cell_length_a 4.824937
_cell_length_b 16.958974
_cell_length_c 12.470167
_cell_angle_alpha 90.000000
_cell_angle_beta 90.000000
_cell_angle_gamma 90.000000
_cell_volume 1020.383650
_symmetry_space_group_name_H-M "P C C A"
_symmetry_group_IT_number 54
_symmetry_cell_setting 'orthorhombic'
loop_
_space_group_symop_operation_xyz
x,y,z
1/2-x,-y,z
1/2+x,-y,1/2-z
-x,y,1/2-z
-x,-y,-z
1/2+x,y,-z
1/2-x,y,1/2+z
x,-y,1/2+z
loop_
_atom_site_type_symbol
_atom_site_label
_atom_site_fract_x
_atom_site_fract_y
_atom_site_fract_z
Si Si1 0.250000 0.500000 0.178504
Si Si2 0.200201 0.660799 0.069633
Si Si3 0.750000 0.000000 0.418361
Si Si4 0.000000 0.777180 0.250000
Si Si5 0.000000 0.120070 0.250000
O O1 0.500000 0.533529 0.250000
O O2 0.137502 0.572258 0.108630
O O3 0.132177 0.724565 0.158190
O O4 0.518613 0.673135 0.037340
O O5 0.827812 0.071920 0.339686
O O6 0.500000 0.000000 0.500000
O O7 0.252201 0.828092 0.301840
#
# Coordination Sequence:
#
# PCOD8224165 Si02
#       5
#     4   8   4   4   4
#     4  12  24  44  74  98 140 194 248 306 358 412
#     4  12  26  45  70 104 141 194 247 297 361 423
#     4  12  26  48  80 110 142 190 240 288 358 438
#     4  12  27  46  71 106 154 188 234 302 365 430
#     4  12  27  48  75 112 148 188 236 300 355 438
#
# _framework density 23.520567
#
# number of rings (size 3 to 8) (size 9 to 14) (size 15 to 20)
#    0.000    0.000    1.667    9.000    2.333    8.000 
#    0.000    0.000    0.000    0.000    0.000    0.000 
#    0.000    0.000    0.000    0.000    0.000    0.000 
#
# Total GULP energy -297480.642126 kJ/mol
# GULP energy per Si atom -12395.026755 kJ/mol
# Density = 2.346703 g / cm^3
# Si number density = 23.520567 Si / 1000 Ang^3
#
#
#
# Elastic Constant Matrix: (Units=GPa)
#
#
# Indices 1 2 3 4 5 6 
#
# 1 158.3090 59.2983 47.9856 0.0000 0.0000 0.0000
# 2 59.2983 142.6659 56.9726 0.0000 0.0000 0.0000
# 3 47.9856 56.9726 115.8135 0.0000 0.0000 0.0000
# 4 0.0000 0.0000 0.0000 35.4611 0.0000 0.0000
# 5 0.0000 0.0000 0.0000 0.0000 51.7283 0.0000
# 6 0.0000 0.0000 0.0000 0.0000 0.0000 48.5664
#
#
#
# Elastic Compliance Matrix: (Units=1/GPa)
#
#
# Indices 1 2 3 4 5 6 
#
# 1 0.007855 -0.002445 -0.002051 0.000000 0.000000 0.000000
# 2 -0.002445 0.009484 -0.003652 0.000000 0.000000 0.000000
# 3 -0.002051 -0.003652 0.011281 0.000000 0.000000 0.000000
# 4 0.000000 0.000000 0.000000 0.028200 0.000000 0.000000
# 5 0.000000 0.000000 0.000000 0.000000 0.019332 0.000000
# 6 0.000000 0.000000 0.000000 0.000000 0.000000 0.020590
#
#
# Mechanical properties :
#
#
# Convention : Reuss Voigt Hill
#
# Bulk Modulus (GPa) = 81.15832 82.81127 81.98480
# Shear Modulus (GPa) = 42.68095 43.98662 43.33379
#
# Velocity S-wave (km/s) = 4.26446 4.32920 4.29695
# Velocity P-wave (km/s) = 7.66992 7.76362 7.71691
#
# Compressibility (1/GPa) = 0.01232160
#
# Stress axis : x y z
#
# Youngs Moduli (GPa) = 127.31414 105.43608 88.64215
#
# Poissons Ratio (x) = 0.25784 0.18184
# Poissons Ratio (y) = 0.31135 0.32376
# Poissons Ratio (z) = 0.26117 0.38510
#
# Static dielectric constant tensor:
#      x y z
#    x 4.661670 0.000000 0.000000 
#    y 0.000000 4.352130 0.000000 
#    z 0.000000 0.000000 3.997200 
# 
# 
# High freq. dielectric constant tensor:
#      x y z
#    x 1.962120 0.000000 0.000000 
#    y 0.000000 1.936970 0.000000 
#    z 0.000000 0.000000 1.930580 
# 
# From -- ./inp_files/6205.got.cif
#   From: 2010.03.12/outbox.cif.g09.slc.cpg/sg54_4_cif.got.tgz:6205.got - 2010.04.16 15:00:50.
