data_PCOD8224719
_publ_section_title
;
Structure prediction by ZEFSAII (Michael W. Deem and Ramdas Pophale) SiO2 
 PCOD8224719
Probable space group: P B A M
;
_chemical_formula_sum "Si O2"
_cell_formula_units_Z 64
_cell_length_a 23.978013
_cell_length_b 15.486584
_cell_length_c 8.809375
_cell_angle_alpha 90.000000
_cell_angle_beta 90.000000
_cell_angle_gamma 90.000000
_cell_volume 3271.251399
_symmetry_space_group_name_H-M "P B A M"
_symmetry_group_IT_number 55
_symmetry_cell_setting 'orthorhombic'
loop_
_space_group_symop_operation_xyz
x,y,z
-x,-y,z
1/2+x,1/2-y,-z
1/2-x,1/2+y,-z
-x,-y,-z
x,y,-z
1/2-x,1/2+y,z
1/2+x,1/2-y,z
loop_
_atom_site_type_symbol
_atom_site_label
_atom_site_fract_x
_atom_site_fract_y
_atom_site_fract_z
Si Si1 0.751026 0.902906 0.177586
Si Si2 0.639717 0.845381 0.676534
Si Si3 0.133337 0.340036 0.321399
Si Si4 0.628896 0.650891 0.673170
Si Si5 0.562478 0.001759 0.319357
Si Si6 0.563467 0.500958 0.178034
Si Si7 0.749722 0.085612 0.324022
Si Si8 0.364830 0.649727 0.679532
O O1 0.695125 0.853816 0.224845
O O2 0.801961 0.861447 0.266941
O O3 0.746824 0.003007 0.217766
O O4 0.761390 0.892064 0.000000
O O5 0.655238 0.859255 0.500000
O O6 0.613631 0.750641 0.703383
O O7 0.594498 0.915259 0.732259
O O8 0.126656 0.345784 0.500000
O O9 0.094118 0.414515 0.249756
O O10 0.197915 0.354258 0.277282
O O11 0.114687 0.244814 0.266077
O O12 0.616076 0.624604 0.500000
O O13 0.591165 0.591997 0.780165
O O14 0.694115 0.638127 0.709233
O O15 0.560716 0.006516 0.500000
O O16 0.500000 0.000000 0.252276
O O17 0.500000 0.500000 0.235600
O O18 0.594866 0.421852 0.254143
O O19 0.567389 0.487755 0.000000
O O20 0.745821 0.056549 0.500000
O O21 0.365742 0.641104 0.500000
#
# Coordination Sequence:
#
# PCOD8224719 Si02
#       8
#     8   8   8   8   8   8   8   8
#     4  12  23  35  56  87 120 155 192 235 294 357
#     4  10  20  37  61  87 118 154 194 240 290 349
#     4   9  18  33  57  88 118 149 186 234 292 345
#     4  10  21  36  61  91 113 148 198 247 295 343
#     4   9  17  31  55  87 118 147 185 237 288 332
#     4  11  25  43  60  82 118 161 199 241 296 354
#     4  10  18  34  58  84 116 150 187 238 295 349
#     4  11  22  38  62  88 115 151 197 248 294 345
#
# _framework density 19.564377
#
# number of rings (size 3 to 8) (size 9 to 14) (size 15 to 20)
#    0.000    1.750    2.500    2.625    0.000    4.500 
#    0.000    5.000    0.000    0.375    0.000    0.000 
#    0.000    0.000    0.000    0.000    0.000    0.000 
#
# Total GULP energy -793680.872969 kJ/mol
# GULP energy per Si atom -12401.263640 kJ/mol
# Density = 1.951985 g / cm^3
# Si number density = 19.564377 Si / 1000 Ang^3
#
#
#
# Elastic Constant Matrix: (Units=GPa)
#
#
# Indices 1 2 3 4 5 6 
#
# 1 148.9337 69.1651 27.7304 0.0000 0.0000 0.0000
# 2 69.1651 158.9917 27.3356 0.0000 0.0000 0.0000
# 3 27.7304 27.3356 30.4487 0.0000 0.0000 0.0000
# 4 0.0000 0.0000 0.0000 8.7593 0.0000 0.0000
# 5 0.0000 0.0000 0.0000 0.0000 22.2780 0.0000
# 6 0.0000 0.0000 0.0000 0.0000 0.0000 6.4016
#
#
#
# Elastic Compliance Matrix: (Units=1/GPa)
#
#
# Indices 1 2 3 4 5 6 
#
# 1 0.009166 -0.003018 -0.005638 0.000000 0.000000 0.000000
# 2 -0.003018 0.008431 -0.004821 0.000000 0.000000 0.000000
# 3 -0.005638 -0.004821 0.042305 0.000000 0.000000 0.000000
# 4 0.000000 0.000000 0.000000 0.114165 0.000000 0.000000
# 5 0.000000 0.000000 0.000000 0.000000 0.044887 0.000000
# 6 0.000000 0.000000 0.000000 0.000000 0.000000 0.156211
#
#
# Mechanical properties :
#
#
# Convention : Reuss Voigt Hill
#
# Bulk Modulus (GPa) = 30.35069 65.20402 47.77736
# Shear Modulus (GPa) = 12.10359 21.76399 16.93379
#
# Velocity S-wave (km/s) = 2.48997 3.33893 2.94520
# Velocity P-wave (km/s) = 4.87991 6.94729 6.00327
#
# Compressibility (1/GPa) = 0.03294818
#
# Stress axis : x y z
#
# Youngs Moduli (GPa) = 109.10247 118.60491 23.63804
#
# Poissons Ratio (x) = 0.35794 0.13327
# Poissons Ratio (y) = 0.32926 0.11395
# Poissons Ratio (z) = 0.61512 0.57177
#
# Static dielectric constant tensor:
#      x y z
#    x 3.741870 0.000000 0.000000 
#    y 0.000000 3.848520 0.000000 
#    z 0.000000 0.000000 3.265160 
# 
# 
# High freq. dielectric constant tensor:
#      x y z
#    x 1.762150 0.000000 0.000000 
#    y 0.000000 1.778470 0.000000 
#    z 0.000000 0.000000 1.728500 
# 
# From -- ./inp_files/9761.got.cif
#   From: 2010.03.12/outbox.cif.g09.slc.cpg/sg55_5_cif.got.tgz:9761.got - 2010.04.16 15:19:21.
