data_PCOD8224186
_publ_section_title
;
Structure prediction by ZEFSAII (Michael W. Deem and Ramdas Pophale) SiO2 
 PCOD8224186
Probable space group: P C C A
;
_chemical_formula_sum "Si O2"
_cell_formula_units_Z 40
_cell_length_a 21.556505
_cell_length_b 9.328343
_cell_length_c 8.320920
_cell_angle_alpha 90.000000
_cell_angle_beta 90.000000
_cell_angle_gamma 90.000000
_cell_volume 1673.224451
_symmetry_space_group_name_H-M "P C C A"
_symmetry_group_IT_number 54
_symmetry_cell_setting 'orthorhombic'
loop_
_space_group_symop_operation_xyz
x,y,z
1/2-x,-y,z
1/2+x,-y,1/2-z
-x,y,1/2-z
-x,-y,-z
1/2+x,y,-z
1/2-x,y,1/2+z
x,-y,1/2+z
loop_
_atom_site_type_symbol
_atom_site_label
_atom_site_fract_x
_atom_site_fract_y
_atom_site_fract_z
Si Si1 0.999330 0.162058 0.559713
Si Si2 0.678980 0.454759 0.715086
Si Si3 0.679976 0.048247 0.216387
Si Si4 0.368056 0.200261 0.966658
Si Si5 0.869802 0.702006 0.028789
O O1 0.940495 0.251499 0.497203
O O2 0.000000 0.161579 0.750000
O O3 0.060149 0.241491 0.491584
O O4 0.000000 0.000000 0.500000
O O5 0.750000 0.500000 0.728466
O O6 0.671026 0.343955 0.566655
O O7 0.636170 0.593718 0.680895
O O8 0.657207 0.377327 0.875259
O O9 0.659531 0.122079 0.379273
O O10 0.671398 0.157921 0.067593
O O11 0.750000 0.000000 0.226161
O O12 0.637299 0.908691 0.184821
#
# Coordination Sequence:
#
# PCOD8224186 Si02
#       5
#     8   8   8   8   8
#     4  12  26  50  81 114 156 197 263 325 387 467
#     4  12  29  52  76 111 159 205 257 321 393 470
#     4  12  25  45  76 114 150 202 263 319 385 466
#     4  12  25  48  78 112 156 203 257 323 390 457
#     4  12  27  50  79 110 155 207 256 324 392 464
#
# _framework density 23.905937000000002
#
# number of rings (size 3 to 8) (size 9 to 14) (size 15 to 20)
#    0.000    0.000    4.000    4.800    2.800    4.000 
#    0.000    2.000    0.000    0.000    0.000    0.000 
#    0.000    0.000    0.000    0.000    0.000    0.000 
#
# Total GULP energy -496235.420749 kJ/mol
# GULP energy per Si atom -12405.885519 kJ/mol
# Density = 2.385153 g / cm^3
# Si number density = 23.905937 Si / 1000 Ang^3
#
#
#
# Elastic Constant Matrix: (Units=GPa)
#
#
# Indices 1 2 3 4 5 6 
#
# 1 233.3658 94.3886 80.7294 0.0000 0.0000 0.0000
# 2 94.3886 137.3079 20.4833 0.0000 0.0000 0.0000
# 3 80.7294 20.4833 64.8244 0.0000 0.0000 0.0000
# 4 0.0000 0.0000 0.0000 45.9452 0.0000 0.0000
# 5 0.0000 0.0000 0.0000 0.0000 34.8006 0.0000
# 6 0.0000 0.0000 0.0000 0.0000 0.0000 55.7442
#
#
#
# Elastic Compliance Matrix: (Units=1/GPa)
#
#
# Indices 1 2 3 4 5 6 
#
# 1 0.010356 -0.005452 -0.011174 0.000000 0.000000 0.000000
# 2 -0.005452 0.010513 0.003467 0.000000 0.000000 0.000000
# 3 -0.011174 0.003467 0.028246 0.000000 0.000000 0.000000
# 4 0.000000 0.000000 0.000000 0.021765 0.000000 0.000000
# 5 0.000000 0.000000 0.000000 0.000000 0.028735 0.000000
# 6 0.000000 0.000000 0.000000 0.000000 0.000000 0.017939
#
#
# Mechanical properties :
#
#
# Convention : Reuss Voigt Hill
#
# Bulk Modulus (GPa) = 43.86242 91.85566 67.85904
# Shear Modulus (GPa) = 33.00993 43.29112 38.15052
#
# Velocity S-wave (km/s) = 3.71998 4.26008 3.99916
# Velocity P-wave (km/s) = 6.06949 7.91864 7.05491
#
# Compressibility (1/GPa) = 0.02279856
#
# Stress axis : x y z
#
# Youngs Moduli (GPa) = 96.56676 95.11752 35.40347
#
# Poissons Ratio (x) = 0.51856 0.39559
# Poissons Ratio (y) = 0.52646 -0.12276
# Poissons Ratio (z) = 1.07900 -0.32981
#
# Static dielectric constant tensor:
#      x y z
#    x 6.063570 0.000000 0.000000 
#    y 0.000000 4.854930 0.000000 
#    z 0.000000 0.000000 4.547730 
# 
# 
# High freq. dielectric constant tensor:
#      x y z
#    x 1.950840 0.000000 0.000000 
#    y 0.000000 1.964860 0.000000 
#    z 0.000000 0.000000 1.964860 
# 
# From -- ./inp_files/5005.got.cif
#   From: 2010.03.12/outbox.cif.g09.slc.cpg/sg54_3_cif.got.tgz:5005.got - 2010.04.16 15:00:50.
