data_PCOD8224519
_publ_section_title
;
Structure prediction by ZEFSAII (Michael W. Deem and Ramdas Pophale) SiO2 
 PCOD8224519
Probable space group: P B A M
;
_chemical_formula_sum "Si O2"
_cell_formula_units_Z 48
_cell_length_a 12.167368
_cell_length_b 18.731112
_cell_length_c 13.155947
_cell_angle_alpha 90.000000
_cell_angle_beta 90.000000
_cell_angle_gamma 90.000000
_cell_volume 2998.349947
_symmetry_space_group_name_H-M "P B A M"
_symmetry_group_IT_number 55
_symmetry_cell_setting 'orthorhombic'
loop_
_space_group_symop_operation_xyz
x,y,z
-x,-y,z
1/2+x,1/2-y,-z
1/2-x,1/2+y,-z
-x,-y,-z
x,y,-z
1/2-x,1/2+y,z
1/2+x,1/2-y,z
loop_
_atom_site_type_symbol
_atom_site_label
_atom_site_fract_x
_atom_site_fract_y
_atom_site_fract_z
Si Si1 0.878294 0.185727 0.881524
Si Si2 0.446442 0.156286 0.882956
Si Si3 0.171229 0.389461 0.198487
Si Si4 0.213505 0.545469 0.788649
Si Si5 0.876830 0.529110 0.385571
Si Si6 0.561543 0.428167 0.117608
O O1 0.906621 0.265758 0.848836
O O2 0.778670 0.159462 0.811372
O O3 0.985674 0.139030 0.858407
O O4 0.845298 0.179108 0.000000
O O5 0.576127 0.148758 0.865202
O O6 0.384557 0.097283 0.818419
O O7 0.418560 0.144024 0.000000
O O8 0.197472 0.468952 0.153442
O O9 0.134722 0.398431 0.317468
O O10 0.201892 0.530889 0.667055
O O11 0.329764 0.580647 0.814720
O O12 0.836785 0.544560 0.500000
O O13 0.000000 0.500000 0.383890
O O14 0.500000 0.500000 0.150221
O O15 0.596860 0.430949 0.000000
#
# Coordination Sequence:
#
# PCOD8224519 Si02
#       6
#     8   8   8   8   8   8
#     4  10  22  34  48  74 112 153 174 201 252 312
#     4  11  22  32  47  77 111 141 171 210 259 306
#     4  10  19  36  53  76 101 137 179 218 258 302
#     4  10  19  33  53  80  96 131 175 221 259 301
#     4   9  17  34  57  80 100 123 172 227 276 312
#     4  10  18  31  49  72 104 143 179 202 241 307
#
# _framework density 16.008804999999999
#
# number of rings (size 3 to 8) (size 9 to 14) (size 15 to 20)
#    1.000    1.000    3.333    1.500    2.333    2.667 
#    0.000    0.000    0.000    6.500    0.000    0.000 
#    0.000    0.000    0.000    0.000    0.000    0.000 
#
# Total GULP energy -594971.970328 kJ/mol
# GULP energy per Si atom -12395.249382 kJ/mol
# Density = 1.597237 g / cm^3
# Si number density = 16.008805 Si / 1000 Ang^3
#
#
#
# Elastic Constant Matrix: (Units=GPa)
#
#
# Indices 1 2 3 4 5 6 
#
# 1 96.0692 30.4519 29.3765 0.0000 0.0000 0.0000
# 2 30.4519 93.1876 23.2269 0.0000 0.0000 0.0000
# 3 29.3765 23.2269 63.0026 0.0000 0.0000 0.0000
# 4 0.0000 0.0000 0.0000 9.7145 0.0000 0.0000
# 5 0.0000 0.0000 0.0000 0.0000 19.8071 0.0000
# 6 0.0000 0.0000 0.0000 0.0000 0.0000 24.4459
#
#
#
# Elastic Compliance Matrix: (Units=1/GPa)
#
#
# Indices 1 2 3 4 5 6 
#
# 1 0.012850 -0.002979 -0.004893 0.000000 0.000000 0.000000
# 2 -0.002979 0.012508 -0.003222 0.000000 0.000000 0.000000
# 3 -0.004893 -0.003222 0.019342 0.000000 0.000000 0.000000
# 4 0.000000 0.000000 0.000000 0.102939 0.000000 0.000000
# 5 0.000000 0.000000 0.000000 0.000000 0.050487 0.000000
# 6 0.000000 0.000000 0.000000 0.000000 0.000000 0.040907
#
#
# Mechanical properties :
#
#
# Convention : Reuss Voigt Hill
#
# Bulk Modulus (GPa) = 44.42420 46.48555 45.45488
# Shear Modulus (GPa) = 18.60642 22.07376 20.34009
#
# Velocity S-wave (km/s) = 3.41289 3.71732 3.56835
# Velocity P-wave (km/s) = 6.58336 6.89385 6.74039
#
# Compressibility (1/GPa) = 0.02251025
#
# Stress axis : x y z
#
# Youngs Moduli (GPa) = 77.82194 79.95055 51.70173
#
# Poissons Ratio (x) = 0.23821 0.25298
# Poissons Ratio (y) = 0.23187 0.16658
# Poissons Ratio (z) = 0.38079 0.25759
#
# Static dielectric constant tensor:
#      x y z
#    x 3.001980 0.000000 0.000000 
#    y 0.000000 2.993490 0.000000 
#    z 0.000000 0.000000 2.838660 
# 
# 
# High freq. dielectric constant tensor:
#      x y z
#    x 1.623290 0.000000 0.000000 
#    y 0.000000 1.611160 0.000000 
#    z 0.000000 0.000000 1.579950 
# 
# From -- ./inp_files/18452.got.cif
#   From: 2010.03.12/outbox.cif.g09.slc.cpg/sg55_10_cif.got.tgz:18452.got - 2010.04.16 15:19:21.
