data_PCOD8224870
_publ_section_title
;
Structure prediction by ZEFSAII (Michael W. Deem and Ramdas Pophale) SiO2 
 PCOD8224870
Probable space group: P B A M
;
_chemical_formula_sum "Si O2"
_cell_formula_units_Z 64
_cell_length_a 14.253748
_cell_length_b 30.314168
_cell_length_c 9.196028
_cell_angle_alpha 90.000000
_cell_angle_beta 90.000000
_cell_angle_gamma 90.000000
_cell_volume 3973.516442
_symmetry_space_group_name_H-M "P B A M"
_symmetry_group_IT_number 55
_symmetry_cell_setting 'orthorhombic'
loop_
_space_group_symop_operation_xyz
x,y,z
-x,-y,z
1/2+x,1/2-y,-z
1/2-x,1/2+y,-z
-x,-y,-z
x,y,-z
1/2-x,1/2+y,z
1/2+x,1/2-y,z
loop_
_atom_site_type_symbol
_atom_site_label
_atom_site_fract_x
_atom_site_fract_y
_atom_site_fract_z
Si Si1 0.208682 0.132348 0.334357
Si Si2 0.234766 0.285335 0.170890
Si Si3 0.016111 0.179035 0.666334
Si Si4 0.330223 0.196275 0.166683
Si Si5 0.526121 0.233006 0.833480
Si Si6 0.143192 0.866574 0.173090
Si Si7 0.106959 0.949648 0.328839
Si Si8 0.106259 0.047689 0.671097
O O1 0.241051 0.125982 0.500000
O O2 0.296232 0.152271 0.247523
O O3 0.175824 0.085296 0.265374
O O4 0.124940 0.167374 0.321627
O O5 0.283143 0.240868 0.234028
O O6 0.284308 0.329461 0.231764
O O7 0.125168 0.288203 0.213307
O O8 0.250852 0.284844 0.000000
O O9 0.981161 0.176837 0.500000
O O10 0.999631 0.227397 0.728247
O O11 0.958899 0.144501 0.763139
O O12 0.443087 0.197397 0.182783
O O13 0.299191 0.191942 0.000000
O O14 0.531279 0.250473 0.000000
O O15 0.170008 0.914411 0.239907
O O16 0.140606 0.869340 0.000000
O O17 0.113967 0.939726 0.500000
O O18 0.999747 0.946846 0.271067
O O19 0.145599 0.998855 0.293383
O O20 0.099545 0.055489 0.500000
#
# Coordination Sequence:
#
# PCOD8224870 Si02
#       8
#     8   8   8   8   8   8   8   8
#     4  10  19  31  46  68  94 124 156 187 225 272
#     4   9  18  31  47  66  90 123 157 186 226 274
#     4  11  20  29  45  68  94 123 158 191 225 266
#     4  10  19  31  48  68  89 121 157 189 228 272
#     4  10  19  34  49  63  91 125 158 191 228 274
#     4  11  20  31  46  68  96 127 157 189 228 272
#     4   9  16  30  49  68  91 122 155 188 225 279
#     4   8  15  29  48  66  92 125 153 182 229 282
#
# _framework density 16.106639999999999
#
# number of rings (size 3 to 8) (size 9 to 14) (size 15 to 20)
#    0.000    2.250    3.750    1.500    0.000    1.000 
#    0.000    3.125    0.000    0.000    0.000    0.875 
#    0.000    7.000    0.000    0.000    0.000    0.000 
#
# Total GULP energy -793324.209541 kJ/mol
# GULP energy per Si atom -12395.690774 kJ/mol
# Density = 1.606998 g / cm^3
# Si number density = 16.106640 Si / 1000 Ang^3
#
#
#
# Elastic Constant Matrix: (Units=GPa)
#
#
# Indices 1 2 3 4 5 6 
#
# 1 63.9972 25.4738 18.1848 0.0000 0.0000 0.0000
# 2 25.4738 103.8483 32.3071 0.0000 0.0000 0.0000
# 3 18.1848 32.3071 49.4821 0.0000 0.0000 0.0000
# 4 0.0000 0.0000 0.0000 25.0832 0.0000 0.0000
# 5 0.0000 0.0000 0.0000 0.0000 17.0673 0.0000
# 6 0.0000 0.0000 0.0000 0.0000 0.0000 26.2678
#
#
#
# Elastic Compliance Matrix: (Units=1/GPa)
#
#
# Indices 1 2 3 4 5 6 
#
# 1 0.018156 -0.002984 -0.004724 0.000000 0.000000 0.000000
# 2 -0.002984 0.012574 -0.007113 0.000000 0.000000 0.000000
# 3 -0.004724 -0.007113 0.026590 0.000000 0.000000 0.000000
# 4 0.000000 0.000000 0.000000 0.039867 0.000000 0.000000
# 5 0.000000 0.000000 0.000000 0.000000 0.058592 0.000000
# 6 0.000000 0.000000 0.000000 0.000000 0.000000 0.038069
#
#
# Mechanical properties :
#
#
# Convention : Reuss Voigt Hill
#
# Bulk Modulus (GPa) = 36.13067 41.02879 38.57973
# Shear Modulus (GPa) = 21.48538 23.10778 22.29658
#
# Velocity S-wave (km/s) = 3.65628 3.79182 3.72467
# Velocity P-wave (km/s) = 6.34865 6.68573 6.51937
#
# Compressibility (1/GPa) = 0.02767732
#
# Stress axis : x y z
#
# Youngs Moduli (GPa) = 55.07893 79.52734 37.60858
#
# Poissons Ratio (x) = 0.23730 0.17767
# Poissons Ratio (y) = 0.16435 0.26752
# Poissons Ratio (z) = 0.26020 0.56569
#
# Static dielectric constant tensor:
#      x y z
#    x 2.925130 0.000000 0.000000 
#    y 0.000000 3.234470 0.000000 
#    z 0.000000 0.000000 2.862790 
# 
# 
# High freq. dielectric constant tensor:
#      x y z
#    x 1.589210 0.000000 0.000000 
#    y 0.000000 1.615820 0.000000 
#    z 0.000000 0.000000 1.599470 
# 
# From -- ./inp_files/6906.got.cif
#   From: 2010.03.12/outbox.cif.g09.slc.cpg/sg55_4_cif.got.tgz:6906.got - 2010.04.16 15:19:21.
