data_PCOD8224114
_publ_section_title
;
Structure prediction by ZEFSAII (Michael W. Deem and Ramdas Pophale) SiO2 
 PCOD8224114
Probable space group: P C C A
;
_chemical_formula_sum "Si O2"
_cell_formula_units_Z 32
_cell_length_a 9.223136
_cell_length_b 12.471156
_cell_length_c 12.028147
_cell_angle_alpha 90.000000
_cell_angle_beta 90.000000
_cell_angle_gamma 90.000000
_cell_volume 1383.515571
_symmetry_space_group_name_H-M "P C C A"
_symmetry_group_IT_number 54
_symmetry_cell_setting 'orthorhombic'
loop_
_space_group_symop_operation_xyz
x,y,z
1/2-x,-y,z
1/2+x,-y,1/2-z
-x,y,1/2-z
-x,-y,-z
1/2+x,y,-z
1/2-x,y,1/2+z
x,-y,1/2+z
loop_
_atom_site_type_symbol
_atom_site_label
_atom_site_fract_x
_atom_site_fract_y
_atom_site_fract_z
Si Si1 0.824304 0.691338 0.937284
Si Si2 0.561083 0.165585 0.450061
Si Si3 0.250000 0.500000 0.903430
Si Si4 0.500000 0.426312 0.750000
Si Si5 0.904765 0.975038 0.658934
O O1 0.697194 0.771647 0.897329
O O2 0.895104 0.645159 0.825881
O O3 0.752500 0.602407 0.016539
O O4 0.942086 0.751029 0.010542
O O5 0.622901 0.096336 0.551847
O O6 0.492573 0.084997 0.361812
O O7 0.395631 0.498535 0.827844
O O8 0.000000 0.910125 0.750000
O O9 0.750000 0.000000 0.712758
#
# Coordination Sequence:
#
# PCOD8224114 Si02
#       5
#     8   8   4   4   8
#     4  12  26  49  71 105 146 191 242 301 356 434
#     4  11  26  46  72  98 145 187 235 299 358 420
#     4  12  28  48  72 110 148 184 244 308 354 438
#     4  12  28  46  78 106 144 198 242 294 378 428
#     4  11  26  44  69 106 142 185 239 295 360 435
#
# _framework density 23.129483
#
# number of rings (size 3 to 8) (size 9 to 14) (size 15 to 20)
#    0.000    0.500    5.000    1.500    8.750    2.000 
#    0.000    0.000    0.000    0.000    0.000    0.000 
#    0.000    0.000    0.000    0.000    0.000    0.000 
#
# Total GULP energy -396912.944202 kJ/mol
# GULP energy per Si atom -12403.529506 kJ/mol
# Density = 2.307684 g / cm^3
# Si number density = 23.129483 Si / 1000 Ang^3
#
#
#
# Elastic Constant Matrix: (Units=GPa)
#
#
# Indices 1 2 3 4 5 6 
#
# 1 164.1577 41.8500 41.2187 0.0000 0.0000 0.0000
# 2 41.8500 90.4922 22.7149 0.0000 0.0000 0.0000
# 3 41.2187 22.7149 92.7835 0.0000 0.0000 0.0000
# 4 0.0000 0.0000 0.0000 34.3944 0.0000 0.0000
# 5 0.0000 0.0000 0.0000 0.0000 52.6880 0.0000
# 6 0.0000 0.0000 0.0000 0.0000 0.0000 -952.0517
#
#
#
# Elastic Compliance Matrix: (Units=1/GPa)
#
#
# Indices 1 2 3 4 5 6 
#
# 1 0.007464 -0.002791 -0.002633 0.000000 0.000000 0.000000
# 2 -0.002791 0.012818 -0.001898 0.000000 0.000000 0.000000
# 3 -0.002633 -0.001898 0.012412 0.000000 0.000000 0.000000
# 4 0.000000 0.000000 0.000000 0.029074 0.000000 0.000000
# 5 0.000000 0.000000 0.000000 0.000000 0.018980 0.000000
# 6 0.000000 0.000000 0.000000 0.000000 0.000000 -0.001050
#
#
# Mechanical properties :
#
#
# Convention : Reuss Voigt Hill
#
# Bulk Modulus (GPa) = 55.40030 62.11119 58.75574
# Shear Modulus (GPa) = 49.82127 -156.88386 -53.53130
#
# Velocity S-wave (km/s) = 4.64617 -8.24474 -4.81606
# Velocity P-wave (km/s) = 7.26545 7.98263 2.33833
#
# Compressibility (1/GPa) = 0.01805044
#
# Stress axis : x y z
#
# Youngs Moduli (GPa) = 133.97057 78.01552 80.56714
#
# Poissons Ratio (x) = 0.21776 0.21211
# Poissons Ratio (y) = 0.37394 0.15292
# Poissons Ratio (z) = 0.35270 0.14808
#
# Static dielectric constant tensor:
#      x y z
#    x 4.506040 0.000000 0.000000 
#    y 0.000000 4.254080 0.000000 
#    z 0.000000 0.000000 4.253790 
# 
# 
# High freq. dielectric constant tensor:
#      x y z
#    x 1.939680 0.000000 0.000000 
#    y 0.000000 1.913430 0.000000 
#    z 0.000000 0.000000 1.914290 
# 
# From -- ./inp_files/6808.got.cif
#   From: 2010.03.12/outbox.cif.g09.slc.cpg/sg54_4_cif.got.tgz:6808.got - 2010.04.16 15:00:50.
