data_PCOD8224673
_publ_section_title
;
Structure prediction by ZEFSAII (Michael W. Deem and Ramdas Pophale) SiO2 
 PCOD8224673
Probable space group: P B A M
;
_chemical_formula_sum "Si O2"
_cell_formula_units_Z 64
_cell_length_a 12.083990
_cell_length_b 30.924845
_cell_length_c 8.574992
_cell_angle_alpha 90.000000
_cell_angle_beta 90.000000
_cell_angle_gamma 90.000000
_cell_volume 3204.436075
_symmetry_space_group_name_H-M "P B A M"
_symmetry_group_IT_number 55
_symmetry_cell_setting 'orthorhombic'
loop_
_space_group_symop_operation_xyz
x,y,z
-x,-y,z
1/2+x,1/2-y,-z
1/2-x,1/2+y,-z
-x,-y,-z
x,y,-z
1/2-x,1/2+y,z
1/2+x,1/2-y,z
loop_
_atom_site_type_symbol
_atom_site_label
_atom_site_fract_x
_atom_site_fract_y
_atom_site_fract_z
Si Si1 0.238415 0.325626 0.678932
Si Si2 0.474894 0.453747 0.179783
Si Si3 0.245380 0.414038 0.820944
Si Si4 0.512883 0.047943 0.184818
Si Si5 0.861265 0.374912 0.814366
Si Si6 0.483632 0.797098 0.180963
Si Si7 0.974461 0.205620 0.680489
Si Si8 0.389572 0.627477 0.815252
O O1 0.203131 0.317820 0.500000
O O2 0.272828 0.374994 0.705785
O O3 0.345355 0.297580 0.725248
O O4 0.139442 0.315048 0.796008
O O5 0.500000 0.500000 0.261177
O O6 0.344068 0.447884 0.197970
O O7 0.544274 0.413920 0.255405
O O8 0.511103 0.455979 0.000000
O O9 0.133229 0.436141 0.764231
O O10 0.236183 0.397811 0.000000
O O11 0.420847 0.081541 0.250247
O O12 0.500000 0.000000 0.257431
O O13 0.501830 0.045526 0.000000
O O14 0.928408 0.332560 0.756949
O O15 0.736063 0.372764 0.749360
O O16 0.863614 0.375721 0.000000
O O17 0.490923 0.754026 0.281267
O O18 0.503473 0.786635 0.000000
O O19 0.993250 0.195703 0.500000
O O20 0.050124 0.171915 0.772814
O O21 0.387494 0.624661 0.000000
#
# Coordination Sequence:
#
# PCOD8224673 Si02
#       8
#     8   8   8   8   8   8   8   8
#     4  11  23  40  61  84 115 153 194 243 293 343
#     4   9  18  30  51  86 119 147 188 245 296 340
#     4  10  18  33  57  83 112 151 198 242 291 347
#     4   9  17  29  51  84 117 147 183 234 290 339
#     4   9  19  34  53  84 117 145 183 234 285 337
#     4  11  23  40  62  87 115 147 192 241 290 347
#     4  11  25  42  59  84 117 152 193 237 290 349
#     4  10  20  36  58  84 116 153 193 237 289 345
#
# _framework density 19.972313
#
# number of rings (size 3 to 8) (size 9 to 14) (size 15 to 20)
#    0.000    2.000    2.500    1.125    3.500    1.500 
#    0.000    0.625    0.000    1.875    0.000    0.000 
#    0.000    0.000    0.000    0.000    0.000    0.000 
#
# Total GULP energy -793565.028383 kJ/mol
# GULP energy per Si atom -12399.453568 kJ/mol
# Density = 1.992686 g / cm^3
# Si number density = 19.972313 Si / 1000 Ang^3
#
#
#
# Elastic Constant Matrix: (Units=GPa)
#
#
# Indices 1 2 3 4 5 6 
#
# 1 126.4491 43.6458 20.9300 0.0000 0.0000 0.0000
# 2 43.6458 134.6097 6.9583 0.0000 0.0000 0.0000
# 3 20.9300 6.9583 14.9104 0.0000 0.0000 0.0000
# 4 0.0000 0.0000 0.0000 3.7444 0.0000 0.0000
# 5 0.0000 0.0000 0.0000 0.0000 16.6981 0.0000
# 6 0.0000 0.0000 0.0000 0.0000 0.0000 31.8486
#
#
#
# Elastic Compliance Matrix: (Units=1/GPa)
#
#
# Indices 1 2 3 4 5 6 
#
# 1 0.011321 -0.002920 -0.014529 0.000000 0.000000 0.000000
# 2 -0.002920 0.008366 0.000194 0.000000 0.000000 0.000000
# 3 -0.014529 0.000194 0.087371 0.000000 0.000000 0.000000
# 4 0.000000 0.000000 0.000000 0.267067 0.000000 0.000000
# 5 0.000000 0.000000 0.000000 0.000000 0.059887 0.000000
# 6 0.000000 0.000000 0.000000 0.000000 0.000000 0.031399
#
#
# Mechanical properties :
#
#
# Convention : Reuss Voigt Hill
#
# Bulk Modulus (GPa) = 13.78376 46.55969 30.17173
# Shear Modulus (GPa) = 9.54015 24.08722 16.81369
#
# Velocity S-wave (km/s) = 2.18793 3.47656 2.90461
# Velocity P-wave (km/s) = 3.64680 6.28316 5.13698
#
# Compressibility (1/GPa) = 0.07254913
#
# Stress axis : x y z
#
# Youngs Moduli (GPa) = 88.33217 119.53848 11.44547
#
# Poissons Ratio (x) = 0.34901 0.16629
# Poissons Ratio (y) = 0.25790 -0.00223
# Poissons Ratio (z) = 1.28336 -0.02324
#
# Static dielectric constant tensor:
#      x y z
#    x 3.852010 0.000000 0.000000 
#    y 0.000000 3.858230 0.000000 
#    z 0.000000 0.000000 3.128830 
# 
# 
# High freq. dielectric constant tensor:
#      x y z
#    x 1.793380 0.000000 0.000000 
#    y 0.000000 1.790100 0.000000 
#    z 0.000000 0.000000 1.730200 
# 
# From -- ./inp_files/4591.got.cif
#   From: 2010.03.12/outbox.cif.g09.slc.cpg/sg55_3_cif.got.tgz:4591.got - 2010.04.16 15:19:21.
