data_PCOD8224372
_publ_section_title
;
Structure prediction by ZEFSAII (Michael W. Deem and Ramdas Pophale) SiO2 
 PCOD8224372
Probable space group: P B A M
;
_chemical_formula_sum "Si O2"
_cell_formula_units_Z 64
_cell_length_a 26.315548
_cell_length_b 18.076982
_cell_length_c 9.209263
_cell_angle_alpha 90.000000
_cell_angle_beta 90.000000
_cell_angle_gamma 90.000000
_cell_volume 4380.898787
_symmetry_space_group_name_H-M "P B A M"
_symmetry_group_IT_number 55
_symmetry_cell_setting 'orthorhombic'
loop_
_space_group_symop_operation_xyz
x,y,z
-x,-y,z
1/2+x,1/2-y,-z
1/2-x,1/2+y,-z
-x,-y,-z
x,y,-z
1/2-x,1/2+y,z
1/2+x,1/2-y,z
loop_
_atom_site_type_symbol
_atom_site_label
_atom_site_fract_x
_atom_site_fract_y
_atom_site_fract_z
Si Si1 0.854225 0.667329 0.668052
Si Si2 0.060096 0.417340 0.831657
Si Si3 0.262996 0.079094 0.169059
Si Si4 0.644763 0.844676 0.666228
Si Si5 0.943518 0.413354 0.831947
Si Si6 0.789999 0.212964 0.337040
Si Si7 0.702423 0.282402 0.833175
Si Si8 0.244104 0.432737 0.336637
O O1 0.864227 0.679730 0.500000
O O2 0.904982 0.634794 0.736136
O O3 0.843258 0.748234 0.738034
O O4 0.807361 0.612348 0.698569
O O5 0.070036 0.502509 0.789523
O O6 0.002043 0.396219 0.797461
O O7 0.072625 0.404672 0.000000
O O8 0.311756 0.107323 0.256684
O O9 0.212940 0.130287 0.194149
O O10 0.248172 0.997743 0.222407
O O11 0.277897 0.076785 0.000000
O O12 0.642553 0.870813 0.500000
O O13 0.590390 0.857733 0.738476
O O14 0.656458 0.756198 0.677885
O O15 0.931792 0.399769 0.000000
O O16 0.767120 0.229524 0.500000
O O17 0.754640 0.243077 0.210171
O O18 0.792297 0.123783 0.319897
O O19 0.690144 0.265721 0.000000
O O20 0.241930 0.465102 0.500000
#
# Coordination Sequence:
#
# PCOD8224372 Si02
#       8
#     8   8   8   8   8   8   8   8
#     4  10  19  29  42  60  81 107 139 170 201 239
#     4   9  18  31  44  58  80 109 138 170 204 235
#     4  10  19  28  40  60  83 107 137 169 199 237
#     4  10  18  28  43  60  80 108 138 168 203 239
#     4   9  18  31  44  59  80 107 139 171 202 236
#     4   8  16  29  41  56  79 105 134 166 199 237
#     4   9  17  28  41  57  78 105 135 166 200 236
#     4   9  17  28  41  58  81 108 135 164 199 237
#
# _framework density 14.608874999999999
#
# number of rings (size 3 to 8) (size 9 to 14) (size 15 to 20)
#    0.000    2.750    0.000    3.750    0.000    7.500 
#    0.000    1.250    0.000    0.000    0.000    0.000 
#    0.000    1.000    0.000   11.250    0.000    5.000 
#
# Total GULP energy -793186.124451 kJ/mol
# GULP energy per Si atom -12393.533195 kJ/mol
# Density = 1.457562 g / cm^3
# Si number density = 14.608875 Si / 1000 Ang^3
#
#
#
# Elastic Constant Matrix: (Units=GPa)
#
#
# Indices 1 2 3 4 5 6 
#
# 1 73.0188 45.7167 49.5410 0.0000 0.0000 0.0000
# 2 45.7167 81.2194 51.8846 0.0000 0.0000 0.0000
# 3 49.5410 51.8846 88.8473 0.0000 0.0000 0.0000
# 4 0.0000 0.0000 0.0000 23.4463 0.0000 0.0000
# 5 0.0000 0.0000 0.0000 0.0000 22.2801 0.0000
# 6 0.0000 0.0000 0.0000 0.0000 0.0000 26.2964
#
#
#
# Elastic Compliance Matrix: (Units=1/GPa)
#
#
# Indices 1 2 3 4 5 6 
#
# 1 0.025087 -0.008270 -0.009159 0.000000 0.000000 0.000000
# 2 -0.008270 0.022365 -0.008449 0.000000 0.000000 0.000000
# 3 -0.009159 -0.008449 0.021296 0.000000 0.000000 0.000000
# 4 0.000000 0.000000 0.000000 0.042651 0.000000 0.000000
# 5 0.000000 0.000000 0.000000 0.000000 0.044883 0.000000
# 6 0.000000 0.000000 0.000000 0.000000 0.000000 0.038028
#
#
# Mechanical properties :
#
#
# Convention : Reuss Voigt Hill
#
# Bulk Modulus (GPa) = 58.85145 59.70777 59.27961
# Shear Modulus (GPa) = 19.86254 20.80078 20.33166
#
# Velocity S-wave (km/s) = 3.69130 3.77748 3.73464
# Velocity P-wave (km/s) = 7.65113 7.74503 7.69822
#
# Compressibility (1/GPa) = 0.01699194
#
# Stress axis : x y z
#
# Youngs Moduli (GPa) = 39.86132 44.71299 46.95639
#
# Poissons Ratio (x) = 0.36978 0.43007
# Poissons Ratio (y) = 0.32965 0.39674
# Poissons Ratio (z) = 0.36509 0.37779
#
# Static dielectric constant tensor:
#      x y z
#    x 2.632250 0.000000 0.000000 
#    y 0.000000 2.924760 0.000000 
#    z 0.000000 0.000000 2.923320 
# 
# 
# High freq. dielectric constant tensor:
#      x y z
#    x 1.522930 0.000000 0.000000 
#    y 0.000000 1.545470 0.000000 
#    z 0.000000 0.000000 1.573510 
# 
# From -- ./inp_files/8177.got.cif
#   From: 2010.03.12/outbox.cif.g09.slc.cpg/sg55_5_cif.got.tgz:8177.got - 2010.04.16 15:19:21.
