data_PCOD8224923
_publ_section_title
;
Structure prediction by ZEFSAII (Michael W. Deem and Ramdas Pophale) SiO2 
 PCOD8224923
Probable space group: P B A M
;
_chemical_formula_sum "Si O2"
_cell_formula_units_Z 64
_cell_length_a 8.947249
_cell_length_b 18.558501
_cell_length_c 20.751311
_cell_angle_alpha 90.000000
_cell_angle_beta 90.000000
_cell_angle_gamma 90.000000
_cell_volume 3445.703926
_symmetry_space_group_name_H-M "P B A M"
_symmetry_group_IT_number 55
_symmetry_cell_setting 'orthorhombic'
loop_
_space_group_symop_operation_xyz
x,y,z
-x,-y,z
1/2+x,1/2-y,-z
1/2-x,1/2+y,-z
-x,-y,-z
x,y,-z
1/2-x,1/2+y,z
1/2+x,1/2-y,z
loop_
_atom_site_type_symbol
_atom_site_label
_atom_site_fract_x
_atom_site_fract_y
_atom_site_fract_z
Si Si1 0.858848 0.844551 0.791101
Si Si2 0.636631 0.098205 0.310541
Si Si3 0.837865 0.207674 0.068229
Si Si4 0.596393 0.196109 0.427130
Si Si5 0.243770 0.660912 0.427847
Si Si6 0.661346 0.344248 0.931230
Si Si7 0.793575 0.436711 0.687451
Si Si8 0.799474 0.193681 0.207318
O O1 0.841156 0.884402 0.861866
O O2 0.817458 0.906572 0.741268
O O3 0.746124 0.777110 0.782801
O O4 0.025611 0.816037 0.776559
O O5 0.667304 0.138376 0.378190
O O6 0.461666 0.087833 0.297650
O O7 0.699761 0.142998 0.251202
O O8 0.721822 0.022474 0.314403
O O9 0.803598 0.292431 0.067998
O O10 0.769284 0.170531 0.132355
O O11 0.016338 0.206562 0.070494
O O12 0.781193 0.172025 0.000000
O O13 0.652591 0.178567 0.500000
O O14 0.643153 0.276403 0.406209
O O15 0.419136 0.195526 0.423100
O O16 0.278106 0.633623 0.500000
O O17 0.260571 0.592550 0.381657
O O18 0.661340 0.389992 0.000000
#
# Coordination Sequence:
#
# PCOD8224923 Si02
#       8
#     8   8   8   8   8   8   8   8
#     4  10  19  31  50  74  99 128 162 200 242 289
#     4  10  21  35  50  70  98 131 165 202 242 283
#     4   8  14  25  42  66  94 121 152 193 239 284
#     4   9  18  33  53  75  97 123 157 196 238 285
#     4   9  18  33  53  75  97 123 157 196 238 285
#     4   8  14  25  42  66  94 121 152 193 239 284
#     4  10  21  35  50  70  98 131 165 202 242 283
#     4  10  19  31  50  74  99 128 162 200 242 289
#
# _framework density 18.573853
#
# number of rings (size 3 to 8) (size 9 to 14) (size 15 to 20)
#    0.000    2.750    0.000    1.500    0.000    5.000 
#    0.000    2.500    0.000    0.750    0.000   10.500 
#    0.000    0.000    0.000    0.000    0.000    0.000 
#
# Total GULP energy -792857.656540 kJ/mol
# GULP energy per Si atom -12388.400883 kJ/mol
# Density = 1.853158 g / cm^3
# Si number density = 18.573853 Si / 1000 Ang^3
#
#
#
# Elastic Constant Matrix: (Units=GPa)
#
#
# Indices 1 2 3 4 5 6 
#
# 1 20.2556 -4.2308 17.2642 0.0000 0.0000 0.0000
# 2 -4.2308 45.3787 32.0742 0.0000 0.0000 0.0000
# 3 17.2642 32.0742 116.6249 0.0000 0.0000 0.0000
# 4 0.0000 0.0000 0.0000 4.3003 0.0000 0.0000
# 5 0.0000 0.0000 0.0000 0.0000 25.5909 0.0000
# 6 0.0000 0.0000 0.0000 0.0000 0.0000 21.2283
#
#
#
# Elastic Compliance Matrix: (Units=1/GPa)
#
#
# Indices 1 2 3 4 5 6 
#
# 1 0.064538 0.015851 -0.013913 0.000000 0.000000 0.000000
# 2 0.015851 0.031247 -0.010940 0.000000 0.000000 0.000000
# 3 -0.013913 -0.010940 0.013643 0.000000 0.000000 0.000000
# 4 0.000000 0.000000 0.000000 0.232541 0.000000 0.000000
# 5 0.000000 0.000000 0.000000 0.000000 0.039076 0.000000
# 6 0.000000 0.000000 0.000000 0.000000 0.000000 0.047107
#
#
# Mechanical properties :
#
#
# Convention : Reuss Voigt Hill
#
# Bulk Modulus (GPa) = 10.93806 30.27493 20.60650
# Shear Modulus (GPa) = 10.49030 19.36733 14.92881
#
# Velocity S-wave (km/s) = 2.37911 3.23262 2.83813
# Velocity P-wave (km/s) = 3.66723 5.50166 4.67530
#
# Compressibility (1/GPa) = 0.09142387
#
# Stress axis : x y z
#
# Youngs Moduli (GPa) = 15.49470 32.00296 73.29875
#
# Poissons Ratio (x) = -0.50728 1.01981
# Poissons Ratio (y) = -0.24561 0.80189
# Poissons Ratio (z) = 0.21558 0.35011
#
# Static dielectric constant tensor:
#      x y z
#    x 3.380720 0.000000 0.000000 
#    y 0.000000 3.002800 0.000000 
#    z 0.000000 0.000000 3.999680 
# 
# 
# High freq. dielectric constant tensor:
#      x y z
#    x 1.717820 0.000000 0.000000 
#    y 0.000000 1.666570 0.000000 
#    z 0.000000 0.000000 1.750420 
# 
# From -- ./inp_files/22738.got.cif
#   From: 2010.03.12/outbox.cif.g09.slc.cpg/sg55_12_cif.got.tgz:22738.got - 2010.04.16 15:19:21.
