data_PCOD8224141
_publ_section_title
;
Structure prediction by ZEFSAII (Michael W. Deem and Ramdas Pophale) SiO2 
 PCOD8224141
Probable space group: P C C A
;
_chemical_formula_sum "Si O2"
_cell_formula_units_Z 32
_cell_length_a 5.410041
_cell_length_b 15.844299
_cell_length_c 16.265654
_cell_angle_alpha 90.000000
_cell_angle_beta 90.000000
_cell_angle_gamma 90.000000
_cell_volume 1394.264326
_symmetry_space_group_name_H-M "P C C A"
_symmetry_group_IT_number 54
_symmetry_cell_setting 'orthorhombic'
loop_
_space_group_symop_operation_xyz
x,y,z
1/2-x,-y,z
1/2+x,-y,1/2-z
-x,y,1/2-z
-x,-y,-z
1/2+x,y,-z
1/2-x,y,1/2+z
x,-y,1/2+z
loop_
_atom_site_type_symbol
_atom_site_label
_atom_site_fract_x
_atom_site_fract_y
_atom_site_fract_z
Si Si1 0.368001 0.849952 0.169922
Si Si2 0.537235 0.723615 0.050285
Si Si3 0.750000 0.000000 0.445633
Si Si4 0.840784 0.408927 0.168685
Si Si5 0.500000 0.720134 0.750000
O O1 0.500000 0.891498 0.250000
O O2 0.569784 0.799664 0.116163
O O3 0.235395 0.919892 0.114508
O O4 0.180372 0.778187 0.198173
O O5 0.509526 0.631764 0.093195
O O6 0.778803 0.734781 0.995693
O O7 0.500000 0.000000 0.500000
O O8 0.750000 0.500000 0.139307
O O9 0.624038 0.341814 0.183837
O O10 0.000000 0.421446 0.250000
#
# Coordination Sequence:
#
# PCOD8224141 Si02
#       5
#     8   8   4   8   4
#     4  12  27  47  82 109 148 202 261 312 370 459
#     4  12  26  46  72 107 153 197 244 307 385 448
#     4  12  32  54  78 118 164 196 242 316 400 458
#     4  12  25  44  74 106 148 204 262 322 372 448
#     4  12  22  46  76 110 144 188 270 316 364 430
#
# _framework density 22.951170000000001
#
# number of rings (size 3 to 8) (size 9 to 14) (size 15 to 20)
#    0.000    0.000    6.250    3.000    5.250    1.000 
#    0.000    0.000    0.000    0.000    0.000    0.000 
#    0.000    0.000    0.000    0.000    0.000    0.000 
#
# Total GULP energy -396791.081302 kJ/mol
# GULP energy per Si atom -12399.721291 kJ/mol
# Density = 2.289893 g / cm^3
# Si number density = 22.951170 Si / 1000 Ang^3
#
#
#
# Elastic Constant Matrix: (Units=GPa)
#
#
# Indices 1 2 3 4 5 6 
#
# 1 132.9389 43.6580 61.3225 0.0000 0.0000 0.0000
# 2 43.6580 160.3298 65.0805 0.0000 0.0000 0.0000
# 3 61.3225 65.0805 138.2950 0.0000 0.0000 0.0000
# 4 0.0000 0.0000 0.0000 -25.4302 0.0000 0.0000
# 5 0.0000 0.0000 0.0000 0.0000 33.8099 0.0000
# 6 0.0000 0.0000 0.0000 0.0000 0.0000 229.0628
#
#
#
# Elastic Compliance Matrix: (Units=1/GPa)
#
#
# Indices 1 2 3 4 5 6 
#
# 1 0.009610 -0.001097 -0.003745 0.000000 0.000000 0.000000
# 2 -0.001097 0.007835 -0.003201 0.000000 0.000000 0.000000
# 3 -0.003745 -0.003201 0.010398 0.000000 0.000000 0.000000
# 4 0.000000 0.000000 0.000000 -0.039323 0.000000 0.000000
# 5 0.000000 0.000000 0.000000 0.000000 0.029577 0.000000
# 6 0.000000 0.000000 0.000000 0.000000 0.000000 0.004366
#
#
# Mechanical properties :
#
#
# Convention : Reuss Voigt Hill
#
# Bulk Modulus (GPa) = 85.05105 85.74287 85.39696
# Shear Modulus (GPa) = 117.73919 64.92202 91.33060
#
# Velocity S-wave (km/s) = 7.17016 5.32432 6.31505
# Velocity P-wave (km/s) = 10.28038 8.67397 9.51115
#
# Compressibility (1/GPa) = 0.01175764
#
# Stress axis : x y z
#
# Youngs Moduli (GPa) = 104.05853 127.63206 96.17320
#
# Poissons Ratio (x) = 0.13996 0.36019
# Poissons Ratio (y) = 0.11411 0.30784
# Poissons Ratio (z) = 0.38972 0.40853
#
# Static dielectric constant tensor:
#      x y z
#    x 3.969740 0.000000 0.000000 
#    y 0.000000 4.380950 0.000000 
#    z 0.000000 0.000000 4.781240 
# 
# 
# High freq. dielectric constant tensor:
#      x y z
#    x 1.908620 0.000000 0.000000 
#    y 0.000000 1.914930 0.000000 
#    z 0.000000 0.000000 1.923840 
# 
# From -- ./inp_files/15692.got.cif
#   From: 2010.03.12/outbox.cif.g09.slc.cpg/sg54_8_cif.got.tgz:15692.got - 2010.04.16 15:00:50.
