data_PCOD8224716
_publ_section_title
;
Structure prediction by ZEFSAII (Michael W. Deem and Ramdas Pophale) SiO2 
 PCOD8224716
Probable space group: P B A M
;
_chemical_formula_sum "Si O2"
_cell_formula_units_Z 64
_cell_length_a 24.491631
_cell_length_b 15.515597
_cell_length_c 8.454786
_cell_angle_alpha 90.000000
_cell_angle_beta 90.000000
_cell_angle_gamma 90.000000
_cell_volume 3212.837927
_symmetry_space_group_name_H-M "P B A M"
_symmetry_group_IT_number 55
_symmetry_cell_setting 'orthorhombic'
loop_
_space_group_symop_operation_xyz
x,y,z
-x,-y,z
1/2+x,1/2-y,-z
1/2-x,1/2+y,-z
-x,-y,-z
x,y,-z
1/2-x,1/2+y,z
1/2+x,1/2-y,z
loop_
_atom_site_type_symbol
_atom_site_label
_atom_site_fract_x
_atom_site_fract_y
_atom_site_fract_z
Si Si1 0.623174 0.832130 0.681840
Si Si2 0.505386 0.902983 0.684924
Si Si3 0.124252 0.847826 0.182182
Si Si4 0.567335 0.249948 0.187230
Si Si5 0.236815 0.910701 0.187571
Si Si6 0.229686 0.600239 0.813037
Si Si7 0.309126 0.753982 0.812123
Si Si8 0.990824 0.096603 0.189033
O O1 0.623505 0.801815 0.500000
O O2 0.566953 0.877771 0.725689
O O3 0.631068 0.753566 0.800492
O O4 0.673416 0.894530 0.717469
O O5 0.492569 0.900390 0.500000
O O6 0.462904 0.838242 0.766447
O O7 0.500000 0.000000 0.751788
O O8 0.177014 0.892129 0.261197
O O9 0.067778 0.877322 0.262353
O O10 0.121672 0.873951 0.000000
O O11 0.629128 0.251395 0.256337
O O12 0.535474 0.334637 0.253610
O O13 0.569105 0.254643 0.000000
O O14 0.280799 0.841454 0.253560
O O15 0.249656 0.006932 0.238780
O O16 0.234633 0.899348 0.000000
O O17 0.273575 0.671612 0.756238
O O18 0.219185 0.607146 0.000000
O O19 0.311856 0.755156 0.000000
O O20 0.991168 0.099532 0.000000
O O21 0.000000 0.000000 0.251879
#
# Coordination Sequence:
#
# PCOD8224716 Si02
#       8
#     8   8   8   8   8   8   8   8
#     4  11  22  37  57  79 106 141 187 234 272 318
#     4  10  23  41  57  75 106 147 185 224 278 332
#     4  10  18  34  58  81 108 142 182 223 271 326
#     4  10  20  34  55  83 112 141 179 226 268 316
#     4   9  18  31  52  81 106 136 176 217 265 321
#     4  10  20  35  57  81 110 145 177 217 271 324
#     4   9  18  32  50  79 113 137 169 218 265 313
#     4   9  18  30  50  83 114 140 175 220 270 322
#
# _framework density 19.920085
#
# number of rings (size 3 to 8) (size 9 to 14) (size 15 to 20)
#    0.000    2.250    2.500    0.375    3.500    0.750 
#    0.000    1.250    0.000    1.500    0.000    0.000 
#    0.000    0.000    0.000    0.000    0.000    0.000 
#
# Total GULP energy -793382.121125 kJ/mol
# GULP energy per Si atom -12396.595643 kJ/mol
# Density = 1.987475 g / cm^3
# Si number density = 19.920085 Si / 1000 Ang^3
#
#
#
# Elastic Constant Matrix: (Units=GPa)
#
#
# Indices 1 2 3 4 5 6 
#
# 1 188.9587 76.9397 15.3923 0.0000 0.0000 0.0000
# 2 76.9397 162.3199 5.4048 0.0000 0.0000 0.0000
# 3 15.3923 5.4048 8.9574 0.0000 0.0000 0.0000
# 4 0.0000 0.0000 0.0000 9.4648 0.0000 0.0000
# 5 0.0000 0.0000 0.0000 0.0000 7.3733 0.0000
# 6 0.0000 0.0000 0.0000 0.0000 0.0000 36.1321
#
#
#
# Elastic Compliance Matrix: (Units=1/GPa)
#
#
# Indices 1 2 3 4 5 6 
#
# 1 0.007478 -0.003180 -0.010930 0.000000 0.000000 0.000000
# 2 -0.003180 0.007640 0.000855 0.000000 0.000000 0.000000
# 3 -0.010930 0.000855 0.129906 0.000000 0.000000 0.000000
# 4 0.000000 0.000000 0.000000 0.105654 0.000000 0.000000
# 5 0.000000 0.000000 0.000000 0.000000 0.135625 0.000000
# 6 0.000000 0.000000 0.000000 0.000000 0.000000 0.027676
#
#
# Mechanical properties :
#
#
# Convention : Reuss Voigt Hill
#
# Bulk Modulus (GPa) = 8.43790 61.74551 35.09171
# Shear Modulus (GPa) = 10.41680 28.09398 19.25539
#
# Velocity S-wave (km/s) = 2.28925 3.75952 3.11244
# Velocity P-wave (km/s) = 3.35151 7.06464 5.52909
#
# Compressibility (1/GPa) = 0.11851293
#
# Stress axis : x y z
#
# Youngs Moduli (GPa) = 133.73425 130.89521 7.69786
#
# Poissons Ratio (x) = 0.41630 0.08414
# Poissons Ratio (y) = 0.42533 -0.00659
# Poissons Ratio (z) = 1.46176 -0.11198
#
# Static dielectric constant tensor:
#      x y z
#    x 3.331870 0.000000 0.000000 
#    y 0.000000 3.727770 0.000000 
#    z 0.000000 0.000000 3.051430 
# 
# 
# High freq. dielectric constant tensor:
#      x y z
#    x 1.797580 0.000000 0.000000 
#    y 0.000000 1.785440 0.000000 
#    z 0.000000 0.000000 1.721350 
# 
# From -- ./inp_files/9819.got.cif
#   From: 2010.03.12/outbox.cif.g09.slc.cpg/sg55_5_cif.got.tgz:9819.got - 2010.04.16 15:19:21.
