data_PCOD8224076
_publ_section_title
;
Structure prediction by ZEFSAII (Michael W. Deem and Ramdas Pophale) SiO2 
 PCOD8224076
Probable space group: P C C A
;
_chemical_formula_sum "Si O2"
_cell_formula_units_Z 40
_cell_length_a 7.504524
_cell_length_b 10.951857
_cell_length_c 18.214869
_cell_angle_alpha 90.000000
_cell_angle_beta 90.000000
_cell_angle_gamma 90.000000
_cell_volume 1497.052282
_symmetry_space_group_name_H-M "P C C A"
_symmetry_group_IT_number 54
_symmetry_cell_setting 'orthorhombic'
loop_
_space_group_symop_operation_xyz
x,y,z
1/2-x,-y,z
1/2+x,-y,1/2-z
-x,y,1/2-z
-x,-y,-z
1/2+x,y,-z
1/2-x,y,1/2+z
x,-y,1/2+z
loop_
_atom_site_type_symbol
_atom_site_label
_atom_site_fract_x
_atom_site_fract_y
_atom_site_fract_z
Si Si1 0.735568 0.861382 0.507156
Si Si2 0.027855 0.238506 0.112797
Si Si3 0.052541 0.762422 0.362279
Si Si4 0.764122 0.142678 0.261605
Si Si5 0.956978 0.497148 0.914682
O O1 0.717296 0.773541 0.434609
O O2 0.562317 0.834850 0.560273
O O3 0.902119 0.836198 0.559031
O O4 0.750000 0.000000 0.480208
O O5 0.053535 0.175460 0.193266
O O6 0.966276 0.378442 0.121122
O O7 0.240425 0.786635 0.316711
O O8 0.895431 0.813919 0.313474
O O9 0.046329 0.617295 0.374810
O O10 0.750000 0.000000 0.246354
O O11 0.750000 0.500000 0.898767
O O12 0.000000 0.500000 0.000000
#
# Coordination Sequence:
#
# PCOD8224076 Si02
#       5
#     8   8   8   8   8
#     4  12  24  42  70 110 150 196 261 314 378 453
#     4  12  24  42  73 107 148 198 252 312 385 444
#     4  11  25  45  72 107 150 199 251 315 380 456
#     4  11  24  47  74 103 149 198 248 314 384 458
#     4  12  24  46  76 107 151 196 256 316 380 458
#
# _framework density 26.719176000000001
#
# number of rings (size 3 to 8) (size 9 to 14) (size 15 to 20)
#    0.000    0.400    4.000    5.400    0.000    2.400 
#    0.000    8.000    0.000    0.000    0.000    0.000 
#    0.000    0.000    0.000    0.000    0.000    0.000 
#
# Total GULP energy -496147.258141 kJ/mol
# GULP energy per Si atom -12403.681454 kJ/mol
# Density = 2.665836 g / cm^3
# Si number density = 26.719176 Si / 1000 Ang^3
#
#
#
# Elastic Constant Matrix: (Units=GPa)
#
#
# Indices 1 2 3 4 5 6 
#
# 1 42.8563 22.9523 7.0055 0.0000 0.0000 0.0000
# 2 22.9523 256.4753 78.7891 0.0000 0.0000 0.0000
# 3 7.0055 78.7891 179.1870 0.0000 0.0000 0.0000
# 4 0.0000 0.0000 0.0000 52.4520 0.0000 0.0000
# 5 0.0000 0.0000 0.0000 0.0000 33.6135 0.0000
# 6 0.0000 0.0000 0.0000 0.0000 0.0000 35.8750
#
#
#
# Elastic Compliance Matrix: (Units=1/GPa)
#
#
# Indices 1 2 3 4 5 6 
#
# 1 0.024508 -0.002195 0.000007 0.000000 0.000000 0.000000
# 2 -0.002195 0.004705 -0.001983 0.000000 0.000000 0.000000
# 3 0.000007 -0.001983 0.006452 0.000000 0.000000 0.000000
# 4 0.000000 0.000000 0.000000 0.019065 0.000000 0.000000
# 5 0.000000 0.000000 0.000000 0.000000 0.029750 0.000000
# 6 0.000000 0.000000 0.000000 0.000000 0.000000 0.027875
#
#
# Mechanical properties :
#
#
# Convention : Reuss Voigt Hill
#
# Bulk Modulus (GPa) = 36.59901 77.33471 56.96686
# Shear Modulus (GPa) = 38.51937 49.03954 43.77945
#
# Velocity S-wave (km/s) = 3.80101 4.28877 4.05223
# Velocity P-wave (km/s) = 5.74378 7.31649 6.57731
#
# Compressibility (1/GPa) = 0.02732315
#
# Stress axis : x y z
#
# Youngs Moduli (GPa) = 40.80229 212.55780 154.98289
#
# Poissons Ratio (x) = 0.46667 -0.00111
# Poissons Ratio (y) = 0.08958 0.30730
# Poissons Ratio (z) = -0.00029 0.42146
#
# Static dielectric constant tensor:
#      x y z
#    x 6.010390 0.000000 0.000000 
#    y 0.000000 7.241700 0.000000 
#    z 0.000000 0.000000 5.686180 
# 
# 
# High freq. dielectric constant tensor:
#      x y z
#    x 2.122720 0.000000 0.000000 
#    y 0.000000 2.060530 0.000000 
#    z 0.000000 0.000000 2.100050 
# 
# From -- ./inp_files/16290.got.cif
#   From: 2010.03.12/outbox.cif.g09.slc.cpg/sg54_9_cif.got.tgz:16290.got - 2010.04.16 15:00:50.
