data_PCOD8224432
_publ_section_title
;
Structure prediction by ZEFSAII (Michael W. Deem and Ramdas Pophale) SiO2 
 PCOD8224432
Probable space group: P B A M
;
_chemical_formula_sum "Si O2"
_cell_formula_units_Z 48
_cell_length_a 15.631940
_cell_length_b 19.161064
_cell_length_c 8.679884
_cell_angle_alpha 90.000000
_cell_angle_beta 90.000000
_cell_angle_gamma 90.000000
_cell_volume 2599.838807
_symmetry_space_group_name_H-M "P B A M"
_symmetry_group_IT_number 55
_symmetry_cell_setting 'orthorhombic'
loop_
_space_group_symop_operation_xyz
x,y,z
-x,-y,z
1/2+x,1/2-y,-z
1/2-x,1/2+y,-z
-x,-y,-z
x,y,-z
1/2-x,1/2+y,z
1/2+x,1/2-y,z
loop_
_atom_site_type_symbol
_atom_site_label
_atom_site_fract_x
_atom_site_fract_y
_atom_site_fract_z
Si Si1 0.933601 0.292727 0.675989
Si Si2 0.753226 0.952716 0.821038
Si Si3 0.745946 0.304100 0.321953
Si Si4 0.574444 0.448404 0.681303
Si Si5 0.922177 0.796243 0.179892
Si Si6 0.420901 0.045119 0.680498
O O1 0.963253 0.281874 0.500000
O O2 0.836063 0.263498 0.698357
O O3 0.936584 0.374106 0.721479
O O4 0.995525 0.250912 0.787562
O O5 0.751691 0.870600 0.788632
O O6 0.835768 0.983903 0.732414
O O7 0.664408 0.985350 0.760689
O O8 0.763305 0.968546 0.000000
O O9 0.736529 0.327911 0.500000
O O10 0.661173 0.262232 0.267113
O O11 0.500000 0.500000 0.735484
O O12 0.573015 0.435972 0.500000
O O13 0.559781 0.374331 0.762804
O O14 0.903721 0.796727 0.000000
O O15 0.408134 0.035042 0.500000
O O16 0.500000 0.000000 0.743369
#
# Coordination Sequence:
#
# PCOD8224432 Si02
#       6
#     8   8   8   8   8   8
#     4   9  18  33  53  75  99 131 170 209 245 288
#     4  10  18  29  49  75 103 132 162 201 250 301
#     4   9  17  32  53  72  95 131 173 208 239 289
#     4  10  20  35  55  75  97 130 171 209 244 291
#     4  11  21  32  51  77 105 133 161 203 254 301
#     4   9  18  34  55  76  99 132 173 210 244 289
#
# _framework density 18.462682999999998
#
# number of rings (size 3 to 8) (size 9 to 14) (size 15 to 20)
#    0.000    2.333    0.000    7.000    0.000    5.000 
#    0.000    1.667    0.000    4.000    0.000    0.000 
#    0.000    0.000    0.000    0.000    0.000    0.000 
#
# Total GULP energy -594957.590850 kJ/mol
# GULP energy per Si atom -12394.949809 kJ/mol
# Density = 1.842066 g / cm^3
# Si number density = 18.462683 Si / 1000 Ang^3
#
#
#
# Elastic Constant Matrix: (Units=GPa)
#
#
# Indices 1 2 3 4 5 6 
#
# 1 177.2264 51.4807 49.4321 0.0000 0.0000 0.0000
# 2 51.4807 43.6737 25.2083 0.0000 0.0000 0.0000
# 3 49.4321 25.2083 79.8331 0.0000 0.0000 0.0000
# 4 0.0000 0.0000 0.0000 16.6428 0.0000 0.0000
# 5 0.0000 0.0000 0.0000 0.0000 23.9855 0.0000
# 6 0.0000 0.0000 0.0000 0.0000 0.0000 31.5584
#
#
#
# Elastic Compliance Matrix: (Units=1/GPa)
#
#
# Indices 1 2 3 4 5 6 
#
# 1 0.009043 -0.009083 -0.002731 0.000000 0.000000 0.000000
# 2 -0.009083 0.037123 -0.006098 0.000000 0.000000 0.000000
# 3 -0.002731 -0.006098 0.016143 0.000000 0.000000 0.000000
# 4 0.000000 0.000000 0.000000 0.060086 0.000000 0.000000
# 5 0.000000 0.000000 0.000000 0.000000 0.041692 0.000000
# 6 0.000000 0.000000 0.000000 0.000000 0.000000 0.031687
#
#
# Mechanical properties :
#
#
# Convention : Reuss Voigt Hill
#
# Bulk Modulus (GPa) = 37.75777 61.44171 49.59974
# Shear Modulus (GPa) = 20.79645 26.07816 23.43731
#
# Velocity S-wave (km/s) = 3.35984 3.76237 3.56679
# Velocity P-wave (km/s) = 5.96210 7.22669 6.62464
#
# Compressibility (1/GPa) = 0.02648461
#
# Stress axis : x y z
#
# Youngs Moduli (GPa) = 110.58772 26.93740 61.94697
#
# Poissons Ratio (x) = 0.24466 0.16919
# Poissons Ratio (y) = 1.00442 0.37776
# Poissons Ratio (z) = 0.30203 0.16427
#
# Static dielectric constant tensor:
#      x y z
#    x 4.072680 0.000000 0.000000 
#    y 0.000000 2.968990 0.000000 
#    z 0.000000 0.000000 3.321090 
# 
# 
# High freq. dielectric constant tensor:
#      x y z
#    x 1.743330 0.000000 0.000000 
#    y 0.000000 1.659350 0.000000 
#    z 0.000000 0.000000 1.720400 
# 
# From -- ./inp_files/5812.got.cif
#   From: 2010.03.12/outbox.cif.g09.slc.cpg/sg55_3_cif.got.tgz:5812.got - 2010.04.16 15:19:21.
