data_PCOD8224054
_publ_section_title
;
Structure prediction by ZEFSAII (Michael W. Deem and Ramdas Pophale) SiO2 
 PCOD8224054
Probable space group: P C C A
;
_chemical_formula_sum "Si O2"
_cell_formula_units_Z 56
_cell_length_a 15.712611
_cell_length_b 14.100603
_cell_length_c 11.300831
_cell_angle_alpha 90.000000
_cell_angle_beta 90.000000
_cell_angle_gamma 90.000000
_cell_volume 2503.781489
_symmetry_space_group_name_H-M "P C C A"
_symmetry_group_IT_number 54
_symmetry_cell_setting 'orthorhombic'
loop_
_space_group_symop_operation_xyz
x,y,z
1/2-x,-y,z
1/2+x,-y,1/2-z
-x,y,1/2-z
-x,-y,-z
1/2+x,y,-z
1/2-x,y,1/2+z
x,-y,1/2+z
loop_
_atom_site_type_symbol
_atom_site_label
_atom_site_fract_x
_atom_site_fract_y
_atom_site_fract_z
Si Si1 0.352576 0.699735 0.681343
Si Si2 0.661729 0.660577 0.357056
Si Si3 0.841045 0.045336 0.443449
Si Si4 0.413768 0.146731 0.024678
Si Si5 0.102788 0.216739 0.931508
Si Si6 0.049483 0.483713 0.625747
Si Si7 0.903496 0.831836 0.736519
O O1 0.258485 0.656787 0.689694
O O2 0.347372 0.792852 0.600852
O O3 0.391615 0.735894 0.804398
O O4 0.416115 0.623298 0.623829
O O5 0.650308 0.709443 0.483975
O O6 0.629362 0.553808 0.368236
O O7 0.606674 0.719693 0.261718
O O8 0.854305 0.112751 0.558434
O O9 0.845068 0.109312 0.326235
O O10 0.750000 0.000000 0.455865
O O11 0.913278 0.963052 0.433625
O O12 0.505220 0.197644 0.029968
O O13 0.373120 0.147001 0.894770
O O14 0.000000 0.499974 0.750000
O O15 0.000000 0.500000 0.500000
O O16 0.000000 0.864679 0.750000
#
# Coordination Sequence:
#
# PCOD8224054 Si02
#       7
#     8   8   8   8   8   8   8
#     4  12  28  45  73 110 144 186 236 309 360 431
#     4  11  25  46  73 103 144 190 231 299 360 434
#     4  11  26  44  67 104 142 195 238 305 364 425
#     4  12  24  44  72 100 140 191 237 294 364 428
#     4  11  25  49  68 105 147 184 249 291 363 442
#     4  12  27  48  78 109 146 191 243 295 368 443
#     4  11  24  43  69 101 139 184 247 286 356 435
#
# _framework density 22.36617
#
# number of rings (size 3 to 8) (size 9 to 14) (size 15 to 20)
#    0.000    0.571    2.857    6.000    8.000    0.571 
#    0.000    2.857    0.000    0.000    0.000    0.000 
#    0.000    0.000    0.000    0.000    0.000    0.000 
#
# Total GULP energy -694275.870820 kJ/mol
# GULP energy per Si atom -12397.783407 kJ/mol
# Density = 2.231526 g / cm^3
# Si number density = 22.366170 Si / 1000 Ang^3
#
#
#
# Elastic Constant Matrix: (Units=GPa)
#
#
# Indices 1 2 3 4 5 6 
#
# 1 86.9485 32.0108 28.5540 0.0000 0.0000 0.0000
# 2 32.0108 143.4978 52.9540 0.0000 0.0000 0.0000
# 3 28.5540 52.9540 140.1919 0.0000 0.0000 0.0000
# 4 0.0000 0.0000 0.0000 34.5529 0.0000 0.0000
# 5 0.0000 0.0000 0.0000 0.0000 27.3539 0.0000
# 6 0.0000 0.0000 0.0000 0.0000 0.0000 46.5511
#
#
#
# Elastic Compliance Matrix: (Units=1/GPa)
#
#
# Indices 1 2 3 4 5 6 
#
# 1 0.012906 -0.002218 -0.001791 0.000000 0.000000 0.000000
# 2 -0.002218 0.008479 -0.002751 0.000000 0.000000 0.000000
# 3 -0.001791 -0.002751 0.008537 0.000000 0.000000 0.000000
# 4 0.000000 0.000000 0.000000 0.028941 0.000000 0.000000
# 5 0.000000 0.000000 0.000000 0.000000 0.036558 0.000000
# 6 0.000000 0.000000 0.000000 0.000000 0.000000 0.021482
#
#
# Mechanical properties :
#
#
# Convention : Reuss Voigt Hill
#
# Bulk Modulus (GPa) = 60.96868 66.40845 63.68856
# Shear Modulus (GPa) = 36.79477 38.83287 37.81382
#
# Velocity S-wave (km/s) = 4.06039 4.17133 4.11624
# Velocity P-wave (km/s) = 7.02146 7.27708 7.15041
#
# Compressibility (1/GPa) = 0.01640186
#
# Stress axis : x y z
#
# Youngs Moduli (GPa) = 77.48472 117.94291 117.13884
#
# Poissons Ratio (x) = 0.26161 0.20977
# Poissons Ratio (y) = 0.17187 0.32223
# Poissons Ratio (z) = 0.13876 0.32444
#
# Static dielectric constant tensor:
#      x y z
#    x 3.880240 0.000000 0.000000 
#    y 0.000000 4.377730 0.000000 
#    z 0.000000 0.000000 4.305190 
# 
# 
# High freq. dielectric constant tensor:
#      x y z
#    x 1.881760 0.000000 0.000000 
#    y 0.000000 1.897920 0.000000 
#    z 0.000000 0.000000 1.882960 
# 
# From -- ./inp_files/8415.got.cif
#   From: 2010.03.12/outbox.cif.g09.slc.cpg/sg54_5_cif.got.tgz:8415.got - 2010.04.16 15:00:50.
