data_PCOD8224721
_publ_section_title
;
Structure prediction by ZEFSAII (Michael W. Deem and Ramdas Pophale) SiO2 
 PCOD8224721
Probable space group: P B A M
;
_chemical_formula_sum "Si O2"
_cell_formula_units_Z 40
_cell_length_a 7.828996
_cell_length_b 28.634682
_cell_length_c 8.868531
_cell_angle_alpha 90.000000
_cell_angle_beta 90.000000
_cell_angle_gamma 90.000000
_cell_volume 1988.154471
_symmetry_space_group_name_H-M "P B A M"
_symmetry_group_IT_number 55
_symmetry_cell_setting 'orthorhombic'
loop_
_space_group_symop_operation_xyz
x,y,z
-x,-y,z
1/2+x,1/2-y,-z
1/2-x,1/2+y,-z
-x,-y,-z
x,y,-z
1/2-x,1/2+y,z
1/2+x,1/2-y,z
loop_
_atom_site_type_symbol
_atom_site_label
_atom_site_fract_x
_atom_site_fract_y
_atom_site_fract_z
Si Si1 0.492531 0.945230 0.825874
Si Si2 0.801271 0.891460 0.322103
Si Si3 0.705982 0.200257 0.822241
Si Si4 0.318830 0.199748 0.821304
Si Si5 0.854212 0.103992 0.178139
O O1 0.639760 0.921311 0.729674
O O2 0.306797 0.927536 0.772913
O O3 0.500000 0.000000 0.798532
O O4 0.523000 0.931534 0.000000
O O5 0.804670 0.889976 0.500000
O O6 0.797092 0.839085 0.256779
O O7 0.976401 0.914881 0.261148
O O8 0.512781 0.189542 0.774690
O O9 0.768989 0.249473 0.754672
O O10 0.821105 0.157233 0.766556
O O11 0.719426 0.204288 0.000000
O O12 0.287997 0.197030 0.000000
O O13 0.883645 0.100914 0.000000
#
# Coordination Sequence:
#
# PCOD8224721 Si02
#       5
#     8   8   8   8   8
#     4  10  22  43  71  96 117 151 205 265 313 355
#     4  12  25  39  58  88 128 169 200 241 305 370
#     4   9  17  31  59  90 116 153 203 259 304 348
#     4  10  18  34  58  87 119 156 208 255 299 354
#     4  10  20  39  65  91 120 156 203 255 301 355
#
# _framework density 20.119160000000001
#
# number of rings (size 3 to 8) (size 9 to 14) (size 15 to 20)
#    0.000    1.800    2.000    3.000    0.000    5.200 
#    0.000    8.000    0.000    0.000    0.000    0.000 
#    0.000    0.000    0.000    0.000    0.000    0.000 
#
# Total GULP energy -496054.873559 kJ/mol
# GULP energy per Si atom -12401.371839 kJ/mol
# Density = 2.007337 g / cm^3
# Si number density = 20.119160 Si / 1000 Ang^3
#
#
#
# Elastic Constant Matrix: (Units=GPa)
#
#
# Indices 1 2 3 4 5 6 
#
# 1 133.6503 43.3521 58.6033 0.0000 0.0000 0.0000
# 2 43.3521 86.3837 34.1291 0.0000 0.0000 0.0000
# 3 58.6033 34.1291 75.7594 0.0000 0.0000 0.0000
# 4 0.0000 0.0000 0.0000 8.0929 0.0000 0.0000
# 5 0.0000 0.0000 0.0000 0.0000 9.0364 0.0000
# 6 0.0000 0.0000 0.0000 0.0000 0.0000 27.7833
#
#
#
# Elastic Compliance Matrix: (Units=1/GPa)
#
#
# Indices 1 2 3 4 5 6 
#
# 1 0.011866 -0.002833 -0.007903 0.000000 0.000000 0.000000
# 2 -0.002833 0.014759 -0.004458 0.000000 0.000000 0.000000
# 3 -0.007903 -0.004458 0.021321 0.000000 0.000000 0.000000
# 4 0.000000 0.000000 0.000000 0.123564 0.000000 0.000000
# 5 0.000000 0.000000 0.000000 0.000000 0.110664 0.000000
# 6 0.000000 0.000000 0.000000 0.000000 0.000000 0.035993
#
#
# Mechanical properties :
#
#
# Convention : Reuss Voigt Hill
#
# Bulk Modulus (GPa) = 56.94830 63.10694 60.02762
# Shear Modulus (GPa) = 14.10804 19.62977 16.86891
#
# Velocity S-wave (km/s) = 2.65094 3.12697 2.89874
# Velocity P-wave (km/s) = 6.14304 6.66873 6.41127
#
# Compressibility (1/GPa) = 0.01755979
#
# Stress axis : x y z
#
# Youngs Moduli (GPa) = 84.27120 67.75504 46.90179
#
# Poissons Ratio (x) = 0.19194 0.37067
# Poissons Ratio (y) = 0.23873 0.20907
# Poissons Ratio (z) = 0.66600 0.30202
#
# Static dielectric constant tensor:
#      x y z
#    x 3.838900 0.000000 0.000000 
#    y 0.000000 3.802760 0.000000 
#    z 0.000000 0.000000 3.204970 
# 
# 
# High freq. dielectric constant tensor:
#      x y z
#    x 1.804060 0.000000 0.000000 
#    y 0.000000 1.789120 0.000000 
#    z 0.000000 0.000000 1.738850 
# 
# From -- ./inp_files/2516.got.cif
#   From: 2010.03.12/outbox.cif.g09.slc.cpg/sg55_2_cif.got.tgz:2516.got - 2010.04.16 15:19:21.
