data_PCOD8224460
_publ_section_title
;
Structure prediction by ZEFSAII (Michael W. Deem and Ramdas Pophale) SiO2 
 PCOD8224460
Probable space group: P B A M
;
_chemical_formula_sum "Si O2"
_cell_formula_units_Z 60
_cell_length_a 25.972151
_cell_length_b 12.624426
_cell_length_c 9.729473
_cell_angle_alpha 90.000000
_cell_angle_beta 90.000000
_cell_angle_gamma 90.000000
_cell_volume 3190.133644
_symmetry_space_group_name_H-M "P B A M"
_symmetry_group_IT_number 55
_symmetry_cell_setting 'orthorhombic'
loop_
_space_group_symop_operation_xyz
x,y,z
-x,-y,z
1/2+x,1/2-y,-z
1/2-x,1/2+y,-z
-x,-y,-z
x,y,-z
1/2-x,1/2+y,z
1/2+x,1/2-y,z
loop_
_atom_site_type_symbol
_atom_site_label
_atom_site_fract_x
_atom_site_fract_y
_atom_site_fract_z
Si Si1 0.316153 0.810630 0.335860
Si Si2 0.794749 0.124494 0.661590
Si Si3 0.889531 0.511990 0.343608
Si Si4 0.546178 0.420295 0.842214
Si Si5 0.616992 0.778564 0.663842
Si Si6 0.000000 0.500000 0.239321
Si Si7 0.145799 0.082778 0.662406
Si Si8 0.477366 0.228864 0.848033
O O1 0.315536 0.811113 0.500000
O O2 0.260847 0.846574 0.275156
O O3 0.330701 0.693448 0.284818
O O4 0.358366 0.892131 0.272219
O O5 0.791771 0.139910 0.500000
O O6 0.836788 0.206676 0.719175
O O7 0.811338 0.005313 0.699016
O O8 0.872682 0.515485 0.500000
O O9 0.871612 0.398310 0.284744
O O10 0.950823 0.525064 0.333594
O O11 0.500000 0.500000 0.805017
O O12 0.593577 0.444589 0.742089
O O13 0.527715 0.299394 0.816388
O O14 0.563805 0.436539 0.000000
O O15 0.608719 0.771795 0.500000
O O16 0.564578 0.739562 0.734561
O O17 0.990925 0.395794 0.148500
O O18 0.133332 0.083337 0.500000
O O19 0.456412 0.258367 0.000000
#
# Coordination Sequence:
#
# PCOD8224460 Si02
#       8
#     8   8   8   8   8   4   8   8
#     4   9  18  30  48  75 104 133 167 208 254 300
#     4   9  18  31  49  73 101 129 166 211 251 295
#     4   9  17  28  45  71 103 134 163 201 249 296
#     4  10  21  36  54  75 103 138 171 205 252 307
#     4   9  18  31  49  73  99 130 167 207 250 291
#     4  10  18  30  48  72 101 130 169 202 245 292
#     4  10  20  33  52  79 103 132 170 212 255 295
#     4  10  20  33  50  73 100 133 168 203 248 301
#
# _framework density 18.807991000000001
#
# number of rings (size 3 to 8) (size 9 to 14) (size 15 to 20)
#    0.000    2.533    0.000    2.000    1.867    1.333 
#    0.000    0.000    0.000    1.600    0.000    0.000 
#    0.000    0.000    0.000    0.000    0.000    0.000 
#
# Total GULP energy -743756.696389 kJ/mol
# GULP energy per Si atom -12395.944940 kJ/mol
# Density = 1.876518 g / cm^3
# Si number density = 18.807991 Si / 1000 Ang^3
#
#
#
# Elastic Constant Matrix: (Units=GPa)
#
#
# Indices 1 2 3 4 5 6 
#
# 1 125.0973 64.8134 25.9540 0.0000 0.0000 0.0000
# 2 64.8134 120.6244 21.5614 0.0000 0.0000 0.0000
# 3 25.9540 21.5614 35.2623 0.0000 0.0000 0.0000
# 4 0.0000 0.0000 0.0000 16.7625 0.0000 0.0000
# 5 0.0000 0.0000 0.0000 0.0000 9.3164 0.0000
# 6 0.0000 0.0000 0.0000 0.0000 0.0000 35.6237
#
#
#
# Elastic Compliance Matrix: (Units=1/GPa)
#
#
# Indices 1 2 3 4 5 6 
#
# 1 0.011948 -0.005443 -0.005466 0.000000 0.000000 0.000000
# 2 -0.005443 0.011787 -0.003201 0.000000 0.000000 0.000000
# 3 -0.005466 -0.003201 0.034339 0.000000 0.000000 0.000000
# 4 0.000000 0.000000 0.000000 0.059657 0.000000 0.000000
# 5 0.000000 0.000000 0.000000 0.000000 0.107337 0.000000
# 6 0.000000 0.000000 0.000000 0.000000 0.000000 0.028071
#
#
# Mechanical properties :
#
#
# Convention : Reuss Voigt Hill
#
# Bulk Modulus (GPa) = 33.49593 56.18238 44.83915
# Shear Modulus (GPa) = 17.16383 23.58420 20.37402
#
# Velocity S-wave (km/s) = 3.02417 3.54495 3.29487
# Velocity P-wave (km/s) = 5.48108 6.83315 6.19412
#
# Compressibility (1/GPa) = 0.02985438
#
# Stress axis : x y z
#
# Youngs Moduli (GPa) = 83.69862 84.84049 29.12118
#
# Poissons Ratio (x) = 0.46176 0.15917
# Poissons Ratio (y) = 0.45554 0.09322
# Poissons Ratio (z) = 0.45748 0.27159
#
# Static dielectric constant tensor:
#      x y z
#    x 3.523350 0.000000 0.000000 
#    y 0.000000 3.788400 0.000000 
#    z 0.000000 0.000000 2.987300 
# 
# 
# High freq. dielectric constant tensor:
#      x y z
#    x 1.727810 0.000000 0.000000 
#    y 0.000000 1.753130 0.000000 
#    z 0.000000 0.000000 1.679560 
# 
# From -- ./inp_files/15769.got.cif
#   From: 2010.03.12/outbox.cif.g09.slc.cpg/sg55_8_cif.got.tgz:15769.got - 2010.04.16 15:19:21.
