data_PCOD8224418
_publ_section_title
;
Structure prediction by ZEFSAII (Michael W. Deem and Ramdas Pophale) SiO2 
 PCOD8224418
Probable space group: P B A M
;
_chemical_formula_sum "Si O2"
_cell_formula_units_Z 48
_cell_length_a 13.871857
_cell_length_b 23.857722
_cell_length_c 8.730636
_cell_angle_alpha 90.000000
_cell_angle_beta 90.000000
_cell_angle_gamma 90.000000
_cell_volume 2889.411911
_symmetry_space_group_name_H-M "P B A M"
_symmetry_group_IT_number 55
_symmetry_cell_setting 'orthorhombic'
loop_
_space_group_symop_operation_xyz
x,y,z
-x,-y,z
1/2+x,1/2-y,-z
1/2-x,1/2+y,-z
-x,-y,-z
x,y,-z
1/2-x,1/2+y,z
1/2+x,1/2-y,z
loop_
_atom_site_type_symbol
_atom_site_label
_atom_site_fract_x
_atom_site_fract_y
_atom_site_fract_z
Si Si1 0.788249 0.834216 0.319502
Si Si2 0.392104 0.556483 0.317943
Si Si3 0.388253 0.777576 0.681447
Si Si4 0.103790 0.728338 0.680824
Si Si5 0.598452 0.559097 0.179438
Si Si6 0.711298 0.669336 0.821495
O O1 0.799101 0.836742 0.500000
O O2 0.823597 0.893696 0.253685
O O3 0.855324 0.783636 0.258257
O O4 0.677585 0.821366 0.271292
O O5 0.385165 0.549126 0.500000
O O6 0.501243 0.571372 0.272921
O O7 0.356726 0.499754 0.235653
O O8 0.379462 0.781442 0.500000
O O9 0.497304 0.788502 0.738190
O O10 0.318119 0.824486 0.751507
O O11 0.104972 0.737693 0.500000
O O12 0.135363 0.787017 0.752491
O O13 0.675621 0.606978 0.217209
O O14 0.573792 0.556252 0.000000
O O15 0.717229 0.680590 0.000000
#
# Coordination Sequence:
#
# PCOD8224418 Si02
#       6
#     8   8   8   8   8   8
#     4   8  15  27  44  69  94 113 141 183 225 264
#     4  10  18  29  48  70  90 116 151 187 224 271
#     4   9  17  30  49  69  91 120 150 184 225 268
#     4   9  17  31  50  70  93 120 150 186 229 272
#     4  10  20  32  44  63  93 123 150 184 226 266
#     4  10  20  31  45  67  95 124 152 186 225 269
#
# _framework density 16.612376999999999
#
# number of rings (size 3 to 8) (size 9 to 14) (size 15 to 20)
#    0.000    2.667    0.000    4.500    0.000    4.667 
#    0.000    8.333    0.000    1.000    0.000    7.000 
#    0.000    0.000    0.000    0.000    0.000    0.000 
#
# Total GULP energy -595051.971069 kJ/mol
# GULP energy per Si atom -12396.916064 kJ/mol
# Density = 1.657457 g / cm^3
# Si number density = 16.612377 Si / 1000 Ang^3
#
#
#
# Elastic Constant Matrix: (Units=GPa)
#
#
# Indices 1 2 3 4 5 6 
#
# 1 139.8778 77.0283 28.5007 0.0000 0.0000 0.0000
# 2 77.0283 127.4455 28.7434 0.0000 0.0000 0.0000
# 3 28.5007 28.7434 39.2266 0.0000 0.0000 0.0000
# 4 0.0000 0.0000 0.0000 22.2751 0.0000 0.0000
# 5 0.0000 0.0000 0.0000 0.0000 13.2386 0.0000
# 6 0.0000 0.0000 0.0000 0.0000 0.0000 28.3594
#
#
#
# Elastic Compliance Matrix: (Units=1/GPa)
#
#
# Indices 1 2 3 4 5 6 
#
# 1 0.011168 -0.005894 -0.003796 0.000000 0.000000 0.000000
# 2 -0.005894 0.012511 -0.004885 0.000000 0.000000 0.000000
# 3 -0.003796 -0.004885 0.031830 0.000000 0.000000 0.000000
# 4 0.000000 0.000000 0.000000 0.044893 0.000000 0.000000
# 5 0.000000 0.000000 0.000000 0.000000 0.075537 0.000000
# 6 0.000000 0.000000 0.000000 0.000000 0.000000 0.035262
#
#
# Mechanical properties :
#
#
# Convention : Reuss Voigt Hill
#
# Bulk Modulus (GPa) = 37.93624 63.89941 50.91782
# Shear Modulus (GPa) = 20.06938 24.25978 22.16458
#
# Velocity S-wave (km/s) = 3.47954 3.82559 3.65666
# Velocity P-wave (km/s) = 6.24729 7.61984 6.96745
#
# Compressibility (1/GPa) = 0.02636002
#
# Stress axis : x y z
#
# Youngs Moduli (GPa) = 89.53987 79.93260 31.41697
#
# Poissons Ratio (x) = 0.47113 0.11925
# Poissons Ratio (y) = 0.52775 0.15346
# Poissons Ratio (z) = 0.33985 0.39045
#
# Static dielectric constant tensor:
#      x y z
#    x 3.261510 0.000000 0.000000 
#    y 0.000000 3.291570 0.000000 
#    z 0.000000 0.000000 3.018020 
# 
# 
# High freq. dielectric constant tensor:
#      x y z
#    x 1.632080 0.000000 0.000000 
#    y 0.000000 1.631490 0.000000 
#    z 0.000000 0.000000 1.632460 
# 
# From -- ./inp_files/5800.got.cif
#   From: 2010.03.12/outbox.cif.g09.slc.cpg/sg55_3_cif.got.tgz:5800.got - 2010.04.16 15:19:21.
