data_PCOD8224615
_publ_section_title
;
Structure prediction by ZEFSAII (Michael W. Deem and Ramdas Pophale) SiO2 
 PCOD8224615
Probable space group: P B A M
;
_chemical_formula_sum "Si O2"
_cell_formula_units_Z 56
_cell_length_a 19.080491
_cell_length_b 19.224281
_cell_length_c 8.547832
_cell_angle_alpha 90.000000
_cell_angle_beta 90.000000
_cell_angle_gamma 90.000000
_cell_volume 3135.419320
_symmetry_space_group_name_H-M "P B A M"
_symmetry_group_IT_number 55
_symmetry_cell_setting 'orthorhombic'
loop_
_space_group_symop_operation_xyz
x,y,z
-x,-y,z
1/2+x,1/2-y,-z
1/2-x,1/2+y,-z
-x,-y,-z
x,y,-z
1/2-x,1/2+y,z
1/2+x,1/2-y,z
loop_
_atom_site_type_symbol
_atom_site_label
_atom_site_fract_x
_atom_site_fract_y
_atom_site_fract_z
Si Si1 0.288994 0.476178 0.683550
Si Si2 0.153333 0.737891 0.682037
Si Si3 0.516697 0.708486 0.180287
Si Si4 0.736289 0.159020 0.181942
Si Si5 0.128680 0.244764 0.683497
Si Si6 0.766023 0.870635 0.316214
Si Si7 0.948264 0.061511 0.318326
O O1 0.272720 0.470891 0.500000
O O2 0.239995 0.422216 0.775560
O O3 0.269700 0.552018 0.754320
O O4 0.370100 0.462462 0.719651
O O5 0.133757 0.741805 0.500000
O O6 0.082991 0.742743 0.782512
O O7 0.204192 0.802253 0.718070
O O8 0.191942 0.665593 0.725774
O O9 0.452814 0.736800 0.282552
O O10 0.533727 0.628916 0.218229
O O11 0.496781 0.715431 0.000000
O O12 0.659669 0.187678 0.228495
O O13 0.750897 0.170943 0.000000
O O14 0.141489 0.254800 0.500000
O O15 0.170154 0.176769 0.747722
O O16 0.776133 0.876969 0.500000
O O17 0.958434 0.080333 0.500000
O O18 0.000000 0.000000 0.267236
#
# Coordination Sequence:
#
# PCOD8224615 Si02
#       7
#     8   8   8   8   8   8   8
#     4  10  18  32  54  78 106 141 179 219 265 319
#     4  10  19  35  56  77 103 143 188 226 264 320
#     4  12  23  34  51  79 112 143 177 225 277 323
#     4  11  21  34  52  79 110 140 177 223 271 322
#     4  10  20  37  58  78 103 141 185 226 268 323
#     4   8  17  33  56  81 102 132 182 229 262 309
#     4  10  20  33  52  77 109 149 186 217 259 323
#
# _framework density 17.860451000000001
#
# number of rings (size 3 to 8) (size 9 to 14) (size 15 to 20)
#    0.000    1.857    1.429    5.143    0.000    2.571 
#    0.000    5.714    0.000    0.857    0.000    6.000 
#    0.000    0.000    0.000    0.000    0.000    0.000 
#
# Total GULP energy -694543.394488 kJ/mol
# GULP energy per Si atom -12402.560616 kJ/mol
# Density = 1.781980 g / cm^3
# Si number density = 17.860451 Si / 1000 Ang^3
#
#
#
# Elastic Constant Matrix: (Units=GPa)
#
#
# Indices 1 2 3 4 5 6 
#
# 1 88.8063 59.8804 16.3930 0.0000 0.0000 0.0000
# 2 59.8804 104.5496 25.3409 0.0000 0.0000 0.0000
# 3 16.3930 25.3409 56.6128 0.0000 0.0000 0.0000
# 4 0.0000 0.0000 0.0000 11.3611 0.0000 0.0000
# 5 0.0000 0.0000 0.0000 0.0000 21.8996 0.0000
# 6 0.0000 0.0000 0.0000 0.0000 0.0000 27.7596
#
#
#
# Elastic Compliance Matrix: (Units=1/GPa)
#
#
# Indices 1 2 3 4 5 6 
#
# 1 0.018369 -0.010355 -0.000684 0.000000 0.000000 0.000000
# 2 -0.010355 0.016566 -0.004417 0.000000 0.000000 0.000000
# 3 -0.000684 -0.004417 0.019839 0.000000 0.000000 0.000000
# 4 0.000000 0.000000 0.000000 0.088019 0.000000 0.000000
# 5 0.000000 0.000000 0.000000 0.000000 0.045663 0.000000
# 6 0.000000 0.000000 0.000000 0.000000 0.000000 0.036024
#
#
# Mechanical properties :
#
#
# Convention : Reuss Voigt Hill
#
# Bulk Modulus (GPa) = 41.90671 50.35524 46.13097
# Shear Modulus (GPa) = 18.98646 22.09436 20.54041
#
# Velocity S-wave (km/s) = 3.26397 3.52099 3.39492
# Velocity P-wave (km/s) = 6.14158 6.69214 6.42277
#
# Compressibility (1/GPa) = 0.02386253
#
# Stress axis : x y z
#
# Youngs Moduli (GPa) = 54.43998 60.36395 50.40586
#
# Poissons Ratio (x) = 0.62507 0.03447
# Poissons Ratio (y) = 0.56372 0.22264
# Poissons Ratio (z) = 0.03723 0.26662
#
# Static dielectric constant tensor:
#      x y z
#    x 3.285460 0.000000 0.000000 
#    y 0.000000 3.496410 0.000000 
#    z 0.000000 0.000000 3.134290 
# 
# 
# High freq. dielectric constant tensor:
#      x y z
#    x 1.682890 0.000000 0.000000 
#    y 0.000000 1.684640 0.000000 
#    z 0.000000 0.000000 1.682260 
# 
# From -- ./inp_files/7879.got.cif
#   From: 2010.03.12/outbox.cif.g09.slc.cpg/sg55_4_cif.got.tgz:7879.got - 2010.04.16 15:19:21.
