data_PCOD8224249
_publ_section_title
;
Structure prediction by ZEFSAII (Michael W. Deem and Ramdas Pophale) SiO2 
 PCOD8224249
Probable space group: P B A M
;
_chemical_formula_sum "Si O2"
_cell_formula_units_Z 48
_cell_length_a 13.757179
_cell_length_b 5.226475
_cell_length_c 29.560779
_cell_angle_alpha 90.000000
_cell_angle_beta 90.000000
_cell_angle_gamma 90.000000
_cell_volume 2125.465892
_symmetry_space_group_name_H-M "P B A M"
_symmetry_group_IT_number 55
_symmetry_cell_setting 'orthorhombic'
loop_
_space_group_symop_operation_xyz
x,y,z
-x,-y,z
1/2+x,1/2-y,-z
1/2-x,1/2+y,-z
-x,-y,-z
x,y,-z
1/2-x,1/2+y,z
1/2+x,1/2-y,z
loop_
_atom_site_type_symbol
_atom_site_label
_atom_site_fract_x
_atom_site_fract_y
_atom_site_fract_z
Si Si1 0.939741 0.753354 0.585709
Si Si2 0.189907 0.157573 0.769028
Si Si3 0.863760 0.833711 0.133507
Si Si4 0.067102 0.747176 0.000000
Si Si5 0.644001 0.831445 0.904598
Si Si6 0.311932 0.732419 0.328951
Si Si7 0.191099 0.344856 0.500000
O O1 0.888056 0.827653 0.632192
O O2 0.867366 0.696485 0.545430
O O3 0.000000 0.500000 0.595035
O O4 0.000000 0.000000 0.570314
O O5 0.277690 0.361957 0.771465
O O6 0.123941 0.213740 0.812754
O O7 0.136828 0.201471 0.720565
O O8 0.912019 0.598399 0.106162
O O9 0.752132 0.872991 0.115735
O O10 0.913988 0.104084 0.121370
O O11 0.140728 0.736018 0.957563
O O12 0.000000 0.500000 0.000000
O O13 0.000000 0.000000 0.000000
O O14 0.226794 0.521771 0.333858
O O15 0.222190 0.640818 0.500000
#
# Coordination Sequence:
#
# PCOD8224249 Si02
#       7
#     8   8   8   4   8   8   4
#     4  12  24  41  62  90 131 171 210 255 317 373
#     4  10  16  30  54  89 114 137 176 235 294 354
#     4  10  17  32  57  92 102 123 171 237 309 310
#     4  12  26  42  52  70 106 158 192 208 264 354
#     4  10  20  33  57  78 110 131 173 232 281 329
#     4  10  21  36  60  90 121 164 208 253 307 362
#     4  12  24  42  68  94 126 160 224 270 314 364
#
# _framework density 22.583285
#
# number of rings (size 3 to 8) (size 9 to 14) (size 15 to 20)
#    0.000    1.333    3.333    4.500    0.000    2.667 
#    0.000    0.000    0.000    6.000    0.000    0.000 
#    0.000    0.000    0.000    0.000    0.000    0.000 
#
# Total GULP energy -594883.813208 kJ/mol
# GULP energy per Si atom -12393.412775 kJ/mol
# Density = 2.253188 g / cm^3
# Si number density = 22.583285 Si / 1000 Ang^3
#
#
#
# Elastic Constant Matrix: (Units=GPa)
#
#
# Indices 1 2 3 4 5 6 
#
# 1 15.8124 3.8903 19.1905 0.0000 0.0000 0.0000
# 2 3.8903 157.6953 20.9409 0.0000 0.0000 0.0000
# 3 19.1905 20.9409 183.4289 0.0000 0.0000 0.0000
# 4 0.0000 0.0000 0.0000 39.1105 0.0000 0.0000
# 5 0.0000 0.0000 0.0000 0.0000 -69.8385 0.0000
# 6 0.0000 0.0000 0.0000 0.0000 0.0000-1526.4026
#
#
#
# Elastic Compliance Matrix: (Units=1/GPa)
#
#
# Indices 1 2 3 4 5 6 
#
# 1 0.072537 -0.000794 -0.007498 0.000000 0.000000 0.000000
# 2 -0.000794 0.006448 -0.000653 0.000000 0.000000 0.000000
# 3 -0.007498 -0.000653 0.006311 0.000000 0.000000 0.000000
# 4 0.000000 0.000000 0.000000 0.025569 0.000000 0.000000
# 5 0.000000 0.000000 0.000000 0.000000 -0.014319 0.000000
# 6 0.000000 0.000000 0.000000 0.000000 0.000000 -0.000655
#
#
# Mechanical properties :
#
#
# Convention : Reuss Voigt Hill
#
# Bulk Modulus (GPa) = 14.83569 49.44224 32.13897
# Shear Modulus (GPa) = 36.69772 -290.56514 -126.93371
#
# Velocity S-wave (km/s) = 4.03550 -11.35531 -7.50526
# Velocity P-wave (km/s) = 5.31951 12.24677 7.80020
#
# Compressibility (1/GPa) = 0.06740501
#
# Stress axis : x y z
#
# Youngs Moduli (GPa) = 13.78612 155.09543 158.46027
#
# Poissons Ratio (x) = 0.12311 1.18817
# Poissons Ratio (y) = 0.01094 0.10348
# Poissons Ratio (z) = 0.10337 0.10128
#
# Static dielectric constant tensor:
#      x y z
#    x 3.509190 0.000000 0.000000 
#    y 0.000000 4.993090 0.000000 
#    z 0.000000 0.000000 4.449300 
# 
# 
# High freq. dielectric constant tensor:
#      x y z
#    x 1.836710 0.000000 0.000000 
#    y 0.000000 1.932050 0.000000 
#    z 0.000000 0.000000 1.912410 
# 
# From -- ./inp_files/23987.got.cif
#   From: 2010.03.12/outbox.cif.g09.slc.cpg/sg55_12_cif.got.tgz:23987.got - 2010.04.16 15:19:21.
