data_PCOD8224145
_publ_section_title
;
Structure prediction by ZEFSAII (Michael W. Deem and Ramdas Pophale) SiO2 
 PCOD8224145
Probable space group: P C C A
;
_chemical_formula_sum "Si O2"
_cell_formula_units_Z 40
_cell_length_a 14.665215
_cell_length_b 4.791821
_cell_length_c 22.871978
_cell_angle_alpha 90.000000
_cell_angle_beta 90.000000
_cell_angle_gamma 90.000000
_cell_volume 1607.284459
_symmetry_space_group_name_H-M "P C C A"
_symmetry_group_IT_number 54
_symmetry_cell_setting 'orthorhombic'
loop_
_space_group_symop_operation_xyz
x,y,z
1/2-x,-y,z
1/2+x,-y,1/2-z
-x,y,1/2-z
-x,-y,-z
1/2+x,y,-z
1/2-x,y,1/2+z
x,-y,1/2+z
loop_
_atom_site_type_symbol
_atom_site_label
_atom_site_fract_x
_atom_site_fract_y
_atom_site_fract_z
Si Si1 0.590494 0.801223 0.863701
Si Si2 0.650510 0.462406 0.171180
Si Si3 0.750000 0.500000 0.935092
Si Si4 0.910644 0.042803 0.106665
Si Si5 0.585509 0.306565 0.784720
Si Si6 0.250000 0.000000 0.983695
O O1 0.670755 0.638017 0.896461
O O2 0.512273 0.922613 0.908050
O O3 0.546656 0.573013 0.820512
O O4 0.629253 0.066782 0.826212
O O5 0.750000 0.500000 0.142859
O O6 0.626529 0.139202 0.161588
O O7 0.657047 0.564050 0.238472
O O8 0.579932 0.647312 0.132541
O O9 0.714877 0.254381 0.976606
O O10 0.841670 0.056286 0.052674
O O11 0.500000 0.174364 0.750000
#
# Coordination Sequence:
#
# PCOD8224145 Si02
#       6
#     8   8   4   8   8   4
#     4  12  26  47  68 105 147 193 239 296 366 453
#     4  12  23  40  66 112 144 183 229 297 365 440
#     4  12  30  50  68  98 148 190 246 308 370 436
#     4  12  23  43  76 102 138 181 247 309 363 428
#     4  12  23  42  72 105 148 194 231 283 368 457
#     4  12  26  48  74 100 130 190 250 324 372 416
#
# _framework density 24.886697000000002
#
# number of rings (size 3 to 8) (size 9 to 14) (size 15 to 20)
#    0.000    0.000    6.000    4.200    1.400    1.600 
#    0.000    0.000    0.000    0.000    0.000    0.000 
#    0.000    0.000    0.000    0.000    0.000    0.000 
#
# Total GULP energy -495672.593488 kJ/mol
# GULP energy per Si atom -12391.814837 kJ/mol
# Density = 2.483005 g / cm^3
# Si number density = 24.886697 Si / 1000 Ang^3
#
#
#
# Elastic Constant Matrix: (Units=GPa)
#
#
# Indices 1 2 3 4 5 6 
#
# 1 105.1172 7.5496 27.2637 0.0000 0.0000 0.0000
# 2 7.5496 118.0971 38.2328 0.0000 0.0000 0.0000
# 3 27.2637 38.2328 100.9472 0.0000 0.0000 0.0000
# 4 0.0000 0.0000 0.0000 39.6366 0.0000 0.0000
# 5 0.0000 0.0000 0.0000 0.0000 117.4626 0.0000
# 6 0.0000 0.0000 0.0000 0.0000 0.0000 42.3073
#
#
#
# Elastic Compliance Matrix: (Units=1/GPa)
#
#
# Indices 1 2 3 4 5 6 
#
# 1 0.010238 0.000274 -0.002869 0.000000 0.000000 0.000000
# 2 0.000274 0.009658 -0.003732 0.000000 0.000000 0.000000
# 3 -0.002869 -0.003732 0.012094 0.000000 0.000000 0.000000
# 4 0.000000 0.000000 0.000000 0.025229 0.000000 0.000000
# 5 0.000000 0.000000 0.000000 0.000000 0.008513 0.000000
# 6 0.000000 0.000000 0.000000 0.000000 0.000000 0.023637
#
#
# Mechanical properties :
#
#
# Convention : Reuss Voigt Hill
#
# Bulk Modulus (GPa) = 51.71404 52.25042 51.98223
# Shear Modulus (GPa) = 46.09637 56.62232 51.35935
#
# Velocity S-wave (km/s) = 4.30845 4.77508 4.54775
# Velocity P-wave (km/s) = 6.75094 7.17236 6.96484
#
# Compressibility (1/GPa) = 0.01933711
#
# Stress axis : x y z
#
# Youngs Moduli (GPa) = 97.67943 103.53798 82.68243
#
# Poissons Ratio (x) = -0.02840 0.23720
# Poissons Ratio (y) = -0.02679 0.30858
# Poissons Ratio (z) = 0.28023 0.38641
#
# Static dielectric constant tensor:
#      x y z
#    x 4.285070 0.000000 0.000000 
#    y 0.000000 4.829800 0.000000 
#    z 0.000000 0.000000 4.473180 
# 
# 
# High freq. dielectric constant tensor:
#      x y z
#    x 1.989180 0.000000 0.000000 
#    y 0.000000 2.016440 0.000000 
#    z 0.000000 0.000000 1.969990 
# 
# From -- ./inp_files/24344.got.cif
#   From: 2010.03.12/outbox.cif.g09.slc.cpg/sg54_13_cif.got.tgz:24344.got - 2010.04.16 15:00:50.
