data_PCOD8224739
_publ_section_title
;
Structure prediction by ZEFSAII (Michael W. Deem and Ramdas Pophale) SiO2 
 PCOD8224739
Probable space group: P B A M
;
_chemical_formula_sum "Si O2"
_cell_formula_units_Z 52
_cell_length_a 8.265806
_cell_length_b 14.735840
_cell_length_c 19.350946
_cell_angle_alpha 90.000000
_cell_angle_beta 90.000000
_cell_angle_gamma 90.000000
_cell_volume 2357.014783
_symmetry_space_group_name_H-M "P B A M"
_symmetry_group_IT_number 55
_symmetry_cell_setting 'orthorhombic'
loop_
_space_group_symop_operation_xyz
x,y,z
-x,-y,z
1/2+x,1/2-y,-z
1/2-x,1/2+y,-z
-x,-y,-z
x,y,-z
1/2-x,1/2+y,z
1/2+x,1/2-y,z
loop_
_atom_site_type_symbol
_atom_site_label
_atom_site_fract_x
_atom_site_fract_y
_atom_site_fract_z
Si Si1 0.377296 0.619514 0.000000
Si Si2 0.684876 0.307038 0.322977
Si Si3 0.500000 0.500000 0.117313
Si Si4 0.035818 0.715991 0.774488
Si Si5 0.268698 0.057987 0.577256
Si Si6 0.619809 0.139092 0.421403
Si Si7 0.786264 0.204649 0.000000
Si Si8 0.257992 0.352203 0.851954
O O1 0.381666 0.559444 0.068951
O O2 0.224409 0.685957 0.000000
O O3 0.523641 0.690093 0.000000
O O4 0.556903 0.300035 0.261486
O O5 0.641572 0.393001 0.371480
O O6 0.683677 0.214562 0.368336
O O7 0.857553 0.328519 0.286245
O O8 0.623985 0.561246 0.162505
O O9 0.906542 0.643348 0.806018
O O10 0.145886 0.759551 0.834115
O O11 0.198177 0.060198 0.500000
O O12 0.428493 0.120992 0.581399
O O13 0.294702 0.954942 0.600219
O O14 0.667267 0.167080 0.500000
O O15 0.709677 0.155677 0.067479
#
# Coordination Sequence:
#
# PCOD8224739 Si02
#       8
#     4   8   4   8   8   8   4   8
#     4   9  18  32  60  95 106 150 180 235 306 365
#     4  11  19  39  57  83 118 167 194 259 292 377
#     4   9  18  34  58  84 122 140 191 238 302 346
#     4  10  23  36  57  81 121 155 212 223 301 369
#     4   9  18  34  59  87 115 152 203 256 304 354
#     4   9  18  34  59  88 116 155 206 252 303 359
#     4  10  18  34  68  80 114 144 192 240 304 342
#     4  10  20  39  59  89 111 158 196 250 291 365
#
# _framework density 22.061805
#
# number of rings (size 3 to 8) (size 9 to 14) (size 15 to 20)
#    0.000    2.308    1.538    3.692    0.000    0.000 
#    5.538    0.000    3.385   24.923    0.000    0.000 
#    0.000    0.000    0.000    0.000    0.000    0.000 
#
# Total GULP energy -644376.482273 kJ/mol
# GULP energy per Si atom -12391.855428 kJ/mol
# Density = 2.201159 g / cm^3
# Si number density = 22.061805 Si / 1000 Ang^3
#
#
#
# Elastic Constant Matrix: (Units=GPa)
#
#
# Indices 1 2 3 4 5 6 
#
# 1 39.1681 0.5599 16.8344 0.0000 0.0000 0.0000
# 2 0.5599 69.4267 20.5713 0.0000 0.0000 0.0000
# 3 16.8344 20.5713 98.0751 0.0000 0.0000 0.0000
# 4 0.0000 0.0000 0.0000 25.8898 0.0000 0.0000
# 5 0.0000 0.0000 0.0000 0.0000 21.9597 0.0000
# 6 0.0000 0.0000 0.0000 0.0000 0.0000 36.2260
#
#
#
# Elastic Compliance Matrix: (Units=1/GPa)
#
#
# Indices 1 2 3 4 5 6 
#
# 1 0.027668 0.001262 -0.005014 0.000000 0.000000 0.000000
# 2 0.001262 0.015416 -0.003450 0.000000 0.000000 0.000000
# 3 -0.005014 -0.003450 0.011781 0.000000 0.000000 0.000000
# 4 0.000000 0.000000 0.000000 0.038625 0.000000 0.000000
# 5 0.000000 0.000000 0.000000 0.000000 0.045538 0.000000
# 6 0.000000 0.000000 0.000000 0.000000 0.000000 0.027604
#
#
# Mechanical properties :
#
#
# Convention : Reuss Voigt Hill
#
# Bulk Modulus (GPa) = 24.71513 31.40013 28.05763
# Shear Modulus (GPa) = 25.70398 28.06204 26.88301
#
# Velocity S-wave (km/s) = 3.41704 3.57034 3.49453
# Velocity P-wave (km/s) = 5.17641 5.59108 5.38774
#
# Compressibility (1/GPa) = 0.04046104
#
# Stress axis : x y z
#
# Youngs Moduli (GPa) = 36.14293 64.86850 84.88544
#
# Poissons Ratio (x) = -0.08190 0.42561
# Poissons Ratio (y) = -0.04563 0.29287
# Poissons Ratio (z) = 0.18122 0.22381
#
# Static dielectric constant tensor:
#      x y z
#    x 3.809450 0.000000 0.000000 
#    y 0.000000 3.787820 0.000000 
#    z 0.000000 0.000000 4.211350 
# 
# 
# High freq. dielectric constant tensor:
#      x y z
#    x 1.843060 0.000000 0.000000 
#    y 0.000000 1.845890 0.000000 
#    z 0.000000 0.000000 1.880080 
# 
# From -- ./inp_files/22593.got.cif
#   From: 2010.03.12/outbox.cif.g09.slc.cpg/sg55_12_cif.got.tgz:22593.got - 2010.04.16 15:19:21.
