data_PCOD8224751
_publ_section_title
;
Structure prediction by ZEFSAII (Michael W. Deem and Ramdas Pophale) SiO2 
 PCOD8224751
Probable space group: P B A M
;
_chemical_formula_sum "Si O2"
_cell_formula_units_Z 64
_cell_length_a 12.973535
_cell_length_b 27.852456
_cell_length_c 8.886003
_cell_angle_alpha 90.000000
_cell_angle_beta 90.000000
_cell_angle_gamma 90.000000
_cell_volume 3210.911090
_symmetry_space_group_name_H-M "P B A M"
_symmetry_group_IT_number 55
_symmetry_cell_setting 'orthorhombic'
loop_
_space_group_symop_operation_xyz
x,y,z
-x,-y,z
1/2+x,1/2-y,-z
1/2-x,1/2+y,-z
-x,-y,-z
x,y,-z
1/2-x,1/2+y,z
1/2+x,1/2-y,z
loop_
_atom_site_type_symbol
_atom_site_label
_atom_site_fract_x
_atom_site_fract_y
_atom_site_fract_z
Si Si1 0.814956 0.706030 0.678689
Si Si2 0.021694 0.654906 0.678944
Si Si3 0.230373 0.952425 0.322727
Si Si4 0.541946 0.050835 0.320531
Si Si5 0.256486 0.190402 0.678847
Si Si6 0.593364 0.463680 0.668342
Si Si7 0.374887 0.358019 0.322088
Si Si8 0.580848 0.367173 0.175186
O O1 0.819962 0.705788 0.500000
O O2 0.789643 0.759284 0.739184
O O3 0.720209 0.673745 0.734416
O O4 0.923139 0.684967 0.742903
O O5 0.016353 0.655820 0.500000
O O6 0.019546 0.598814 0.733125
O O7 0.126527 0.680529 0.736154
O O8 0.238301 0.945935 0.500000
O O9 0.342983 0.943523 0.254150
O O10 0.149220 0.912303 0.267551
O O11 0.193743 0.005991 0.281358
O O12 0.541136 0.048436 0.500000
O O13 0.500000 0.000000 0.255719
O O14 0.254242 0.188387 0.500000
O O15 0.184731 0.149378 0.744850
O O16 0.500000 0.500000 0.662899
O O17 0.608061 0.441345 0.500000
O O18 0.572731 0.423564 0.791593
O O19 0.392307 0.353373 0.500000
O O20 0.479970 0.340608 0.242302
O O21 0.587184 0.356731 0.000000
#
# Coordination Sequence:
#
# PCOD8224751 Si02
#       8
#     8   8   8   8   8   8   8   8
#     4   9  18  33  59  90 116 142 182 241 299 344
#     4   9  17  31  51  85 120 140 176 234 291 344
#     4   9  16  28  49  81 115 146 178 221 284 342
#     4   9  16  25  42  75 117 148 172 216 279 342
#     4  10  22  37  59  87 114 149 190 239 293 345
#     4  10  19  34  57  84 111 145 190 237 287 342
#     4  10  18  35  61  88 115 145 188 241 289 345
#     4  12  26  40  54  79 118 161 200 240 288 343
#
# _framework density 19.932037000000001
#
# number of rings (size 3 to 8) (size 9 to 14) (size 15 to 20)
#    0.000    2.250    2.500    1.125    3.500    0.250 
#    0.000    0.625    0.000    0.750    0.000    0.875 
#    0.000    0.000    0.000    0.000    0.000    0.000 
#
# Total GULP energy -793226.425592 kJ/mol
# GULP energy per Si atom -12394.162900 kJ/mol
# Density = 1.988667 g / cm^3
# Si number density = 19.932037 Si / 1000 Ang^3
#
#
#
# Elastic Constant Matrix: (Units=GPa)
#
#
# Indices 1 2 3 4 5 6 
#
# 1 159.5306 60.3410 24.6069 0.0000 0.0000 0.0000
# 2 60.3410 113.4416 15.3868 0.0000 0.0000 0.0000
# 3 24.6069 15.3868 18.8698 0.0000 0.0000 0.0000
# 4 0.0000 0.0000 0.0000 4.8833 0.0000 0.0000
# 5 0.0000 0.0000 0.0000 0.0000 3.2013 0.0000
# 6 0.0000 0.0000 0.0000 0.0000 0.0000 34.8413
#
#
#
# Elastic Compliance Matrix: (Units=1/GPa)
#
#
# Indices 1 2 3 4 5 6 
#
# 1 0.008980 -0.003585 -0.008787 0.000000 0.000000 0.000000
# 2 -0.003585 0.011342 -0.004574 0.000000 0.000000 0.000000
# 3 -0.008787 -0.004574 0.068183 0.000000 0.000000 0.000000
# 4 0.000000 0.000000 0.000000 0.204781 0.000000 0.000000
# 5 0.000000 0.000000 0.000000 0.000000 0.312375 0.000000
# 6 0.000000 0.000000 0.000000 0.000000 0.000000 0.028702
#
#
# Mechanical properties :
#
#
# Convention : Reuss Voigt Hill
#
# Bulk Modulus (GPa) = 18.31044 54.72349 36.51697
# Shear Modulus (GPa) = 7.28377 21.35231 14.31804
#
# Velocity S-wave (km/s) = 1.91370 3.27656 2.68310
# Velocity P-wave (km/s) = 3.75358 6.46754 5.28765
#
# Compressibility (1/GPa) = 0.05461364
#
# Stress axis : x y z
#
# Youngs Moduli (GPa) = 111.36449 88.16626 14.66638
#
# Poissons Ratio (x) = 0.31603 0.12887
# Poissons Ratio (y) = 0.39919 0.06709
# Poissons Ratio (z) = 0.97853 0.40330
#
# Static dielectric constant tensor:
#      x y z
#    x 4.029130 0.000000 0.000000 
#    y 0.000000 3.857350 0.000000 
#    z 0.000000 0.000000 2.886390 
# 
# 
# High freq. dielectric constant tensor:
#      x y z
#    x 1.795290 0.000000 0.000000 
#    y 0.000000 1.784790 0.000000 
#    z 0.000000 0.000000 1.695280 
# 
# From -- ./inp_files/4488.got.cif
#   From: 2010.03.12/outbox.cif.g09.slc.cpg/sg55_3_cif.got.tgz:4488.got - 2010.04.16 15:19:21.
