data_PCOD8224475
_publ_section_title
;
Structure prediction by ZEFSAII (Michael W. Deem and Ramdas Pophale) SiO2 
 PCOD8224475
Probable space group: P B A M
;
_chemical_formula_sum "Si O2"
_cell_formula_units_Z 48
_cell_length_a 9.136483
_cell_length_b 18.420073
_cell_length_c 16.125574
_cell_angle_alpha 90.000000
_cell_angle_beta 90.000000
_cell_angle_gamma 90.000000
_cell_volume 2713.848378
_symmetry_space_group_name_H-M "P B A M"
_symmetry_group_IT_number 55
_symmetry_cell_setting 'orthorhombic'
loop_
_space_group_symop_operation_xyz
x,y,z
-x,-y,z
1/2+x,1/2-y,-z
1/2-x,1/2+y,-z
-x,-y,-z
x,y,-z
1/2-x,1/2+y,z
1/2+x,1/2-y,z
loop_
_atom_site_type_symbol
_atom_site_label
_atom_site_fract_x
_atom_site_fract_y
_atom_site_fract_z
Si Si1 0.836958 0.289898 0.164278
Si Si2 0.177531 0.175186 0.403131
Si Si3 0.329237 0.082700 0.275425
Si Si4 0.865978 0.672788 0.906775
Si Si5 0.169109 0.418225 0.250214
Si Si6 0.135356 0.798944 0.674770
O O1 0.768819 0.363398 0.203711
O O2 0.713276 0.248134 0.114203
O O3 0.902880 0.241425 0.239183
O O4 0.962636 0.311039 0.100020
O O5 0.175895 0.160674 0.500000
O O6 0.256458 0.105532 0.362175
O O7 0.265568 0.248390 0.383324
O O8 0.012989 0.181608 0.371011
O O9 0.504255 0.091266 0.283133
O O10 0.281306 0.001605 0.252358
O O11 0.817745 0.608802 0.844759
O O12 0.828747 0.647660 0.000000
O O13 0.275315 0.372722 0.309269
#
# Coordination Sequence:
#
# PCOD8224475 Si02
#       6
#     8   8   8   8   8   8
#     4   9  17  31  51  71  97 133 166 199 248 303
#     4  11  21  34  53  79 102 126 166 216 253 290
#     4   9  18  36  54  72 100 137 174 203 245 308
#     4  10  18  30  49  76 101 126 166 215 250 285
#     4   9  19  35  54  72 100 140 172 200 248 307
#     4  10  19  34  54  74 101 136 168 201 250 307
#
# _framework density 17.687061
#
# number of rings (size 3 to 8) (size 9 to 14) (size 15 to 20)
#    0.000    2.333    0.000    6.000    0.000    0.667 
#    0.000   12.500    0.000    0.000    0.000    5.833 
#    0.000    0.000    0.000    0.000    0.000    0.000 
#
# Total GULP energy -595238.443963 kJ/mol
# GULP energy per Si atom -12400.800916 kJ/mol
# Density = 1.764680 g / cm^3
# Si number density = 17.687061 Si / 1000 Ang^3
#
#
#
# Elastic Constant Matrix: (Units=GPa)
#
#
# Indices 1 2 3 4 5 6 
#
# 1 67.9265 43.3558 42.1118 0.0000 0.0000 0.0000
# 2 43.3558 144.9636 49.9155 0.0000 0.0000 0.0000
# 3 42.1118 49.9155 111.4143 0.0000 0.0000 0.0000
# 4 0.0000 0.0000 0.0000 15.4054 0.0000 0.0000
# 5 0.0000 0.0000 0.0000 0.0000 22.9097 0.0000
# 6 0.0000 0.0000 0.0000 0.0000 0.0000 26.4938
#
#
#
# Elastic Compliance Matrix: (Units=1/GPa)
#
#
# Indices 1 2 3 4 5 6 
#
# 1 0.021223 -0.004239 -0.006123 0.000000 0.000000 0.000000
# 2 -0.004239 0.009003 -0.002431 0.000000 0.000000 0.000000
# 3 -0.006123 -0.002431 0.012379 0.000000 0.000000 0.000000
# 4 0.000000 0.000000 0.000000 0.064912 0.000000 0.000000
# 5 0.000000 0.000000 0.000000 0.000000 0.043650 0.000000
# 6 0.000000 0.000000 0.000000 0.000000 0.000000 0.037745
#
#
# Mechanical properties :
#
#
# Convention : Reuss Voigt Hill
#
# Bulk Modulus (GPa) = 58.75694 66.11896 62.43795
# Shear Modulus (GPa) = 22.70951 25.55653 24.13302
#
# Velocity S-wave (km/s) = 3.58713 3.80534 3.69785
# Velocity P-wave (km/s) = 7.10275 7.53468 7.32190
#
# Compressibility (1/GPa) = 0.01701927
#
# Stress axis : x y z
#
# Youngs Moduli (GPa) = 47.11763 111.06977 80.78204
#
# Poissons Ratio (x) = 0.47086 0.49460
# Poissons Ratio (y) = 0.19975 0.19641
# Poissons Ratio (z) = 0.28849 0.27004
#
# Static dielectric constant tensor:
#      x y z
#    x 3.232230 0.000000 0.000000 
#    y 0.000000 3.385090 0.000000 
#    z 0.000000 0.000000 3.185000 
# 
# 
# High freq. dielectric constant tensor:
#      x y z
#    x 1.684160 0.000000 0.000000 
#    y 0.000000 1.680910 0.000000 
#    z 0.000000 0.000000 1.673240 
# 
# From -- ./inp_files/17319.got.cif
#   From: 2010.03.12/outbox.cif.g09.slc.cpg/sg55_9_cif.got.tgz:17319.got - 2010.04.16 15:19:21.
