data_PCOD8224605
_publ_section_title
;
Structure prediction by ZEFSAII (Michael W. Deem and Ramdas Pophale) SiO2 
 PCOD8224605
Probable space group: P B A M
;
_chemical_formula_sum "Si O2"
_cell_formula_units_Z 64
_cell_length_a 18.806349
_cell_length_b 23.119680
_cell_length_c 8.864413
_cell_angle_alpha 90.000000
_cell_angle_beta 90.000000
_cell_angle_gamma 90.000000
_cell_volume 3854.218148
_symmetry_space_group_name_H-M "P B A M"
_symmetry_group_IT_number 55
_symmetry_cell_setting 'orthorhombic'
loop_
_space_group_symop_operation_xyz
x,y,z
-x,-y,z
1/2+x,1/2-y,-z
1/2-x,1/2+y,-z
-x,-y,-z
x,y,-z
1/2-x,1/2+y,z
1/2+x,1/2-y,z
loop_
_atom_site_type_symbol
_atom_site_label
_atom_site_fract_x
_atom_site_fract_y
_atom_site_fract_z
Si Si1 0.504146 0.245977 0.824917
Si Si2 0.643238 0.938312 0.678053
Si Si3 0.994262 0.385537 0.823660
Si Si4 0.846451 0.225124 0.827308
Si Si5 0.355798 0.722882 0.324218
Si Si6 0.733259 0.841609 0.175821
Si Si7 0.354031 0.939804 0.176188
Si Si8 0.272954 0.838833 0.675214
O O1 0.497846 0.180296 0.765981
O O2 0.430378 0.279383 0.797665
O O3 0.563069 0.280226 0.730337
O O4 0.526157 0.245696 0.000000
O O5 0.643011 0.935437 0.500000
O O6 0.566438 0.919570 0.736884
O O7 0.705842 0.898004 0.739509
O O8 0.660570 0.002658 0.731037
O O9 0.067854 0.416505 0.785408
O O10 0.975377 0.387453 0.000000
O O11 0.821844 0.290104 0.788857
O O12 0.807147 0.179125 0.720471
O O13 0.827181 0.210703 0.000000
O O14 0.350872 0.709249 0.500000
O O15 0.311299 0.674301 0.236399
O O16 0.325439 0.786127 0.284928
O O17 0.738047 0.855364 0.000000
O O18 0.295618 0.893304 0.226019
O O19 0.345555 0.952558 0.000000
O O20 0.275433 0.855074 0.500000
#
# Coordination Sequence:
#
# PCOD8224605 Si02
#       8
#     8   8   8   8   8   8   8   8
#     4  10  18  32  52  76 102 136 176 210 248 301
#     4  12  24  35  50  73 104 136 172 217 263 302
#     4  10  20  35  51  71 100 139 182 214 243 294
#     4   9  18  32  52  73  98 131 171 211 251 301
#     4  10  20  32  49  76 106 133 164 209 264 309
#     4  10  19  35  54  72  97 134 176 213 250 300
#     4  11  22  36  54  71  97 138 182 215 248 298
#     4  10  20  33  49  73 103 131 166 211 261 305
#
# _framework density 16.605183
#
# number of rings (size 3 to 8) (size 9 to 14) (size 15 to 20)
#    0.000    1.750    2.500    3.000    0.000    5.000 
#    0.000    0.000    0.000    0.000    0.000    0.875 
#    0.000    7.000    0.000    0.000    0.000    0.000 
#
# Total GULP energy -793929.364730 kJ/mol
# GULP energy per Si atom -12405.146324 kJ/mol
# Density = 1.656739 g / cm^3
# Si number density = 16.605183 Si / 1000 Ang^3
#
#
#
# Elastic Constant Matrix: (Units=GPa)
#
#
# Indices 1 2 3 4 5 6 
#
# 1 94.1933 45.5407 39.9032 0.0000 0.0000 0.0000
# 2 45.5407 79.2694 41.5008 0.0000 0.0000 0.0000
# 3 39.9032 41.5008 74.0216 0.0000 0.0000 0.0000
# 4 0.0000 0.0000 0.0000 25.9725 0.0000 0.0000
# 5 0.0000 0.0000 0.0000 0.0000 18.4642 0.0000
# 6 0.0000 0.0000 0.0000 0.0000 0.0000 19.7731
#
#
#
# Elastic Compliance Matrix: (Units=1/GPa)
#
#
# Indices 1 2 3 4 5 6 
#
# 1 0.015849 -0.006557 -0.004867 0.000000 0.000000 0.000000
# 2 -0.006557 0.020569 -0.007998 0.000000 0.000000 0.000000
# 3 -0.004867 -0.007998 0.020617 0.000000 0.000000 0.000000
# 4 0.000000 0.000000 0.000000 0.038502 0.000000 0.000000
# 5 0.000000 0.000000 0.000000 0.000000 0.054159 0.000000
# 6 0.000000 0.000000 0.000000 0.000000 0.000000 0.050574
#
#
# Mechanical properties :
#
#
# Convention : Reuss Voigt Hill
#
# Bulk Modulus (GPa) = 54.97105 55.70818 55.33962
# Shear Modulus (GPa) = 20.39337 20.87794 20.63566
#
# Velocity S-wave (km/s) = 3.50827 3.54971 3.52905
# Velocity P-wave (km/s) = 7.04182 7.10085 7.07140
#
# Compressibility (1/GPa) = 0.01819139
#
# Stress axis : x y z
#
# Youngs Moduli (GPa) = 63.09724 48.61628 48.50254
#
# Poissons Ratio (x) = 0.31877 0.23608
# Poissons Ratio (y) = 0.41371 0.38791
# Poissons Ratio (z) = 0.30712 0.38882
#
# Static dielectric constant tensor:
#      x y z
#    x 3.088840 0.000000 0.000000 
#    y 0.000000 2.961110 0.000000 
#    z 0.000000 0.000000 3.142400 
# 
# 
# High freq. dielectric constant tensor:
#      x y z
#    x 1.634200 0.000000 0.000000 
#    y 0.000000 1.615180 0.000000 
#    z 0.000000 0.000000 1.648460 
# 
# From -- ./inp_files/7947.got.cif
#   From: 2010.03.12/outbox.cif.g09.slc.cpg/sg55_4_cif.got.tgz:7947.got - 2010.04.16 15:19:21.
