data_PCOD8224129
_publ_section_title
;
Structure prediction by ZEFSAII (Michael W. Deem and Ramdas Pophale) SiO2 
 PCOD8224129
Probable space group: P C C A
;
_chemical_formula_sum "Si O2"
_cell_formula_units_Z 40
_cell_length_a 13.844510
_cell_length_b 9.176495
_cell_length_c 13.990539
_cell_angle_alpha 90.000000
_cell_angle_beta 90.000000
_cell_angle_gamma 90.000000
_cell_volume 1777.415111
_symmetry_space_group_name_H-M "P C C A"
_symmetry_group_IT_number 54
_symmetry_cell_setting 'orthorhombic'
loop_
_space_group_symop_operation_xyz
x,y,z
1/2-x,-y,z
1/2+x,-y,1/2-z
-x,y,1/2-z
-x,-y,-z
1/2+x,y,-z
1/2-x,y,1/2+z
x,-y,1/2+z
loop_
_atom_site_type_symbol
_atom_site_label
_atom_site_fract_x
_atom_site_fract_y
_atom_site_fract_z
Si Si1 0.061085 0.661104 0.667124
Si Si2 0.113529 0.612617 0.060348
Si Si3 0.750000 0.000000 0.648448
Si Si4 0.250000 0.500000 0.402006
Si Si5 0.556781 0.874433 0.051389
Si Si6 0.773186 0.717087 0.255697
O O1 0.062641 0.542961 0.580744
O O2 0.163455 0.703884 0.710268
O O3 0.000000 0.583101 0.750000
O O4 0.005307 0.810321 0.639216
O O5 0.166203 0.664187 0.155248
O O6 0.179955 0.592369 0.968021
O O7 0.050001 0.748603 0.029207
O O8 0.835538 0.928299 0.583370
O O9 0.704284 0.879923 0.719631
O O10 0.302929 0.385396 0.332862
O O11 0.500000 0.000000 0.000000
#
# Coordination Sequence:
#
# PCOD8224129 Si02
#       6
#     8   8   4   4   8   8
#     4  12  24  49  72 111 145 187 254 315 361 444
#     4  12  26  47  80 106 147 197 244 316 374 441
#     4  12  28  50  74 106 162 200 238 314 378 450
#     4  12  20  48  76 112 138 192 252 298 372 438
#     4  12  31  46  73 111 151 199 252 306 375 456
#     4  12  26  46  78 109 146 198 243 304 382 446
#
# _framework density 22.504591999999999
#
# number of rings (size 3 to 8) (size 9 to 14) (size 15 to 20)
#    0.000    0.000    8.000    0.600    8.400    1.600 
#    0.000    0.000    0.000    0.000    0.000    0.000 
#    0.000    0.000    0.000    0.000    0.000    0.000 
#
# Total GULP energy -495731.756781 kJ/mol
# GULP energy per Si atom -12393.293920 kJ/mol
# Density = 2.245337 g / cm^3
# Si number density = 22.504592 Si / 1000 Ang^3
#
#
#
# Elastic Constant Matrix: (Units=GPa)
#
#
# Indices 1 2 3 4 5 6 
#
# 1 58.7346 29.1046 13.6463 0.0000 0.0000 0.0000
# 2 29.1046 152.3855 53.9950 0.0000 0.0000 0.0000
# 3 13.6463 53.9950 131.2693 0.0000 0.0000 0.0000
# 4 0.0000 0.0000 0.0000 38.6869 0.0000 0.0000
# 5 0.0000 0.0000 0.0000 0.0000 -112.1673 0.0000
# 6 0.0000 0.0000 0.0000 0.0000 0.0000 46.9675
#
#
#
# Elastic Compliance Matrix: (Units=1/GPa)
#
#
# Indices 1 2 3 4 5 6 
#
# 1 0.018841 -0.003400 -0.000560 0.000000 0.000000 0.000000
# 2 -0.003400 0.008295 -0.003059 0.000000 0.000000 0.000000
# 3 -0.000560 -0.003059 0.008934 0.000000 0.000000 0.000000
# 4 0.000000 0.000000 0.000000 0.025849 0.000000 0.000000
# 5 0.000000 0.000000 0.000000 0.000000 -0.008915 0.000000
# 6 0.000000 0.000000 0.000000 0.000000 0.000000 0.021291
#
#
# Mechanical properties :
#
#
# Convention : Reuss Voigt Hill
#
# Bulk Modulus (GPa) = 45.38680 59.54235 52.46458
# Shear Modulus (GPa) = 52.25917 11.07364 31.66641
#
# Velocity S-wave (km/s) = 4.82410 2.22065 3.75521
# Velocity P-wave (km/s) = 7.15827 5.75242 6.49351
#
# Compressibility (1/GPa) = 0.02203284
#
# Stress axis : x y z
#
# Youngs Moduli (GPa) = 53.07668 120.54743 111.92816
#
# Poissons Ratio (x) = 0.40986 0.06269
# Poissons Ratio (y) = 0.18046 0.34236
# Poissons Ratio (z) = 0.02973 0.36872
#
# Static dielectric constant tensor:
#      x y z
#    x 4.097360 0.000000 0.000000 
#    y 0.000000 4.147780 0.000000 
#    z 0.000000 0.000000 4.419610 
# 
# 
# High freq. dielectric constant tensor:
#      x y z
#    x 1.874710 0.000000 0.000000 
#    y 0.000000 1.905180 0.000000 
#    z 0.000000 0.000000 1.909970 
# 
# From -- ./inp_files/13259.got.cif
#   From: 2010.03.12/outbox.cif.g09.slc.cpg/sg54_7_cif.got.tgz:13259.got - 2010.04.16 15:00:50.
