data_PCOD8224620
_publ_section_title
;
Structure prediction by ZEFSAII (Michael W. Deem and Ramdas Pophale) SiO2 
 PCOD8224620
Probable space group: P B A M
;
_chemical_formula_sum "Si O2"
_cell_formula_units_Z 64
_cell_length_a 16.750408
_cell_length_b 22.303378
_cell_length_c 8.942654
_cell_angle_alpha 90.000000
_cell_angle_beta 90.000000
_cell_angle_gamma 90.000000
_cell_volume 3340.892200
_symmetry_space_group_name_H-M "P B A M"
_symmetry_group_IT_number 55
_symmetry_cell_setting 'orthorhombic'
loop_
_space_group_symop_operation_xyz
x,y,z
-x,-y,z
1/2+x,1/2-y,-z
1/2-x,1/2+y,-z
-x,-y,-z
x,y,-z
1/2-x,1/2+y,z
1/2+x,1/2-y,z
loop_
_atom_site_type_symbol
_atom_site_label
_atom_site_fract_x
_atom_site_fract_y
_atom_site_fract_z
Si Si1 0.233981 0.899335 0.174774
Si Si2 0.071617 0.118200 0.833631
Si Si3 0.291381 0.534843 0.822660
Si Si4 0.636513 0.169267 0.675748
Si Si5 0.197513 0.218370 0.168049
Si Si6 0.961386 0.300891 0.672052
Si Si7 0.083321 0.822688 0.821676
Si Si8 0.809635 0.372300 0.327870
O O1 0.318997 0.888423 0.254824
O O2 0.167732 0.851039 0.227334
O O3 0.203076 0.965344 0.218236
O O4 0.249268 0.894896 0.000000
O O5 0.128333 0.067706 0.757004
O O6 0.115558 0.181980 0.834596
O O7 0.986194 0.132492 0.756659
O O8 0.054889 0.094367 0.000000
O O9 0.213460 0.563342 0.742597
O O10 0.284004 0.547075 0.000000
O O11 0.635604 0.161560 0.500000
O O12 0.689490 0.225521 0.723783
O O13 0.546567 0.177523 0.738273
O O14 0.267994 0.178846 0.231936
O O15 0.219993 0.239860 0.000000
O O16 0.971286 0.281167 0.500000
O O17 0.925204 0.244009 0.758121
O O18 0.903829 0.358798 0.686578
O O19 0.074912 0.819119 0.000000
O O20 0.781653 0.369973 0.500000
#
# Coordination Sequence:
#
# PCOD8224620 Si02
#       8
#     8   8   8   8   8   8   8   8
#     4  10  22  37  55  80 110 145 184 227 272 321
#     4   8  15  29  52  80 107 138 171 211 259 312
#     4   9  19  37  56  78 110 145 186 228 265 316
#     4  11  22  36  54  76 107 145 182 223 275 327
#     4  10  18  32  54  81 110 139 175 218 269 326
#     4  10  22  37  53  79 111 141 177 224 274 326
#     4  10  19  33  55  84 113 142 176 216 270 329
#     4  10  20  35  56  80 106 141 183 225 271 323
#
# _framework density 19.156559999999999
#
# number of rings (size 3 to 8) (size 9 to 14) (size 15 to 20)
#    0.000    2.250    1.250    2.625    0.000    5.000 
#    0.000    3.125    0.000    3.750    0.000    3.500 
#    0.000    0.000    0.000    0.000    0.000    0.000 
#
# Total GULP energy -793299.367335 kJ/mol
# GULP energy per Si atom -12395.302615 kJ/mol
# Density = 1.911296 g / cm^3
# Si number density = 19.156560 Si / 1000 Ang^3
#
#
#
# Elastic Constant Matrix: (Units=GPa)
#
#
# Indices 1 2 3 4 5 6 
#
# 1 111.6700 51.1180 35.4516 0.0000 0.0000 0.0000
# 2 51.1180 77.6071 27.2853 0.0000 0.0000 0.0000
# 3 35.4516 27.2853 42.3550 0.0000 0.0000 0.0000
# 4 0.0000 0.0000 0.0000 18.6547 0.0000 0.0000
# 5 0.0000 0.0000 0.0000 0.0000 25.2369 0.0000
# 6 0.0000 0.0000 0.0000 0.0000 0.0000 25.3036
#
#
#
# Elastic Compliance Matrix: (Units=1/GPa)
#
#
# Indices 1 2 3 4 5 6 
#
# 1 0.014562 -0.006860 -0.007769 0.000000 0.000000 0.000000
# 2 -0.006860 0.019890 -0.007071 0.000000 0.000000 0.000000
# 3 -0.007769 -0.007071 0.034668 0.000000 0.000000 0.000000
# 4 0.000000 0.000000 0.000000 0.053606 0.000000 0.000000
# 5 0.000000 0.000000 0.000000 0.000000 0.039625 0.000000
# 6 0.000000 0.000000 0.000000 0.000000 0.000000 0.039520
#
#
# Mechanical properties :
#
#
# Convention : Reuss Voigt Hill
#
# Bulk Modulus (GPa) = 38.88166 51.03800 44.95983
# Shear Modulus (GPa) = 19.69712 21.69084 20.69398
#
# Velocity S-wave (km/s) = 3.21006 3.36861 3.29029
# Velocity P-wave (km/s) = 5.83782 6.46764 6.16079
#
# Compressibility (1/GPa) = 0.02571907
#
# Stress axis : x y z
#
# Youngs Moduli (GPa) = 68.67391 50.27627 28.84489
#
# Poissons Ratio (x) = 0.34489 0.22410
# Poissons Ratio (y) = 0.47110 0.20398
# Poissons Ratio (z) = 0.53353 0.35553
#
# Static dielectric constant tensor:
#      x y z
#    x 3.801400 0.000000 0.000000 
#    y 0.000000 3.471700 0.000000 
#    z 0.000000 0.000000 3.358670 
# 
# 
# High freq. dielectric constant tensor:
#      x y z
#    x 1.751450 0.000000 0.000000 
#    y 0.000000 1.730610 0.000000 
#    z 0.000000 0.000000 1.725160 
# 
# From -- ./inp_files/6704.got.cif
#   From: 2010.03.12/outbox.cif.g09.slc.cpg/sg55_4_cif.got.tgz:6704.got - 2010.04.16 15:19:21.
