data_PCOD8224682
_publ_section_title
;
Structure prediction by ZEFSAII (Michael W. Deem and Ramdas Pophale) SiO2 
 PCOD8224682
Probable space group: P B A M
;
_chemical_formula_sum "Si O2"
_cell_formula_units_Z 64
_cell_length_a 30.774795
_cell_length_b 12.198748
_cell_length_c 8.698188
_cell_angle_alpha 90.000000
_cell_angle_beta 90.000000
_cell_angle_gamma 90.000000
_cell_volume 3265.421280
_symmetry_space_group_name_H-M "P B A M"
_symmetry_group_IT_number 55
_symmetry_cell_setting 'orthorhombic'
loop_
_space_group_symop_operation_xyz
x,y,z
-x,-y,z
1/2+x,1/2-y,-z
1/2-x,1/2+y,-z
-x,-y,-z
x,y,-z
1/2-x,1/2+y,z
1/2+x,1/2-y,z
loop_
_atom_site_type_symbol
_atom_site_label
_atom_site_fract_x
_atom_site_fract_y
_atom_site_fract_z
Si Si1 0.046273 0.035837 0.680505
Si Si2 0.048613 0.488136 0.817241
Si Si3 0.205176 0.028695 0.183302
Si Si4 0.872724 0.106872 0.317462
Si Si5 0.072998 0.251408 0.172649
Si Si6 0.377083 0.151991 0.183015
Si Si7 0.326715 0.754428 0.172183
Si Si8 0.303156 0.987497 0.817438
O O1 0.045825 0.019458 0.500000
O O2 0.050162 0.163458 0.719533
O O3 0.086294 0.963602 0.747827
O O4 0.000000 0.000000 0.752063
O O5 0.066117 0.371828 0.756346
O O6 0.079998 0.585866 0.760980
O O7 0.000000 0.500000 0.751390
O O8 0.049104 0.487871 0.000000
O O9 0.172405 0.940303 0.253401
O O10 0.253959 0.003724 0.236256
O O11 0.196240 0.150290 0.251882
O O12 0.199712 0.025433 0.000000
O O13 0.871198 0.102099 0.500000
O O14 0.877947 0.231177 0.263588
O O15 0.123268 0.224496 0.170045
O O16 0.053541 0.243671 0.000000
O O17 0.334639 0.084638 0.241233
O O18 0.376497 0.167967 0.000000
O O19 0.317789 0.870465 0.255639
O O20 0.307880 0.764740 0.000000
O O21 0.308304 0.983836 0.000000
#
# Coordination Sequence:
#
# PCOD8224682 Si02
#       8
#     8   8   8   8   8   8   8   8
#     4  10  23  41  57  75 106 147 185 223 272 324
#     4   9  18  32  53  85 118 144 173 221 281 328
#     4  10  20  34  58  85 108 140 183 225 268 323
#     4  11  24  40  55  76 112 149 181 226 277 323
#     4  10  18  33  58  83 109 138 177 228 273 316
#     4  10  20  36  58  83 113 148 184 222 269 328
#     4   9  16  30  52  81 111 136 172 225 270 310
#     4   9  18  32  55  86 113 140 178 224 270 316
#
# _framework density 19.599308000000001
#
# number of rings (size 3 to 8) (size 9 to 14) (size 15 to 20)
#    0.000    2.250    2.500    0.375    3.500    0.750 
#    0.000    1.250    0.000    2.250    0.000    0.000 
#    0.000    0.000    0.000    0.000    0.000    0.000 
#
# Total GULP energy -793346.188889 kJ/mol
# GULP energy per Si atom -12396.034201 kJ/mol
# Density = 1.955470 g / cm^3
# Si number density = 19.599308 Si / 1000 Ang^3
#
#
#
# Elastic Constant Matrix: (Units=GPa)
#
#
# Indices 1 2 3 4 5 6 
#
# 1 134.0868 51.3181 20.5458 0.0000 0.0000 0.0000
# 2 51.3181 139.5829 15.4108 0.0000 0.0000 0.0000
# 3 20.5458 15.4108 19.1095 0.0000 0.0000 0.0000
# 4 0.0000 0.0000 0.0000 8.7544 0.0000 0.0000
# 5 0.0000 0.0000 0.0000 0.0000 10.7060 0.0000
# 6 0.0000 0.0000 0.0000 0.0000 0.0000 36.6893
#
#
#
# Elastic Compliance Matrix: (Units=1/GPa)
#
#
# Indices 1 2 3 4 5 6 
#
# 1 0.009756 -0.002666 -0.008339 0.000000 0.000000 0.000000
# 2 -0.002666 0.008593 -0.004063 0.000000 0.000000 0.000000
# 3 -0.008339 -0.004063 0.064573 0.000000 0.000000 0.000000
# 4 0.000000 0.000000 0.000000 0.114228 0.000000 0.000000
# 5 0.000000 0.000000 0.000000 0.000000 0.093405 0.000000
# 6 0.000000 0.000000 0.000000 0.000000 0.000000 0.027256
#
#
# Mechanical properties :
#
#
# Convention : Reuss Voigt Hill
#
# Bulk Modulus (GPa) = 18.94490 51.92540 35.43515
# Shear Modulus (GPa) = 13.67826 24.93025 19.30425
#
# Velocity S-wave (km/s) = 2.64464 3.57038 3.14179
# Velocity P-wave (km/s) = 4.36034 6.59907 5.59287
#
# Compressibility (1/GPa) = 0.05278465
#
# Stress axis : x y z
#
# Youngs Moduli (GPa) = 102.50041 116.37343 15.48636
#
# Poissons Ratio (x) = 0.31027 0.12914
# Poissons Ratio (y) = 0.27328 0.06293
# Poissons Ratio (z) = 0.85478 0.47286
#
# Static dielectric constant tensor:
#      x y z
#    x 3.796580 0.000000 0.000000 
#    y 0.000000 3.764900 0.000000 
#    z 0.000000 0.000000 3.042880 
# 
# 
# High freq. dielectric constant tensor:
#      x y z
#    x 1.774270 0.000000 0.000000 
#    y 0.000000 1.782880 0.000000 
#    z 0.000000 0.000000 1.705110 
# 
# From -- ./inp_files/10727.got.cif
#   From: 2010.03.12/outbox.cif.g09.slc.cpg/sg55_6_cif.got.tgz:10727.got - 2010.04.16 15:19:21.
