data_PCOD8224478
_publ_section_title
;
Structure prediction by ZEFSAII (Michael W. Deem and Ramdas Pophale) SiO2 
 PCOD8224478
Probable space group: P B A M
;
_chemical_formula_sum "Si O2"
_cell_formula_units_Z 64
_cell_length_a 12.853579
_cell_length_b 23.549067
_cell_length_c 11.206673
_cell_angle_alpha 90.000000
_cell_angle_beta 90.000000
_cell_angle_gamma 90.000000
_cell_volume 3392.145531
_symmetry_space_group_name_H-M "P B A M"
_symmetry_group_IT_number 55
_symmetry_cell_setting 'orthorhombic'
loop_
_space_group_symop_operation_xyz
x,y,z
-x,-y,z
1/2+x,1/2-y,-z
1/2-x,1/2+y,-z
-x,-y,-z
x,y,-z
1/2-x,1/2+y,z
1/2+x,1/2-y,z
loop_
_atom_site_type_symbol
_atom_site_label
_atom_site_fract_x
_atom_site_fract_y
_atom_site_fract_z
Si Si1 0.074627 0.207957 0.631042
Si Si2 0.685927 0.540575 0.862050
Si Si3 0.637438 0.127680 0.861346
Si Si4 0.480104 0.832509 0.637362
Si Si5 0.687359 0.717221 0.128597
Si Si6 0.203037 0.677662 0.292461
Si Si7 0.195530 0.086089 0.867889
Si Si8 0.024399 0.871038 0.188400
O O1 0.029412 0.210113 0.500000
O O2 0.196648 0.192946 0.629817
O O3 0.055297 0.270419 0.684268
O O4 0.007730 0.157934 0.688327
O O5 0.798596 0.569295 0.849367
O O6 0.691646 0.476847 0.810232
O O7 0.597330 0.574244 0.787975
O O8 0.649331 0.540739 0.000000
O O9 0.556692 0.127102 0.748765
O O10 0.712323 0.180744 0.835884
O O11 0.591835 0.131403 0.000000
O O12 0.437876 0.846006 0.500000
O O13 0.604894 0.838350 0.626140
O O14 0.667511 0.767040 0.220190
O O15 0.588307 0.675802 0.114751
O O16 0.706222 0.745786 0.000000
O O17 0.227795 0.624849 0.207654
O O18 0.080332 0.112135 0.879917
O O19 0.243487 0.081635 0.000000
#
# Coordination Sequence:
#
# PCOD8224478 Si02
#       8
#     8   8   8   8   8   8   8   8
#     4  10  21  36  53  77 111 145 185 227 276 340
#     4   9  18  35  57  82 113 147 188 232 278 334
#     4   9  19  36  57  82 111 143 184 237 282 326
#     4  11  22  38  58  82 111 149 190 231 282 346
#     4  10  18  30  49  80 117 145 174 223 284 337
#     4  11  21  35  51  79 113 147 182 231 278 333
#     4  10  20  33  54  83 114 152 189 225 279 340
#     4  10  18  32  54  82 114 142 183 226 284 335
#
# _framework density 18.867115999999999
#
# number of rings (size 3 to 8) (size 9 to 14) (size 15 to 20)
#    0.000    2.000    2.500    3.000    0.000    2.000 
#    0.000    3.125    0.000   13.500    0.000    0.000 
#    0.000    0.000    0.000    0.000    0.000    0.000 
#
# Total GULP energy -792966.096420 kJ/mol
# GULP energy per Si atom -12390.095257 kJ/mol
# Density = 1.882417 g / cm^3
# Si number density = 18.867116 Si / 1000 Ang^3
#
#
#
# Elastic Constant Matrix: (Units=GPa)
#
#
# Indices 1 2 3 4 5 6 
#
# 1 77.3522 18.0453 25.3192 0.0000 0.0000 0.0000
# 2 18.0453 92.0111 30.2058 0.0000 0.0000 0.0000
# 3 25.3192 30.2058 74.4479 0.0000 0.0000 0.0000
# 4 0.0000 0.0000 0.0000 10.1405 0.0000 0.0000
# 5 0.0000 0.0000 0.0000 0.0000 14.9648 0.0000
# 6 0.0000 0.0000 0.0000 0.0000 0.0000 18.3441
#
#
#
# Elastic Compliance Matrix: (Units=1/GPa)
#
#
# Indices 1 2 3 4 5 6 
#
# 1 0.014709 -0.001433 -0.004421 0.000000 0.000000 0.000000
# 2 -0.001433 0.012678 -0.004656 0.000000 0.000000 0.000000
# 3 -0.004421 -0.004656 0.016825 0.000000 0.000000 0.000000
# 4 0.000000 0.000000 0.000000 0.098614 0.000000 0.000000
# 5 0.000000 0.000000 0.000000 0.000000 0.066823 0.000000
# 6 0.000000 0.000000 0.000000 0.000000 0.000000 0.054514
#
#
# Mechanical properties :
#
#
# Convention : Reuss Voigt Hill
#
# Bulk Modulus (GPa) = 43.12056 43.43910 43.27983
# Shear Modulus (GPa) = 17.06978 20.03927 18.55453
#
# Velocity S-wave (km/s) = 3.01115 3.26256 3.13937
# Velocity P-wave (km/s) = 5.91556 6.10460 6.01082
#
# Compressibility (1/GPa) = 0.02319079
#
# Stress axis : x y z
#
# Youngs Moduli (GPa) = 67.98379 78.87683 59.43550
#
# Poissons Ratio (x) = 0.11307 0.26276
# Poissons Ratio (y) = 0.09745 0.27675
# Poissons Ratio (z) = 0.30055 0.36728
#
# Static dielectric constant tensor:
#      x y z
#    x 3.367220 0.000000 0.000000 
#    y 0.000000 3.451220 0.000000 
#    z 0.000000 0.000000 3.298140 
# 
# 
# High freq. dielectric constant tensor:
#      x y z
#    x 1.726710 0.000000 0.000000 
#    y 0.000000 1.722330 0.000000 
#    z 0.000000 0.000000 1.716810 
# 
# From -- ./inp_files/13589.got.cif
#   From: 2010.03.12/outbox.cif.g09.slc.cpg/sg55_7_cif.got.tgz:13589.got - 2010.04.16 15:19:21.
