data_PCOD8224419
_publ_section_title
;
Structure prediction by ZEFSAII (Michael W. Deem and Ramdas Pophale) SiO2 
 PCOD8224419
Probable space group: P B A M
;
_chemical_formula_sum "Si O2"
_cell_formula_units_Z 64
_cell_length_a 15.020097
_cell_length_b 18.184154
_cell_length_c 13.674683
_cell_angle_alpha 90.000000
_cell_angle_beta 90.000000
_cell_angle_gamma 90.000000
_cell_volume 3734.935495
_symmetry_space_group_name_H-M "P B A M"
_symmetry_group_IT_number 55
_symmetry_cell_setting 'orthorhombic'
loop_
_space_group_symop_operation_xyz
x,y,z
-x,-y,z
1/2+x,1/2-y,-z
1/2-x,1/2+y,-z
-x,-y,-z
x,y,-z
1/2-x,1/2+y,z
1/2+x,1/2-y,z
loop_
_atom_site_type_symbol
_atom_site_label
_atom_site_fract_x
_atom_site_fract_y
_atom_site_fract_z
Si Si1 0.885828 0.851196 0.886168
Si Si2 0.854021 0.500621 0.391142
Si Si3 0.007541 0.380946 0.608892
Si Si4 0.229785 0.570135 0.213222
Si Si5 0.414038 0.339926 0.886395
Si Si6 0.602830 0.184916 0.113806
Si Si7 0.072524 0.686753 0.210629
Si Si8 0.755995 0.575950 0.886500
O O1 0.826946 0.896909 0.809181
O O2 0.878898 0.767384 0.849681
O O3 0.988499 0.875736 0.874235
O O4 0.855083 0.861874 0.000000
O O5 0.812195 0.506001 0.500000
O O6 0.898361 0.579603 0.361755
O O7 0.776551 0.472316 0.317698
O O8 0.932345 0.442226 0.389828
O O9 0.015965 0.346652 0.500000
O O10 0.976636 0.316732 0.683178
O O11 0.156951 0.633660 0.201990
O O12 0.215419 0.507117 0.133407
O O13 0.398477 0.269392 0.816412
O O14 0.343869 0.402194 0.852536
O O15 0.400911 0.315168 0.000000
O O16 0.502377 0.158832 0.135322
O O17 0.673300 0.130593 0.165305
O O18 0.616350 0.183893 0.000000
O O19 0.761880 0.588866 0.000000
#
# Coordination Sequence:
#
# PCOD8224419 Si02
#       8
#     8   8   8   8   8   8   8   8
#     4   9  18  32  48  65  87 121 164 199 225 266
#     4   8  15  28  44  65  95 124 147 178 228 285
#     4   8  14  26  45  68  93 120 149 183 225 274
#     4  11  20  28  46  73  93 116 156 200 233 270
#     4   9  19  35  50  63  88 129 165 192 233 284
#     4   9  18  31  45  64  95 129 153 180 230 292
#     4  10  18  29  48  70  92 121 156 190 229 284
#     4  10  20  31  44  67  97 123 150 191 238 279
#
# _framework density 17.135503
#
# number of rings (size 3 to 8) (size 9 to 14) (size 15 to 20)
#    0.000    2.750    0.000    3.750    0.000    5.000 
#    0.000    3.125    0.000    3.750    0.000    7.875 
#    0.000    0.000    0.000    0.000    0.000    0.000 
#
# Total GULP energy -792854.267882 kJ/mol
# GULP energy per Si atom -12388.347936 kJ/mol
# Density = 1.709650 g / cm^3
# Si number density = 17.135503 Si / 1000 Ang^3
#
#
#
# Elastic Constant Matrix: (Units=GPa)
#
#
# Indices 1 2 3 4 5 6 
#
# 1 53.0505 12.5781 22.5628 0.0000 0.0000 0.0000
# 2 12.5781 34.3444 28.9163 0.0000 0.0000 0.0000
# 3 22.5628 28.9163 58.3567 0.0000 0.0000 0.0000
# 4 0.0000 0.0000 0.0000 21.5579 0.0000 0.0000
# 5 0.0000 0.0000 0.0000 0.0000 21.0949 0.0000
# 6 0.0000 0.0000 0.0000 0.0000 0.0000 15.8550
#
#
#
# Elastic Compliance Matrix: (Units=1/GPa)
#
#
# Indices 1 2 3 4 5 6 
#
# 1 0.022609 -0.001579 -0.007959 0.000000 0.000000 0.000000
# 2 -0.001579 0.050070 -0.024200 0.000000 0.000000 0.000000
# 3 -0.007959 -0.024200 0.032205 0.000000 0.000000 0.000000
# 4 0.000000 0.000000 0.000000 0.046387 0.000000 0.000000
# 5 0.000000 0.000000 0.000000 0.000000 0.047405 0.000000
# 6 0.000000 0.000000 0.000000 0.000000 0.000000 0.063072
#
#
# Mechanical properties :
#
#
# Convention : Reuss Voigt Hill
#
# Bulk Modulus (GPa) = 26.73217 30.42956 28.58087
# Shear Modulus (GPa) = 14.63303 17.14786 15.89044
#
# Velocity S-wave (km/s) = 2.92543 3.16685 3.04853
# Velocity P-wave (km/s) = 5.20050 5.58289 5.39508
#
# Compressibility (1/GPa) = 0.03740811
#
# Stress axis : x y z
#
# Youngs Moduli (GPa) = 44.22920 19.97195 31.05151
#
# Poissons Ratio (x) = 0.03154 0.24715
# Poissons Ratio (y) = 0.06984 0.75144
# Poissons Ratio (z) = 0.35203 0.48332
#
# Static dielectric constant tensor:
#      x y z
#    x 3.379930 0.000000 0.000000 
#    y 0.000000 3.225770 0.000000 
#    z 0.000000 0.000000 3.298770 
# 
# 
# High freq. dielectric constant tensor:
#      x y z
#    x 1.655150 0.000000 0.000000 
#    y 0.000000 1.646550 0.000000 
#    z 0.000000 0.000000 1.638480 
# 
# From -- ./inp_files/19129.got.cif
#   From: 2010.03.12/outbox.cif.g09.slc.cpg/sg55_10_cif.got.tgz:19129.got - 2010.04.16 15:19:21.
