data_PCOD8224309
_publ_section_title
;
Structure prediction by ZEFSAII (Michael W. Deem and Ramdas Pophale) SiO2 
 PCOD8224309
Probable space group: P B A M
;
_chemical_formula_sum "Si O2"
_cell_formula_units_Z 56
_cell_length_a 17.284643
_cell_length_b 19.205082
_cell_length_c 9.736284
_cell_angle_alpha 90.000000
_cell_angle_beta 90.000000
_cell_angle_gamma 90.000000
_cell_volume 3231.988548
_symmetry_space_group_name_H-M "P B A M"
_symmetry_group_IT_number 55
_symmetry_cell_setting 'orthorhombic'
loop_
_space_group_symop_operation_xyz
x,y,z
-x,-y,z
1/2+x,1/2-y,-z
1/2-x,1/2+y,-z
-x,-y,-z
x,y,-z
1/2-x,1/2+y,z
1/2+x,1/2-y,z
loop_
_atom_site_type_symbol
_atom_site_label
_atom_site_fract_x
_atom_site_fract_y
_atom_site_fract_z
Si Si1 0.304393 0.402188 0.162092
Si Si2 0.255268 0.050171 0.161532
Si Si3 0.438738 0.900278 0.655169
Si Si4 0.393662 0.058488 0.654359
Si Si5 0.524090 0.576766 0.163979
Si Si6 0.876159 0.844711 0.837954
Si Si7 0.167094 0.307109 0.163310
O O1 0.260178 0.471514 0.212401
O O2 0.391681 0.400171 0.223348
O O3 0.252702 0.335378 0.206606
O O4 0.312497 0.406150 0.000000
O O5 0.329001 0.082441 0.238122
O O6 0.181712 0.094834 0.207235
O O7 0.271122 0.054777 0.000000
O O8 0.416182 0.877547 0.500000
O O9 0.530986 0.893671 0.676341
O O10 0.399067 0.852432 0.767395
O O11 0.414275 0.978859 0.682356
O O12 0.361894 0.067927 0.500000
O O13 0.500000 0.500000 0.218052
O O14 0.461432 0.633722 0.217001
O O15 0.525545 0.574836 0.000000
O O16 0.845193 0.771101 0.780293
O O17 0.879256 0.838837 0.000000
O O18 0.156683 0.313180 0.000000
#
# Coordination Sequence:
#
# PCOD8224309 Si02
#       7
#     8   8   8   8   8   8   8
#     4   9  16  26  45  69  96 128 161 198 241 292
#     4  10  17  29  49  74 100 126 160 205 247 286
#     4   9  18  33  51  69  93 129 167 200 239 293
#     4   9  18  32  50  72  95 123 165 207 240 288
#     4   9  14  25  45  67  93 127 164 197 238 291
#     4   9  18  30  45  70 104 131 159 204 249 296
#     4  10  19  32  47  72 105 129 157 204 257 297
#
# _framework density 17.326792999999999
#
# number of rings (size 3 to 8) (size 9 to 14) (size 15 to 20)
#    0.000    2.714    2.857    0.857    0.000    0.571 
#    2.571    2.143    0.000    0.000    0.000    4.000 
#    0.000    0.000    0.000    0.000    0.000    0.000 
#
# Total GULP energy -694063.856972 kJ/mol
# GULP energy per Si atom -12393.997446 kJ/mol
# Density = 1.728736 g / cm^3
# Si number density = 17.326793 Si / 1000 Ang^3
#
#
#
# Elastic Constant Matrix: (Units=GPa)
#
#
# Indices 1 2 3 4 5 6 
#
# 1 140.6015 54.1187 34.5561 0.0000 0.0000 0.0000
# 2 54.1187 96.2167 16.3462 0.0000 0.0000 0.0000
# 3 34.5561 16.3462 30.8296 0.0000 0.0000 0.0000
# 4 0.0000 0.0000 0.0000 10.7676 0.0000 0.0000
# 5 0.0000 0.0000 0.0000 0.0000 10.5162 0.0000
# 6 0.0000 0.0000 0.0000 0.0000 0.0000 25.7190
#
#
#
# Elastic Compliance Matrix: (Units=1/GPa)
#
#
# Indices 1 2 3 4 5 6 
#
# 1 0.011464 -0.004687 -0.010364 0.000000 0.000000 0.000000
# 2 -0.004687 0.013339 -0.001819 0.000000 0.000000 0.000000
# 3 -0.010364 -0.001819 0.045018 0.000000 0.000000 0.000000
# 4 0.000000 0.000000 0.000000 0.092871 0.000000 0.000000
# 5 0.000000 0.000000 0.000000 0.000000 0.095092 0.000000
# 6 0.000000 0.000000 0.000000 0.000000 0.000000 0.038882
#
#
# Mechanical properties :
#
#
# Convention : Reuss Voigt Hill
#
# Bulk Modulus (GPa) = 27.71616 53.07666 40.39641
# Shear Modulus (GPa) = 14.60149 20.24234 17.42192
#
# Velocity S-wave (km/s) = 2.90610 3.42170 3.17439
# Velocity P-wave (km/s) = 5.22412 6.80514 6.06636
#
# Compressibility (1/GPa) = 0.03608004
#
# Stress axis : x y z
#
# Youngs Moduli (GPa) = 87.23214 74.97084 22.21357
#
# Poissons Ratio (x) = 0.35140 0.23023
# Poissons Ratio (y) = 0.40887 0.04040
# Poissons Ratio (z) = 0.90409 0.13633
#
# Static dielectric constant tensor:
#      x y z
#    x 3.589580 0.000000 0.000000 
#    y 0.000000 3.297190 0.000000 
#    z 0.000000 0.000000 2.768450 
# 
# 
# High freq. dielectric constant tensor:
#      x y z
#    x 1.683150 0.000000 0.000000 
#    y 0.000000 1.654980 0.000000 
#    z 0.000000 0.000000 1.617340 
# 
# From -- ./inp_files/7847.got.cif
#   From: 2010.03.12/outbox.cif.g09.slc.cpg/sg55_4_cif.got.tgz:7847.got - 2010.04.16 15:19:21.
