data_PCOD8224044
_publ_section_title
;
Structure prediction by ZEFSAII (Michael W. Deem and Ramdas Pophale) SiO2 
 PCOD8224044
Probable space group: P C C A
;
_chemical_formula_sum "Si O2"
_cell_formula_units_Z 64
_cell_length_a 8.715545
_cell_length_b 23.938610
_cell_length_c 14.545810
_cell_angle_alpha 90.000000
_cell_angle_beta 90.000000
_cell_angle_gamma 90.000000
_cell_volume 3034.809182
_symmetry_space_group_name_H-M "P C C A"
_symmetry_group_IT_number 54
_symmetry_cell_setting 'orthorhombic'
loop_
_space_group_symop_operation_xyz
x,y,z
1/2-x,-y,z
1/2+x,-y,1/2-z
-x,y,1/2-z
-x,-y,-z
1/2+x,y,-z
1/2-x,y,1/2+z
x,-y,1/2+z
loop_
_atom_site_type_symbol
_atom_site_label
_atom_site_fract_x
_atom_site_fract_y
_atom_site_fract_z
Si Si1 0.170891 0.760083 0.139289
Si Si2 0.681338 0.752546 0.648845
Si Si3 0.677923 0.865199 0.103718
Si Si4 0.181973 0.058956 0.744601
Si Si5 0.216322 0.332179 0.492453
Si Si6 0.932387 0.505217 0.352256
Si Si7 0.467450 0.412870 0.504427
Si Si8 0.181848 0.123324 0.086142
O O1 0.201252 0.742265 0.243450
O O2 0.260055 0.816451 0.117571
O O3 0.990755 0.771420 0.122191
O O4 0.236816 0.710640 0.076522
O O5 0.800269 0.798582 0.610955
O O6 0.722999 0.694360 0.601686
O O7 0.751708 0.891819 0.193436
O O8 0.500201 0.880204 0.096905
O O9 0.771198 0.889234 0.017864
O O10 0.238223 0.073524 0.642502
O O11 0.000000 0.057527 0.750000
O O12 0.250000 0.000000 0.776997
O O13 0.290142 0.394114 0.506142
O O14 0.040543 0.350973 0.482243
O O15 0.750000 0.500000 0.347370
O O16 0.985596 0.560778 0.406100
O O17 0.000000 0.505539 0.250000
O O18 0.002567 0.453630 0.410252
#
# Coordination Sequence:
#
# PCOD8224044 Si02
#       8
#     8   8   8   8   8   8   8   8
#     4  11  24  41  64  97 136 181 229 275 343 411
#     4  11  24  41  65  95 136 185 224 279 341 409
#     4  12  25  43  69 100 138 184 232 283 345 413
#     4  12  26  48  74 104 140 180 234 296 350 409
#     4  12  24  43  66  98 139 180 229 282 340 403
#     4  11  26  46  74 101 133 179 227 276 348 405
#     4  11  26  46  68  98 141 176 224 287 337 408
#     4  12  25  43  69 100 139 182 235 281 345 414
#
# _framework density 21.088640000000002
#
# number of rings (size 3 to 8) (size 9 to 14) (size 15 to 20)
#    0.000    0.500    5.000    3.375    3.500    2.500 
#    0.000    2.500    0.000    0.000    0.000    0.000 
#    0.000    0.000    0.000    0.000    0.000    0.000 
#
# Total GULP energy -793864.983368 kJ/mol
# GULP energy per Si atom -12404.140365 kJ/mol
# Density = 2.104064 g / cm^3
# Si number density = 21.088640 Si / 1000 Ang^3
#
#
#
# Elastic Constant Matrix: (Units=GPa)
#
#
# Indices 1 2 3 4 5 6 
#
# 1 105.9772 32.5248 28.4418 0.0000 0.0000 0.0000
# 2 32.5248 82.3810 24.3782 0.0000 0.0000 0.0000
# 3 28.4418 24.3782 116.8251 0.0000 0.0000 0.0000
# 4 0.0000 0.0000 0.0000 29.0383 0.0000 0.0000
# 5 0.0000 0.0000 0.0000 0.0000 45.8714 0.0000
# 6 0.0000 0.0000 0.0000 0.0000 0.0000 41.4001
#
#
#
# Elastic Compliance Matrix: (Units=1/GPa)
#
#
# Indices 1 2 3 4 5 6 
#
# 1 0.011123 -0.003826 -0.001909 0.000000 0.000000 0.000000
# 2 -0.003826 0.014254 -0.002043 0.000000 0.000000 0.000000
# 3 -0.001909 -0.002043 0.009451 0.000000 0.000000 0.000000
# 4 0.000000 0.000000 0.000000 0.034437 0.000000 0.000000
# 5 0.000000 0.000000 0.000000 0.000000 0.021800 0.000000
# 6 0.000000 0.000000 0.000000 0.000000 0.000000 0.024155
#
#
# Mechanical properties :
#
#
# Convention : Reuss Voigt Hill
#
# Bulk Modulus (GPa) = 51.89317 52.87476 52.38397
# Shear Modulus (GPa) = 36.44307 37.91785 37.18046
#
# Velocity S-wave (km/s) = 4.16154 4.24491 4.20343
# Velocity P-wave (km/s) = 6.91027 7.01090 6.96077
#
# Compressibility (1/GPa) = 0.01927036
#
# Stress axis : x y z
#
# Youngs Moduli (GPa) = 89.90579 70.15621 105.80933
#
# Poissons Ratio (x) = 0.26844 0.20204
# Poissons Ratio (y) = 0.34401 0.21615
# Poissons Ratio (z) = 0.17167 0.14332
#
# Static dielectric constant tensor:
#      x y z
#    x 3.935220 0.000000 0.000000 
#    y 0.000000 3.695090 0.000000 
#    z 0.000000 0.000000 3.951880 
# 
# 
# High freq. dielectric constant tensor:
#      x y z
#    x 1.843180 0.000000 0.000000 
#    y 0.000000 1.827060 0.000000 
#    z 0.000000 0.000000 1.834080 
# 
# From -- ./inp_files/11935.got.cif
#   From: 2010.03.12/outbox.cif.g09.slc.cpg/sg54_6_cif.got.tgz:11935.got - 2010.04.16 15:00:50.
