data_PCOD8224333
_publ_section_title
;
Structure prediction by ZEFSAII (Michael W. Deem and Ramdas Pophale) SiO2 
 PCOD8224333
Probable space group: P B A M
;
_chemical_formula_sum "Si O2"
_cell_formula_units_Z 64
_cell_length_a 9.067337
_cell_length_b 15.249185
_cell_length_c 23.145158
_cell_angle_alpha 90.000000
_cell_angle_beta 90.000000
_cell_angle_gamma 90.000000
_cell_volume 3200.269410
_symmetry_space_group_name_H-M "P B A M"
_symmetry_group_IT_number 55
_symmetry_cell_setting 'orthorhombic'
loop_
_space_group_symop_operation_xyz
x,y,z
-x,-y,z
1/2+x,1/2-y,-z
1/2-x,1/2+y,-z
-x,-y,-z
x,y,-z
1/2-x,1/2+y,z
1/2+x,1/2-y,z
loop_
_atom_site_type_symbol
_atom_site_label
_atom_site_fract_x
_atom_site_fract_y
_atom_site_fract_z
Si Si1 0.713612 0.842862 0.615234
Si Si2 0.170673 0.524341 0.065387
Si Si3 0.167671 0.472081 0.632925
Si Si4 0.905961 0.696911 0.566689
Si Si5 0.276216 0.859709 0.868316
Si Si6 0.260518 0.866956 0.262235
Si Si7 0.422794 0.205931 0.267872
Si Si8 0.392275 0.184830 0.862458
O O1 0.853614 0.782515 0.602057
O O2 0.580919 0.809603 0.574649
O O3 0.666092 0.843509 0.682251
O O4 0.751580 0.945472 0.603091
O O5 0.261615 0.440960 0.089671
O O6 0.201325 0.611166 0.103379
O O7 0.000000 0.500000 0.069558
O O8 0.220987 0.542931 0.000000
O O9 0.177303 0.389217 0.590273
O O10 0.242915 0.449036 0.694420
O O11 0.000000 0.500000 0.644862
O O12 0.866263 0.708099 0.500000
O O13 0.268181 0.899275 0.803603
O O14 0.437332 0.819856 0.880323
O O15 0.161156 0.781893 0.879806
O O16 0.402894 0.806354 0.277163
O O17 0.113524 0.809387 0.271636
O O18 0.369681 0.168344 0.205954
#
# Coordination Sequence:
#
# PCOD8224333 Si02
#       8
#     8   8   8   8   8   8   8   8
#     4  11  21  37  59  81 106 142 178 224 269 316
#     4   9  18  33  52  78 110 146 187 224 263 319
#     4  10  20  33  56  84 103 135 177 220 259 313
#     4  11  23  39  57  80 110 143 179 218 265 320
#     4   9  19  32  53  79 107 143 180 221 272 318
#     4  10  18  32  55  82 111 138 177 222 272 323
#     4  10  17  32  55  80 112 137 178 220 274 321
#     4   9  19  32  52  81 106 143 179 228 268 317
#
# _framework density 19.998315000000002
#
# number of rings (size 3 to 8) (size 9 to 14) (size 15 to 20)
#    0.000    2.125    3.750    0.375    1.750    3.750 
#    0.000    1.250    0.000    2.250    0.000    0.000 
#    0.000    0.000    0.000    0.000    0.000    0.000 
#
# Total GULP energy -793527.595843 kJ/mol
# GULP energy per Si atom -12398.868685 kJ/mol
# Density = 1.995280 g / cm^3
# Si number density = 19.998315 Si / 1000 Ang^3
#
#
#
# Elastic Constant Matrix: (Units=GPa)
#
#
# Indices 1 2 3 4 5 6 
#
# 1 30.5087 26.7210 12.1579 0.0000 0.0000 0.0000
# 2 26.7210 126.7547 46.2295 0.0000 0.0000 0.0000
# 3 12.1579 46.2295 106.3628 0.0000 0.0000 0.0000
# 4 0.0000 0.0000 0.0000 29.1242 0.0000 0.0000
# 5 0.0000 0.0000 0.0000 0.0000 16.2823 0.0000
# 6 0.0000 0.0000 0.0000 0.0000 0.0000 27.1295
#
#
#
# Elastic Compliance Matrix: (Units=1/GPa)
#
#
# Indices 1 2 3 4 5 6 
#
# 1 0.040305 -0.008100 -0.001086 0.000000 0.000000 0.000000
# 2 -0.008100 0.011003 -0.003857 0.000000 0.000000 0.000000
# 3 -0.001086 -0.003857 0.011202 0.000000 0.000000 0.000000
# 4 0.000000 0.000000 0.000000 0.034336 0.000000 0.000000
# 5 0.000000 0.000000 0.000000 0.000000 0.061416 0.000000
# 6 0.000000 0.000000 0.000000 0.000000 0.000000 0.036860
#
#
# Mechanical properties :
#
#
# Convention : Reuss Voigt Hill
#
# Bulk Modulus (GPa) = 27.45441 48.20477 37.82959
# Shear Modulus (GPa) = 21.42690 26.40838 23.91764
#
# Velocity S-wave (km/s) = 3.27683 3.63785 3.46205
# Velocity P-wave (km/s) = 5.29858 6.46545 5.91088
#
# Compressibility (1/GPa) = 0.03642401
#
# Stress axis : x y z
#
# Youngs Moduli (GPa) = 24.81068 90.88039 89.26828
#
# Poissons Ratio (x) = 0.73618 0.09698
# Poissons Ratio (y) = 0.20098 0.34427
# Poissons Ratio (z) = 0.02695 0.35049
#
# Static dielectric constant tensor:
#      x y z
#    x 3.316020 0.000000 0.000000 
#    y 0.000000 3.809280 0.000000 
#    z 0.000000 0.000000 3.691350 
# 
# 
# High freq. dielectric constant tensor:
#      x y z
#    x 1.740230 0.000000 0.000000 
#    y 0.000000 1.780940 0.000000 
#    z 0.000000 0.000000 1.782440 
# 
# From -- ./inp_files/23484.got.cif
#   From: 2010.03.12/outbox.cif.g09.slc.cpg/sg55_12_cif.got.tgz:23484.got - 2010.04.16 15:19:21.
