data_PCOD8224072
_publ_section_title
;
Structure prediction by ZEFSAII (Michael W. Deem and Ramdas Pophale) SiO2 
 PCOD8224072
Probable space group: P C C A
;
_chemical_formula_sum "Si O2"
_cell_formula_units_Z 48
_cell_length_a 16.401662
_cell_length_b 14.387717
_cell_length_c 9.029275
_cell_angle_alpha 90.000000
_cell_angle_beta 90.000000
_cell_angle_gamma 90.000000
_cell_volume 2130.750628
_symmetry_space_group_name_H-M "P C C A"
_symmetry_group_IT_number 54
_symmetry_cell_setting 'orthorhombic'
loop_
_space_group_symop_operation_xyz
x,y,z
1/2-x,-y,z
1/2+x,-y,1/2-z
-x,y,1/2-z
-x,-y,-z
1/2+x,y,-z
1/2-x,y,1/2+z
x,-y,1/2+z
loop_
_atom_site_type_symbol
_atom_site_label
_atom_site_fract_x
_atom_site_fract_y
_atom_site_fract_z
Si Si1 0.572868 0.787030 0.366446
Si Si2 0.908780 0.900242 0.297182
Si Si3 0.338893 0.041467 0.504876
Si Si4 0.338748 0.574806 0.501954
Si Si5 0.959967 0.285629 0.891894
Si Si6 0.679619 0.605833 0.330335
O O1 0.500000 0.808609 0.250000
O O2 0.636597 0.871815 0.387491
O O3 0.531658 0.768819 0.524122
O O4 0.625007 0.697409 0.319471
O O5 0.895083 0.791531 0.335354
O O6 0.000000 0.919928 0.250000
O O7 0.897459 0.957153 0.448923
O O8 0.847098 0.932261 0.167546
O O9 0.250000 0.000000 0.537616
O O10 0.418979 0.638067 0.504718
O O11 0.309172 0.564994 0.334026
O O12 0.361465 0.473271 0.566162
O O13 0.269020 0.624459 0.601246
O O14 0.000000 0.336478 0.750000
#
# Coordination Sequence:
#
# PCOD8224072 Si02
#       6
#     8   8   8   8   8   8
#     4  12  26  49  71 109 144 190 244 299 368 438
#     4  11  24  46  69  98 136 186 232 294 362 427
#     4  12  27  45  70 104 140 182 238 298 361 441
#     4  11  25  46  70 108 146 197 242 300 365 428
#     4  11  25  45  72 102 142 189 239 299 358 432
#     4  11  26  44  74 105 151 196 245 303 363 432
#
# _framework density 22.527272
#
# number of rings (size 3 to 8) (size 9 to 14) (size 15 to 20)
#    0.000    0.667    5.000    3.500    9.333    1.333 
#    0.000    0.000    0.000    0.000    0.000    0.000 
#    0.000    0.000    0.000    0.000    0.000    0.000 
#
# Total GULP energy -595062.688193 kJ/mol
# GULP energy per Si atom -12397.139337 kJ/mol
# Density = 2.247600 g / cm^3
# Si number density = 22.527272 Si / 1000 Ang^3
#
#
#
# Elastic Constant Matrix: (Units=GPa)
#
#
# Indices 1 2 3 4 5 6 
#
# 1 83.1564 52.0611 16.1008 0.0000 0.0000 0.0000
# 2 52.0611 100.4914 19.8698 0.0000 0.0000 0.0000
# 3 16.1008 19.8698 120.1501 0.0000 0.0000 0.0000
# 4 0.0000 0.0000 0.0000 32.5845 0.0000 0.0000
# 5 0.0000 0.0000 0.0000 0.0000 32.3875 0.0000
# 6 0.0000 0.0000 0.0000 0.0000 0.0000 50.8407
#
#
#
# Elastic Compliance Matrix: (Units=1/GPa)
#
#
# Indices 1 2 3 4 5 6 
#
# 1 0.017891 -0.009092 -0.000894 0.000000 0.000000 0.000000
# 2 -0.009092 0.014908 -0.001247 0.000000 0.000000 0.000000
# 3 -0.000894 -0.001247 0.008649 0.000000 0.000000 0.000000
# 4 0.000000 0.000000 0.000000 0.030689 0.000000 0.000000
# 5 0.000000 0.000000 0.000000 0.000000 0.030876 0.000000
# 6 0.000000 0.000000 0.000000 0.000000 0.000000 0.019669
#
#
# Mechanical properties :
#
#
# Convention : Reuss Voigt Hill
#
# Bulk Modulus (GPa) = 52.68153 53.31792 52.99973
# Shear Modulus (GPa) = 33.00876 37.54694 35.27785
#
# Velocity S-wave (km/s) = 3.83205 4.08699 3.96157
# Velocity P-wave (km/s) = 6.55865 6.78166 6.67109
#
# Compressibility (1/GPa) = 0.01898198
#
# Stress axis : x y z
#
# Youngs Moduli (GPa) = 55.89520 67.07899 115.62116
#
# Poissons Ratio (x) = 0.60987 0.10335
# Poissons Ratio (y) = 0.50819 0.14418
# Poissons Ratio (z) = 0.04996 0.08365
#
# Static dielectric constant tensor:
#      x y z
#    x 3.881650 0.000000 0.000000 
#    y 0.000000 4.132740 0.000000 
#    z 0.000000 0.000000 4.229230 
# 
# 
# High freq. dielectric constant tensor:
#      x y z
#    x 1.876310 0.000000 0.000000 
#    y 0.000000 1.892130 0.000000 
#    z 0.000000 0.000000 1.904960 
# 
# From -- ./inp_files/4205.got.cif
#   From: 2010.03.12/outbox.cif.g09.slc.cpg/sg54_3_cif.got.tgz:4205.got - 2010.04.16 15:00:50.
