data_PCOD8224156
_publ_section_title
;
Structure prediction by ZEFSAII (Michael W. Deem and Ramdas Pophale) SiO2 
 PCOD8224156
Probable space group: P C C A
;
_chemical_formula_sum "Si O2"
_cell_formula_units_Z 32
_cell_length_a 32.463603
_cell_length_b 4.819917
_cell_length_c 8.501130
_cell_angle_alpha 90.000000
_cell_angle_beta 90.000000
_cell_angle_gamma 90.000000
_cell_volume 1330.187725
_symmetry_space_group_name_H-M "P C C A"
_symmetry_group_IT_number 54
_symmetry_cell_setting 'orthorhombic'
loop_
_space_group_symop_operation_xyz
x,y,z
1/2-x,-y,z
1/2+x,-y,1/2-z
-x,y,1/2-z
-x,-y,-z
1/2+x,y,-z
1/2-x,y,1/2+z
x,-y,1/2+z
loop_
_atom_site_type_symbol
_atom_site_label
_atom_site_fract_x
_atom_site_fract_y
_atom_site_fract_z
Si Si1 0.579719 0.128127 0.938217
Si Si2 0.204580 0.380001 0.340560
Si Si3 0.173935 0.136234 0.018545
Si Si4 0.047718 0.629640 0.237948
O O1 0.627600 0.049108 0.941306
O O2 0.572386 0.348936 0.799250
O O3 0.554321 0.849282 0.902473
O O4 0.564585 0.247410 0.101761
O O5 0.250000 0.500000 0.356266
O O6 0.196671 0.267580 0.167451
O O7 0.173448 0.633275 0.379791
O O8 0.198963 0.135167 0.467030
O O9 0.000000 0.553560 0.250000
#
# Coordination Sequence:
#
# PCOD8224156 Si02
#       4
#     8   8   8   8
#     4  12  24  43  68  98 135 180 228 280 338 403
#     4  12  26  45  69  98 132 171 219 278 339 404
#     4  12  25  46  70 100 134 177 226 280 339 405
#     4  12  24  42  66 100 139 182 229 282 339 402
#
# _framework density 24.056754999999999
#
# number of rings (size 3 to 8) (size 9 to 14) (size 15 to 20)
#    0.000    0.000    0.000   11.250    0.000    2.000 
#    0.000    1.250    0.000    0.000    0.000    0.000 
#    0.000    0.000    0.000    0.000    0.000    0.000 
#
# Total GULP energy -397136.356596 kJ/mol
# GULP energy per Si atom -12410.511144 kJ/mol
# Density = 2.400200 g / cm^3
# Si number density = 24.056755 Si / 1000 Ang^3
#
#
#
# Elastic Constant Matrix: (Units=GPa)
#
#
# Indices 1 2 3 4 5 6 
#
# 1 125.4011 42.5722 52.4303 0.0000 0.0000 0.0000
# 2 42.5722 102.9031 3.1057 0.0000 0.0000 0.0000
# 3 52.4303 3.1057 74.5237 0.0000 0.0000 0.0000
# 4 0.0000 0.0000 0.0000 -449.0050 0.0000 0.0000
# 5 0.0000 0.0000 0.0000 0.0000 38.4416 0.0000
# 6 0.0000 0.0000 0.0000 0.0000 0.0000 41.2641
#
#
#
# Elastic Compliance Matrix: (Units=1/GPa)
#
#
# Indices 1 2 3 4 5 6 
#
# 1 0.013766 -0.005410 -0.009459 0.000000 0.000000 0.000000
# 2 -0.005410 0.011856 0.003312 0.000000 0.000000 0.000000
# 3 -0.009459 0.003312 0.019936 0.000000 0.000000 0.000000
# 4 0.000000 0.000000 0.000000 -0.002227 0.000000 0.000000
# 5 0.000000 0.000000 0.000000 0.000000 0.026013 0.000000
# 6 0.000000 0.000000 0.000000 0.000000 0.000000 0.024234
#
#
# Mechanical properties :
#
#
# Convention : Reuss Voigt Hill
#
# Bulk Modulus (GPa) = 44.55738 55.44938 50.00338
# Shear Modulus (GPa) = 40.26627 -60.21190 -9.97281
#
# Velocity S-wave (km/s) = 4.09565 -5.00834 -2.03827
# Velocity P-wave (km/s) = 6.39748 3.21639 3.91041
#
# Compressibility (1/GPa) = 0.02244297
#
# Stress axis : x y z
#
# Youngs Moduli (GPa) = 72.64326 84.34580 50.16157
#
# Poissons Ratio (x) = 0.45628 0.47450
# Poissons Ratio (y) = 0.39297 -0.16612
# Poissons Ratio (z) = 0.68716 -0.27934
#
# Static dielectric constant tensor:
#      x y z
#    x 4.556900 0.000000 0.000000 
#    y 0.000000 4.817180 0.000000 
#    z 0.000000 0.000000 4.505020 
# 
# 
# High freq. dielectric constant tensor:
#      x y z
#    x 1.959780 0.000000 0.000000 
#    y 0.000000 1.976860 0.000000 
#    z 0.000000 0.000000 1.969250 
# 
# From -- ./inp_files/5646.got.cif
#   From: 2010.03.12/outbox.cif.g09.slc.cpg/sg54_3_cif.got.tgz:5646.got - 2010.04.16 15:00:50.
