data_PCOD8224354
_publ_section_title
;
Structure prediction by ZEFSAII (Michael W. Deem and Ramdas Pophale) SiO2 
 PCOD8224354
Probable space group: P B A M
;
_chemical_formula_sum "Si O2"
_cell_formula_units_Z 48
_cell_length_a 17.399756
_cell_length_b 10.011781
_cell_length_c 14.323050
_cell_angle_alpha 90.000000
_cell_angle_beta 90.000000
_cell_angle_gamma 90.000000
_cell_volume 2495.111784
_symmetry_space_group_name_H-M "P B A M"
_symmetry_group_IT_number 55
_symmetry_cell_setting 'orthorhombic'
loop_
_space_group_symop_operation_xyz
x,y,z
-x,-y,z
1/2+x,1/2-y,-z
1/2-x,1/2+y,-z
-x,-y,-z
x,y,-z
1/2-x,1/2+y,z
1/2+x,1/2-y,z
loop_
_atom_site_type_symbol
_atom_site_label
_atom_site_fract_x
_atom_site_fract_y
_atom_site_fract_z
Si Si1 0.168204 0.081046 0.500000
Si Si2 0.151224 0.752763 0.195115
Si Si3 0.087079 0.659165 0.000000
Si Si4 0.336385 0.000622 0.307163
Si Si5 0.346233 0.515007 0.699358
Si Si6 0.320475 0.903529 0.500000
Si Si7 0.094521 0.354246 0.000000
Si Si8 0.166407 0.261333 0.182588
O O1 0.190956 0.240701 0.500000
O O2 0.120457 0.043914 0.405488
O O3 0.239882 0.980354 0.500000
O O4 0.112716 0.736895 0.093595
O O5 0.127780 0.637407 0.268563
O O6 0.121341 0.883647 0.249613
O O7 0.241830 0.755096 0.177006
O O8 0.122593 0.509099 0.000000
O O9 0.996267 0.652040 0.000000
O O10 0.244955 0.009041 0.311207
O O11 0.367178 0.955324 0.409132
O O12 0.363908 0.890658 0.235176
O O13 0.370037 0.634924 0.766299
O O14 0.129741 0.268487 0.082364
#
# Coordination Sequence:
#
# PCOD8224354 Si02
#       8
#     4   8   4   8   8   4   4   8
#     4  10  18  28  44  76 117 146 174 215 270 323
#     4  10  20  35  54  78 112 142 181 223 269 320
#     4  11  23  39  55  81 106 141 182 234 278 321
#     4   9  17  29  49  74 110 143 178 212 260 319
#     4   9  19  29  50  77 110 143 175 220 267 317
#     4  10  18  26  44  76 115 147 175 216 269 318
#     4  11  23  37  59  79 106 141 186 226 278 331
#     4  10  18  35  53  80 105 145 179 217 265 324
#
# _framework density 19.237615000000002
#
# number of rings (size 3 to 8) (size 9 to 14) (size 15 to 20)
#    0.000    2.167    3.333    0.500    7.000    0.667 
#    0.000    1.667    0.000    0.000    0.000    7.000 
#    0.000    0.000    0.000    0.000    0.000    0.000 
#
# Total GULP energy -594738.141982 kJ/mol
# GULP energy per Si atom -12390.377958 kJ/mol
# Density = 1.919383 g / cm^3
# Si number density = 19.237615 Si / 1000 Ang^3
#
#
#
# Elastic Constant Matrix: (Units=GPa)
#
#
# Indices 1 2 3 4 5 6 
#
# 1 19.8256 18.3889 22.4901 0.0000 0.0000 0.0000
# 2 18.3889 154.5004 81.0476 0.0000 0.0000 0.0000
# 3 22.4901 81.0476 202.1487 0.0000 0.0000 0.0000
# 4 0.0000 0.0000 0.0000 45.2215 0.0000 0.0000
# 5 0.0000 0.0000 0.0000 0.0000 -249.2440 0.0000
# 6 0.0000 0.0000 0.0000 0.0000 0.0000 9.3541
#
#
#
# Elastic Compliance Matrix: (Units=1/GPa)
#
#
# Indices 1 2 3 4 5 6 
#
# 1 0.060228 -0.004626 -0.004846 0.000000 0.000000 0.000000
# 2 -0.004626 0.008552 -0.002914 0.000000 0.000000 0.000000
# 3 -0.004846 -0.002914 0.006654 0.000000 0.000000 0.000000
# 4 0.000000 0.000000 0.000000 0.022113 0.000000 0.000000
# 5 0.000000 0.000000 0.000000 0.000000 -0.004012 0.000000
# 6 0.000000 0.000000 0.000000 0.000000 0.000000 0.106905
#
#
# Mechanical properties :
#
#
# Convention : Reuss Voigt Hill
#
# Bulk Modulus (GPa) = 19.73882 68.92534 44.33208
# Shear Modulus (GPa) = 20.65262 -21.96381 -0.65559
#
# Velocity S-wave (km/s) = 3.28007 -3.38259 -0.58440
# Velocity P-wave (km/s) = 4.96265 4.54426 4.75806
#
# Compressibility (1/GPa) = 0.05066160
#
# Stress axis : x y z
#
# Youngs Moduli (GPa) = 16.60359 116.93573 150.27978
#
# Poissons Ratio (x) = 0.54100 0.72822
# Poissons Ratio (y) = 0.07682 0.43790
# Poissons Ratio (z) = 0.08046 0.34074
#
# Static dielectric constant tensor:
#      x y z
#    x 2.801110 0.000000 0.000000 
#    y 0.000000 3.855850 0.000000 
#    z 0.000000 0.000000 4.073480 
# 
# 
# High freq. dielectric constant tensor:
#      x y z
#    x 1.672190 0.000000 0.000000 
#    y 0.000000 1.764060 0.000000 
#    z 0.000000 0.000000 1.777620 
# 
# From -- ./inp_files/19408.got.cif
#   From: 2010.03.12/outbox.cif.g09.slc.cpg/sg55_10_cif.got.tgz:19408.got - 2010.04.16 15:19:21.
