data_PCOD8224270
_publ_section_title
;
Structure prediction by ZEFSAII (Michael W. Deem and Ramdas Pophale) SiO2 
 PCOD8224270
Probable space group: P B A M
;
_chemical_formula_sum "Si O2"
_cell_formula_units_Z 56
_cell_length_a 22.461848
_cell_length_b 17.676765
_cell_length_c 8.975752
_cell_angle_alpha 90.000000
_cell_angle_beta 90.000000
_cell_angle_gamma 90.000000
_cell_volume 3563.847541
_symmetry_space_group_name_H-M "P B A M"
_symmetry_group_IT_number 55
_symmetry_cell_setting 'orthorhombic'
loop_
_space_group_symop_operation_xyz
x,y,z
-x,-y,z
1/2+x,1/2-y,-z
1/2-x,1/2+y,-z
-x,-y,-z
x,y,-z
1/2-x,1/2+y,z
1/2+x,1/2-y,z
loop_
_atom_site_type_symbol
_atom_site_label
_atom_site_fract_x
_atom_site_fract_y
_atom_site_fract_z
Si Si1 0.775190 0.574636 0.677347
Si Si2 0.433874 0.500095 0.824543
Si Si3 0.183023 0.267977 0.335090
Si Si4 0.846093 0.874160 0.825466
Si Si5 0.679799 0.777356 0.668469
Si Si6 0.155546 0.870735 0.824405
Si Si7 0.213330 0.578079 0.176043
O O1 0.766145 0.568434 0.500000
O O2 0.819645 0.644475 0.717343
O O3 0.711429 0.586426 0.753368
O O4 0.805609 0.499884 0.744683
O O5 0.500000 0.500000 0.753643
O O6 0.395678 0.569802 0.756040
O O7 0.402662 0.420409 0.789236
O O8 0.437783 0.512936 0.000000
O O9 0.156672 0.259565 0.500000
O O10 0.144828 0.211547 0.232704
O O11 0.251814 0.245784 0.331607
O O12 0.781649 0.905891 0.780246
O O13 0.852533 0.870510 0.000000
O O14 0.655748 0.786403 0.500000
O O15 0.643522 0.711406 0.752732
O O16 0.671526 0.855781 0.757775
O O17 0.167371 0.862338 0.000000
O O18 0.203596 0.572465 0.000000
#
# Coordination Sequence:
#
# PCOD8224270 Si02
#       7
#     8   8   8   8   8   8   8
#     4  10  18  27  40  59  85 115 142 170 211 259
#     4   9  17  29  44  62  84 111 146 185 221 252
#     4   8  16  27  38  55  78 108 139 166 204 251
#     4   9  16  27  41  58  78 106 141 175 211 245
#     4   9  17  28  40  58  82 111 140 169 213 260
#     4  10  17  28  43  59  80 110 147 183 215 249
#     4  10  17  26  41  63  85 109 143 176 206 248
#
# _framework density 15.713355999999999
#
# number of rings (size 3 to 8) (size 9 to 14) (size 15 to 20)
#    0.000    2.714    1.429    2.571    0.000    4.571 
#    0.000    0.000    0.000    3.857    0.000    0.000 
#    0.000    1.143    0.000   13.143    0.000    3.286 
#
# Total GULP energy -694128.698496 kJ/mol
# GULP energy per Si atom -12395.155330 kJ/mol
# Density = 1.567759 g / cm^3
# Si number density = 15.713356 Si / 1000 Ang^3
#
#
#
# Elastic Constant Matrix: (Units=GPa)
#
#
# Indices 1 2 3 4 5 6 
#
# 1 44.5135 37.6808 19.2393 0.0000 0.0000 0.0000
# 2 37.6808 154.4487 50.4775 0.0000 0.0000 0.0000
# 3 19.2393 50.4775 64.4548 0.0000 0.0000 0.0000
# 4 0.0000 0.0000 0.0000 31.8181 0.0000 0.0000
# 5 0.0000 0.0000 0.0000 0.0000 7.1743 0.0000
# 6 0.0000 0.0000 0.0000 0.0000 0.0000 15.3096
#
#
#
# Elastic Compliance Matrix: (Units=1/GPa)
#
#
# Indices 1 2 3 4 5 6 
#
# 1 0.029137 -0.005734 -0.004207 0.000000 0.000000 0.000000
# 2 -0.005734 0.009830 -0.005987 0.000000 0.000000 0.000000
# 3 -0.004207 -0.005987 0.021459 0.000000 0.000000 0.000000
# 4 0.000000 0.000000 0.000000 0.031429 0.000000 0.000000
# 5 0.000000 0.000000 0.000000 0.000000 0.139386 0.000000
# 6 0.000000 0.000000 0.000000 0.000000 0.000000 0.065319
#
#
# Mechanical properties :
#
#
# Convention : Reuss Voigt Hill
#
# Bulk Modulus (GPa) = 35.00028 53.13469 44.06749
# Shear Modulus (GPa) = 14.79559 21.26168 18.02863
#
# Velocity S-wave (km/s) = 3.07187 3.68244 3.39092
# Velocity P-wave (km/s) = 5.90800 7.20894 6.59065
#
# Compressibility (1/GPa) = 0.02857120
#
# Stress axis : x y z
#
# Youngs Moduli (GPa) = 34.32078 101.72762 46.60004
#
# Poissons Ratio (x) = 0.58327 0.19604
# Poissons Ratio (y) = 0.19678 0.27900
# Poissons Ratio (z) = 0.14438 0.60905
#
# Static dielectric constant tensor:
#      x y z
#    x 2.604130 0.000000 0.000000 
#    y 0.000000 3.384960 0.000000 
#    z 0.000000 0.000000 2.995210 
# 
# 
# High freq. dielectric constant tensor:
#      x y z
#    x 1.528290 0.000000 0.000000 
#    y 0.000000 1.621900 0.000000 
#    z 0.000000 0.000000 1.603690 
# 
# From -- ./inp_files/7829.got.cif
#   From: 2010.03.12/outbox.cif.g09.slc.cpg/sg55_4_cif.got.tgz:7829.got - 2010.04.16 15:19:21.
