data_PCOD8224064
_publ_section_title
;
Structure prediction by ZEFSAII (Michael W. Deem and Ramdas Pophale) SiO2 
 PCOD8224064
Probable space group: P C C A
;
_chemical_formula_sum "Si O2"
_cell_formula_units_Z 48
_cell_length_a 13.056380
_cell_length_b 6.732624
_cell_length_c 26.000065
_cell_angle_alpha 90.000000
_cell_angle_beta 90.000000
_cell_angle_gamma 90.000000
_cell_volume 2285.501845
_symmetry_space_group_name_H-M "P C C A"
_symmetry_group_IT_number 54
_symmetry_cell_setting 'orthorhombic'
loop_
_space_group_symop_operation_xyz
x,y,z
1/2-x,-y,z
1/2+x,-y,1/2-z
-x,y,1/2-z
-x,-y,-z
1/2+x,y,-z
1/2-x,y,1/2+z
x,-y,1/2+z
loop_
_atom_site_type_symbol
_atom_site_label
_atom_site_fract_x
_atom_site_fract_y
_atom_site_fract_z
Si Si1 0.250000 0.000000 0.226859
Si Si2 0.995627 0.211427 0.567675
Si Si3 0.500000 0.408861 0.250000
Si Si4 0.870089 0.728797 0.706924
Si Si5 0.532666 0.939474 0.822454
Si Si6 0.857962 0.418365 0.092654
Si Si7 0.360408 0.914775 0.488001
O O1 0.267955 0.816881 0.266393
O O2 0.151343 0.982000 0.190334
O O3 0.951273 0.427312 0.583065
O O4 0.011754 0.070729 0.617046
O O5 0.104554 0.215734 0.537768
O O6 0.923681 0.113348 0.524603
O O7 0.402071 0.550729 0.255449
O O8 0.493006 0.276863 0.199237
O O9 0.845080 0.638832 0.651852
O O10 0.959332 0.896013 0.703065
O O11 0.750000 0.500000 0.072559
O O12 0.875403 0.217231 0.062338
O O13 0.250000 0.000000 0.499925
#
# Coordination Sequence:
#
# PCOD8224064 Si02
#       7
#     4   8   4   8   8   8   8
#     4  12  26  42  66  98 140 178 226 284 334 408
#     4  11  25  44  69  97 136 181 221 291 343 408
#     4  12  22  46  66  92 136 180 222 272 334 400
#     4  12  26  43  65 100 136 174 226 285 326 403
#     4  12  25  46  66  98 136 180 228 274 347 400
#     4  12  25  41  71 101 130 177 235 277 345 409
#     4  11  24  45  70  99 134 173 231 285 347 407
#
# _framework density 21.001953
#
# number of rings (size 3 to 8) (size 9 to 14) (size 15 to 20)
#    0.000    0.333    8.333    0.500    7.000    0.000 
#    0.000    0.000    3.667    0.000    0.000    0.000 
#    0.000    0.000    0.000    0.000    0.000    0.000 
#
# Total GULP energy -594989.735594 kJ/mol
# GULP energy per Si atom -12395.619492 kJ/mol
# Density = 2.095415 g / cm^3
# Si number density = 21.001953 Si / 1000 Ang^3
#
#
#
# Elastic Constant Matrix: (Units=GPa)
#
#
# Indices 1 2 3 4 5 6 
#
# 1 105.1695 35.1251 29.2799 0.0000 0.0000 0.0000
# 2 35.1251 95.8820 19.5773 0.0000 0.0000 0.0000
# 3 29.2799 19.5773 87.6671 0.0000 0.0000 0.0000
# 4 0.0000 0.0000 0.0000 32.2379 0.0000 0.0000
# 5 0.0000 0.0000 0.0000 0.0000 25.6682 0.0000
# 6 0.0000 0.0000 0.0000 0.0000 0.0000 36.1838
#
#
#
# Elastic Compliance Matrix: (Units=1/GPa)
#
#
# Indices 1 2 3 4 5 6 
#
# 1 0.011566 -0.003613 -0.003056 0.000000 0.000000 0.000000
# 2 -0.003613 0.012056 -0.001486 0.000000 0.000000 0.000000
# 3 -0.003056 -0.001486 0.012759 0.000000 0.000000 0.000000
# 4 0.000000 0.000000 0.000000 0.031019 0.000000 0.000000
# 5 0.000000 0.000000 0.000000 0.000000 0.038959 0.000000
# 6 0.000000 0.000000 0.000000 0.000000 0.000000 0.027637
#
#
# Mechanical properties :
#
#
# Convention : Reuss Voigt Hill
#
# Bulk Modulus (GPa) = 49.82036 50.74258 50.28147
# Shear Modulus (GPa) = 31.84780 32.46707 32.15744
#
# Velocity S-wave (km/s) = 3.89835 3.93607 3.91725
# Velocity P-wave (km/s) = 6.63597 6.69852 6.66732
#
# Compressibility (1/GPa) = 0.02007212
#
# Stress axis : x y z
#
# Youngs Moduli (GPa) = 86.46029 82.94336 78.37448
#
# Poissons Ratio (x) = 0.29968 0.23952
# Poissons Ratio (y) = 0.31239 0.11644
# Poissons Ratio (z) = 0.26423 0.12322
#
# Static dielectric constant tensor:
#      x y z
#    x 3.890210 0.000000 0.000000 
#    y 0.000000 3.898130 0.000000 
#    z 0.000000 0.000000 3.781140 
# 
# 
# High freq. dielectric constant tensor:
#      x y z
#    x 1.821570 0.000000 0.000000 
#    y 0.000000 1.831340 0.000000 
#    z 0.000000 0.000000 1.826570 
# 
# From -- ./inp_files/26498.got.cif
#   From: 2010.03.12/outbox.cif.g09.slc.cpg/sg54_14_cif.got.tgz:26498.got - 2010.04.16 15:00:50.
