data_PCOD8224660
_publ_section_title
;
Structure prediction by ZEFSAII (Michael W. Deem and Ramdas Pophale) SiO2 
 PCOD8224660
Probable space group: P B A M
;
_chemical_formula_sum "Si O2"
_cell_formula_units_Z 64
_cell_length_a 9.648521
_cell_length_b 27.466055
_cell_length_c 13.648319
_cell_angle_alpha 90.000000
_cell_angle_beta 90.000000
_cell_angle_gamma 90.000000
_cell_volume 3616.897459
_symmetry_space_group_name_H-M "P B A M"
_symmetry_group_IT_number 55
_symmetry_cell_setting 'orthorhombic'
loop_
_space_group_symop_operation_xyz
x,y,z
-x,-y,z
1/2+x,1/2-y,-z
1/2-x,1/2+y,-z
-x,-y,-z
x,y,-z
1/2-x,1/2+y,z
1/2+x,1/2-y,z
loop_
_atom_site_type_symbol
_atom_site_label
_atom_site_fract_x
_atom_site_fract_y
_atom_site_fract_z
Si Si1 0.046941 0.892066 0.782937
Si Si2 0.598209 0.708245 0.110953
Si Si3 0.848432 0.991691 0.392892
Si Si4 0.911689 0.706187 0.111219
Si Si5 0.256304 0.402415 0.389416
Si Si6 0.047663 0.393782 0.778769
Si Si7 0.252118 0.964437 0.883664
Si Si8 0.751667 0.934346 0.221676
O O1 0.083255 0.841704 0.832542
O O2 0.104827 0.887371 0.671239
O O3 0.119826 0.937535 0.837059
O O4 0.883237 0.899477 0.793516
O O5 0.755891 0.725997 0.115176
O O6 0.506904 0.751496 0.158245
O O7 0.548623 0.698844 0.000000
O O8 0.874020 0.968574 0.500000
O O9 0.758032 0.039832 0.400211
O O10 0.758373 0.954740 0.331009
O O11 0.000000 0.000000 0.342675
O O12 0.922396 0.656912 0.170542
O O13 0.958848 0.695233 0.000000
O O14 0.255412 0.379122 0.500000
O O15 0.115904 0.389626 0.329691
O O16 0.883749 0.401172 0.779917
O O17 0.111889 0.438579 0.840003
O O18 0.251277 0.021517 0.856415
O O19 0.249855 0.958978 0.000000
#
# Coordination Sequence:
#
# PCOD8224660 Si02
#       8
#     8   8   8   8   8   8   8   8
#     4  11  21  37  59  82 112 147 190 234 280 333
#     4  10  21  38  61  86 111 142 185 236 284 331
#     4  10  18  33  55  79 110 147 190 237 277 318
#     4  10  21  39  61  85 111 143 186 235 284 331
#     4  10  20  36  59  80 105 150 193 226 275 337
#     4  11  23  37  56  81 117 151 185 232 285 337
#     4  11  22  38  54  73 113 162 194 222 270 335
#     4  12  23  34  51  86 118 147 190 230 275 335
#
# _framework density 17.694721999999999
#
# number of rings (size 3 to 8) (size 9 to 14) (size 15 to 20)
#    0.000    1.375    6.250    1.500    1.750    3.500 
#    0.000    1.250    0.000    0.750    0.000    0.000 
#    0.000    0.000    0.000    0.000    0.000    0.000 
#
# Total GULP energy -793409.035439 kJ/mol
# GULP energy per Si atom -12397.016179 kJ/mol
# Density = 1.765445 g / cm^3
# Si number density = 17.694722 Si / 1000 Ang^3
#
#
#
# Elastic Constant Matrix: (Units=GPa)
#
#
# Indices 1 2 3 4 5 6 
#
# 1 124.9248 26.9550 33.1581 0.0000 0.0000 0.0000
# 2 26.9550 54.5330 24.0584 0.0000 0.0000 0.0000
# 3 33.1581 24.0584 108.2276 0.0000 0.0000 0.0000
# 4 0.0000 0.0000 0.0000 14.8935 0.0000 0.0000
# 5 0.0000 0.0000 0.0000 0.0000 17.5066 0.0000
# 6 0.0000 0.0000 0.0000 0.0000 0.0000 31.2647
#
#
#
# Elastic Compliance Matrix: (Units=1/GPa)
#
#
# Indices 1 2 3 4 5 6 
#
# 1 0.009349 -0.003722 -0.002037 0.000000 0.000000 0.000000
# 2 -0.003722 0.021814 -0.003709 0.000000 0.000000 0.000000
# 3 -0.002037 -0.003709 0.010688 0.000000 0.000000 0.000000
# 4 0.000000 0.000000 0.000000 0.067143 0.000000 0.000000
# 5 0.000000 0.000000 0.000000 0.000000 0.057121 0.000000
# 6 0.000000 0.000000 0.000000 0.000000 0.000000 0.031985
#
#
# Mechanical properties :
#
#
# Convention : Reuss Voigt Hill
#
# Bulk Modulus (GPa) = 43.63953 50.66981 47.15467
# Shear Modulus (GPa) = 22.25451 26.30057 24.27754
#
# Velocity S-wave (km/s) = 3.55024 3.85950 3.70810
# Velocity P-wave (km/s) = 6.44373 6.96841 6.71120
#
# Compressibility (1/GPa) = 0.02291501
#
# Stress axis : x y z
#
# Youngs Moduli (GPa) = 106.96822 45.84308 93.56129
#
# Poissons Ratio (x) = 0.17064 0.19056
# Poissons Ratio (y) = 0.39817 0.34698
# Poissons Ratio (z) = 0.21786 0.17001
#
# Static dielectric constant tensor:
#      x y z
#    x 4.261690 0.000000 0.000000 
#    y 0.000000 3.108120 0.000000 
#    z 0.000000 0.000000 3.530830 
# 
# 
# High freq. dielectric constant tensor:
#      x y z
#    x 1.690070 0.000000 0.000000 
#    y 0.000000 1.664230 0.000000 
#    z 0.000000 0.000000 1.680520 
# 
# From -- ./inp_files/17855.got.cif
#   From: 2010.03.12/outbox.cif.g09.slc.cpg/sg55_9_cif.got.tgz:17855.got - 2010.04.16 15:19:21.
