data_PCOD8224052
_publ_section_title
;
Structure prediction by ZEFSAII (Michael W. Deem and Ramdas Pophale) SiO2 
 PCOD8224052
Probable space group: P C C A
;
_chemical_formula_sum "Si O2"
_cell_formula_units_Z 32
_cell_length_a 5.005136
_cell_length_b 12.520260
_cell_length_c 23.371196
_cell_angle_alpha 90.000000
_cell_angle_beta 90.000000
_cell_angle_gamma 90.000000
_cell_volume 1464.570115
_symmetry_space_group_name_H-M "P C C A"
_symmetry_group_IT_number 54
_symmetry_cell_setting 'orthorhombic'
loop_
_space_group_symop_operation_xyz
x,y,z
1/2-x,-y,z
1/2+x,-y,1/2-z
-x,y,1/2-z
-x,-y,-z
1/2+x,y,-z
1/2-x,y,1/2+z
x,-y,1/2+z
loop_
_atom_site_type_symbol
_atom_site_label
_atom_site_fract_x
_atom_site_fract_y
_atom_site_fract_z
Si Si1 0.133756 0.680606 0.134158
Si Si2 0.750000 0.000000 0.539000
Si Si3 0.137721 0.820577 0.873089
Si Si4 0.500000 0.566763 0.750000
Si Si5 0.750000 0.000000 0.714624
Si Si6 0.250000 0.500000 0.042272
O O1 0.332203 0.781280 0.128280
O O2 0.138560 0.632183 0.198207
O O3 0.225884 0.600710 0.084366
O O4 0.830110 0.718250 0.125464
O O5 0.723148 0.108504 0.573685
O O6 0.500000 0.000000 0.500000
O O7 0.164979 0.894664 0.818456
O O8 0.750000 0.500000 0.723929
O O9 0.500000 0.959070 0.750000
O O10 0.500000 0.500000 0.000000
#
# Coordination Sequence:
#
# PCOD8224052 Si02
#       6
#     8   4   8   4   4   4
#     4  12  26  46  71 104 139 184 236 286 358 424
#     4  11  24  45  72  98 138 183 232 291 340 406
#     4  11  26  43  68 104 135 177 235 280 342 420
#     4  12  26  46  74 100 146 190 236 302 354 430
#     4  11  24  43  64  98 142 179 218 279 344 410
#     4  12  28  48  70 100 142 184 232 296 354 420
#
# _framework density 21.849413999999999
#
# number of rings (size 3 to 8) (size 9 to 14) (size 15 to 20)
#    0.000    0.500    1.250    6.000    7.000   10.000 
#    0.000    0.000    0.000    0.000    0.000    0.000 
#    0.000    0.000    0.000    0.000    0.000    0.000 
#
# Total GULP energy -396713.366575 kJ/mol
# GULP energy per Si atom -12397.292705 kJ/mol
# Density = 2.179968 g / cm^3
# Si number density = 21.849414 Si / 1000 Ang^3
#
#
#
# Elastic Constant Matrix: (Units=GPa)
#
#
# Indices 1 2 3 4 5 6 
#
# 1 131.7269 23.5030 44.3409 0.0000 0.0000 0.0000
# 2 23.5030 97.5686 49.9369 0.0000 0.0000 0.0000
# 3 44.3409 49.9369 150.8011 0.0000 0.0000 0.0000
# 4 0.0000 0.0000 0.0000 57.3192 0.0000 0.0000
# 5 0.0000 0.0000 0.0000 0.0000 40.8652 0.0000
# 6 0.0000 0.0000 0.0000 0.0000 0.0000 53.4830
#
#
#
# Elastic Compliance Matrix: (Units=1/GPa)
#
#
# Indices 1 2 3 4 5 6 
#
# 1 0.008494 -0.000925 -0.002191 0.000000 0.000000 0.000000
# 2 -0.000925 0.012441 -0.003848 0.000000 0.000000 0.000000
# 3 -0.002191 -0.003848 0.008550 0.000000 0.000000 0.000000
# 4 0.000000 0.000000 0.000000 0.017446 0.000000 0.000000
# 5 0.000000 0.000000 0.000000 0.000000 0.024471 0.000000
# 6 0.000000 0.000000 0.000000 0.000000 0.000000 0.018698
#
#
# Mechanical properties :
#
#
# Convention : Reuss Voigt Hill
#
# Bulk Modulus (GPa) = 64.27824 68.40647 66.34235
# Shear Modulus (GPa) = 45.78188 47.82118 46.80153
#
# Velocity S-wave (km/s) = 4.58245 4.68340 4.63320
# Velocity P-wave (km/s) = 7.58163 7.78600 7.68449
#
# Compressibility (1/GPa) = 0.01555736
#
# Stress axis : x y z
#
# Youngs Moduli (GPa) = 117.72911 80.37688 116.96089
#
# Poissons Ratio (x) = 0.07431 0.25631
# Poissons Ratio (y) = 0.10884 0.45007
# Poissons Ratio (z) = 0.25799 0.30929
#
# Static dielectric constant tensor:
#      x y z
#    x 4.004530 0.000000 0.000000 
#    y 0.000000 3.988750 0.000000 
#    z 0.000000 0.000000 4.107920 
# 
# 
# High freq. dielectric constant tensor:
#      x y z
#    x 1.882360 0.000000 0.000000 
#    y 0.000000 1.868450 0.000000 
#    z 0.000000 0.000000 1.871960 
# 
# From -- ./inp_files/19537.got.cif
#   From: 2010.03.12/outbox.cif.g09.slc.cpg/sg54_10_cif.got.tgz:19537.got - 2010.04.16 15:00:50.
