data_PCOD8224004
_publ_section_title
;
Structure prediction by ZEFSAII (Michael W. Deem and Ramdas Pophale) SiO2 
 PCOD8224004
Probable space group: P C C A
;
_chemical_formula_sum "Si O2"
_cell_formula_units_Z 24
_cell_length_a 12.386212
_cell_length_b 4.813687
_cell_length_c 17.670425
_cell_angle_alpha 90.000000
_cell_angle_beta 90.000000
_cell_angle_gamma 90.000000
_cell_volume 1053.569893
_symmetry_space_group_name_H-M "P C C A"
_symmetry_group_IT_number 54
_symmetry_cell_setting 'orthorhombic'
loop_
_space_group_symop_operation_xyz
x,y,z
1/2-x,-y,z
1/2+x,-y,1/2-z
-x,y,1/2-z
-x,-y,-z
1/2+x,y,-z
1/2-x,y,1/2+z
x,-y,1/2+z
loop_
_atom_site_type_symbol
_atom_site_label
_atom_site_fract_x
_atom_site_fract_y
_atom_site_fract_z
Si Si1 0.483825 0.359201 0.837561
Si Si2 0.821659 0.752242 0.938529
Si Si3 0.136125 0.865804 0.396829
O O1 0.500000 0.419778 0.750000
O O2 0.598045 0.395959 0.879654
O O3 0.386520 0.551475 0.869266
O O4 0.455154 0.041014 0.854282
O O5 0.750000 0.500000 0.970083
O O6 0.750000 0.000000 0.900525
O O7 0.879938 0.881057 0.012521
O O8 0.250000 0.000000 0.372066
#
# Coordination Sequence:
#
# PCOD8224004 Si02
#       3
#     8   8   8
#     4  12  25  41  64  96 131 166 204 260 324 379
#     4  11  23  42  66  93 123 166 215 261 308 370
#     4  11  23  43  66  91 123 168 215 259 309 375
#
# _framework density 22.779693999999999
#
# number of rings (size 3 to 8) (size 9 to 14) (size 15 to 20)
#    0.000    0.667    0.000   10.000    0.000    4.000 
#    0.000    0.000    0.000    0.000    0.000    0.000 
#    0.000    0.000    0.000    0.000    0.000    0.000 
#
# Total GULP energy -297606.233148 kJ/mol
# GULP energy per Si atom -12400.259715 kJ/mol
# Density = 2.272785 g / cm^3
# Si number density = 22.779694 Si / 1000 Ang^3
#
#
#
# Elastic Constant Matrix: (Units=GPa)
#
#
# Indices 1 2 3 4 5 6 
#
# 1 98.2032 35.2279 62.6715 0.0000 0.0000 0.0000
# 2 35.2279 106.8220 21.7753 0.0000 0.0000 0.0000
# 3 62.6715 21.7753 138.3508 0.0000 0.0000 0.0000
# 4 0.0000 0.0000 0.0000 -4.0055 0.0000 0.0000
# 5 0.0000 0.0000 0.0000 0.0000 17.0603 0.0000
# 6 0.0000 0.0000 0.0000 0.0000 0.0000 1.8047
#
#
#
# Elastic Compliance Matrix: (Units=1/GPa)
#
#
# Indices 1 2 3 4 5 6 
#
# 1 0.015725 -0.003858 -0.006516 0.000000 0.000000 0.000000
# 2 -0.003858 0.010618 0.000076 0.000000 0.000000 0.000000
# 3 -0.006516 0.000076 0.010168 0.000000 0.000000 0.000000
# 4 0.000000 0.000000 0.000000 -0.249655 0.000000 0.000000
# 5 0.000000 0.000000 0.000000 0.000000 0.058616 0.000000
# 6 0.000000 0.000000 0.000000 0.000000 0.000000 0.554113
#
#
# Mechanical properties :
#
#
# Convention : Reuss Voigt Hill
#
# Bulk Modulus (GPa) = 62.83012 64.74726 63.78869
# Shear Modulus (GPa) = 11.75128 17.88531 14.81830
#
# Velocity S-wave (km/s) = 2.27373 2.80508 2.55327
# Velocity P-wave (km/s) = 5.87662 6.24310 6.06263
#
# Compressibility (1/GPa) = 0.01591593
#
# Stress axis : x y z
#
# Youngs Moduli (GPa) = 63.59164 94.17987 98.34972
#
# Poissons Ratio (x) = 0.36331 0.64087
# Poissons Ratio (y) = 0.24531 -0.00750
# Poissons Ratio (z) = 0.41438 -0.00718
#
# Static dielectric constant tensor:
#      x y z
#    x 4.164950 0.000000 0.000000 
#    y 0.000000 4.153050 0.000000 
#    z 0.000000 0.000000 3.703140 
# 
# 
# High freq. dielectric constant tensor:
#      x y z
#    x 1.899810 0.000000 0.000000 
#    y 0.000000 1.920120 0.000000 
#    z 0.000000 0.000000 1.877370 
# 
# From -- ./inp_files/12848.got.cif
#   From: 2010.03.12/outbox.cif.g09.slc.cpg/sg54_7_cif.got.tgz:12848.got - 2010.04.16 15:00:50.
