data_PCOD8224846
_publ_section_title
;
Structure prediction by ZEFSAII (Michael W. Deem and Ramdas Pophale) SiO2 
 PCOD8224846
Probable space group: P B A M
;
_chemical_formula_sum "Si O2"
_cell_formula_units_Z 64
_cell_length_a 16.627327
_cell_length_b 22.447116
_cell_length_c 8.988001
_cell_angle_alpha 90.000000
_cell_angle_beta 90.000000
_cell_angle_gamma 90.000000
_cell_volume 3354.641388
_symmetry_space_group_name_H-M "P B A M"
_symmetry_group_IT_number 55
_symmetry_cell_setting 'orthorhombic'
loop_
_space_group_symop_operation_xyz
x,y,z
-x,-y,z
1/2+x,1/2-y,-z
1/2-x,1/2+y,-z
-x,-y,-z
x,y,-z
1/2-x,1/2+y,z
1/2+x,1/2-y,z
loop_
_atom_site_type_symbol
_atom_site_label
_atom_site_fract_x
_atom_site_fract_y
_atom_site_fract_z
Si Si1 0.575227 0.347661 0.324748
Si Si2 0.008881 0.433193 0.658399
Si Si3 0.398612 0.140880 0.830896
Si Si4 0.048379 0.944727 0.324245
Si Si5 0.773101 0.032413 0.677111
Si Si6 0.147954 0.387251 0.829635
Si Si7 0.770630 0.905634 0.173043
Si Si8 0.543160 0.225808 0.170728
O O1 0.590293 0.351628 0.500000
O O2 0.495569 0.383924 0.275921
O O3 0.652252 0.376054 0.246803
O O4 0.559887 0.280268 0.278634
O O5 0.032682 0.400985 0.500000
O O6 0.923747 0.410095 0.716619
O O7 0.000000 0.500000 0.615214
O O8 0.071849 0.427716 0.791544
O O9 0.301966 0.143356 0.809108
O O10 0.453561 0.199264 0.793581
O O11 0.418951 0.122494 0.000000
O O12 0.049216 0.950834 0.500000
O O13 0.139050 0.947937 0.265719
O O14 0.000000 0.000000 0.253709
O O15 0.767080 0.024528 0.500000
O O16 0.719481 0.089037 0.726041
O O17 0.749015 0.969380 0.751967
O O18 0.116592 0.320176 0.797186
O O19 0.173567 0.395534 0.000000
O O20 0.787561 0.917589 0.000000
O O21 0.546468 0.246987 0.000000
#
# Coordination Sequence:
#
# PCOD8224846 Si02
#       8
#     8   8   8   8   8   8   8   8
#     4  11  22  39  63  86 111 151 197 243 296 348
#     4  10  19  30  49  79 112 146 187 232 280 333
#     4   9  20  37  56  78 111 153 190 231 285 342
#     4   9  18  37  60  82 114 150 183 232 298 349
#     4  11  21  36  60  88 121 153 192 244 296 350
#     4  10  21  37  56  80 115 155 192 231 287 349
#     4  11  22  37  59  88 121 154 192 238 294 355
#     4   9  20  41  61  79 112 155 197 239 287 347
#
# _framework density 19.078044999999999
#
# number of rings (size 3 to 8) (size 9 to 14) (size 15 to 20)
#    0.000    2.000    1.250    3.375    0.000    6.500 
#    2.250    3.125    0.000    0.000    0.000    0.000 
#    0.000    0.000    0.000    0.000    0.000    0.000 
#
# Total GULP energy -792917.500313 kJ/mol
# GULP energy per Si atom -12389.335942 kJ/mol
# Density = 1.903462 g / cm^3
# Si number density = 19.078045 Si / 1000 Ang^3
#
#
#
# Elastic Constant Matrix: (Units=GPa)
#
#
# Indices 1 2 3 4 5 6 
#
# 1 116.1598 47.4409 37.6475 0.0000 0.0000 0.0000
# 2 47.4409 100.9440 45.4205 0.0000 0.0000 0.0000
# 3 37.6475 45.4205 84.1655 0.0000 0.0000 0.0000
# 4 0.0000 0.0000 0.0000 30.2617 0.0000 0.0000
# 5 0.0000 0.0000 0.0000 0.0000 28.8410 0.0000
# 6 0.0000 0.0000 0.0000 0.0000 0.0000 27.1758
#
#
#
# Elastic Compliance Matrix: (Units=1/GPa)
#
#
# Indices 1 2 3 4 5 6 
#
# 1 0.011149 -0.003957 -0.002852 0.000000 0.000000 0.000000
# 2 -0.003957 0.014488 -0.006049 0.000000 0.000000 0.000000
# 3 -0.002852 -0.006049 0.016421 0.000000 0.000000 0.000000
# 4 0.000000 0.000000 0.000000 0.033045 0.000000 0.000000
# 5 0.000000 0.000000 0.000000 0.000000 0.034673 0.000000
# 6 0.000000 0.000000 0.000000 0.000000 0.000000 0.036798
#
#
# Mechanical properties :
#
#
# Convention : Reuss Voigt Hill
#
# Bulk Modulus (GPa) = 61.18493 62.47634 61.83064
# Shear Modulus (GPa) = 28.13181 28.63972 28.38576
#
# Velocity S-wave (km/s) = 3.84417 3.87872 3.86148
# Velocity P-wave (km/s) = 7.20028 7.27174 7.23610
#
# Compressibility (1/GPa) = 0.01634389
#
# Stress axis : x y z
#
# Youngs Moduli (GPa) = 89.69424 69.02491 60.89726
#
# Poissons Ratio (x) = 0.27310 0.17367
# Poissons Ratio (y) = 0.35488 0.36834
# Poissons Ratio (z) = 0.25579 0.41750
#
# Static dielectric constant tensor:
#      x y z
#    x 3.680460 0.000000 0.000000 
#    y 0.000000 3.247660 0.000000 
#    z 0.000000 0.000000 3.530780 
# 
# 
# High freq. dielectric constant tensor:
#      x y z
#    x 1.746230 0.000000 0.000000 
#    y 0.000000 1.724980 0.000000 
#    z 0.000000 0.000000 1.746640 
# 
# From -- ./inp_files/6667.got.cif
#   From: 2010.03.12/outbox.cif.g09.slc.cpg/sg55_4_cif.got.tgz:6667.got - 2010.04.16 15:19:21.
