data_PCOD8224662
_publ_section_title
;
Structure prediction by ZEFSAII (Michael W. Deem and Ramdas Pophale) SiO2 
 PCOD8224662
Probable space group: P B A M
;
_chemical_formula_sum "Si O2"
_cell_formula_units_Z 64
_cell_length_a 19.343608
_cell_length_b 20.412119
_cell_length_c 8.911976
_cell_angle_alpha 90.000000
_cell_angle_beta 90.000000
_cell_angle_gamma 90.000000
_cell_volume 3518.840505
_symmetry_space_group_name_H-M "P B A M"
_symmetry_group_IT_number 55
_symmetry_cell_setting 'orthorhombic'
loop_
_space_group_symop_operation_xyz
x,y,z
-x,-y,z
1/2+x,1/2-y,-z
1/2-x,1/2+y,-z
-x,-y,-z
x,y,-z
1/2-x,1/2+y,z
1/2+x,1/2-y,z
loop_
_atom_site_type_symbol
_atom_site_label
_atom_site_fract_x
_atom_site_fract_y
_atom_site_fract_z
Si Si1 0.033295 0.814098 0.676214
Si Si2 0.677849 0.142496 0.821507
Si Si3 0.323430 0.500361 0.172933
Si Si4 0.319962 0.363453 0.323347
Si Si5 0.957960 0.683608 0.677022
Si Si6 0.462365 0.564892 0.173525
Si Si7 0.037638 0.568969 0.830052
Si Si8 0.328251 0.005733 0.825043
O O1 0.027083 0.820222 0.500000
O O2 0.113665 0.819879 0.724367
O O3 0.002988 0.745262 0.733384
O O4 0.986495 0.871535 0.740935
O O5 0.752645 0.165520 0.760456
O O6 0.617095 0.187546 0.755309
O O7 0.664741 0.068319 0.762761
O O8 0.678057 0.147880 0.000000
O O9 0.337303 0.437630 0.275722
O O10 0.380348 0.556056 0.200965
O O11 0.248706 0.532235 0.210564
O O12 0.324474 0.475836 0.000000
O O13 0.306396 0.361271 0.500000
O O14 0.946861 0.684206 0.500000
O O15 0.998795 0.618683 0.722525
O O16 0.500000 0.500000 0.236115
O O17 0.481046 0.574257 0.000000
O O18 0.114552 0.555901 0.760262
O O19 0.000000 0.500000 0.829205
O O20 0.039188 0.597451 0.000000
O O21 0.344311 0.001408 0.000000
#
# Coordination Sequence:
#
# PCOD8224662 Si02
#       8
#     8   8   8   8   8   8   8   8
#     4  10  23  39  54  76 113 153 185 221 274 331
#     4  10  19  35  57  81 107 140 179 226 278 327
#     4   9  17  31  51  79 112 143 176 227 282 323
#     4  10  19  33  54  80 107 142 184 223 266 328
#     4  11  23  38  54  79 112 148 187 226 271 325
#     4  10  19  32  54  83 110 138 183 236 277 316
#     4  10  18  33  55  80 107 139 180 224 278 331
#     4   8  15  29  51  76 106 138 170 215 274 330
#
# _framework density 18.187809999999999
#
# number of rings (size 3 to 8) (size 9 to 14) (size 15 to 20)
#    0.000    2.250    2.500    1.875    0.000    2.500 
#    0.000    1.875    0.000    3.000    0.000    0.000 
#    0.000    0.000    0.000    0.000    0.000    0.000 
#
# Total GULP energy -793432.817915 kJ/mol
# GULP energy per Si atom -12397.387780 kJ/mol
# Density = 1.814641 g / cm^3
# Si number density = 18.187810 Si / 1000 Ang^3
#
#
#
# Elastic Constant Matrix: (Units=GPa)
#
#
# Indices 1 2 3 4 5 6 
#
# 1 170.5181 59.8332 47.3286 0.0000 0.0000 0.0000
# 2 59.8332 76.8161 27.1609 0.0000 0.0000 0.0000
# 3 47.3286 27.1609 45.1152 0.0000 0.0000 0.0000
# 4 0.0000 0.0000 0.0000 18.3869 0.0000 0.0000
# 5 0.0000 0.0000 0.0000 0.0000 26.8389 0.0000
# 6 0.0000 0.0000 0.0000 0.0000 0.0000 28.7427
#
#
#
# Elastic Compliance Matrix: (Units=1/GPa)
#
#
# Indices 1 2 3 4 5 6 
#
# 1 0.009558 -0.004954 -0.007044 0.000000 0.000000 0.000000
# 2 -0.004954 0.019106 -0.006306 0.000000 0.000000 0.000000
# 3 -0.007044 -0.006306 0.033352 0.000000 0.000000 0.000000
# 4 0.000000 0.000000 0.000000 0.054387 0.000000 0.000000
# 5 0.000000 0.000000 0.000000 0.000000 0.037259 0.000000
# 6 0.000000 0.000000 0.000000 0.000000 0.000000 0.034791
#
#
# Mechanical properties :
#
#
# Convention : Reuss Voigt Hill
#
# Bulk Modulus (GPa) = 39.35775 62.34388 50.85082
# Shear Modulus (GPa) = 21.41039 25.33546 23.37293
#
# Velocity S-wave (km/s) = 3.43473 3.73633 3.58870
# Velocity P-wave (km/s) = 6.11690 7.27776 6.72243
#
# Compressibility (1/GPa) = 0.02540796
#
# Stress axis : x y z
#
# Youngs Moduli (GPa) = 104.62357 52.33821 29.98345
#
# Poissons Ratio (x) = 0.25929 0.21122
# Poissons Ratio (y) = 0.51832 0.18906
# Poissons Ratio (z) = 0.73702 0.33002
#
# Static dielectric constant tensor:
#      x y z
#    x 3.851420 0.000000 0.000000 
#    y 0.000000 3.164530 0.000000 
#    z 0.000000 0.000000 3.219360 
# 
# 
# High freq. dielectric constant tensor:
#      x y z
#    x 1.729810 0.000000 0.000000 
#    y 0.000000 1.668090 0.000000 
#    z 0.000000 0.000000 1.691680 
# 
# From -- ./inp_files/8996.got.cif
#   From: 2010.03.12/outbox.cif.g09.slc.cpg/sg55_5_cif.got.tgz:8996.got - 2010.04.16 15:19:21.
