data_PCOD8224640
_publ_section_title
;
Structure prediction by ZEFSAII (Michael W. Deem and Ramdas Pophale) SiO2 
 PCOD8224640
Probable space group: P B A M
;
_chemical_formula_sum "Si O2"
_cell_formula_units_Z 64
_cell_length_a 19.932242
_cell_length_b 19.538703
_cell_length_c 9.016645
_cell_angle_alpha 90.000000
_cell_angle_beta 90.000000
_cell_angle_gamma 90.000000
_cell_volume 3511.533807
_symmetry_space_group_name_H-M "P B A M"
_symmetry_group_IT_number 55
_symmetry_cell_setting 'orthorhombic'
loop_
_space_group_symop_operation_xyz
x,y,z
-x,-y,z
1/2+x,1/2-y,-z
1/2-x,1/2+y,-z
-x,-y,-z
x,y,-z
1/2-x,1/2+y,z
1/2+x,1/2-y,z
loop_
_atom_site_type_symbol
_atom_site_label
_atom_site_fract_x
_atom_site_fract_y
_atom_site_fract_z
Si Si1 0.292320 0.234555 0.666979
Si Si2 0.431140 0.469351 0.676739
Si Si3 0.319941 0.572559 0.325175
Si Si4 0.814483 0.402155 0.174368
Si Si5 0.018107 0.287986 0.824240
Si Si6 0.919898 0.183485 0.329971
Si Si7 0.462920 0.067147 0.823914
Si Si8 0.143662 0.226039 0.329804
O O1 0.295201 0.202961 0.500000
O O2 0.315378 0.177445 0.782650
O O3 0.341412 0.298667 0.682528
O O4 0.216601 0.260173 0.697207
O O5 0.500000 0.500000 0.739401
O O6 0.430112 0.470780 0.500000
O O7 0.369578 0.514558 0.737603
O O8 0.426227 0.392301 0.736574
O O9 0.310417 0.567426 0.500000
O O10 0.247405 0.559630 0.252478
O O11 0.351134 0.646330 0.282303
O O12 0.885097 0.434938 0.226701
O O13 0.805182 0.408657 0.000000
O O14 0.091912 0.267221 0.770877
O O15 0.964175 0.234611 0.764685
O O16 0.999323 0.363888 0.764725
O O17 0.016197 0.285831 0.000000
O O18 0.945054 0.186590 0.500000
O O19 0.500000 0.000000 0.757991
O O20 0.467044 0.066914 0.000000
O O21 0.120197 0.231944 0.500000
#
# Coordination Sequence:
#
# PCOD8224640 Si02
#       8
#     8   8   8   8   8   8   8   8
#     4   9  18  33  53  75 102 134 171 212 258 309
#     4   9  17  31  52  77 104 138 177 209 249 308
#     4   9  18  34  55  79 108 140 177 216 253 306
#     4  10  18  32  56  78 100 134 175 215 259 311
#     4  11  21  34  54  80 104 133 174 219 262 308
#     4  10  19  33  56  79 103 139 176 215 262 312
#     4   9  19  36  54  72 100 137 175 213 259 317
#     4   9  18  33  52  75 105 139 170 209 259 311
#
# _framework density 18.225653999999999
#
# number of rings (size 3 to 8) (size 9 to 14) (size 15 to 20)
#    0.000    2.500    1.250    2.250    0.000    4.000 
#    2.250    0.625    0.000    6.750    0.000    0.000 
#    0.000    0.000    0.000    0.000    0.000    0.000 
#
# Total GULP energy -793493.421746 kJ/mol
# GULP energy per Si atom -12398.334715 kJ/mol
# Density = 1.818417 g / cm^3
# Si number density = 18.225654 Si / 1000 Ang^3
#
#
#
# Elastic Constant Matrix: (Units=GPa)
#
#
# Indices 1 2 3 4 5 6 
#
# 1 166.3407 91.3452 40.3909 0.0000 0.0000 0.0000
# 2 91.3452 138.7061 30.8949 0.0000 0.0000 0.0000
# 3 40.3909 30.8949 42.5540 0.0000 0.0000 0.0000
# 4 0.0000 0.0000 0.0000 18.6968 0.0000 0.0000
# 5 0.0000 0.0000 0.0000 0.0000 28.6765 0.0000
# 6 0.0000 0.0000 0.0000 0.0000 0.0000 34.2788
#
#
#
# Elastic Compliance Matrix: (Units=1/GPa)
#
#
# Indices 1 2 3 4 5 6 
#
# 1 0.010535 -0.005619 -0.005920 0.000000 0.000000 0.000000
# 2 -0.005619 0.011598 -0.003086 0.000000 0.000000 0.000000
# 3 -0.005920 -0.003086 0.031359 0.000000 0.000000 0.000000
# 4 0.000000 0.000000 0.000000 0.053485 0.000000 0.000000
# 5 0.000000 0.000000 0.000000 0.000000 0.034872 0.000000
# 6 0.000000 0.000000 0.000000 0.000000 0.000000 0.029173
#
#
# Mechanical properties :
#
#
# Convention : Reuss Voigt Hill
#
# Bulk Modulus (GPa) = 41.25268 74.76252 58.00760
# Shear Modulus (GPa) = 23.99781 28.66173 26.32977
#
# Velocity S-wave (km/s) = 3.63258 3.96991 3.80498
# Velocity P-wave (km/s) = 6.34647 7.88182 7.15545
#
# Compressibility (1/GPa) = 0.02424085
#
# Stress axis : x y z
#
# Youngs Moduli (GPa) = 94.92153 86.22514 31.88860
#
# Poissons Ratio (x) = 0.48453 0.18877
# Poissons Ratio (y) = 0.53339 0.09842
# Poissons Ratio (z) = 0.56191 0.26612
#
# Static dielectric constant tensor:
#      x y z
#    x 3.627450 0.000000 0.000000 
#    y 0.000000 3.416340 0.000000 
#    z 0.000000 0.000000 3.085020 
# 
# 
# High freq. dielectric constant tensor:
#      x y z
#    x 1.723810 0.000000 0.000000 
#    y 0.000000 1.693780 0.000000 
#    z 0.000000 0.000000 1.677120 
# 
# From -- ./inp_files/9185.got.cif
#   From: 2010.03.12/outbox.cif.g09.slc.cpg/sg55_5_cif.got.tgz:9185.got - 2010.04.16 15:19:21.
