data_PCOD8224622
_publ_section_title
;
Structure prediction by ZEFSAII (Michael W. Deem and Ramdas Pophale) SiO2 
 PCOD8224622
Probable space group: P B A M
;
_chemical_formula_sum "Si O2"
_cell_formula_units_Z 52
_cell_length_a 14.126589
_cell_length_b 19.609916
_cell_length_c 9.691781
_cell_angle_alpha 90.000000
_cell_angle_beta 90.000000
_cell_angle_gamma 90.000000
_cell_volume 2684.829032
_symmetry_space_group_name_H-M "P B A M"
_symmetry_group_IT_number 55
_symmetry_cell_setting 'orthorhombic'
loop_
_space_group_symop_operation_xyz
x,y,z
-x,-y,z
1/2+x,1/2-y,-z
1/2-x,1/2+y,-z
-x,-y,-z
x,y,-z
1/2-x,1/2+y,z
1/2+x,1/2-y,z
loop_
_atom_site_type_symbol
_atom_site_label
_atom_site_fract_x
_atom_site_fract_y
_atom_site_fract_z
Si Si1 0.928063 0.876472 0.650738
Si Si2 0.384317 0.187435 0.660502
Si Si3 0.500000 0.500000 0.797675
Si Si4 0.275512 0.056382 0.652393
Si Si5 0.802101 0.048056 0.147689
Si Si6 0.273373 0.299627 0.835912
Si Si7 0.593573 0.227381 0.661617
O O1 0.968696 0.861589 0.500000
O O2 0.824797 0.907577 0.647507
O O3 0.924784 0.803196 0.724323
O O4 0.001180 0.930040 0.712573
O O5 0.355173 0.201394 0.500000
O O6 0.349822 0.112356 0.707759
O O7 0.337621 0.243652 0.759605
O O8 0.497037 0.185360 0.677494
O O9 0.401216 0.492941 0.877953
O O10 0.305159 0.031097 0.500000
O O11 0.268760 0.989563 0.747333
O O12 0.821029 0.126506 0.189464
O O13 0.749698 0.046866 0.000000
O O14 0.171622 0.304973 0.761547
O O15 0.264481 0.282547 0.000000
O O16 0.626856 0.229190 0.500000
#
# Coordination Sequence:
#
# PCOD8224622 Si02
#       7
#     8   8   4   8   8   8   8
#     4   9  16  29  50  79 112 141 175 225 281 340
#     4  10  20  37  61  86 112 146 192 243 291 342
#     4  10  18  32  54  82 111 146 185 234 285 350
#     4   9  18  34  55  79 107 140 182 231 281 338
#     4  10  22  37  53  78 114 151 188 232 287 346
#     4  11  23  38  56  84 121 156 192 238 289 353
#     4  10  20  36  59  84 113 151 195 243 288 340
#
# _framework density 19.368086000000002
#
# number of rings (size 3 to 8) (size 9 to 14) (size 15 to 20)
#    0.000    2.154    1.538    1.846    0.000    3.077 
#    0.000    1.538    0.000    4.615    0.000    0.000 
#    0.000    0.000    0.000    0.000    0.000    0.000 
#
# Total GULP energy -644297.633923 kJ/mol
# GULP energy per Si atom -12390.339114 kJ/mol
# Density = 1.932400 g / cm^3
# Si number density = 19.368086 Si / 1000 Ang^3
#
#
#
# Elastic Constant Matrix: (Units=GPa)
#
#
# Indices 1 2 3 4 5 6 
#
# 1 67.1162 18.9367 34.5744 0.0000 0.0000 0.0000
# 2 18.9367 81.3556 42.1440 0.0000 0.0000 0.0000
# 3 34.5744 42.1440 94.9415 0.0000 0.0000 0.0000
# 4 0.0000 0.0000 0.0000 29.2555 0.0000 0.0000
# 5 0.0000 0.0000 0.0000 0.0000 13.2280 0.0000
# 6 0.0000 0.0000 0.0000 0.0000 0.0000 30.1903
#
#
#
# Elastic Compliance Matrix: (Units=1/GPa)
#
#
# Indices 1 2 3 4 5 6 
#
# 1 0.018410 -0.001055 -0.006236 0.000000 0.000000 0.000000
# 2 -0.001055 0.016023 -0.006728 0.000000 0.000000 0.000000
# 3 -0.006236 -0.006728 0.015790 0.000000 0.000000 0.000000
# 4 0.000000 0.000000 0.000000 0.034182 0.000000 0.000000
# 5 0.000000 0.000000 0.000000 0.000000 0.075597 0.000000
# 6 0.000000 0.000000 0.000000 0.000000 0.000000 0.033123
#
#
# Mechanical properties :
#
#
# Convention : Reuss Voigt Hill
#
# Bulk Modulus (GPa) = 45.07619 48.30260 46.68940
# Shear Modulus (GPa) = 21.87638 24.38530 23.13084
#
# Velocity S-wave (km/s) = 3.36446 3.55215 3.45958
# Velocity P-wave (km/s) = 6.19812 6.46662 6.33379
#
# Compressibility (1/GPa) = 0.02218466
#
# Stress axis : x y z
#
# Youngs Moduli (GPa) = 54.31975 62.41181 63.32982
#
# Poissons Ratio (x) = 0.06583 0.39492
# Poissons Ratio (y) = 0.05729 0.42610
# Poissons Ratio (z) = 0.33873 0.41992
#
# Static dielectric constant tensor:
#      x y z
#    x 3.389150 0.000000 0.000000 
#    y 0.000000 3.611790 0.000000 
#    z 0.000000 0.000000 3.619830 
# 
# 
# High freq. dielectric constant tensor:
#      x y z
#    x 1.737810 0.000000 0.000000 
#    y 0.000000 1.755550 0.000000 
#    z 0.000000 0.000000 1.744510 
# 
# From -- ./inp_files/5900.got.cif
#   From: 2010.03.12/outbox.cif.g09.slc.cpg/sg55_3_cif.got.tgz:5900.got - 2010.04.16 15:19:21.
