data_PCOD8224547
_publ_section_title
;
Structure prediction by ZEFSAII (Michael W. Deem and Ramdas Pophale) SiO2 
 PCOD8224547
Probable space group: P B A M
;
_chemical_formula_sum "Si O2"
_cell_formula_units_Z 64
_cell_length_a 27.541115
_cell_length_b 8.876230
_cell_length_c 13.632608
_cell_angle_alpha 90.000000
_cell_angle_beta 90.000000
_cell_angle_gamma 90.000000
_cell_volume 3332.644681
_symmetry_space_group_name_H-M "P B A M"
_symmetry_group_IT_number 55
_symmetry_cell_setting 'orthorhombic'
loop_
_space_group_symop_operation_xyz
x,y,z
-x,-y,z
1/2+x,1/2-y,-z
1/2-x,1/2+y,-z
-x,-y,-z
x,y,-z
1/2-x,1/2+y,z
1/2+x,1/2-y,z
loop_
_atom_site_type_symbol
_atom_site_label
_atom_site_fract_x
_atom_site_fract_y
_atom_site_fract_z
Si Si1 0.956958 0.902449 0.271907
Si Si2 0.585190 0.610431 0.885312
Si Si3 0.377163 0.462049 0.609627
Si Si4 0.313888 0.442590 0.787918
Si Si5 0.237349 0.218478 0.730713
Si Si6 0.023174 0.643544 0.782145
Si Si7 0.091434 0.624801 0.609919
Si Si8 0.195768 0.490139 0.384365
O O1 0.911323 0.905919 0.345875
O O2 0.976097 0.736771 0.252192
O O3 0.942182 0.973921 0.167205
O O4 0.000000 0.000000 0.320478
O O5 0.642148 0.602986 0.858946
O O6 0.561289 0.767626 0.850257
O O7 0.578074 0.592457 0.000000
O O8 0.361750 0.506198 0.500000
O O9 0.328671 0.444743 0.672867
O O10 0.405943 0.305848 0.615038
O O11 0.272574 0.316508 0.800584
O O12 0.293557 0.612228 0.805888
O O13 0.266592 0.112302 0.656244
O O14 0.202622 0.328647 0.668080
O O15 0.050391 0.576903 0.686515
O O16 0.000000 0.500000 0.838957
O O17 0.076618 0.574624 0.500000
O O18 0.142051 0.548886 0.640160
O O19 0.204076 0.472570 0.500000
#
# Coordination Sequence:
#
# PCOD8224547 Si02
#       8
#     8   8   8   8   8   8   8   8
#     4   9  18  35  55  81 103 140 186 220 267 323
#     4  10  21  41  64  81 105 138 174 222 284 341
#     4  10  18  31  53  77 110 149 189 225 262 313
#     4  10  20  38  55  81 108 144 182 221 275 321
#     4  10  20  32  54  77 110 144 186 229 267 321
#     4  11  22  37  57  83 114 142 183 231 273 325
#     4  10  19  33  51  75 115 155 185 223 269 312
#     4  10  19  31  49  78 112 153 192 227 267 313
#
# _framework density 19.203966999999999
#
# number of rings (size 3 to 8) (size 9 to 14) (size 15 to 20)
#    0.000    2.000    5.000    0.375    0.000    8.000 
#    0.000    1.875    0.000    0.000    0.000    0.000 
#    0.000    0.000    0.000    0.000    0.000    0.000 
#
# Total GULP energy -793377.576772 kJ/mol
# GULP energy per Si atom -12396.524637 kJ/mol
# Density = 1.916026 g / cm^3
# Si number density = 19.203967 Si / 1000 Ang^3
#
#
#
# Elastic Constant Matrix: (Units=GPa)
#
#
# Indices 1 2 3 4 5 6 
#
# 1 86.7204 45.2081 28.8956 0.0000 0.0000 0.0000
# 2 45.2081 107.4259 13.3916 0.0000 0.0000 0.0000
# 3 28.8956 13.3916 71.3625 0.0000 0.0000 0.0000
# 4 0.0000 0.0000 0.0000 8.6734 0.0000 0.0000
# 5 0.0000 0.0000 0.0000 0.0000 13.4971 0.0000
# 6 0.0000 0.0000 0.0000 0.0000 0.0000 32.4823
#
#
#
# Elastic Compliance Matrix: (Units=1/GPa)
#
#
# Indices 1 2 3 4 5 6 
#
# 1 0.016685 -0.006328 -0.005569 0.000000 0.000000 0.000000
# 2 -0.006328 0.011931 0.000323 0.000000 0.000000 0.000000
# 3 -0.005569 0.000323 0.016207 0.000000 0.000000 0.000000
# 4 0.000000 0.000000 0.000000 0.115295 0.000000 0.000000
# 5 0.000000 0.000000 0.000000 0.000000 0.074090 0.000000
# 6 0.000000 0.000000 0.000000 0.000000 0.000000 0.030786
#
#
# Mechanical properties :
#
#
# Convention : Reuss Voigt Hill
#
# Bulk Modulus (GPa) = 46.13059 48.94435 47.53747
# Shear Modulus (GPa) = 16.92810 22.79814 19.86312
#
# Velocity S-wave (km/s) = 2.97221 3.44925 3.21958
# Velocity P-wave (km/s) = 5.98767 6.43468 6.21519
#
# Compressibility (1/GPa) = 0.02167759
#
# Stress axis : x y z
#
# Youngs Moduli (GPa) = 59.93249 83.81328 61.70101
#
# Poissons Ratio (x) = 0.53033 0.34360
# Poissons Ratio (y) = 0.37923 -0.01994
# Poissons Ratio (z) = 0.33375 -0.02708
#
# Static dielectric constant tensor:
#      x y z
#    x 3.667460 0.000000 0.000000 
#    y 0.000000 3.572920 0.000000 
#    z 0.000000 0.000000 3.169040 
# 
# 
# High freq. dielectric constant tensor:
#      x y z
#    x 1.759440 0.000000 0.000000 
#    y 0.000000 1.746210 0.000000 
#    z 0.000000 0.000000 1.706000 
# 
# From -- ./inp_files/20185.got.cif
#   From: 2010.03.12/outbox.cif.g09.slc.cpg/sg55_11_cif.got.tgz:20185.got - 2010.04.16 15:19:21.
