data_PCOD8224638
_publ_section_title
;
Structure prediction by ZEFSAII (Michael W. Deem and Ramdas Pophale) SiO2 
 PCOD8224638
Probable space group: P B A M
;
_chemical_formula_sum "Si O2"
_cell_formula_units_Z 64
_cell_length_a 7.918520
_cell_length_b 32.632912
_cell_length_c 12.970702
_cell_angle_alpha 90.000000
_cell_angle_beta 90.000000
_cell_angle_gamma 90.000000
_cell_volume 3351.686031
_symmetry_space_group_name_H-M "P B A M"
_symmetry_group_IT_number 55
_symmetry_cell_setting 'orthorhombic'
loop_
_space_group_symop_operation_xyz
x,y,z
-x,-y,z
1/2+x,1/2-y,-z
1/2-x,1/2+y,-z
-x,-y,-z
x,y,-z
1/2-x,1/2+y,z
1/2+x,1/2-y,z
loop_
_atom_site_type_symbol
_atom_site_label
_atom_site_fract_x
_atom_site_fract_y
_atom_site_fract_z
Si Si1 0.303388 0.705989 0.116020
Si Si2 0.205680 0.571967 0.882560
Si Si3 0.208770 0.838146 0.275635
Si Si4 0.072896 0.750860 0.761381
Si Si5 0.171908 0.402505 0.118554
Si Si6 0.547428 0.825248 0.620555
Si Si7 0.321020 0.485964 0.880234
Si Si8 0.844791 0.865408 0.254825
O O1 0.393946 0.730567 0.208774
O O2 0.116731 0.723771 0.135790
O O3 0.323885 0.658918 0.146063
O O4 0.366395 0.713183 0.000000
O O5 0.188113 0.523092 0.863612
O O6 0.330451 0.588827 0.792130
O O7 0.028281 0.594409 0.867953
O O8 0.274439 0.578939 0.000000
O O9 0.197247 0.789460 0.257535
O O10 0.261219 0.861349 0.171435
O O11 0.361210 0.844527 0.357303
O O12 0.026074 0.856862 0.310377
O O13 0.063201 0.721248 0.662552
O O14 0.254150 0.443551 0.169647
O O15 0.221834 0.398039 0.000000
O O16 0.577165 0.823357 0.500000
O O17 0.694054 0.854140 0.667214
O O18 0.500000 0.500000 0.831749
O O19 0.344774 0.476304 0.000000
#
# Coordination Sequence:
#
# PCOD8224638 Si02
#       8
#     8   8   8   8   8   8   8   8
#     4  10  19  32  52  75 110 147 180 225 278 338
#     4  10  18  32  55  84 126 167 201 241 284 343
#     4  11  22  40  59  84 115 147 195 241 292 365
#     4  10  21  38  52  80 108 140 197 234 283 359
#     4  10  20  33  54  85 125 169 203 237 288 345
#     4  11  24  44  62  80 111 144 189 259 315 350
#     4   9  17  29  48  81 122 166 209 239 277 337
#     4  10  22  37  57  85 114 147 200 236 291 360
#
# _framework density 19.094866
#
# number of rings (size 3 to 8) (size 9 to 14) (size 15 to 20)
#    0.000    1.875    2.500    1.875    0.000    6.500 
#    0.000    0.000    0.000    0.000    0.000    1.750 
#    0.000    3.000    0.000    0.000    0.000    0.000 
#
# Total GULP energy -792857.532619 kJ/mol
# GULP energy per Si atom -12388.398947 kJ/mol
# Density = 1.905141 g / cm^3
# Si number density = 19.094866 Si / 1000 Ang^3
#
#
#
# Elastic Constant Matrix: (Units=GPa)
#
#
# Indices 1 2 3 4 5 6 
#
# 1 92.3442 26.6324 34.5136 0.0000 0.0000 0.0000
# 2 26.6324 79.3386 36.1304 0.0000 0.0000 0.0000
# 3 34.5136 36.1304 99.3762 0.0000 0.0000 0.0000
# 4 0.0000 0.0000 0.0000 16.2774 0.0000 0.0000
# 5 0.0000 0.0000 0.0000 0.0000 15.7333 0.0000
# 6 0.0000 0.0000 0.0000 0.0000 0.0000 33.3470
#
#
#
# Elastic Compliance Matrix: (Units=1/GPa)
#
#
# Indices 1 2 3 4 5 6 
#
# 1 0.012926 -0.002750 -0.003490 0.000000 0.000000 0.000000
# 2 -0.002750 0.015690 -0.004749 0.000000 0.000000 0.000000
# 3 -0.003490 -0.004749 0.013001 0.000000 0.000000 0.000000
# 4 0.000000 0.000000 0.000000 0.061435 0.000000 0.000000
# 5 0.000000 0.000000 0.000000 0.000000 0.063560 0.000000
# 6 0.000000 0.000000 0.000000 0.000000 0.000000 0.029988
#
#
# Mechanical properties :
#
#
# Convention : Reuss Voigt Hill
#
# Bulk Modulus (GPa) = 50.91632 51.73466 51.32549
# Shear Modulus (GPa) = 22.20989 24.65703 23.43346
#
# Velocity S-wave (km/s) = 3.41418 3.59735 3.50696
# Velocity P-wave (km/s) = 6.50115 6.66385 6.58300
#
# Compressibility (1/GPa) = 0.01964007
#
# Stress axis : x y z
#
# Youngs Moduli (GPa) = 77.36114 63.73404 76.91443
#
# Poissons Ratio (x) = 0.17527 0.26840
# Poissons Ratio (y) = 0.21274 0.36530
# Poissons Ratio (z) = 0.26995 0.30270
#
# Static dielectric constant tensor:
#      x y z
#    x 3.730660 0.000000 0.000000 
#    y 0.000000 3.654110 0.000000 
#    z 0.000000 0.000000 2.914120 
# 
# 
# High freq. dielectric constant tensor:
#      x y z
#    x 1.761160 0.000000 0.000000 
#    y 0.000000 1.748770 0.000000 
#    z 0.000000 0.000000 1.678860 
# 
# From -- ./inp_files/12622.got.cif
#   From: 2010.03.12/outbox.cif.g09.slc.cpg/sg55_7_cif.got.tgz:12622.got - 2010.04.16 15:19:21.
