data_PCOD8224684
_publ_section_title
;
Structure prediction by ZEFSAII (Michael W. Deem and Ramdas Pophale) SiO2 
 PCOD8224684
Probable space group: P B A M
;
_chemical_formula_sum "Si O2"
_cell_formula_units_Z 48
_cell_length_a 29.019429
_cell_length_b 10.291045
_cell_length_c 8.408136
_cell_angle_alpha 90.000000
_cell_angle_beta 90.000000
_cell_angle_gamma 90.000000
_cell_volume 2511.007835
_symmetry_space_group_name_H-M "P B A M"
_symmetry_group_IT_number 55
_symmetry_cell_setting 'orthorhombic'
loop_
_space_group_symop_operation_xyz
x,y,z
-x,-y,z
1/2+x,1/2-y,-z
1/2-x,1/2+y,-z
-x,-y,-z
x,y,-z
1/2-x,1/2+y,z
1/2+x,1/2-y,z
loop_
_atom_site_type_symbol
_atom_site_label
_atom_site_fract_x
_atom_site_fract_y
_atom_site_fract_z
Si Si1 0.880037 0.002014 0.186610
Si Si2 0.527089 0.622205 0.187061
Si Si3 0.617545 0.224361 0.684857
Si Si4 0.217805 0.004234 0.685528
Si Si5 0.283496 0.787885 0.815649
Si Si6 0.974534 0.629113 0.811348
O O1 0.896600 0.871208 0.273190
O O2 0.918306 0.111753 0.225012
O O3 0.830835 0.050052 0.249642
O O4 0.876794 0.972189 0.000000
O O5 0.500000 0.500000 0.262335
O O6 0.505998 0.754131 0.257649
O O7 0.518666 0.623256 0.000000
O O8 0.629016 0.210925 0.500000
O O9 0.662872 0.185601 0.783208
O O10 0.575878 0.130119 0.732794
O O11 0.213462 0.031473 0.500000
O O12 0.255370 0.894662 0.717737
O O13 0.230757 0.141541 0.766578
O O14 0.272363 0.807038 0.000000
O O15 0.000000 0.500000 0.755495
O O16 0.968499 0.635650 0.000000
#
# Coordination Sequence:
#
# PCOD8224684 Si02
#       6
#     8   8   8   8   8   8
#     4  10  18  33  58  83 110 145 192 236 278 337
#     4   9  16  30  55  82 107 139 182 234 274 315
#     4  11  21  35  56  82 114 149 186 231 288 342
#     4  11  22  39  60  87 121 151 186 240 300 346
#     4  11  22  40  64  88 113 152 199 238 282 350
#     4  10  20  36  56  79 109 147 190 233 279 338
#
# _framework density 19.115829999999999
#
# number of rings (size 3 to 8) (size 9 to 14) (size 15 to 20)
#    0.000    1.667    1.667    7.000    0.000    0.333 
#    3.000    2.500    0.000    0.000    0.000    0.000 
#    0.000    0.000    0.000    0.000    0.000    0.000 
#
# Total GULP energy -595249.505645 kJ/mol
# GULP energy per Si atom -12401.031368 kJ/mol
# Density = 1.907232 g / cm^3
# Si number density = 19.115830 Si / 1000 Ang^3
#
#
#
# Elastic Constant Matrix: (Units=GPa)
#
#
# Indices 1 2 3 4 5 6 
#
# 1 112.7904 67.0779 7.2179 0.0000 0.0000 0.0000
# 2 67.0779 112.0143 10.3609 0.0000 0.0000 0.0000
# 3 7.2179 10.3609 54.5933 0.0000 0.0000 0.0000
# 4 0.0000 0.0000 0.0000 18.9217 0.0000 0.0000
# 5 0.0000 0.0000 0.0000 0.0000 15.6568 0.0000
# 6 0.0000 0.0000 0.0000 0.0000 0.0000 33.1074
#
#
#
# Elastic Compliance Matrix: (Units=1/GPa)
#
#
# Indices 1 2 3 4 5 6 
#
# 1 0.013774 -0.008224 -0.000260 0.000000 0.000000 0.000000
# 2 -0.008224 0.013997 -0.001569 0.000000 0.000000 0.000000
# 3 -0.000260 -0.001569 0.018649 0.000000 0.000000 0.000000
# 4 0.000000 0.000000 0.000000 0.052849 0.000000 0.000000
# 5 0.000000 0.000000 0.000000 0.000000 0.063870 0.000000
# 6 0.000000 0.000000 0.000000 0.000000 0.000000 0.030205
#
#
# Mechanical properties :
#
#
# Convention : Reuss Voigt Hill
#
# Bulk Modulus (GPa) = 38.00316 49.85682 43.92999
# Shear Modulus (GPa) = 22.49999 26.51995 24.50997
#
# Velocity S-wave (km/s) = 3.43452 3.72873 3.58464
# Velocity P-wave (km/s) = 5.97089 6.68401 6.33748
#
# Compressibility (1/GPa) = 0.02631360
#
# Stress axis : x y z
#
# Youngs Moduli (GPa) = 72.60284 71.44202 53.62079
#
# Poissons Ratio (x) = 0.58754 0.01396
# Poissons Ratio (y) = 0.59709 0.08414
# Poissons Ratio (z) = 0.01890 0.11210
#
# Static dielectric constant tensor:
#      x y z
#    x 3.591420 0.000000 0.000000 
#    y 0.000000 3.448380 0.000000 
#    z 0.000000 0.000000 3.386070 
# 
# 
# High freq. dielectric constant tensor:
#      x y z
#    x 1.753540 0.000000 0.000000 
#    y 0.000000 1.726350 0.000000 
#    z 0.000000 0.000000 1.737390 
# 
# From -- ./inp_files/10506.got.cif
#   From: 2010.03.12/outbox.cif.g09.slc.cpg/sg55_6_cif.got.tgz:10506.got - 2010.04.16 15:19:21.
