data_PCOD8224880
_publ_section_title
;
Structure prediction by ZEFSAII (Michael W. Deem and Ramdas Pophale) SiO2 
 PCOD8224880
Probable space group: P B A M
;
_chemical_formula_sum "Si O2"
_cell_formula_units_Z 64
_cell_length_a 28.282178
_cell_length_b 10.294595
_cell_length_c 13.743196
_cell_angle_alpha 90.000000
_cell_angle_beta 90.000000
_cell_angle_gamma 90.000000
_cell_volume 4001.380554
_symmetry_space_group_name_H-M "P B A M"
_symmetry_group_IT_number 55
_symmetry_cell_setting 'orthorhombic'
loop_
_space_group_symop_operation_xyz
x,y,z
-x,-y,z
1/2+x,1/2-y,-z
1/2-x,1/2+y,-z
-x,-y,-z
x,y,-z
1/2-x,1/2+y,z
1/2+x,1/2-y,z
loop_
_atom_site_type_symbol
_atom_site_label
_atom_site_fract_x
_atom_site_fract_y
_atom_site_fract_z
Si Si1 0.366252 0.513053 0.886756
Si Si2 0.624634 0.791869 0.113871
Si Si3 0.692431 0.141372 0.389983
Si Si4 0.519140 0.863638 0.884344
Si Si5 0.533519 0.388008 0.884151
Si Si6 0.689967 0.886359 0.275313
Si Si7 0.698124 0.390734 0.727987
Si Si8 0.804552 0.137628 0.607564
O O1 0.367935 0.360027 0.863846
O O2 0.413706 0.582527 0.848448
O O3 0.323377 0.586726 0.834383
O O4 0.358526 0.537217 0.000000
O O5 0.572625 0.835188 0.149411
O O6 0.662804 0.878098 0.172481
O O7 0.631987 0.821600 0.000000
O O8 0.671209 0.149045 0.500000
O O9 0.677246 0.262867 0.323630
O O10 0.748423 0.142787 0.398362
O O11 0.674052 0.012692 0.335699
O O12 0.484449 0.750881 0.844495
O O13 0.500000 0.000000 0.841665
O O14 0.517603 0.865193 0.000000
O O15 0.500000 0.500000 0.841158
O O16 0.531137 0.391581 0.000000
O O17 0.745837 0.886750 0.256227
O O18 0.674659 0.762337 0.338199
O O19 0.679882 0.507968 0.661554
O O20 0.826511 0.135373 0.500000
#
# Coordination Sequence:
#
# PCOD8224880 Si02
#       8
#     8   8   8   8   8   8   8   8
#     4  10  19  31  49  70  97 133 169 197 228 278
#     4  10  19  32  49  69  98 136 166 194 233 281
#     4   9  18  31  47  68  95 123 153 203 260 285
#     4   9  17  29  47  70  95 120 153 201 250 283
#     4   9  15  27  47  68  89 120 158 197 240 279
#     4  10  19  31  48  69  98 131 164 197 232 287
#     4  10  19  31  47  70  98 130 164 200 233 278
#     4   9  16  29  49  69  89 120 162 204 248 288
#
# _framework density 15.994481
#
# number of rings (size 3 to 8) (size 9 to 14) (size 15 to 20)
#    0.000    2.500    2.500    0.750    0.000    4.500 
#    0.000    1.875    0.000    0.000    0.000    0.000 
#    0.000   20.000    0.000    0.000    0.000    0.000 
#
# Total GULP energy -793413.653698 kJ/mol
# GULP energy per Si atom -12397.088339 kJ/mol
# Density = 1.595808 g / cm^3
# Si number density = 15.994481 Si / 1000 Ang^3
#
#
#
# Elastic Constant Matrix: (Units=GPa)
#
#
# Indices 1 2 3 4 5 6 
#
# 1 60.4669 37.0655 40.8264 0.0000 0.0000 0.0000
# 2 37.0655 130.6001 46.0253 0.0000 0.0000 0.0000
# 3 40.8264 46.0253 79.0128 0.0000 0.0000 0.0000
# 4 0.0000 0.0000 0.0000 23.8705 0.0000 0.0000
# 5 0.0000 0.0000 0.0000 0.0000 3.4217 0.0000
# 6 0.0000 0.0000 0.0000 0.0000 0.0000 20.0074
#
#
#
# Elastic Compliance Matrix: (Units=1/GPa)
#
#
# Indices 1 2 3 4 5 6 
#
# 1 0.026545 -0.003397 -0.011737 0.000000 0.000000 0.000000
# 2 -0.003397 0.010070 -0.004110 0.000000 0.000000 0.000000
# 3 -0.011737 -0.004110 0.021115 0.000000 0.000000 0.000000
# 4 0.000000 0.000000 0.000000 0.041893 0.000000 0.000000
# 5 0.000000 0.000000 0.000000 0.000000 0.292251 0.000000
# 6 0.000000 0.000000 0.000000 0.000000 0.000000 0.049981
#
#
# Mechanical properties :
#
#
# Convention : Reuss Voigt Hill
#
# Bulk Modulus (GPa) = 51.97351 57.54600 54.75976
# Shear Modulus (GPa) = 10.27205 19.20411 14.73808
#
# Velocity S-wave (km/s) = 2.53696 3.46883 3.03883
# Velocity P-wave (km/s) = 6.41458 7.21807 6.82815
#
# Compressibility (1/GPa) = 0.01924057
#
# Stress axis : x y z
#
# Youngs Moduli (GPa) = 37.67147 99.30821 47.35984
#
# Poissons Ratio (x) = 0.33740 0.55586
# Poissons Ratio (y) = 0.12799 0.19465
# Poissons Ratio (z) = 0.44215 0.40817
#
# Static dielectric constant tensor:
#      x y z
#    x 2.818550 0.000000 0.000000 
#    y 0.000000 3.274960 0.000000 
#    z 0.000000 0.000000 2.868790 
# 
# 
# High freq. dielectric constant tensor:
#      x y z
#    x 1.584540 0.000000 0.000000 
#    y 0.000000 1.630130 0.000000 
#    z 0.000000 0.000000 1.587890 
# 
# From -- ./inp_files/13640.got.cif
#   From: 2010.03.12/outbox.cif.g09.slc.cpg/sg55_7_cif.got.tgz:13640.got - 2010.04.16 15:19:21.
