data_PCOD8224806
_publ_section_title
;
Structure prediction by ZEFSAII (Michael W. Deem and Ramdas Pophale) SiO2 
 PCOD8224806
Probable space group: P B A M
;
_chemical_formula_sum "Si O2"
_cell_formula_units_Z 56
_cell_length_a 13.393332
_cell_length_b 29.049449
_cell_length_c 8.767815
_cell_angle_alpha 90.000000
_cell_angle_beta 90.000000
_cell_angle_gamma 90.000000
_cell_volume 3411.284268
_symmetry_space_group_name_H-M "P B A M"
_symmetry_group_IT_number 55
_symmetry_cell_setting 'orthorhombic'
loop_
_space_group_symop_operation_xyz
x,y,z
-x,-y,z
1/2+x,1/2-y,-z
1/2-x,1/2+y,-z
-x,-y,-z
x,y,-z
1/2-x,1/2+y,z
1/2+x,1/2-y,z
loop_
_atom_site_type_symbol
_atom_site_label
_atom_site_fract_x
_atom_site_fract_y
_atom_site_fract_z
Si Si1 0.881514 0.501768 0.828607
Si Si2 0.883317 0.408664 0.321517
Si Si3 0.284810 0.178072 0.177542
Si Si4 0.107077 0.229481 0.322025
Si Si5 0.802081 0.683653 0.822767
Si Si6 0.613300 0.094981 0.678679
Si Si7 0.597894 0.730443 0.174427
O O1 0.839939 0.454377 0.758663
O O2 0.845540 0.544949 0.727617
O O3 0.000000 0.500000 0.825576
O O4 0.840546 0.507427 0.000000
O O5 0.875475 0.416847 0.500000
O O6 0.815484 0.366285 0.272637
O O7 0.997682 0.399143 0.273640
O O8 0.175520 0.193887 0.229884
O O9 0.363627 0.218352 0.211493
O O10 0.281490 0.165607 0.000000
O O11 0.128035 0.223764 0.500000
O O12 0.128204 0.281832 0.272184
O O13 0.992389 0.217774 0.285867
O O14 0.822483 0.632057 0.770221
O O15 0.685964 0.694225 0.792815
O O16 0.828638 0.690306 0.000000
O O17 0.629510 0.101862 0.500000
O O18 0.561546 0.727369 0.000000
#
# Coordination Sequence:
#
# PCOD8224806 Si02
#       7
#     8   8   8   8   8   8   8
#     4   9  17  29  45  65  91 124 158 189 226 275
#     4  10  19  30  45  68  97 125 155 192 233 274
#     4  10  20  33  49  68  92 124 159 191 227 275
#     4  11  21  32  48  69  94 122 153 193 235 273
#     4  10  20  33  49  68  92 124 159 191 226 274
#     4  10  19  30  46  69  97 125 153 191 234 274
#     4   9  19  34  49  66  91 123 157 192 228 269
#
# _framework density 16.416105000000002
#
# number of rings (size 3 to 8) (size 9 to 14) (size 15 to 20)
#    0.000    2.143    0.000    5.143    0.000    9.143 
#    0.000    0.000    0.000    0.000    0.000    1.000 
#    0.000    8.000    0.000    0.000    0.000    0.000 
#
# Total GULP energy -694590.426153 kJ/mol
# GULP energy per Si atom -12403.400467 kJ/mol
# Density = 1.637874 g / cm^3
# Si number density = 16.416105 Si / 1000 Ang^3
#
#
#
# Elastic Constant Matrix: (Units=GPa)
#
#
# Indices 1 2 3 4 5 6 
#
# 1 63.3828 29.6078 21.5316 0.0000 0.0000 0.0000
# 2 29.6078 97.4510 13.0254 0.0000 0.0000 0.0000
# 3 21.5316 13.0254 54.3106 0.0000 0.0000 0.0000
# 4 0.0000 0.0000 0.0000 33.3726 0.0000 0.0000
# 5 0.0000 0.0000 0.0000 0.0000 23.5100 0.0000
# 6 0.0000 0.0000 0.0000 0.0000 0.0000 18.9104
#
#
#
# Elastic Compliance Matrix: (Units=1/GPa)
#
#
# Indices 1 2 3 4 5 6 
#
# 1 0.020613 -0.005342 -0.006891 0.000000 0.000000 0.000000
# 2 -0.005342 0.011986 -0.000757 0.000000 0.000000 0.000000
# 3 -0.006891 -0.000757 0.021326 0.000000 0.000000 0.000000
# 4 0.000000 0.000000 0.000000 0.029965 0.000000 0.000000
# 5 0.000000 0.000000 0.000000 0.000000 0.042535 0.000000
# 6 0.000000 0.000000 0.000000 0.000000 0.000000 0.052881
#
#
# Mechanical properties :
#
#
# Convention : Reuss Voigt Hill
#
# Bulk Modulus (GPa) = 35.78347 38.16377 36.97362
# Shear Modulus (GPa) = 23.29913 25.22392 24.26152
#
# Velocity S-wave (km/s) = 3.77143 3.92412 3.84853
# Velocity P-wave (km/s) = 6.38827 6.62041 6.50538
#
# Compressibility (1/GPa) = 0.02794587
#
# Stress axis : x y z
#
# Youngs Moduli (GPa) = 48.51224 83.43311 46.89091
#
# Poissons Ratio (x) = 0.44568 0.32313
# Poissons Ratio (y) = 0.25914 0.03549
# Poissons Ratio (z) = 0.33430 0.06314
#
# Static dielectric constant tensor:
#      x y z
#    x 2.834530 0.000000 0.000000 
#    y 0.000000 3.106350 0.000000 
#    z 0.000000 0.000000 3.178670 
# 
# 
# High freq. dielectric constant tensor:
#      x y z
#    x 1.596810 0.000000 0.000000 
#    y 0.000000 1.629070 0.000000 
#    z 0.000000 0.000000 1.648060 
# 
# From -- ./inp_files/6889.got.cif
#   From: 2010.03.12/outbox.cif.g09.slc.cpg/sg55_4_cif.got.tgz:6889.got - 2010.04.16 15:19:21.
