data_PCOD8224411
_publ_section_title
;
Structure prediction by ZEFSAII (Michael W. Deem and Ramdas Pophale) SiO2 
 PCOD8224411
Probable space group: P B A M
;
_chemical_formula_sum "Si O2"
_cell_formula_units_Z 48
_cell_length_a 16.814483
_cell_length_b 18.552721
_cell_length_c 8.510245
_cell_angle_alpha 90.000000
_cell_angle_beta 90.000000
_cell_angle_gamma 90.000000
_cell_volume 2654.808474
_symmetry_space_group_name_H-M "P B A M"
_symmetry_group_IT_number 55
_symmetry_cell_setting 'orthorhombic'
loop_
_space_group_symop_operation_xyz
x,y,z
-x,-y,z
1/2+x,1/2-y,-z
1/2-x,1/2+y,-z
-x,-y,-z
x,y,-z
1/2-x,1/2+y,z
1/2+x,1/2-y,z
loop_
_atom_site_type_symbol
_atom_site_label
_atom_site_fract_x
_atom_site_fract_y
_atom_site_fract_z
Si Si1 0.488366 0.919048 0.313317
Si Si2 0.065476 0.210002 0.318608
Si Si3 0.658405 0.663923 0.685658
Si Si4 0.922849 0.292625 0.181399
Si Si5 0.008217 0.918485 0.185012
Si Si6 0.833403 0.661405 0.317802
O O1 0.489013 0.914783 0.500000
O O2 0.563092 0.872501 0.250873
O O3 0.404393 0.887775 0.245488
O O4 0.500000 0.000000 0.251460
O O5 0.037668 0.217642 0.500000
O O6 0.148189 0.252676 0.293000
O O7 0.002914 0.247344 0.203483
O O8 0.064309 0.126088 0.267925
O O9 0.652224 0.653264 0.500000
O O10 0.645606 0.748420 0.727285
O O11 0.594582 0.612298 0.768500
O O12 0.746438 0.643531 0.752350
O O13 0.899655 0.298415 0.000000
O O14 0.997047 0.913738 0.000000
O O15 0.000000 0.000000 0.245605
O O16 0.829734 0.643379 0.500000
#
# Coordination Sequence:
#
# PCOD8224411 Si02
#       6
#     8   8   8   8   8   8
#     4   9  17  32  53  73  96 127 161 196 238 286
#     4   9  16  30  51  71  91 118 158 197 231 278
#     4  10  18  31  51  71  94 123 160 202 240 281
#     4  10  18  29  46  69  96 123 156 192 230 280
#     4  10  20  33  48  69  99 130 160 195 238 286
#     4   8  16  30  49  74  96 118 155 203 245 281
#
# _framework density 18.080400000000001
#
# number of rings (size 3 to 8) (size 9 to 14) (size 15 to 20)
#    0.000    2.667    0.000    6.000    0.000    1.667 
#    0.000   10.000    0.000    8.000    0.000    0.000 
#    0.000    0.000    0.000    0.000    0.000    0.000 
#
# Total GULP energy -594673.638969 kJ/mol
# GULP energy per Si atom -12389.034145 kJ/mol
# Density = 1.803925 g / cm^3
# Si number density = 18.080400 Si / 1000 Ang^3
#
#
#
# Elastic Constant Matrix: (Units=GPa)
#
#
# Indices 1 2 3 4 5 6 
#
# 1 90.2568 45.1616 9.7559 0.0000 0.0000 0.0000
# 2 45.1616 147.8244 19.6025 0.0000 0.0000 0.0000
# 3 9.7559 19.6025 36.7817 0.0000 0.0000 0.0000
# 4 0.0000 0.0000 0.0000 26.0121 0.0000 0.0000
# 5 0.0000 0.0000 0.0000 0.0000 3.9146 0.0000
# 6 0.0000 0.0000 0.0000 0.0000 0.0000 19.0942
#
#
#
# Elastic Compliance Matrix: (Units=1/GPa)
#
#
# Indices 1 2 3 4 5 6 
#
# 1 0.013150 -0.003825 -0.001449 0.000000 0.000000 0.000000
# 2 -0.003825 0.008392 -0.003458 0.000000 0.000000 0.000000
# 3 -0.001449 -0.003458 0.029415 0.000000 0.000000 0.000000
# 4 0.000000 0.000000 0.000000 0.038444 0.000000 0.000000
# 5 0.000000 0.000000 0.000000 0.000000 0.255456 0.000000
# 6 0.000000 0.000000 0.000000 0.000000 0.000000 0.052372
#
#
# Mechanical properties :
#
#
# Convention : Reuss Voigt Hill
#
# Bulk Modulus (GPa) = 29.85785 47.10033 38.47909
# Shear Modulus (GPa) = 11.74104 23.16037 17.45070
#
# Velocity S-wave (km/s) = 2.55106 3.58294 3.11009
# Velocity P-wave (km/s) = 5.02265 6.57447 5.85024
#
# Compressibility (1/GPa) = 0.03349203
#
# Stress axis : x y z
#
# Youngs Moduli (GPa) = 76.04435 119.16139 33.99672
#
# Poissons Ratio (x) = 0.45583 0.04927
# Poissons Ratio (y) = 0.29089 0.11755
# Poissons Ratio (z) = 0.11021 0.41204
#
# Static dielectric constant tensor:
#      x y z
#    x 3.475460 0.000000 0.000000 
#    y 0.000000 3.685330 0.000000 
#    z 0.000000 0.000000 3.147160 
# 
# 
# High freq. dielectric constant tensor:
#      x y z
#    x 1.675660 0.000000 0.000000 
#    y 0.000000 1.696010 0.000000 
#    z 0.000000 0.000000 1.690320 
# 
# From -- ./inp_files/7550.got.cif
#   From: 2010.03.12/outbox.cif.g09.slc.cpg/sg55_4_cif.got.tgz:7550.got - 2010.04.16 15:19:21.
