data_PCOD8224658
_publ_section_title
;
Structure prediction by ZEFSAII (Michael W. Deem and Ramdas Pophale) SiO2 
 PCOD8224658
Probable space group: P B A M
;
_chemical_formula_sum "Si O2"
_cell_formula_units_Z 56
_cell_length_a 19.128042
_cell_length_b 17.761646
_cell_length_c 8.867346
_cell_angle_alpha 90.000000
_cell_angle_beta 90.000000
_cell_angle_gamma 90.000000
_cell_volume 3012.640995
_symmetry_space_group_name_H-M "P B A M"
_symmetry_group_IT_number 55
_symmetry_cell_setting 'orthorhombic'
loop_
_space_group_symop_operation_xyz
x,y,z
-x,-y,z
1/2+x,1/2-y,-z
1/2-x,1/2+y,-z
-x,-y,-z
x,y,-z
1/2-x,1/2+y,z
1/2+x,1/2-y,z
loop_
_atom_site_type_symbol
_atom_site_label
_atom_site_fract_x
_atom_site_fract_y
_atom_site_fract_z
Si Si1 0.078461 0.520432 0.179782
Si Si2 0.791195 0.572483 0.828591
Si Si3 0.656797 0.846626 0.324283
Si Si4 0.718870 0.419653 0.169721
Si Si5 0.181958 0.811486 0.176652
Si Si6 0.916775 0.919651 0.667732
Si Si7 0.570082 0.596939 0.668784
O O1 0.135205 0.458121 0.243471
O O2 0.097369 0.603059 0.242575
O O3 0.000000 0.500000 0.232820
O O4 0.084211 0.524440 0.000000
O O5 0.731297 0.508870 0.815231
O O6 0.754856 0.648848 0.761703
O O7 0.808942 0.590685 0.000000
O O8 0.640195 0.847656 0.500000
O O9 0.732484 0.879734 0.290773
O O10 0.659163 0.761814 0.266548
O O11 0.640236 0.395423 0.208942
O O12 0.736362 0.392190 0.000000
O O13 0.118998 0.869207 0.202985
O O14 0.188886 0.793781 0.000000
O O15 0.891546 0.896440 0.500000
O O16 0.990024 0.878807 0.704967
O O17 0.925996 0.008171 0.675138
O O18 0.591046 0.624956 0.500000
#
# Coordination Sequence:
#
# PCOD8224658 Si02
#       7
#     8   8   8   8   8   8   8
#     4   9  18  37  63  87 110 140 181 232 283 338
#     4   8  16  30  52  81 106 132 172 222 273 320
#     4  11  23  37  54  78 109 145 182 226 280 335
#     4  10  18  33  54  78 104 135 179 227 267 317
#     4  11  20  34  53  77 108 144 184 230 276 326
#     4   9  17  30  49  75 107 140 173 214 262 313
#     4   9  18  31  48  74 109 144 177 213 259 319
#
# _framework density 18.588342000000001
#
# number of rings (size 3 to 8) (size 9 to 14) (size 15 to 20)
#    0.000    2.429    1.429    3.857    0.000    0.857 
#    0.000    3.571    0.000    5.143    0.000    0.000 
#    0.000    0.000    0.000    0.000    0.000    0.000 
#
# Total GULP energy -693773.786550 kJ/mol
# GULP energy per Si atom -12388.817617 kJ/mol
# Density = 1.854603 g / cm^3
# Si number density = 18.588342 Si / 1000 Ang^3
#
#
#
# Elastic Constant Matrix: (Units=GPa)
#
#
# Indices 1 2 3 4 5 6 
#
# 1 128.2896 41.7183 28.1587 0.0000 0.0000 0.0000
# 2 41.7183 75.1858 20.3708 0.0000 0.0000 0.0000
# 3 28.1587 20.3708 51.4159 0.0000 0.0000 0.0000
# 4 0.0000 0.0000 0.0000 20.5985 0.0000 0.0000
# 5 0.0000 0.0000 0.0000 0.0000 26.9935 0.0000
# 6 0.0000 0.0000 0.0000 0.0000 0.0000 15.9796
#
#
#
# Elastic Compliance Matrix: (Units=1/GPa)
#
#
# Indices 1 2 3 4 5 6 
#
# 1 0.010106 -0.004602 -0.003711 0.000000 0.000000 0.000000
# 2 -0.004602 0.016995 -0.004213 0.000000 0.000000 0.000000
# 3 -0.003711 -0.004213 0.023151 0.000000 0.000000 0.000000
# 4 0.000000 0.000000 0.000000 0.048547 0.000000 0.000000
# 5 0.000000 0.000000 0.000000 0.000000 0.037046 0.000000
# 6 0.000000 0.000000 0.000000 0.000000 0.000000 0.062580
#
#
# Mechanical properties :
#
#
# Convention : Reuss Voigt Hill
#
# Bulk Modulus (GPa) = 39.68351 48.37630 44.02991
# Shear Modulus (GPa) = 21.56301 23.69054 22.62678
#
# Velocity S-wave (km/s) = 3.40961 3.57386 3.49271
# Velocity P-wave (km/s) = 6.07417 6.56594 6.32484
#
# Compressibility (1/GPa) = 0.02519938
#
# Stress axis : x y z
#
# Youngs Moduli (GPa) = 98.95115 58.83949 43.19449
#
# Poissons Ratio (x) = 0.27078 0.16031
# Poissons Ratio (y) = 0.45537 0.18199
# Poissons Ratio (z) = 0.36725 0.24790
#
# Static dielectric constant tensor:
#      x y z
#    x 3.887030 0.000000 0.000000 
#    y 0.000000 3.347020 0.000000 
#    z 0.000000 0.000000 3.294470 
# 
# 
# High freq. dielectric constant tensor:
#      x y z
#    x 1.724480 0.000000 0.000000 
#    y 0.000000 1.695400 0.000000 
#    z 0.000000 0.000000 1.705250 
# 
# From -- ./inp_files/9097.got.cif
#   From: 2010.03.12/outbox.cif.g09.slc.cpg/sg55_5_cif.got.tgz:9097.got - 2010.04.16 15:19:21.
