data_PCOD8224409
_publ_section_title
;
Structure prediction by ZEFSAII (Michael W. Deem and Ramdas Pophale) SiO2 
 PCOD8224409
Probable space group: P B A M
;
_chemical_formula_sum "Si O2"
_cell_formula_units_Z 56
_cell_length_a 28.974470
_cell_length_b 13.560060
_cell_length_c 8.950879
_cell_angle_alpha 90.000000
_cell_angle_beta 90.000000
_cell_angle_gamma 90.000000
_cell_volume 3516.760543
_symmetry_space_group_name_H-M "P B A M"
_symmetry_group_IT_number 55
_symmetry_cell_setting 'orthorhombic'
loop_
_space_group_symop_operation_xyz
x,y,z
-x,-y,z
1/2+x,1/2-y,-z
1/2-x,1/2+y,-z
-x,-y,-z
x,y,-z
1/2-x,1/2+y,z
1/2+x,1/2-y,z
loop_
_atom_site_type_symbol
_atom_site_label
_atom_site_fract_x
_atom_site_fract_y
_atom_site_fract_z
Si Si1 0.179239 0.217176 0.324263
Si Si2 0.499124 0.617180 0.668377
Si Si3 0.683203 0.721503 0.173361
Si Si4 0.909363 0.111658 0.174471
Si Si5 0.406784 0.615675 0.175680
Si Si6 0.225651 0.394802 0.174134
Si Si7 0.728903 0.897288 0.674927
O O1 0.173608 0.228743 0.500000
O O2 0.132433 0.177730 0.255291
O O3 0.189382 0.323944 0.255554
O O4 0.220346 0.142117 0.282740
O O5 0.500000 0.500000 0.672850
O O6 0.494573 0.657261 0.500000
O O7 0.546740 0.656631 0.739103
O O8 0.455951 0.655439 0.765101
O O9 0.634761 0.674998 0.222175
O O10 0.722284 0.640301 0.206391
O O11 0.690978 0.817905 0.273295
O O12 0.683719 0.752134 0.000000
O O13 0.899893 0.998550 0.219159
O O14 0.920030 0.119168 0.000000
O O15 0.403925 0.632983 0.000000
O O16 0.219284 0.503362 0.237160
O O17 0.214114 0.394765 0.000000
O O18 0.723678 0.916409 0.500000
#
# Coordination Sequence:
#
# PCOD8224409 Si02
#       7
#     8   8   8   8   8   8   8
#     4  10  20  32  46  67  94 122 153 188 228 272
#     4   9  17  28  42  63  91 121 151 184 226 273
#     4   9  18  31  47  67  90 119 155 189 223 266
#     4   9  17  29  45  66  92 121 153 189 226 266
#     4  10  18  29  46  67  92 122 155 189 226 269
#     4  10  19  32  49  67  90 121 156 191 225 265
#     4  10  20  32  46  66  93 122 151 187 229 269
#
# _framework density 15.923746
#
# number of rings (size 3 to 8) (size 9 to 14) (size 15 to 20)
#    0.000    2.429    0.000    3.000    0.000    6.286 
#    0.000    0.000    0.000    0.000    0.000    1.000 
#    0.000    8.000    0.000    0.000    0.000    0.000 
#
# Total GULP energy -694538.709381 kJ/mol
# GULP energy per Si atom -12402.476953 kJ/mol
# Density = 1.588750 g / cm^3
# Si number density = 15.923746 Si / 1000 Ang^3
#
#
#
# Elastic Constant Matrix: (Units=GPa)
#
#
# Indices 1 2 3 4 5 6 
#
# 1 124.3240 56.9454 53.4342 0.0000 0.0000 0.0000
# 2 56.9454 80.5478 45.5700 0.0000 0.0000 0.0000
# 3 53.4342 45.5700 80.6785 0.0000 0.0000 0.0000
# 4 0.0000 0.0000 0.0000 24.8949 0.0000 0.0000
# 5 0.0000 0.0000 0.0000 0.0000 30.6707 0.0000
# 6 0.0000 0.0000 0.0000 0.0000 0.0000 21.0581
#
#
#
# Elastic Compliance Matrix: (Units=1/GPa)
#
#
# Indices 1 2 3 4 5 6 
#
# 1 0.013181 -0.006437 -0.005094 0.000000 0.000000 0.000000
# 2 -0.006437 0.021389 -0.007818 0.000000 0.000000 0.000000
# 3 -0.005094 -0.007818 0.020185 0.000000 0.000000 0.000000
# 4 0.000000 0.000000 0.000000 0.040169 0.000000 0.000000
# 5 0.000000 0.000000 0.000000 0.000000 0.032604 0.000000
# 6 0.000000 0.000000 0.000000 0.000000 0.000000 0.047488
#
#
# Mechanical properties :
#
#
# Convention : Reuss Voigt Hill
#
# Bulk Modulus (GPa) = 62.27979 66.38329 64.33154
# Shear Modulus (GPa) = 22.82416 23.96479 23.39447
#
# Velocity S-wave (km/s) = 3.79006 3.88361 3.83712
# Velocity P-wave (km/s) = 7.63864 7.86693 7.75363
#
# Compressibility (1/GPa) = 0.01605657
#
# Stress axis : x y z
#
# Youngs Moduli (GPa) = 75.86462 46.75393 49.54209
#
# Poissons Ratio (x) = 0.30094 0.25239
# Poissons Ratio (y) = 0.48832 0.38732
# Poissons Ratio (z) = 0.38649 0.36552
#
# Static dielectric constant tensor:
#      x y z
#    x 3.078150 0.000000 0.000000 
#    y 0.000000 2.794910 0.000000 
#    z 0.000000 0.000000 3.144600 
# 
# 
# High freq. dielectric constant tensor:
#      x y z
#    x 1.609100 0.000000 0.000000 
#    y 0.000000 1.580750 0.000000 
#    z 0.000000 0.000000 1.626690 
# 
# From -- ./inp_files/10876.got.cif
#   From: 2010.03.12/outbox.cif.g09.slc.cpg/sg55_6_cif.got.tgz:10876.got - 2010.04.16 15:19:21.
