data_PCOD8224413
_publ_section_title
;
Structure prediction by ZEFSAII (Michael W. Deem and Ramdas Pophale) SiO2 
 PCOD8224413
Probable space group: P B A M
;
_chemical_formula_sum "Si O2"
_cell_formula_units_Z 56
_cell_length_a 20.947793
_cell_length_b 18.345092
_cell_length_c 8.727910
_cell_angle_alpha 90.000000
_cell_angle_beta 90.000000
_cell_angle_gamma 90.000000
_cell_volume 3354.041462
_symmetry_space_group_name_H-M "P B A M"
_symmetry_group_IT_number 55
_symmetry_cell_setting 'orthorhombic'
loop_
_space_group_symop_operation_xyz
x,y,z
-x,-y,z
1/2+x,1/2-y,-z
1/2-x,1/2+y,-z
-x,-y,-z
x,y,-z
1/2-x,1/2+y,z
1/2+x,1/2-y,z
loop_
_atom_site_type_symbol
_atom_site_label
_atom_site_fract_x
_atom_site_fract_y
_atom_site_fract_z
Si Si1 0.744707 0.068283 0.177363
Si Si2 0.499904 0.418448 0.680530
Si Si3 0.255257 0.086345 0.680379
Si Si4 0.687781 0.199997 0.677458
Si Si5 0.875308 0.841587 0.318818
Si Si6 0.122073 0.854297 0.826655
Si Si7 0.301675 0.219427 0.823433
O O1 0.689285 0.126437 0.221772
O O2 0.813537 0.102386 0.217269
O O3 0.733477 0.997071 0.277534
O O4 0.738406 0.048737 0.000000
O O5 0.500000 0.500000 0.750185
O O6 0.508065 0.422398 0.500000
O O7 0.559734 0.374327 0.753222
O O8 0.434238 0.377851 0.715630
O O9 0.263369 0.096606 0.500000
O O10 0.185281 0.111555 0.740846
O O11 0.308986 0.135538 0.768399
O O12 0.683905 0.177835 0.500000
O O13 0.630193 0.255347 0.724804
O O14 0.751191 0.246457 0.706436
O O15 0.876561 0.849290 0.500000
O O16 0.133617 0.767106 0.807196
O O17 0.102131 0.872853 0.000000
O O18 0.277907 0.224363 0.000000
#
# Coordination Sequence:
#
# PCOD8224413 Si02
#       7
#     8   8   8   8   8   8   8
#     4  10  19  30  44  65  93 119 146 184 231 271
#     4  10  19  30  45  65  90 121 154 186 219 254
#     4  10  18  29  47  69  91 116 149 184 223 271
#     4   9  16  28  45  63  86 116 152 188 221 265
#     4   8  16  29  43  63  90 118 149 185 220 257
#     4   9  19  32  44  62  90 123 154 183 216 260
#     4   9  17  30  45  63  90 118 146 183 227 268
#
# _framework density 16.696275
#
# number of rings (size 3 to 8) (size 9 to 14) (size 15 to 20)
#    0.000    2.714    0.000    4.286    0.000    4.857 
#    0.000    4.286    0.000    0.000    0.000    1.000 
#    0.000    8.000    0.000    0.000    0.000    0.000 
#
# Total GULP energy -694007.860944 kJ/mol
# GULP energy per Si atom -12392.997517 kJ/mol
# Density = 1.665827 g / cm^3
# Si number density = 16.696275 Si / 1000 Ang^3
#
#
#
# Elastic Constant Matrix: (Units=GPa)
#
#
# Indices 1 2 3 4 5 6 
#
# 1 61.4014 50.3519 20.5296 0.0000 0.0000 0.0000
# 2 50.3519 125.9238 26.4596 0.0000 0.0000 0.0000
# 3 20.5296 26.4596 39.5978 0.0000 0.0000 0.0000
# 4 0.0000 0.0000 0.0000 26.5421 0.0000 0.0000
# 5 0.0000 0.0000 0.0000 0.0000 16.7718 0.0000
# 6 0.0000 0.0000 0.0000 0.0000 0.0000 25.3991
#
#
#
# Elastic Compliance Matrix: (Units=1/GPa)
#
#
# Indices 1 2 3 4 5 6 
#
# 1 0.026069 -0.008823 -0.007620 0.000000 0.000000 0.000000
# 2 -0.008823 0.012224 -0.003594 0.000000 0.000000 0.000000
# 3 -0.007620 -0.003594 0.031606 0.000000 0.000000 0.000000
# 4 0.000000 0.000000 0.000000 0.037676 0.000000 0.000000
# 5 0.000000 0.000000 0.000000 0.000000 0.059624 0.000000
# 6 0.000000 0.000000 0.000000 0.000000 0.000000 0.039371
#
#
# Mechanical properties :
#
#
# Convention : Reuss Voigt Hill
#
# Bulk Modulus (GPa) = 33.52841 46.84503 40.18672
# Shear Modulus (GPa) = 19.48652 22.38141 20.93397
#
# Velocity S-wave (km/s) = 3.42002 3.66526 3.54476
# Velocity P-wave (km/s) = 5.97665 6.78456 6.39338
#
# Compressibility (1/GPa) = 0.02982545
#
# Stress axis : x y z
#
# Youngs Moduli (GPa) = 38.35940 81.80329 31.63925
#
# Poissons Ratio (x) = 0.72174 0.24110
# Poissons Ratio (y) = 0.33844 0.11372
# Poissons Ratio (z) = 0.29231 0.29402
#
# Static dielectric constant tensor:
#      x y z
#    x 2.953740 0.000000 0.000000 
#    y 0.000000 3.455410 0.000000 
#    z 0.000000 0.000000 3.009450 
# 
# 
# High freq. dielectric constant tensor:
#      x y z
#    x 1.593320 0.000000 0.000000 
#    y 0.000000 1.652450 0.000000 
#    z 0.000000 0.000000 1.640010 
# 
# From -- ./inp_files/7823.got.cif
#   From: 2010.03.12/outbox.cif.g09.slc.cpg/sg55_4_cif.got.tgz:7823.got - 2010.04.16 15:19:21.
