data_PCOD8224743
_publ_section_title
;
Structure prediction by ZEFSAII (Michael W. Deem and Ramdas Pophale) SiO2 
 PCOD8224743
Probable space group: P B A M
;
_chemical_formula_sum "Si O2"
_cell_formula_units_Z 48
_cell_length_a 19.209643
_cell_length_b 15.084198
_cell_length_c 8.677087
_cell_angle_alpha 90.000000
_cell_angle_beta 90.000000
_cell_angle_gamma 90.000000
_cell_volume 2514.290591
_symmetry_space_group_name_H-M "P B A M"
_symmetry_group_IT_number 55
_symmetry_cell_setting 'orthorhombic'
loop_
_space_group_symop_operation_xyz
x,y,z
-x,-y,z
1/2+x,1/2-y,-z
1/2-x,1/2+y,-z
-x,-y,-z
x,y,-z
1/2-x,1/2+y,z
1/2+x,1/2-y,z
loop_
_atom_site_type_symbol
_atom_site_label
_atom_site_fract_x
_atom_site_fract_y
_atom_site_fract_z
Si Si1 0.422385 0.273067 0.819720
Si Si2 0.924426 0.523186 0.318398
Si Si3 0.669204 0.375783 0.682797
Si Si4 0.924037 0.038211 0.320670
Si Si5 0.569189 0.222312 0.681718
Si Si6 0.325352 0.129574 0.683364
O O1 0.411515 0.375525 0.780533
O O2 0.496202 0.238243 0.762543
O O3 0.360982 0.219552 0.737721
O O4 0.416770 0.258134 0.000000
O O5 0.928148 0.508892 0.500000
O O6 0.903503 0.623901 0.277620
O O7 0.866908 0.455921 0.250389
O O8 0.000000 0.500000 0.246701
O O9 0.670353 0.370239 0.500000
O O10 0.632137 0.466179 0.735264
O O11 0.626009 0.291422 0.746058
O O12 0.747053 0.373702 0.750649
O O13 0.915324 0.062530 0.500000
O O14 0.000000 0.000000 0.287842
O O15 0.556693 0.234333 0.500000
O O16 0.323611 0.128165 0.500000
#
# Coordination Sequence:
#
# PCOD8224743 Si02
#       6
#     8   8   8   8   8   8
#     4  12  24  36  54  84 116 156 196 228 275 341
#     4   9  16  28  54  83 104 136 181 229 282 330
#     4   9  19  34  59  90 112 138 183 238 295 341
#     4  10  19  36  62  88 112 142 185 241 293 338
#     4  10  18  35  59  84 110 143 188 240 290 340
#     4  10  20  37  58  84 115 146 186 241 292 338
#
# _framework density 19.090869999999999
#
# number of rings (size 3 to 8) (size 9 to 14) (size 15 to 20)
#    0.000    2.000    3.333    1.500    0.000    1.667 
#    0.000    8.333    0.000    0.000    0.000    0.000 
#    0.000    0.000    0.000    0.000    0.000    0.000 
#
# Total GULP energy -595236.417552 kJ/mol
# GULP energy per Si atom -12400.758699 kJ/mol
# Density = 1.904742 g / cm^3
# Si number density = 19.090870 Si / 1000 Ang^3
#
#
#
# Elastic Constant Matrix: (Units=GPa)
#
#
# Indices 1 2 3 4 5 6 
#
# 1 149.3769 45.8198 18.7091 0.0000 0.0000 0.0000
# 2 45.8198 100.0543 8.8164 0.0000 0.0000 0.0000
# 3 18.7091 8.8164 14.9255 0.0000 0.0000 0.0000
# 4 0.0000 0.0000 0.0000 8.3888 0.0000 0.0000
# 5 0.0000 0.0000 0.0000 0.0000 3.0780 0.0000
# 6 0.0000 0.0000 0.0000 0.0000 0.0000 34.0110
#
#
#
# Elastic Compliance Matrix: (Units=1/GPa)
#
#
# Indices 1 2 3 4 5 6 
#
# 1 0.008835 -0.003239 -0.009162 0.000000 0.000000 0.000000
# 2 -0.003239 0.011731 -0.002869 0.000000 0.000000 0.000000
# 3 -0.009162 -0.002869 0.080179 0.000000 0.000000 0.000000
# 4 0.000000 0.000000 0.000000 0.119206 0.000000 0.000000
# 5 0.000000 0.000000 0.000000 0.000000 0.324883 0.000000
# 6 0.000000 0.000000 0.000000 0.000000 0.000000 0.029402
#
#
# Mechanical properties :
#
#
# Convention : Reuss Voigt Hill
#
# Bulk Modulus (GPa) = 14.24411 45.67192 29.95801
# Shear Modulus (GPa) = 7.95953 21.82967 14.89460
#
# Velocity S-wave (km/s) = 2.04410 3.38518 2.79623
# Velocity P-wave (km/s) = 3.61227 6.26535 5.11386
#
# Compressibility (1/GPa) = 0.07020446
#
# Stress axis : x y z
#
# Youngs Moduli (GPa) = 113.17991 85.24686 12.47213
#
# Poissons Ratio (x) = 0.27610 0.11427
# Poissons Ratio (y) = 0.36658 0.03579
# Poissons Ratio (z) = 1.03696 0.24460
#
# Static dielectric constant tensor:
#      x y z
#    x 3.741010 0.000000 0.000000 
#    y 0.000000 3.784410 0.000000 
#    z 0.000000 0.000000 3.001550 
# 
# 
# High freq. dielectric constant tensor:
#      x y z
#    x 1.744850 0.000000 0.000000 
#    y 0.000000 1.760730 0.000000 
#    z 0.000000 0.000000 1.692310 
# 
# From -- ./inp_files/5627.got.cif
#   From: 2010.03.12/outbox.cif.g09.slc.cpg/sg55_3_cif.got.tgz:5627.got - 2010.04.16 15:19:21.
