data_PCOD8224110
_publ_section_title
;
Structure prediction by ZEFSAII (Michael W. Deem and Ramdas Pophale) SiO2 
 PCOD8224110
Probable space group: P C C A
;
_chemical_formula_sum "Si O2"
_cell_formula_units_Z 40
_cell_length_a 17.461014
_cell_length_b 8.344572
_cell_length_c 12.016601
_cell_angle_alpha 90.000000
_cell_angle_beta 90.000000
_cell_angle_gamma 90.000000
_cell_volume 1750.875106
_symmetry_space_group_name_H-M "P C C A"
_symmetry_group_IT_number 54
_symmetry_cell_setting 'orthorhombic'
loop_
_space_group_symop_operation_xyz
x,y,z
1/2-x,-y,z
1/2+x,-y,1/2-z
-x,y,1/2-z
-x,-y,-z
1/2+x,y,-z
1/2-x,y,1/2+z
x,-y,1/2+z
loop_
_atom_site_type_symbol
_atom_site_label
_atom_site_fract_x
_atom_site_fract_y
_atom_site_fract_z
Si Si1 0.210333 0.667356 0.156937
Si Si2 0.055532 0.713040 0.502476
Si Si3 0.391352 0.362876 0.950669
Si Si4 0.086396 0.153091 0.784529
Si Si5 0.639124 0.196673 0.779614
O O1 0.250000 0.500000 0.190410
O O2 0.138827 0.704210 0.236568
O O3 0.274322 0.804552 0.173743
O O4 0.182021 0.664416 0.029499
O O5 0.081792 0.546069 0.448501
O O6 0.090297 0.847306 0.419569
O O7 0.084463 0.726876 0.627787
O O8 0.963895 0.737808 0.504474
O O9 0.367194 0.306417 0.828813
O O10 0.000000 0.191124 0.750000
O O11 0.114562 0.983780 0.741001
#
# Coordination Sequence:
#
# PCOD8224110 Si02
#       5
#     8   8   8   8   8
#     4  12  26  50  73 111 150 205 254 322 382 453
#     4  11  25  47  79 112 148 197 262 316 381 456
#     4  11  25  47  78 109 148 198 261 319 376 463
#     4  12  27  49  78 111 158 200 253 316 392 465
#     4  12  28  47  78 113 155 199 255 316 396 452
#
# _framework density 22.845718999999999
#
# number of rings (size 3 to 8) (size 9 to 14) (size 15 to 20)
#    0.000    0.400    4.000    3.600    5.600    2.400 
#    0.000    0.000    0.000    0.000    0.000    0.000 
#    0.000    0.000    0.000    0.000    0.000    0.000 
#
# Total GULP energy -496136.916431 kJ/mol
# GULP energy per Si atom -12403.422911 kJ/mol
# Density = 2.279372 g / cm^3
# Si number density = 22.845719 Si / 1000 Ang^3
#
#
#
# Elastic Constant Matrix: (Units=GPa)
#
#
# Indices 1 2 3 4 5 6 
#
# 1 178.8692 64.5654 62.4797 0.0000 0.0000 0.0000
# 2 64.5654 76.3543 55.4849 0.0000 0.0000 0.0000
# 3 62.4797 55.4849 150.2541 0.0000 0.0000 0.0000
# 4 0.0000 0.0000 0.0000 33.8620 0.0000 0.0000
# 5 0.0000 0.0000 0.0000 0.0000 34.8108 0.0000
# 6 0.0000 0.0000 0.0000 0.0000 0.0000 41.3365
#
#
#
# Elastic Compliance Matrix: (Units=1/GPa)
#
#
# Indices 1 2 3 4 5 6 
#
# 1 0.008192 -0.006085 -0.001160 0.000000 0.000000 0.000000
# 2 -0.006085 0.022419 -0.005749 0.000000 0.000000 0.000000
# 3 -0.001160 -0.005749 0.009260 0.000000 0.000000 0.000000
# 4 0.000000 0.000000 0.000000 0.029532 0.000000 0.000000
# 5 0.000000 0.000000 0.000000 0.000000 0.028727 0.000000
# 6 0.000000 0.000000 0.000000 0.000000 0.000000 0.024192
#
#
# Mechanical properties :
#
#
# Convention : Reuss Voigt Hill
#
# Bulk Modulus (GPa) = 72.01470 85.61531 78.81500
# Shear Modulus (GPa) = 32.69330 36.86505 34.77917
#
# Velocity S-wave (km/s) = 3.78702 4.02139 3.90596
# Velocity P-wave (km/s) = 7.12128 7.68888 7.41052
#
# Compressibility (1/GPa) = 0.01388605
#
# Stress axis : x y z
#
# Youngs Moduli (GPa) = 122.06982 44.60411 107.98588
#
# Poissons Ratio (x) = 0.27140 0.12522
# Poissons Ratio (y) = 0.74274 0.62079
# Poissons Ratio (z) = 0.14155 0.25642
#
# Static dielectric constant tensor:
#      x y z
#    x 4.478110 0.000000 0.000000 
#    y 0.000000 3.954650 0.000000 
#    z 0.000000 0.000000 4.143060 
# 
# 
# High freq. dielectric constant tensor:
#      x y z
#    x 1.918040 0.000000 0.000000 
#    y 0.000000 1.895520 0.000000 
#    z 0.000000 0.000000 1.913760 
# 
# From -- ./inp_files/8711.got.cif
#   From: 2010.03.12/outbox.cif.g09.slc.cpg/sg54_5_cif.got.tgz:8711.got - 2010.04.16 15:00:50.
