data_PCOD8224833
_publ_section_title
;
Structure prediction by ZEFSAII (Michael W. Deem and Ramdas Pophale) SiO2 
 PCOD8224833
Probable space group: P B A M
;
_chemical_formula_sum "Si O2"
_cell_formula_units_Z 64
_cell_length_a 23.098000
_cell_length_b 19.055242
_cell_length_c 9.043329
_cell_angle_alpha 90.000000
_cell_angle_beta 90.000000
_cell_angle_gamma 90.000000
_cell_volume 3980.312556
_symmetry_space_group_name_H-M "P B A M"
_symmetry_group_IT_number 55
_symmetry_cell_setting 'orthorhombic'
loop_
_space_group_symop_operation_xyz
x,y,z
-x,-y,z
1/2+x,1/2-y,-z
1/2-x,1/2+y,-z
-x,-y,-z
x,y,-z
1/2-x,1/2+y,z
1/2+x,1/2-y,z
loop_
_atom_site_type_symbol
_atom_site_label
_atom_site_fract_x
_atom_site_fract_y
_atom_site_fract_z
Si Si1 0.565554 0.872677 0.170442
Si Si2 0.340749 0.774998 0.325133
Si Si3 0.617657 0.005251 0.327093
Si Si4 0.433127 0.858730 0.173570
Si Si5 0.263465 0.351765 0.826718
Si Si6 0.328818 0.217134 0.168895
Si Si7 0.752913 0.010419 0.329073
Si Si8 0.271569 0.642543 0.671923
O O1 0.586002 0.935038 0.275138
O O2 0.500618 0.851224 0.210658
O O3 0.604587 0.803257 0.199713
O O4 0.570396 0.897553 0.000000
O O5 0.344522 0.786554 0.500000
O O6 0.402086 0.792306 0.250730
O O7 0.293716 0.828969 0.261336
O O8 0.323637 0.694962 0.282105
O O9 0.605830 0.016253 0.500000
O O10 0.590771 0.069308 0.238211
O O11 0.685460 0.000247 0.291948
O O12 0.420708 0.856924 0.000000
O O13 0.316051 0.298292 0.788653
O O14 0.281376 0.428731 0.770241
O O15 0.249333 0.353898 0.000000
O O16 0.288576 0.164014 0.256343
O O17 0.311893 0.205383 0.000000
O O18 0.762152 0.029810 0.500000
O O19 0.786137 0.937998 0.286623
O O20 0.259251 0.648809 0.500000
#
# Coordination Sequence:
#
# PCOD8224833 Si02
#       8
#     8   8   8   8   8   8   8   8
#     4  10  21  35  49  66  93 129 163 197 233 270
#     4  10  19  32  49  68  91 121 155 196 235 272
#     4  11  21  32  47  68  96 129 163 196 226 267
#     4  11  22  34  48  66  93 129 164 195 231 274
#     4  10  19  30  48  71  94 121 152 190 233 280
#     4   9  18  32  48  68  92 119 155 194 232 272
#     4  10  19  31  47  70  98 127 154 186 231 280
#     4   9  18  32  49  68  92 120 153 190 234 279
#
# _framework density 16.079139000000001
#
# number of rings (size 3 to 8) (size 9 to 14) (size 15 to 20)
#    0.000    2.000    2.500    1.875    0.000    4.500 
#    0.000    0.000    0.000    0.000    0.000    0.875 
#    0.000    7.000    0.000    0.000    0.000    0.000 
#
# Total GULP energy -793537.646381 kJ/mol
# GULP energy per Si atom -12399.025725 kJ/mol
# Density = 1.604254 g / cm^3
# Si number density = 16.079139 Si / 1000 Ang^3
#
#
#
# Elastic Constant Matrix: (Units=GPa)
#
#
# Indices 1 2 3 4 5 6 
#
# 1 69.5028 50.9519 31.5762 0.0000 0.0000 0.0000
# 2 50.9519 112.9214 44.9867 0.0000 0.0000 0.0000
# 3 31.5762 44.9867 61.1570 0.0000 0.0000 0.0000
# 4 0.0000 0.0000 0.0000 24.3904 0.0000 0.0000
# 5 0.0000 0.0000 0.0000 0.0000 16.9776 0.0000
# 6 0.0000 0.0000 0.0000 0.0000 0.0000 19.6461
#
#
#
# Elastic Compliance Matrix: (Units=1/GPa)
#
#
# Indices 1 2 3 4 5 6 
#
# 1 0.022951 -0.007971 -0.005987 0.000000 0.000000 0.000000
# 2 -0.007971 0.015295 -0.007135 0.000000 0.000000 0.000000
# 3 -0.005987 -0.007135 0.024691 0.000000 0.000000 0.000000
# 4 0.000000 0.000000 0.000000 0.041000 0.000000 0.000000
# 5 0.000000 0.000000 0.000000 0.000000 0.058901 0.000000
# 6 0.000000 0.000000 0.000000 0.000000 0.000000 0.050901
#
#
# Mechanical properties :
#
#
# Convention : Reuss Voigt Hill
#
# Bulk Modulus (GPa) = 48.18969 55.40120 51.79544
# Shear Modulus (GPa) = 19.02286 19.94059 19.48173
#
# Velocity S-wave (km/s) = 3.44332 3.52540 3.48460
# Velocity P-wave (km/s) = 6.77082 7.14852 6.96223
#
# Compressibility (1/GPa) = 0.02075132
#
# Stress axis : x y z
#
# Youngs Moduli (GPa) = 43.57086 65.38088 40.50047
#
# Poissons Ratio (x) = 0.52115 0.24246
# Poissons Ratio (y) = 0.34730 0.28899
# Poissons Ratio (z) = 0.26084 0.46652
#
# Static dielectric constant tensor:
#      x y z
#    x 3.001390 0.000000 0.000000 
#    y 0.000000 3.290680 0.000000 
#    z 0.000000 0.000000 3.142680 
# 
# 
# High freq. dielectric constant tensor:
#      x y z
#    x 1.587710 0.000000 0.000000 
#    y 0.000000 1.617750 0.000000 
#    z 0.000000 0.000000 1.629650 
# 
# From -- ./inp_files/8163.got.cif
#   From: 2010.03.12/outbox.cif.g09.slc.cpg/sg55_5_cif.got.tgz:8163.got - 2010.04.16 15:19:21.
