data_PCOD8224041
_publ_section_title
;
Structure prediction by ZEFSAII (Michael W. Deem and Ramdas Pophale) SiO2 
 PCOD8224041
Probable space group: P C C A
;
_chemical_formula_sum "Si O2"
_cell_formula_units_Z 40
_cell_length_a 31.631138
_cell_length_b 4.816668
_cell_length_c 10.867348
_cell_angle_alpha 90.000000
_cell_angle_beta 90.000000
_cell_angle_gamma 90.000000
_cell_volume 1655.713173
_symmetry_space_group_name_H-M "P C C A"
_symmetry_group_IT_number 54
_symmetry_cell_setting 'orthorhombic'
loop_
_space_group_symop_operation_xyz
x,y,z
1/2-x,-y,z
1/2+x,-y,1/2-z
-x,y,1/2-z
-x,-y,-z
1/2+x,y,-z
1/2-x,y,1/2+z
x,-y,1/2+z
loop_
_atom_site_type_symbol
_atom_site_label
_atom_site_fract_x
_atom_site_fract_y
_atom_site_fract_z
Si Si1 0.976224 0.379301 0.876724
Si Si2 0.778507 0.749906 0.863078
Si Si3 0.346984 0.047460 0.806410
Si Si4 0.419329 0.858963 0.115115
Si Si5 0.352414 0.562407 0.959687
O O1 0.948639 0.629127 0.821738
O O2 0.000000 0.282103 0.750000
O O3 0.947723 0.121936 0.925994
O O4 0.000000 0.500000 0.000000
O O5 0.750000 0.500000 0.817309
O O6 0.801717 0.862678 0.743019
O O7 0.750000 0.000000 0.921834
O O8 0.813290 0.619280 0.952290
O O9 0.384162 0.049705 0.709708
O O10 0.357542 0.234808 0.928517
O O11 0.341734 0.722851 0.834327
O O12 0.396679 0.699299 0.002129
#
# Coordination Sequence:
#
# PCOD8224041 Si02
#       5
#     8   8   8   8   8
#     4  12  28  47  74 108 144 185 235 292 371 427
#     4  11  24  41  62  98 140 174 230 291 348 418
#     4  11  24  42  69  97 131 185 232 283 354 417
#     4  11  26  46  70  98 141 179 230 296 345 439
#     4  11  24  42  69  97 130 185 234 280 353 419
#
# _framework density 24.158771999999999
#
# number of rings (size 3 to 8) (size 9 to 14) (size 15 to 20)
#    0.000    0.800    0.000    6.000    8.400   11.200 
#    0.000    0.000    0.000    0.000    0.000    0.000 
#    0.000    0.000    0.000    0.000    0.000    0.000 
#
# Total GULP energy -495679.575772 kJ/mol
# GULP energy per Si atom -12391.989394 kJ/mol
# Density = 2.410379 g / cm^3
# Si number density = 24.158772 Si / 1000 Ang^3
#
#
#
# Elastic Constant Matrix: (Units=GPa)
#
#
# Indices 1 2 3 4 5 6 
#
# 1 109.5389 25.6760 16.8787 0.0000 0.0000 0.0000
# 2 25.6760 93.5309 -14.0370 0.0000 0.0000 0.0000
# 3 16.8787 -14.0370 70.2065 0.0000 0.0000 0.0000
# 4 0.0000 0.0000 0.0000 43.0061 0.0000 0.0000
# 5 0.0000 0.0000 0.0000 0.0000 7.2650 0.0000
# 6 0.0000 0.0000 0.0000 0.0000 0.0000 25.4726
#
#
#
# Elastic Compliance Matrix: (Units=1/GPa)
#
#
# Indices 1 2 3 4 5 6 
#
# 1 0.010397 -0.003329 -0.003165 0.000000 0.000000 0.000000
# 2 -0.003329 0.012088 0.003217 0.000000 0.000000 0.000000
# 3 -0.003165 0.003217 0.015648 0.000000 0.000000 0.000000
# 4 0.000000 0.000000 0.000000 0.023253 0.000000 0.000000
# 5 0.000000 0.000000 0.000000 0.000000 0.137647 0.000000
# 6 0.000000 0.000000 0.000000 0.000000 0.000000 0.039258
#
#
# Mechanical properties :
#
#
# Convention : Reuss Voigt Hill
#
# Bulk Modulus (GPa) = 31.66640 36.70130 34.18385
# Shear Modulus (GPa) = 19.57928 31.46597 25.52262
#
# Velocity S-wave (km/s) = 2.84991 3.61288 3.25384
# Velocity P-wave (km/s) = 4.89545 5.71214 5.31949
#
# Compressibility (1/GPa) = 0.03157921
#
# Stress axis : x y z
#
# Youngs Moduli (GPa) = 96.17868 82.72342 63.90606
#
# Poissons Ratio (x) = 0.27541 0.20228
# Poissons Ratio (y) = 0.32021 -0.20561
# Poissons Ratio (z) = 0.30444 -0.26615
#
# Static dielectric constant tensor:
#      x y z
#    x 4.950030 0.000000 0.000000 
#    y 0.000000 4.626940 0.000000 
#    z 0.000000 0.000000 4.145360 
# 
# 
# High freq. dielectric constant tensor:
#      x y z
#    x 1.976250 0.000000 0.000000 
#    y 0.000000 1.982510 0.000000 
#    z 0.000000 0.000000 1.943330 
# 
# From -- ./inp_files/10137.got.cif
#   From: 2010.03.12/outbox.cif.g09.slc.cpg/sg54_6_cif.got.tgz:10137.got - 2010.04.16 15:00:50.
