data_PCOD8224725
_publ_section_title
;
Structure prediction by ZEFSAII (Michael W. Deem and Ramdas Pophale) SiO2 
 PCOD8224725
Probable space group: P B A M
;
_chemical_formula_sum "Si O2"
_cell_formula_units_Z 64
_cell_length_a 22.305058
_cell_length_b 16.744146
_cell_length_c 8.948959
_cell_angle_alpha 90.000000
_cell_angle_beta 90.000000
_cell_angle_gamma 90.000000
_cell_volume 3342.249580
_symmetry_space_group_name_H-M "P B A M"
_symmetry_group_IT_number 55
_symmetry_cell_setting 'orthorhombic'
loop_
_space_group_symop_operation_xyz
x,y,z
-x,-y,z
1/2+x,1/2-y,-z
1/2-x,1/2+y,-z
-x,-y,-z
x,y,-z
1/2-x,1/2+y,z
1/2+x,1/2-y,z
loop_
_atom_site_type_symbol
_atom_site_label
_atom_site_fract_x
_atom_site_fract_y
_atom_site_fract_z
Si Si1 0.767819 0.589340 0.177248
Si Si2 0.886116 0.676583 0.822225
Si Si3 0.858602 0.153543 0.822648
Si Si4 0.229227 0.592250 0.822987
Si Si5 0.141812 0.148133 0.177267
Si Si6 0.432702 0.499808 0.177869
Si Si7 0.380737 0.181110 0.675742
Si Si8 0.497565 0.908290 0.325236
O O1 0.827370 0.631368 0.240461
O O2 0.709280 0.637303 0.233094
O O3 0.765825 0.498561 0.234286
O O4 0.767419 0.589635 0.000000
O O5 0.883439 0.767660 0.763638
O O6 0.945055 0.635354 0.761854
O O7 0.887137 0.673393 0.000000
O O8 0.899504 0.080043 0.769150
O O9 0.885154 0.231399 0.745375
O O10 0.861096 0.165248 0.000000
O O11 0.289344 0.638017 0.773225
O O12 0.174534 0.633586 0.742267
O O13 0.219027 0.596934 0.000000
O O14 0.101602 0.076798 0.244807
O O15 0.138626 0.144506 0.000000
O O16 0.500000 0.500000 0.241725
O O17 0.432610 0.504125 0.000000
O O18 0.372678 0.188336 0.500000
O O19 0.440484 0.133416 0.719209
O O20 0.483969 0.901922 0.500000
O O21 0.500000 0.000000 0.272972
#
# Coordination Sequence:
#
# PCOD8224725 Si02
#       8
#     8   8   8   8   8   8   8   8
#     4   9  17  32  55  86 115 140 176 226 275 321
#     4  10  20  32  54  84 111 136 174 228 275 317
#     4  10  19  35  59  85 113 147 185 221 270 330
#     4  10  18  34  59  82 110 147 183 220 271 328
#     4   9  17  31  51  82 118 143 170 221 274 314
#     4   9  17  29  51  84 117 146 179 218 263 322
#     4  11  24  38  54  79 111 143 184 235 279 323
#     4  10  23  43  59  73 103 146 185 223 274 329
#
# _framework density 19.148778
#
# number of rings (size 3 to 8) (size 9 to 14) (size 15 to 20)
#    0.000    2.250    1.250    1.875    1.750    3.250 
#    0.000    3.125    0.000    1.125    0.000    0.000 
#    0.000    0.000    0.000    0.000    0.000    0.000 
#
# Total GULP energy -793670.117827 kJ/mol
# GULP energy per Si atom -12401.095591 kJ/mol
# Density = 1.910520 g / cm^3
# Si number density = 19.148778 Si / 1000 Ang^3
#
#
#
# Elastic Constant Matrix: (Units=GPa)
#
#
# Indices 1 2 3 4 5 6 
#
# 1 170.9374 95.3622 39.2825 0.0000 0.0000 0.0000
# 2 95.3622 188.2063 38.7297 0.0000 0.0000 0.0000
# 3 39.2825 38.7297 29.0510 0.0000 0.0000 0.0000
# 4 0.0000 0.0000 0.0000 11.4904 0.0000 0.0000
# 5 0.0000 0.0000 0.0000 0.0000 10.7010 0.0000
# 6 0.0000 0.0000 0.0000 0.0000 0.0000 37.1610
#
#
#
# Elastic Compliance Matrix: (Units=1/GPa)
#
#
# Indices 1 2 3 4 5 6 
#
# 1 0.009589 -0.003019 -0.008942 0.000000 0.000000 0.000000
# 2 -0.003019 0.008272 -0.006947 0.000000 0.000000 0.000000
# 3 -0.008942 -0.006947 0.055774 0.000000 0.000000 0.000000
# 4 0.000000 0.000000 0.000000 0.087029 0.000000 0.000000
# 5 0.000000 0.000000 0.000000 0.000000 0.093449 0.000000
# 6 0.000000 0.000000 0.000000 0.000000 0.000000 0.026910
#
#
# Mechanical properties :
#
#
# Convention : Reuss Voigt Hill
#
# Bulk Modulus (GPa) = 27.91624 81.66039 54.78832
# Shear Modulus (GPa) = 15.11583 26.19184 20.65384
#
# Velocity S-wave (km/s) = 2.81265 3.70240 3.28776
# Velocity P-wave (km/s) = 5.01580 7.81120 6.56403
#
# Compressibility (1/GPa) = 0.03582144
#
# Stress axis : x y z
#
# Youngs Moduli (GPa) = 104.28639 120.88558 17.92937
#
# Poissons Ratio (x) = 0.36490 0.16032
# Poissons Ratio (y) = 0.31479 0.12455
# Poissons Ratio (z) = 0.93252 0.83975
#
# Static dielectric constant tensor:
#      x y z
#    x 3.707280 0.000000 0.000000 
#    y 0.000000 3.976160 0.000000 
#    z 0.000000 0.000000 3.012280 
# 
# 
# High freq. dielectric constant tensor:
#      x y z
#    x 1.761080 0.000000 0.000000 
#    y 0.000000 1.765590 0.000000 
#    z 0.000000 0.000000 1.691750 
# 
# From -- ./inp_files/9816.got.cif
#   From: 2010.03.12/outbox.cif.g09.slc.cpg/sg55_5_cif.got.tgz:9816.got - 2010.04.16 15:19:21.
