data_PCOD8224821
_publ_section_title
;
Structure prediction by ZEFSAII (Michael W. Deem and Ramdas Pophale) SiO2 
 PCOD8224821
Probable space group: P B A M
;
_chemical_formula_sum "Si O2"
_cell_formula_units_Z 48
_cell_length_a 18.960393
_cell_length_b 15.470546
_cell_length_c 9.468184
_cell_angle_alpha 90.000000
_cell_angle_beta 90.000000
_cell_angle_gamma 90.000000
_cell_volume 2777.279993
_symmetry_space_group_name_H-M "P B A M"
_symmetry_group_IT_number 55
_symmetry_cell_setting 'orthorhombic'
loop_
_space_group_symop_operation_xyz
x,y,z
-x,-y,z
1/2+x,1/2-y,-z
1/2-x,1/2+y,-z
-x,-y,-z
x,y,-z
1/2-x,1/2+y,z
1/2+x,1/2-y,z
loop_
_atom_site_type_symbol
_atom_site_label
_atom_site_fract_x
_atom_site_fract_y
_atom_site_fract_z
Si Si1 0.792384 0.074159 0.163486
Si Si2 0.211322 0.765246 0.656202
Si Si3 0.543969 0.740139 0.343523
Si Si4 0.458804 0.417540 0.161612
Si Si5 0.212604 0.570273 0.666689
Si Si6 0.947214 0.428512 0.331723
O O1 0.762106 0.162718 0.232703
O O2 0.876020 0.068858 0.181558
O O3 0.762225 0.991661 0.243798
O O4 0.769762 0.072820 0.000000
O O5 0.241522 0.787662 0.500000
O O6 0.127625 0.765959 0.648287
O O7 0.235798 0.669005 0.701385
O O8 0.511617 0.727854 0.500000
O O9 0.512587 0.666203 0.243914
O O10 0.525038 0.834597 0.280251
O O11 0.500000 0.500000 0.223562
O O12 0.479463 0.402663 0.000000
O O13 0.220844 0.551474 0.500000
O O14 0.132467 0.553343 0.718573
O O15 0.947971 0.428380 0.500000
O O16 0.000000 0.500000 0.267858
#
# Coordination Sequence:
#
# PCOD8224821 Si02
#       6
#     8   8   8   8   8   8
#     4  10  19  30  47  69  91 118 151 188 228 268
#     4   8  15  29  47  65  87 118 154 186 218 263
#     4   8  14  26  46  69  88 111 148 187 217 254
#     4   9  18  32  47  63  87 120 152 182 223 270
#     4   9  17  30  49  70  92 120 151 185 225 267
#     4   8  14  27  48  71  93 117 146 181 221 264
#
# _framework density 17.283097999999999
#
# number of rings (size 3 to 8) (size 9 to 14) (size 15 to 20)
#    0.000    3.333    0.000    2.500    0.000    1.667 
#    0.000    4.167    0.000    8.000    0.000    0.000 
#    0.000    0.000    0.000    0.000    0.000    0.000 
#
# Total GULP energy -594915.501493 kJ/mol
# GULP energy per Si atom -12394.072948 kJ/mol
# Density = 1.724376 g / cm^3
# Si number density = 17.283098 Si / 1000 Ang^3
#
#
#
# Elastic Constant Matrix: (Units=GPa)
#
#
# Indices 1 2 3 4 5 6 
#
# 1 23.7345 32.9450 22.7015 0.0000 0.0000 0.0000
# 2 32.9450 162.5477 73.6307 0.0000 0.0000 0.0000
# 3 22.7015 73.6307 81.8630 0.0000 0.0000 0.0000
# 4 0.0000 0.0000 0.0000 8.3251 0.0000 0.0000
# 5 0.0000 0.0000 0.0000 0.0000 13.5656 0.0000
# 6 0.0000 0.0000 0.0000 0.0000 0.0000 30.4103
#
#
#
# Elastic Compliance Matrix: (Units=1/GPa)
#
#
# Indices 1 2 3 4 5 6 
#
# 1 0.063251 -0.008226 -0.010142 0.000000 0.000000 0.000000
# 2 -0.008226 0.011452 -0.008019 0.000000 0.000000 0.000000
# 3 -0.010142 -0.008019 0.022240 0.000000 0.000000 0.000000
# 4 0.000000 0.000000 0.000000 0.120118 0.000000 0.000000
# 5 0.000000 0.000000 0.000000 0.000000 0.073716 0.000000
# 6 0.000000 0.000000 0.000000 0.000000 0.000000 0.032884
#
#
# Mechanical properties :
#
#
# Convention : Reuss Voigt Hill
#
# Bulk Modulus (GPa) = 22.63966 58.52217 40.58092
# Shear Modulus (GPa) = 12.78263 19.71810 16.25037
#
# Velocity S-wave (km/s) = 2.72251 3.38137 3.06967
# Velocity P-wave (km/s) = 4.79693 7.01280 6.00790
#
# Compressibility (1/GPa) = 0.04417027
#
# Stress axis : x y z
#
# Youngs Moduli (GPa) = 15.81013 87.32392 44.96312
#
# Poissons Ratio (x) = 0.71829 0.45600
# Poissons Ratio (y) = 0.13005 0.36056
# Poissons Ratio (z) = 0.16034 0.70025
#
# Static dielectric constant tensor:
#      x y z
#    x 2.911700 0.000000 0.000000 
#    y 0.000000 3.642300 0.000000 
#    z 0.000000 0.000000 3.203630 
# 
# 
# High freq. dielectric constant tensor:
#      x y z
#    x 1.626550 0.000000 0.000000 
#    y 0.000000 1.683950 0.000000 
#    z 0.000000 0.000000 1.648080 
# 
# From -- ./inp_files/6284.got.cif
#   From: 2010.03.12/outbox.cif.g09.slc.cpg/sg55_4_cif.got.tgz:6284.got - 2010.04.16 15:19:21.
