data_PCOD8224528
_publ_section_title
;
Structure prediction by ZEFSAII (Michael W. Deem and Ramdas Pophale) SiO2 
 PCOD8224528
Probable space group: P B A M
;
_chemical_formula_sum "Si O2"
_cell_formula_units_Z 52
_cell_length_a 15.937459
_cell_length_b 16.970675
_cell_length_c 9.553800
_cell_angle_alpha 90.000000
_cell_angle_beta 90.000000
_cell_angle_gamma 90.000000
_cell_volume 2584.010907
_symmetry_space_group_name_H-M "P B A M"
_symmetry_group_IT_number 55
_symmetry_cell_setting 'orthorhombic'
loop_
_space_group_symop_operation_xyz
x,y,z
-x,-y,z
1/2+x,1/2-y,-z
1/2-x,1/2+y,-z
-x,-y,-z
x,y,-z
1/2-x,1/2+y,z
1/2+x,1/2-y,z
loop_
_atom_site_type_symbol
_atom_site_label
_atom_site_fract_x
_atom_site_fract_y
_atom_site_fract_z
Si Si1 0.876427 0.373152 0.843697
Si Si2 0.189928 0.083050 0.158636
Si Si3 0.000000 0.500000 0.750671
Si Si4 0.362014 0.887570 0.342485
Si Si5 0.346291 0.717988 0.345961
Si Si6 0.152793 0.765778 0.659464
Si Si7 0.700187 0.592698 0.164640
O O1 0.787784 0.411538 0.798999
O O2 0.946872 0.440529 0.845849
O O3 0.899997 0.303514 0.734967
O O4 0.870596 0.337568 0.000000
O O5 0.133246 0.144791 0.245313
O O6 0.159110 0.993723 0.184036
O O7 0.176693 0.108458 0.000000
O O8 0.938212 0.551179 0.654447
O O9 0.322108 0.886488 0.500000
O O10 0.395985 0.798662 0.307448
O O11 0.293850 0.911380 0.227134
O O12 0.370400 0.688297 0.500000
O O13 0.249296 0.741868 0.336037
O O14 0.120316 0.777132 0.500000
O O15 0.142382 0.846055 0.749391
O O16 0.705754 0.615397 0.000000
#
# Coordination Sequence:
#
# PCOD8224528 Si02
#       7
#     8   8   4   8   8   8   8
#     4  10  20  34  49  70 102 139 177 213 253 306
#     4   9  17  30  48  73  99 127 165 210 258 305
#     4  12  22  34  52  76 106 144 182 216 252 304
#     4  10  21  34  47  69 101 139 179 213 255 308
#     4   8  16  30  46  66  93 127 166 210 254 301
#     4   9  18  32  49  71  98 131 170 212 259 308
#     4  10  18  31  51  75 101 130 167 214 263 308
#
# _framework density 20.123754999999999
#
# number of rings (size 3 to 8) (size 9 to 14) (size 15 to 20)
#    0.000    2.462    1.538    2.308    0.000    6.769 
#    0.000    0.000    0.000    0.000    0.000    1.077 
#    0.000    7.385    0.000    0.000    0.000    0.000 
#
# Total GULP energy -644456.088256 kJ/mol
# GULP energy per Si atom -12393.386313 kJ/mol
# Density = 2.007795 g / cm^3
# Si number density = 20.123755 Si / 1000 Ang^3
#
#
#
# Elastic Constant Matrix: (Units=GPa)
#
#
# Indices 1 2 3 4 5 6 
#
# 1 26.3427 27.5883 13.2299 0.0000 0.0000 0.0000
# 2 27.5883 166.3785 87.5258 0.0000 0.0000 0.0000
# 3 13.2299 87.5258 135.0369 0.0000 0.0000 0.0000
# 4 0.0000 0.0000 0.0000 31.3923 0.0000 0.0000
# 5 0.0000 0.0000 0.0000 0.0000 9.0591 0.0000
# 6 0.0000 0.0000 0.0000 0.0000 0.0000 28.1202
#
#
#
# Elastic Compliance Matrix: (Units=1/GPa)
#
#
# Indices 1 2 3 4 5 6 
#
# 1 0.045978 -0.007973 0.000663 0.000000 0.000000 0.000000
# 2 -0.007973 0.010503 -0.006026 0.000000 0.000000 0.000000
# 3 0.000663 -0.006026 0.011246 0.000000 0.000000 0.000000
# 4 0.000000 0.000000 0.000000 0.031855 0.000000 0.000000
# 5 0.000000 0.000000 0.000000 0.000000 0.110386 0.000000
# 6 0.000000 0.000000 0.000000 0.000000 0.000000 0.035562
#
#
# Mechanical properties :
#
#
# Convention : Reuss Voigt Hill
#
# Bulk Modulus (GPa) = 24.35758 64.93847 44.64802
# Shear Modulus (GPa) = 17.48946 27.00857 22.24902
#
# Velocity S-wave (km/s) = 2.95124 3.66748 3.32868
# Velocity P-wave (km/s) = 4.87271 7.09038 6.08345
#
# Compressibility (1/GPa) = 0.04105498
#
# Stress axis : x y z
#
# Youngs Moduli (GPa) = 21.74961 95.21436 88.91695
#
# Poissons Ratio (x) = 0.75911 -0.05895
# Poissons Ratio (y) = 0.17340 0.53584
# Poissons Ratio (z) = -0.01442 0.57379
#
# Static dielectric constant tensor:
#      x y z
#    x 3.064990 0.000000 0.000000 
#    y 0.000000 4.010910 0.000000 
#    z 0.000000 0.000000 3.673370 
# 
# 
# High freq. dielectric constant tensor:
#      x y z
#    x 1.718470 0.000000 0.000000 
#    y 0.000000 1.801180 0.000000 
#    z 0.000000 0.000000 1.790540 
# 
# From -- ./inp_files/7621.got.cif
#   From: 2010.03.12/outbox.cif.g09.slc.cpg/sg55_4_cif.got.tgz:7621.got - 2010.04.16 15:19:21.
