data_PCOD8224819
_publ_section_title
;
Structure prediction by ZEFSAII (Michael W. Deem and Ramdas Pophale) SiO2 
 PCOD8224819
Probable space group: P B A M
;
_chemical_formula_sum "Si O2"
_cell_formula_units_Z 64
_cell_length_a 20.793240
_cell_length_b 18.415500
_cell_length_c 8.863874
_cell_angle_alpha 90.000000
_cell_angle_beta 90.000000
_cell_angle_gamma 90.000000
_cell_volume 3394.136117
_symmetry_space_group_name_H-M "P B A M"
_symmetry_group_IT_number 55
_symmetry_cell_setting 'orthorhombic'
loop_
_space_group_symop_operation_xyz
x,y,z
-x,-y,z
1/2+x,1/2-y,-z
1/2-x,1/2+y,-z
-x,-y,-z
x,y,-z
1/2-x,1/2+y,z
1/2+x,1/2-y,z
loop_
_atom_site_type_symbol
_atom_site_label
_atom_site_fract_x
_atom_site_fract_y
_atom_site_fract_z
Si Si1 0.144819 0.078611 0.174317
Si Si2 0.372040 0.736652 0.821772
Si Si3 0.669300 0.119529 0.325706
Si Si4 0.974165 0.577833 0.325801
Si Si5 0.897256 0.169998 0.677777
Si Si6 0.294650 0.431311 0.820646
Si Si7 0.482074 0.579717 0.661608
Si Si8 0.485217 0.221385 0.823299
O O1 0.163857 0.160910 0.224642
O O2 0.069599 0.076787 0.206853
O O3 0.181274 0.009524 0.248921
O O4 0.157310 0.070398 0.000000
O O5 0.334366 0.797820 0.730855
O O6 0.448401 0.736253 0.775834
O O7 0.366645 0.752030 0.000000
O O8 0.689737 0.119840 0.500000
O O9 0.602171 0.078879 0.298977
O O10 0.721119 0.075654 0.228743
O O11 0.990703 0.593724 0.500000
O O12 0.008982 0.637709 0.224208
O O13 0.000000 0.500000 0.273445
O O14 0.885077 0.175407 0.500000
O O15 0.833482 0.137515 0.754309
O O16 0.954932 0.117640 0.726200
O O17 0.921028 0.247596 0.742022
O O18 0.300980 0.429195 0.000000
O O19 0.500000 0.500000 0.617334
O O20 0.458918 0.615656 0.500000
O O21 0.473754 0.226556 0.000000
#
# Coordination Sequence:
#
# PCOD8224819 Si02
#       8
#     8   8   8   8   8   8   8   8
#     4  10  20  33  52  78 107 143 185 226 268 321
#     4   9  18  34  55  78 106 138 177 225 273 325
#     4  10  21  38  59  81 106 141 184 226 278 336
#     4   9  19  38  63  87 110 139 180 235 292 341
#     4  11  21  33  51  77 113 151 186 223 266 321
#     4  11  23  37  54  77 111 153 189 223 272 330
#     4  10  19  30  46  74 110 145 180 223 267 307
#     4  10  19  32  54  84 114 143 178 225 280 331
#
# _framework density 18.856048999999999
#
# number of rings (size 3 to 8) (size 9 to 14) (size 15 to 20)
#    0.000    2.000    2.500    1.500    0.000    3.000 
#    0.000    1.250    0.000    3.000    0.000    0.000 
#    0.000    0.000    0.000    0.000    0.000    0.000 
#
# Total GULP energy -793151.316123 kJ/mol
# GULP energy per Si atom -12392.989314 kJ/mol
# Density = 1.881313 g / cm^3
# Si number density = 18.856049 Si / 1000 Ang^3
#
#
#
# Elastic Constant Matrix: (Units=GPa)
#
#
# Indices 1 2 3 4 5 6 
#
# 1 71.4146 50.4338 27.9215 0.0000 0.0000 0.0000
# 2 50.4338 112.3733 44.1081 0.0000 0.0000 0.0000
# 3 27.9215 44.1081 58.5145 0.0000 0.0000 0.0000
# 4 0.0000 0.0000 0.0000 27.3559 0.0000 0.0000
# 5 0.0000 0.0000 0.0000 0.0000 30.1761 0.0000
# 6 0.0000 0.0000 0.0000 0.0000 0.0000 23.5737
#
#
#
# Elastic Compliance Matrix: (Units=1/GPa)
#
#
# Indices 1 2 3 4 5 6 
#
# 1 0.021197 -0.007872 -0.004180 0.000000 0.000000 0.000000
# 2 -0.007872 0.015562 -0.007974 0.000000 0.000000 0.000000
# 3 -0.004180 -0.007974 0.025095 0.000000 0.000000 0.000000
# 4 0.000000 0.000000 0.000000 0.036555 0.000000 0.000000
# 5 0.000000 0.000000 0.000000 0.000000 0.033139 0.000000
# 6 0.000000 0.000000 0.000000 0.000000 0.000000 0.042420
#
#
# Mechanical properties :
#
#
# Convention : Reuss Voigt Hill
#
# Bulk Modulus (GPa) = 45.87054 54.13659 50.00356
# Shear Modulus (GPa) = 22.59489 24.21040 23.40265
#
# Velocity S-wave (km/s) = 3.46538 3.58712 3.52678
# Velocity P-wave (km/s) = 6.35542 6.77712 6.56965
#
# Compressibility (1/GPa) = 0.02180049
#
# Stress axis : x y z
#
# Youngs Moduli (GPa) = 47.17709 64.25884 39.84787
#
# Poissons Ratio (x) = 0.50587 0.16658
# Poissons Ratio (y) = 0.37140 0.31775
# Poissons Ratio (z) = 0.19722 0.51241
#
# Static dielectric constant tensor:
#      x y z
#    x 3.237470 0.000000 0.000000 
#    y 0.000000 3.645670 0.000000 
#    z 0.000000 0.000000 3.419580 
# 
# 
# High freq. dielectric constant tensor:
#      x y z
#    x 1.703040 0.000000 0.000000 
#    y 0.000000 1.737550 0.000000 
#    z 0.000000 0.000000 1.735220 
# 
# From -- ./inp_files/9017.got.cif
#   From: 2010.03.12/outbox.cif.g09.slc.cpg/sg55_5_cif.got.tgz:9017.got - 2010.04.16 15:19:21.
