data_PCOD8224243
_publ_section_title
;
Structure prediction by ZEFSAII (Michael W. Deem and Ramdas Pophale) SiO2 
 PCOD8224243
Probable space group: P B A M
;
_chemical_formula_sum "Si O2"
_cell_formula_units_Z 64
_cell_length_a 23.631392
_cell_length_b 19.235836
_cell_length_c 8.803216
_cell_angle_alpha 90.000000
_cell_angle_beta 90.000000
_cell_angle_gamma 90.000000
_cell_volume 4001.674208
_symmetry_space_group_name_H-M "P B A M"
_symmetry_group_IT_number 55
_symmetry_cell_setting 'orthorhombic'
loop_
_space_group_symop_operation_xyz
x,y,z
-x,-y,z
1/2+x,1/2-y,-z
1/2-x,1/2+y,-z
-x,-y,-z
x,y,-z
1/2-x,1/2+y,z
1/2+x,1/2-y,z
loop_
_atom_site_type_symbol
_atom_site_label
_atom_site_fract_x
_atom_site_fract_y
_atom_site_fract_z
Si Si1 0.830385 0.218317 0.178777
Si Si2 0.881835 0.996495 0.819582
Si Si3 0.562591 0.637017 0.819652
Si Si4 0.752097 0.000823 0.180232
Si Si5 0.774183 0.640489 0.320783
Si Si6 0.063023 0.144356 0.180667
Si Si7 0.733516 0.849525 0.178000
Si Si8 0.161986 0.240496 0.820038
O O1 0.893431 0.197207 0.231578
O O2 0.785276 0.169706 0.261138
O O3 0.819774 0.299684 0.219225
O O4 0.821777 0.204949 0.000000
O O5 0.916416 0.062702 0.756271
O O6 0.817226 0.002324 0.766210
O O7 0.910261 0.926686 0.752776
O O8 0.884060 0.994559 0.000000
O O9 0.500414 0.654300 0.753637
O O10 0.559731 0.633572 0.000000
O O11 0.717734 0.061978 0.262075
O O12 0.725578 0.927631 0.240848
O O13 0.746380 0.010133 0.000000
O O14 0.774618 0.641991 0.500000
O O15 0.827081 0.685506 0.259114
O O16 0.100917 0.210511 0.229775
O O17 0.062063 0.138958 0.000000
O O18 0.790768 0.813879 0.240016
O O19 0.741605 0.857296 0.000000
O O20 0.166570 0.250913 0.000000
#
# Coordination Sequence:
#
# PCOD8224243 Si02
#       8
#     8   8   8   8   8   8   8   8
#     4   9  16  29  46  65  88 117 148 180 218 258
#     4   9  14  21  36  63  94 120 146 175 206 246
#     4   9  15  22  38  65  94 119 144 177 213 249
#     4  10  16  27  45  64  85 115 147 178 217 262
#     4  11  21  30  42  62  87 114 146 184 223 261
#     4   9  15  23  39  66  94 117 146 180 211 250
#     4   8  14  24  43  64  83 109 145 181 214 257
#     4   9  16  29  46  64  86 114 146 180 217 258
#
# _framework density 15.993304999999999
#
# number of rings (size 3 to 8) (size 9 to 14) (size 15 to 20)
#    0.000    2.750    2.500    2.250    0.000    1.500 
#    0.000    2.500    0.000    0.750    0.000    1.750 
#    0.000    7.000    0.000    0.000    0.000    0.000 
#
# Total GULP energy -793179.221225 kJ/mol
# GULP energy per Si atom -12393.425332 kJ/mol
# Density = 1.595690 g / cm^3
# Si number density = 15.993305 Si / 1000 Ang^3
#
#
#
# Elastic Constant Matrix: (Units=GPa)
#
#
# Indices 1 2 3 4 5 6 
#
# 1 99.0851 67.9758 17.6553 0.0000 0.0000 0.0000
# 2 67.9758 141.3952 28.1034 0.0000 0.0000 0.0000
# 3 17.6553 28.1034 32.1066 0.0000 0.0000 0.0000
# 4 0.0000 0.0000 0.0000 3.0136 0.0000 0.0000
# 5 0.0000 0.0000 0.0000 0.0000 4.3623 0.0000
# 6 0.0000 0.0000 0.0000 0.0000 0.0000 27.2059
#
#
#
# Elastic Compliance Matrix: (Units=1/GPa)
#
#
# Indices 1 2 3 4 5 6 
#
# 1 0.015207 -0.006839 -0.002377 0.000000 0.000000 0.000000
# 2 -0.006839 0.011637 -0.006426 0.000000 0.000000 0.000000
# 3 -0.002377 -0.006426 0.038078 0.000000 0.000000 0.000000
# 4 0.000000 0.000000 0.000000 0.331832 0.000000 0.000000
# 5 0.000000 0.000000 0.000000 0.000000 0.229238 0.000000
# 6 0.000000 0.000000 0.000000 0.000000 0.000000 0.036757
#
#
# Mechanical properties :
#
#
# Convention : Reuss Voigt Hill
#
# Bulk Modulus (GPa) = 29.72609 55.56176 42.64393
# Shear Modulus (GPa) = 7.08975 17.50650 12.29812
#
# Velocity S-wave (km/s) = 2.10774 3.31208 2.77601
# Velocity P-wave (km/s) = 4.95483 7.03154 6.08247
#
# Compressibility (1/GPa) = 0.03364048
#
# Stress axis : x y z
#
# Youngs Moduli (GPa) = 65.75798 85.93160 26.26212
#
# Poissons Ratio (x) = 0.58765 0.06241
# Poissons Ratio (y) = 0.44969 0.16875
# Poissons Ratio (z) = 0.15628 0.55217
#
# Static dielectric constant tensor:
#      x y z
#    x 3.102300 0.000000 0.000000 
#    y 0.000000 3.308820 0.000000 
#    z 0.000000 0.000000 2.528030 
# 
# 
# High freq. dielectric constant tensor:
#      x y z
#    x 1.590780 0.000000 0.000000 
#    y 0.000000 1.617420 0.000000 
#    z 0.000000 0.000000 1.563390 
# 
# From -- ./inp_files/8243.got.cif
#   From: 2010.03.12/outbox.cif.g09.slc.cpg/sg55_5_cif.got.tgz:8243.got - 2010.04.16 15:19:21.
