data_PCOD8224126
_publ_section_title
;
Structure prediction by ZEFSAII (Michael W. Deem and Ramdas Pophale) SiO2 
 PCOD8224126
Probable space group: P C C A
;
_chemical_formula_sum "Si O2"
_cell_formula_units_Z 60
_cell_length_a 17.857887
_cell_length_b 9.650821
_cell_length_c 17.379983
_cell_angle_alpha 90.000000
_cell_angle_beta 90.000000
_cell_angle_gamma 90.000000
_cell_volume 2995.323118
_symmetry_space_group_name_H-M "P C C A"
_symmetry_group_IT_number 54
_symmetry_cell_setting 'orthorhombic'
loop_
_space_group_symop_operation_xyz
x,y,z
1/2-x,-y,z
1/2+x,-y,1/2-z
-x,y,1/2-z
-x,-y,-z
1/2+x,y,-z
1/2-x,y,1/2+z
x,-y,1/2+z
loop_
_atom_site_type_symbol
_atom_site_label
_atom_site_fract_x
_atom_site_fract_y
_atom_site_fract_z
Si Si1 0.000000 0.070212 0.250000
Si Si2 0.441453 0.867476 0.619970
Si Si3 0.090826 0.233625 0.372255
Si Si4 0.165913 0.968667 0.984925
Si Si5 0.163548 0.479965 0.830035
Si Si6 0.572519 0.590235 0.804381
Si Si7 0.034575 0.607973 0.558773
Si Si8 0.399555 0.757997 0.933849
O O1 0.935483 0.161037 0.207517
O O2 0.958857 0.978333 0.313944
O O3 0.387234 0.940069 0.557933
O O4 0.401447 0.733646 0.656691
O O5 0.515912 0.805882 0.582277
O O6 0.153745 0.150298 0.420496
O O7 0.121391 0.386051 0.359229
O O8 0.018097 0.259139 0.424718
O O9 0.250000 0.000000 0.013784
O O10 0.148848 0.106085 0.937525
O O11 0.250000 0.500000 0.846246
O O12 0.145786 0.461568 0.740408
O O13 0.131750 0.341203 0.868329
O O14 0.500000 0.612293 0.750000
O O15 0.556220 0.468377 0.863793
O O16 0.105382 0.675879 0.515182
O O17 0.000000 0.500000 0.500000
#
# Coordination Sequence:
#
# PCOD8224126 Si02
#       8
#     4   8   8   8   8   8   8   8
#     4  12  24  38  70 102 124 166 230 280 324 378
#     4  12  22  44  72  96 128 178 229 275 323 399
#     4  12  22  41  68  98 131 167 220 280 327 392
#     4  12  27  45  64  99 141 176 217 277 343 402
#     4  12  26  44  65  99 138 176 216 271 349 411
#     4  12  21  42  71  95 133 169 220 279 334 390
#     4  12  20  38  72 100 120 162 226 282 314 376
#     4  12  22  45  73  95 129 178 226 272 330 392
#
# _framework density 20.031227999999999
#
# number of rings (size 3 to 8) (size 9 to 14) (size 15 to 20)
#    0.000    0.000    8.667    2.800    0.000    0.000 
#    4.800    0.000    0.000    0.000    0.000    0.000 
#    0.000    0.000    0.000    0.000    0.000    0.000 
#
# Total GULP energy -743744.088942 kJ/mol
# GULP energy per Si atom -12395.734816 kJ/mol
# Density = 1.998564 g / cm^3
# Si number density = 20.031228 Si / 1000 Ang^3
#
#
#
# Elastic Constant Matrix: (Units=GPa)
#
#
# Indices 1 2 3 4 5 6 
#
# 1 84.7712 32.1840 46.6319 0.0000 0.0000 0.0000
# 2 32.1840 118.7635 47.4201 0.0000 0.0000 0.0000
# 3 46.6319 47.4201 114.4716 0.0000 0.0000 0.0000
# 4 0.0000 0.0000 0.0000 159.2109 0.0000 0.0000
# 5 0.0000 0.0000 0.0000 0.0000 19.1781 0.0000
# 6 0.0000 0.0000 0.0000 0.0000 0.0000 5.8194
#
#
#
# Elastic Compliance Matrix: (Units=1/GPa)
#
#
# Indices 1 2 3 4 5 6 
#
# 1 0.015599 -0.002025 -0.005516 0.000000 0.000000 0.000000
# 2 -0.002025 0.010352 -0.003463 0.000000 0.000000 0.000000
# 3 -0.005516 -0.003463 0.012417 0.000000 0.000000 0.000000
# 4 0.000000 0.000000 0.000000 0.006281 0.000000 0.000000
# 5 0.000000 0.000000 0.000000 0.000000 0.052143 0.000000
# 6 0.000000 0.000000 0.000000 0.000000 0.000000 0.171840
#
#
# Mechanical properties :
#
#
# Convention : Reuss Voigt Hill
#
# Bulk Modulus (GPa) = 61.12335 63.38647 62.25491
# Shear Modulus (GPa) = 16.88650 49.62636 33.25643
#
# Velocity S-wave (km/s) = 2.90661 4.98280 4.07901
# Velocity P-wave (km/s) = 6.46875 8.05089 7.30280
#
# Compressibility (1/GPa) = 0.01636036
#
# Stress axis : x y z
#
# Youngs Moduli (GPa) = 64.10470 96.60267 80.53190
#
# Poissons Ratio (x) = 0.19562 0.44420
# Poissons Ratio (y) = 0.12981 0.27891
# Poissons Ratio (z) = 0.35359 0.33456
#
# Static dielectric constant tensor:
#      x y z
#    x 3.601290 0.000000 0.000000 
#    y 0.000000 3.823450 0.000000 
#    z 0.000000 0.000000 4.077510 
# 
# 
# High freq. dielectric constant tensor:
#      x y z
#    x 1.747680 0.000000 0.000000 
#    y 0.000000 1.810860 0.000000 
#    z 0.000000 0.000000 1.796480 
# 
# From -- ./inp_files/18663.got.cif
#   From: 2010.03.12/outbox.cif.g09.slc.cpg/sg54_10_cif.got.tgz:18663.got - 2010.04.16 15:00:50.
