data_PCOD8224537
_publ_section_title
;
Structure prediction by ZEFSAII (Michael W. Deem and Ramdas Pophale) SiO2 
 PCOD8224537
Probable space group: P B A M
;
_chemical_formula_sum "Si O2"
_cell_formula_units_Z 56
_cell_length_a 15.092748
_cell_length_b 21.446427
_cell_length_c 9.080019
_cell_angle_alpha 90.000000
_cell_angle_beta 90.000000
_cell_angle_gamma 90.000000
_cell_volume 2939.070655
_symmetry_space_group_name_H-M "P B A M"
_symmetry_group_IT_number 55
_symmetry_cell_setting 'orthorhombic'
loop_
_space_group_symop_operation_xyz
x,y,z
-x,-y,z
1/2+x,1/2-y,-z
1/2-x,1/2+y,-z
-x,-y,-z
x,y,-z
1/2-x,1/2+y,z
1/2+x,1/2-y,z
loop_
_atom_site_type_symbol
_atom_site_label
_atom_site_fract_x
_atom_site_fract_y
_atom_site_fract_z
Si Si1 0.182652 0.229831 0.674880
Si Si2 0.259078 0.099114 0.675383
Si Si3 0.760541 0.035303 0.672424
Si Si4 0.518775 0.745587 0.670913
Si Si5 0.430861 0.136040 0.826959
Si Si6 0.938052 0.559041 0.664538
Si Si7 0.819713 0.165407 0.671280
O O1 0.186462 0.228529 0.500000
O O2 0.209500 0.160957 0.733555
O O3 0.248926 0.283643 0.737526
O O4 0.081641 0.239358 0.729164
O O5 0.272808 0.100215 0.500000
O O6 0.355332 0.095609 0.748905
O O7 0.207823 0.034521 0.723224
O O8 0.776012 0.038915 0.500000
O O9 0.658449 0.039954 0.717185
O O10 0.809044 0.096033 0.743764
O O11 0.520409 0.765982 0.500000
O O12 0.573822 0.793796 0.768742
O O13 0.577099 0.683042 0.693827
O O14 0.526631 0.110108 0.778904
O O15 0.418314 0.133375 0.000000
O O16 0.935281 0.588468 0.500000
O O17 0.000000 0.500000 0.667822
O O18 0.795454 0.161946 0.500000
#
# Coordination Sequence:
#
# PCOD8224537 Si02
#       7
#     8   8   8   8   8   8   8
#     4   9  17  30  54  80 100 133 181 222 258 303
#     4  10  18  34  55  76 102 137 178 216 254 312
#     4   9  17  29  50  78 106 135 171 213 261 311
#     4  10  19  34  56  77 101 137 180 218 261 313
#     4  12  23  33  49  76 109 140 171 216 270 314
#     4  10  18  31  52  75  99 136 177 208 251 316
#     4   9  16  28  49  78 106 131 168 219 261 304
#
# _framework density 19.053642
#
# number of rings (size 3 to 8) (size 9 to 14) (size 15 to 20)
#    0.000    2.143    2.857    2.143    0.000    2.571 
#    0.000    1.429    0.000    5.143    0.000    0.000 
#    0.000    2.286    0.000    0.000    0.000    0.000 
#
# Total GULP energy -693810.872158 kJ/mol
# GULP energy per Si atom -12389.479860 kJ/mol
# Density = 1.901027 g / cm^3
# Si number density = 19.053642 Si / 1000 Ang^3
#
#
#
# Elastic Constant Matrix: (Units=GPa)
#
#
# Indices 1 2 3 4 5 6 
#
# 1 66.5078 27.8654 8.6276 0.0000 0.0000 0.0000
# 2 27.8654 144.1241 14.7849 0.0000 0.0000 0.0000
# 3 8.6276 14.7849 36.9445 0.0000 0.0000 0.0000
# 4 0.0000 0.0000 0.0000 3.8915 0.0000 0.0000
# 5 0.0000 0.0000 0.0000 0.0000 1.0856 0.0000
# 6 0.0000 0.0000 0.0000 0.0000 0.0000 30.8555
#
#
#
# Elastic Compliance Matrix: (Units=1/GPa)
#
#
# Indices 1 2 3 4 5 6 
#
# 1 0.016617 -0.002935 -0.002706 0.000000 0.000000 0.000000
# 2 -0.002935 0.007754 -0.002418 0.000000 0.000000 0.000000
# 3 -0.002706 -0.002418 0.028667 0.000000 0.000000 0.000000
# 4 0.000000 0.000000 0.000000 0.256971 0.000000 0.000000
# 5 0.000000 0.000000 0.000000 0.000000 0.921186 0.000000
# 6 0.000000 0.000000 0.000000 0.000000 0.000000 0.032409
#
#
# Mechanical properties :
#
#
# Convention : Reuss Voigt Hill
#
# Bulk Modulus (GPa) = 27.08530 38.90360 32.99445
# Shear Modulus (GPa) = 3.86989 20.25307 12.06148
#
# Velocity S-wave (km/s) = 1.42669 3.26383 2.51873
# Velocity P-wave (km/s) = 4.11826 5.88776 5.08064
#
# Compressibility (1/GPa) = 0.03692039
#
# Stress axis : x y z
#
# Youngs Moduli (GPa) = 60.18073 128.96626 34.88321
#
# Poissons Ratio (x) = 0.37853 0.09439
# Poissons Ratio (y) = 0.17664 0.08434
# Poissons Ratio (z) = 0.16284 0.31179
#
# Static dielectric constant tensor:
#      x y z
#    x 3.490080 0.000000 0.000000 
#    y 0.000000 4.027780 0.000000 
#    z 0.000000 0.000000 2.870490 
# 
# 
# High freq. dielectric constant tensor:
#      x y z
#    x 1.725290 0.000000 0.000000 
#    y 0.000000 1.759650 0.000000 
#    z 0.000000 0.000000 1.669170 
# 
# From -- ./inp_files/6098.got.cif
#   From: 2010.03.12/outbox.cif.g09.slc.cpg/sg55_4_cif.got.tgz:6098.got - 2010.04.16 15:19:21.
