data_PCOD8224467
_publ_section_title
;
Structure prediction by ZEFSAII (Michael W. Deem and Ramdas Pophale) SiO2 
 PCOD8224467
Probable space group: P B A M
;
_chemical_formula_sum "Si O2"
_cell_formula_units_Z 48
_cell_length_a 8.114921
_cell_length_b 30.228734
_cell_length_c 10.437653
_cell_angle_alpha 90.000000
_cell_angle_beta 90.000000
_cell_angle_gamma 90.000000
_cell_volume 2560.395822
_symmetry_space_group_name_H-M "P B A M"
_symmetry_group_IT_number 55
_symmetry_cell_setting 'orthorhombic'
loop_
_space_group_symop_operation_xyz
x,y,z
-x,-y,z
1/2+x,1/2-y,-z
1/2-x,1/2+y,-z
-x,-y,-z
x,y,-z
1/2-x,1/2+y,z
1/2+x,1/2-y,z
loop_
_atom_site_type_symbol
_atom_site_label
_atom_site_fract_x
_atom_site_fract_y
_atom_site_fract_z
Si Si1 0.482445 0.450696 0.848044
Si Si2 0.250262 0.304469 0.144363
Si Si3 0.336955 0.901067 0.149457
Si Si4 0.467017 0.742692 0.722734
Si Si5 0.808728 0.317089 0.638631
Si Si6 0.200756 0.607414 0.848310
O O1 0.500000 0.500000 0.791031
O O2 0.313037 0.429746 0.788641
O O3 0.645997 0.423410 0.808908
O O4 0.470665 0.452676 0.000000
O O5 0.173585 0.350360 0.196214
O O6 0.122149 0.263840 0.152246
O O7 0.402746 0.293547 0.233966
O O8 0.311703 0.310398 0.000000
O O9 0.524636 0.917296 0.181032
O O10 0.306605 0.903975 0.000000
O O11 0.344711 0.716161 0.632343
O O12 0.533343 0.785383 0.647541
O O13 0.816991 0.342130 0.500000
O O14 0.790201 0.349223 0.760213
O O15 0.207735 0.620768 0.000000
#
# Coordination Sequence:
#
# PCOD8224467 Si02
#       6
#     8   8   8   8   8   8
#     4   9  18  32  53  82 112 139 170 216 276 335
#     4  10  18  30  48  76 108 140 177 224 270 313
#     4   9  17  30  48  75 111 139 172 218 268 319
#     4  10  21  32  49  72 103 145 186 223 264 316
#     4  11  22  37  53  74 107 145 184 225 269 317
#     4  10  20  35  56  80 108 140 178 225 274 323
#
# _framework density 18.747102000000002
#
# number of rings (size 3 to 8) (size 9 to 14) (size 15 to 20)
#    0.000    2.167    1.667    2.000    0.000    5.333 
#    0.000    3.333    0.000    0.500    0.000    1.167 
#    0.000    0.000    0.000    0.000    0.000    0.000 
#
# Total GULP energy -594632.496419 kJ/mol
# GULP energy per Si atom -12388.177009 kJ/mol
# Density = 1.870443 g / cm^3
# Si number density = 18.747102 Si / 1000 Ang^3
#
#
#
# Elastic Constant Matrix: (Units=GPa)
#
#
# Indices 1 2 3 4 5 6 
#
# 1 143.5818 57.6647 22.6191 0.0000 0.0000 0.0000
# 2 57.6647 88.9318 26.5633 0.0000 0.0000 0.0000
# 3 22.6191 26.5633 62.2772 0.0000 0.0000 0.0000
# 4 0.0000 0.0000 0.0000 8.6371 0.0000 0.0000
# 5 0.0000 0.0000 0.0000 0.0000 1.7565 0.0000
# 6 0.0000 0.0000 0.0000 0.0000 0.0000 29.2503
#
#
#
# Elastic Compliance Matrix: (Units=1/GPa)
#
#
# Indices 1 2 3 4 5 6 
#
# 1 0.009465 -0.005856 -0.000940 0.000000 0.000000 0.000000
# 2 -0.005856 0.016510 -0.004915 0.000000 0.000000 0.000000
# 3 -0.000940 -0.004915 0.018495 0.000000 0.000000 0.000000
# 4 0.000000 0.000000 0.000000 0.115780 0.000000 0.000000
# 5 0.000000 0.000000 0.000000 0.000000 0.569312 0.000000
# 6 0.000000 0.000000 0.000000 0.000000 0.000000 0.034188
#
#
# Mechanical properties :
#
#
# Convention : Reuss Voigt Hill
#
# Bulk Modulus (GPa) = 47.51146 56.49833 52.00490
# Shear Modulus (GPa) = 6.29575 20.45836 13.37705
#
# Velocity S-wave (km/s) = 1.83454 3.30704 2.67414
# Velocity P-wave (km/s) = 5.46679 6.69212 6.11025
#
# Compressibility (1/GPa) = 0.02104755
#
# Stress axis : x y z
#
# Youngs Moduli (GPa) = 105.65556 60.56921 54.06876
#
# Poissons Ratio (x) = 0.35472 0.05081
# Poissons Ratio (y) = 0.61876 0.26575
# Poissons Ratio (z) = 0.09928 0.29770
#
# Static dielectric constant tensor:
#      x y z
#    x 3.863820 0.000000 0.000000 
#    y 0.000000 3.443380 0.000000 
#    z 0.000000 0.000000 2.938110 
# 
# 
# High freq. dielectric constant tensor:
#      x y z
#    x 1.753240 0.000000 0.000000 
#    y 0.000000 1.709400 0.000000 
#    z 0.000000 0.000000 1.673920 
# 
# From -- ./inp_files/2869.got.cif
#   From: 2010.03.12/outbox.cif.g09.slc.cpg/sg55_2_cif.got.tgz:2869.got - 2010.04.16 15:19:21.
