data_PCOD8224206
_publ_section_title
;
Structure prediction by ZEFSAII (Michael W. Deem and Ramdas Pophale) SiO2 
 PCOD8224206
Probable space group: P C C A
;
_chemical_formula_sum "Si O2"
_cell_formula_units_Z 40
_cell_length_a 22.720772
_cell_length_b 6.854465
_cell_length_c 12.257105
_cell_angle_alpha 90.000000
_cell_angle_beta 90.000000
_cell_angle_gamma 90.000000
_cell_volume 1908.906045
_symmetry_space_group_name_H-M "P C C A"
_symmetry_group_IT_number 54
_symmetry_cell_setting 'orthorhombic'
loop_
_space_group_symop_operation_xyz
x,y,z
1/2-x,-y,z
1/2+x,-y,1/2-z
-x,y,1/2-z
-x,-y,-z
1/2+x,y,-z
1/2-x,y,1/2+z
x,-y,1/2+z
loop_
_atom_site_type_symbol
_atom_site_label
_atom_site_fract_x
_atom_site_fract_y
_atom_site_fract_z
Si Si1 0.553098 0.377029 0.949135
Si Si2 0.649431 0.311304 0.463337
Si Si3 0.500000 0.169121 0.750000
Si Si4 0.750000 0.500000 0.107619
Si Si5 0.591880 0.980850 0.597566
Si Si6 0.301805 0.845455 0.759235
O O1 0.612345 0.499316 0.931490
O O2 0.537080 0.307963 0.828609
O O3 0.500000 0.500000 0.000000
O O4 0.568062 0.194798 0.025069
O O5 0.705410 0.376641 0.533725
O O6 0.671468 0.194337 0.358800
O O7 0.604405 0.171421 0.526262
O O8 0.541647 0.026021 0.683669
O O9 0.717209 0.356713 0.188847
O O10 0.651209 0.933783 0.659478
O O11 0.250000 0.000000 0.744896
#
# Coordination Sequence:
#
# PCOD8224206 Si02
#       6
#     8   8   4   4   8   8
#     4  12  28  48  73 108 148 194 244 306 363 441
#     4  12  28  47  76 108 147 193 244 304 365 438
#     4  12  28  46  76 106 148 192 244 294 374 422
#     4  12  26  50  70 112 144 186 246 298 364 442
#     4  12  27  50  72 110 148 191 244 300 367 442
#     4  12  28  46  79 106 147 192 242 299 370 429
#
# _framework density 20.954408000000001
#
# number of rings (size 3 to 8) (size 9 to 14) (size 15 to 20)
#    0.000    0.000    6.000    2.400   11.200    3.200 
#    0.000    0.000    0.000    0.000    0.000    0.000 
#    0.000    0.000    0.000    0.000    0.000    0.000 
#
# Total GULP energy -496282.005769 kJ/mol
# GULP energy per Si atom -12407.050144 kJ/mol
# Density = 2.090671 g / cm^3
# Si number density = 20.954408 Si / 1000 Ang^3
#
#
#
# Elastic Constant Matrix: (Units=GPa)
#
#
# Indices 1 2 3 4 5 6 
#
# 1 107.6723 50.8187 50.9257 0.0000 0.0000 0.0000
# 2 50.8187 126.4562 59.7105 0.0000 0.0000 0.0000
# 3 50.9257 59.7105 134.2670 0.0000 0.0000 0.0000
# 4 0.0000 0.0000 0.0000 -140.8094 0.0000 0.0000
# 5 0.0000 0.0000 0.0000 0.0000 -33.0033 0.0000
# 6 0.0000 0.0000 0.0000 0.0000 0.0000 70.5092
#
#
#
# Elastic Compliance Matrix: (Units=1/GPa)
#
#
# Indices 1 2 3 4 5 6 
#
# 1 0.012436 -0.003507 -0.003157 0.000000 0.000000 0.000000
# 2 -0.003507 0.010999 -0.003561 0.000000 0.000000 0.000000
# 3 -0.003157 -0.003561 0.010229 0.000000 0.000000 0.000000
# 4 0.000000 0.000000 0.000000 -0.007102 0.000000 0.000000
# 5 0.000000 0.000000 0.000000 0.000000 -0.030300 0.000000
# 6 0.000000 0.000000 0.000000 0.000000 0.000000 0.014183
#
#
# Mechanical properties :
#
#
# Convention : Reuss Voigt Hill
#
# Bulk Modulus (GPa) = 75.68214 76.81170 76.24692
# Shear Modulus (GPa) = 141.64690 -6.86466 67.39112
#
# Velocity S-wave (km/s) = 8.23070 -1.81194 5.67720
# Velocity P-wave (km/s) = 11.24819 5.68847 8.91293
#
# Compressibility (1/GPa) = 0.01321316
#
# Stress axis : x y z
#
# Youngs Moduli (GPa) = 80.41290 90.92008 97.76073
#
# Poissons Ratio (x) = 0.31884 0.30865
# Poissons Ratio (y) = 0.28199 0.34815
# Poissons Ratio (z) = 0.25388 0.32378
#
# Static dielectric constant tensor:
#      x y z
#    x 6.142170 0.000000 0.000000 
#    y 0.000000 4.024660 0.000000 
#    z 0.000000 0.000000 4.010650 
# 
# 
# High freq. dielectric constant tensor:
#      x y z
#    x 1.843970 0.000000 0.000000 
#    y 0.000000 1.841430 0.000000 
#    z 0.000000 0.000000 1.837180 
# 
# From -- ./inp_files/10166.got.cif
#   From: 2010.03.12/outbox.cif.g09.slc.cpg/sg54_6_cif.got.tgz:10166.got - 2010.04.16 15:00:50.
