data_PCOD8224987
_publ_section_title
;
Structure prediction by ZEFSAII (Michael W. Deem and Ramdas Pophale) SiO2 
 PCOD8224987
Probable space group: P B A M
;
_chemical_formula_sum "Si O2"
_cell_formula_units_Z 56
_cell_length_a 19.304312
_cell_length_b 18.742127
_cell_length_c 9.425544
_cell_angle_alpha 90.000000
_cell_angle_beta 90.000000
_cell_angle_gamma 90.000000
_cell_volume 3410.198269
_symmetry_space_group_name_H-M "P B A M"
_symmetry_group_IT_number 55
_symmetry_cell_setting 'orthorhombic'
loop_
_space_group_symop_operation_xyz
x,y,z
-x,-y,z
1/2+x,1/2-y,-z
1/2-x,1/2+y,-z
-x,-y,-z
x,y,-z
1/2-x,1/2+y,z
1/2+x,1/2-y,z
loop_
_atom_site_type_symbol
_atom_site_label
_atom_site_fract_x
_atom_site_fract_y
_atom_site_fract_z
Si Si1 0.482115 0.700569 0.663296
Si Si2 0.235121 0.877441 0.661769
Si Si3 0.234156 0.663718 0.164206
Si Si4 0.054715 0.061950 0.164152
Si Si5 0.295958 0.514352 0.837232
Si Si6 0.868425 0.247990 0.334762
Si Si7 0.663779 0.243544 0.662037
O O1 0.488676 0.677028 0.500000
O O2 0.471946 0.630029 0.752949
O O3 0.551901 0.740434 0.711903
O O4 0.418679 0.755473 0.686783
O O5 0.230024 0.902636 0.500000
O O6 0.171206 0.825605 0.700338
O O7 0.307033 0.835593 0.692034
O O8 0.234759 0.947063 0.756769
O O9 0.241687 0.578790 0.180590
O O10 0.164288 0.687997 0.243357
O O11 0.301614 0.699750 0.233162
O O12 0.230593 0.686447 0.000000
O O13 0.128963 0.036595 0.224462
O O14 0.061745 0.083408 0.000000
O O15 0.000000 0.000000 0.189174
O O16 0.304905 0.491926 0.000000
O O17 0.860374 0.267437 0.500000
O O18 0.682725 0.265363 0.500000
#
# Coordination Sequence:
#
# PCOD8224987 Si02
#       7
#     8   8   8   8   8   8   8
#     4  10  19  32  52  74  99 130 163 204 250 295
#     4   9  18  31  48  70  97 126 162 203 243 292
#     4  10  19  32  50  71  96 129 168 206 242 291
#     4  10  20  32  46  69 105 138 162 196 242 296
#     4  10  20  32  46  70 100 129 165 203 241 290
#     4   9  19  34  50  73 101 127 163 207 246 293
#     4   9  18  33  51  73  98 127 165 207 248 294
#
# _framework density 16.421332
#
# number of rings (size 3 to 8) (size 9 to 14) (size 15 to 20)
#    0.000    2.429    1.429    2.143    0.000    4.857 
#    0.000    0.000    0.000    0.857    0.000    6.000 
#    0.000    0.000    0.000    0.000    0.000    0.000 
#
# Total GULP energy -694445.647245 kJ/mol
# GULP energy per Si atom -12400.815129 kJ/mol
# Density = 1.638396 g / cm^3
# Si number density = 16.421332 Si / 1000 Ang^3
#
#
#
# Elastic Constant Matrix: (Units=GPa)
#
#
# Indices 1 2 3 4 5 6 
#
# 1 131.0793 61.5286 48.1031 0.0000 0.0000 0.0000
# 2 61.5286 81.8548 52.0277 0.0000 0.0000 0.0000
# 3 48.1031 52.0277 71.8086 0.0000 0.0000 0.0000
# 4 0.0000 0.0000 0.0000 33.4779 0.0000 0.0000
# 5 0.0000 0.0000 0.0000 0.0000 22.4381 0.0000
# 6 0.0000 0.0000 0.0000 0.0000 0.0000 19.0569
#
#
#
# Elastic Compliance Matrix: (Units=1/GPa)
#
#
# Indices 1 2 3 4 5 6 
#
# 1 0.012086 -0.007301 -0.002806 0.000000 0.000000 0.000000
# 2 -0.007301 0.027056 -0.014712 0.000000 0.000000 0.000000
# 3 -0.002806 -0.014712 0.026465 0.000000 0.000000 0.000000
# 4 0.000000 0.000000 0.000000 0.029870 0.000000 0.000000
# 5 0.000000 0.000000 0.000000 0.000000 0.044567 0.000000
# 6 0.000000 0.000000 0.000000 0.000000 0.000000 0.052474
#
#
# Mechanical properties :
#
#
# Convention : Reuss Voigt Hill
#
# Bulk Modulus (GPa) = 62.62440 67.56238 65.09339
# Shear Modulus (GPa) = 20.20363 23.20015 21.70189
#
# Velocity S-wave (km/s) = 3.51141 3.76281 3.63928
# Velocity P-wave (km/s) = 7.39316 7.75311 7.57527
#
# Compressibility (1/GPa) = 0.01596822
#
# Stress axis : x y z
#
# Youngs Moduli (GPa) = 82.74097 36.96046 37.78557
#
# Poissons Ratio (x) = 0.26985 0.10604
# Poissons Ratio (y) = 0.60410 0.55590
# Poissons Ratio (z) = 0.23219 0.54377
#
# Static dielectric constant tensor:
#      x y z
#    x 3.307920 0.000000 0.000000 
#    y 0.000000 2.898340 0.000000 
#    z 0.000000 0.000000 3.120430 
# 
# 
# High freq. dielectric constant tensor:
#      x y z
#    x 1.631270 0.000000 0.000000 
#    y 0.000000 1.614300 0.000000 
#    z 0.000000 0.000000 1.634910 
# 
# From -- ./inp_files/7802.got.cif
#   From: 2010.03.12/outbox.cif.g09.slc.cpg/sg55_4_cif.got.tgz:7802.got - 2010.04.16 15:19:21.
