data_PCOD8224761
_publ_section_title
;
Structure prediction by ZEFSAII (Michael W. Deem and Ramdas Pophale) SiO2 
 PCOD8224761
Probable space group: P B A M
;
_chemical_formula_sum "Si O2"
_cell_formula_units_Z 64
_cell_length_a 17.997564
_cell_length_b 10.587532
_cell_length_c 17.931176
_cell_angle_alpha 90.000000
_cell_angle_beta 90.000000
_cell_angle_gamma 90.000000
_cell_volume 3416.781728
_symmetry_space_group_name_H-M "P B A M"
_symmetry_group_IT_number 55
_symmetry_cell_setting 'orthorhombic'
loop_
_space_group_symop_operation_xyz
x,y,z
-x,-y,z
1/2+x,1/2-y,-z
1/2-x,1/2+y,-z
-x,-y,-z
x,y,-z
1/2-x,1/2+y,z
1/2+x,1/2-y,z
loop_
_atom_site_type_symbol
_atom_site_label
_atom_site_fract_x
_atom_site_fract_y
_atom_site_fract_z
Si Si1 0.603427 0.070226 0.799686
Si Si2 0.369302 0.689245 0.418387
Si Si3 0.018371 0.852497 0.349744
Si Si4 0.777502 0.503889 0.912117
Si Si5 0.695634 0.740047 0.848085
Si Si6 0.271283 0.814465 0.698376
Si Si7 0.955131 0.305040 0.792556
Si Si8 0.663303 0.595118 0.580412
O O1 0.659990 0.117952 0.737391
O O2 0.539006 0.170183 0.822436
O O3 0.644017 0.045529 0.877993
O O4 0.572935 0.941187 0.763548
O O5 0.359501 0.755926 0.500000
O O6 0.449400 0.726125 0.383794
O O7 0.302811 0.715877 0.361252
O O8 0.369203 0.542024 0.431247
O O9 0.038738 0.801029 0.269070
O O10 0.090601 0.822298 0.399867
O O11 0.000000 0.000000 0.340647
O O12 0.715392 0.602924 0.882313
O O13 0.762016 0.357166 0.889129
O O14 0.781274 0.514153 0.000000
O O15 0.719803 0.750231 0.761134
O O16 0.605687 0.755374 0.853338
O O17 0.222462 0.908394 0.647659
O O18 0.696075 0.642620 0.500000
#
# Coordination Sequence:
#
# PCOD8224761 Si02
#       8
#     8   8   8   8   8   8   8   8
#     4   9  21  35  58  80 113 147 187 231 276 343
#     4  10  21  34  51  75 109 148 189 236 292 340
#     4  10  19  33  55  76 109 146 189 237 282 331
#     4  10  21  40  60  90 120 149 181 232 288 340
#     4  10  22  35  64  87 117 152 192 230 280 348
#     4  11  20  33  54  81 107 147 191 238 288 329
#     4  10  18  38  54  84 110 147 191 233 271 332
#     4  10  21  33  49  76 109 144 190 242 288 339
#
# _framework density 18.731076000000002
#
# number of rings (size 3 to 8) (size 9 to 14) (size 15 to 20)
#    0.000    2.000    2.500    1.125    5.250    1.500 
#    0.000    5.625    0.000    3.000    0.000    4.375 
#    0.000    0.000    0.000    0.000    0.000    0.000 
#
# Total GULP energy -792834.983075 kJ/mol
# GULP energy per Si atom -12388.046611 kJ/mol
# Density = 1.868844 g / cm^3
# Si number density = 18.731076 Si / 1000 Ang^3
#
#
#
# Elastic Constant Matrix: (Units=GPa)
#
#
# Indices 1 2 3 4 5 6 
#
# 1 103.1241 21.8474 35.5343 0.0000 0.0000 0.0000
# 2 21.8474 56.3345 29.6159 0.0000 0.0000 0.0000
# 3 35.5343 29.6159 121.2524 0.0000 0.0000 0.0000
# 4 0.0000 0.0000 0.0000 23.7965 0.0000 0.0000
# 5 0.0000 0.0000 0.0000 0.0000 14.4390 0.0000
# 6 0.0000 0.0000 0.0000 0.0000 0.0000 28.0967
#
#
#
# Elastic Compliance Matrix: (Units=1/GPa)
#
#
# Indices 1 2 3 4 5 6 
#
# 1 0.011213 -0.003007 -0.002552 0.000000 0.000000 0.000000
# 2 -0.003007 0.021173 -0.004290 0.000000 0.000000 0.000000
# 3 -0.002552 -0.004290 0.010043 0.000000 0.000000 0.000000
# 4 0.000000 0.000000 0.000000 0.042023 0.000000 0.000000
# 5 0.000000 0.000000 0.000000 0.000000 0.069257 0.000000
# 6 0.000000 0.000000 0.000000 0.000000 0.000000 0.035591
#
#
# Mechanical properties :
#
#
# Convention : Reuss Voigt Hill
#
# Bulk Modulus (GPa) = 43.99295 50.52291 47.25793
# Shear Modulus (GPa) = 23.08662 26.18066 24.63364
#
# Velocity S-wave (km/s) = 3.51455 3.74266 3.63039
# Velocity P-wave (km/s) = 6.32511 6.76077 6.54656
#
# Compressibility (1/GPa) = 0.02273091
#
# Stress axis : x y z
#
# Youngs Moduli (GPa) = 89.17887 47.23046 99.57261
#
# Poissons Ratio (x) = 0.14204 0.25408
# Poissons Ratio (y) = 0.26819 0.42718
# Poissons Ratio (z) = 0.22756 0.20263
#
# Static dielectric constant tensor:
#      x y z
#    x 3.729500 0.000000 0.000000 
#    y 0.000000 3.319450 0.000000 
#    z 0.000000 0.000000 3.436500 
# 
# 
# High freq. dielectric constant tensor:
#      x y z
#    x 1.737780 0.000000 0.000000 
#    y 0.000000 1.710390 0.000000 
#    z 0.000000 0.000000 1.716500 
# 
# From -- ./inp_files/19484.got.cif
#   From: 2010.03.12/outbox.cif.g09.slc.cpg/sg55_10_cif.got.tgz:19484.got - 2010.04.16 15:19:21.
