data_PCOD8224115
_publ_section_title
;
Structure prediction by ZEFSAII (Michael W. Deem and Ramdas Pophale) SiO2 
 PCOD8224115
Probable space group: P C C A
;
_chemical_formula_sum "Si O2"
_cell_formula_units_Z 40
_cell_length_a 9.448455
_cell_length_b 19.853780
_cell_length_c 9.242195
_cell_angle_alpha 90.000000
_cell_angle_beta 90.000000
_cell_angle_gamma 90.000000
_cell_volume 1733.720688
_symmetry_space_group_name_H-M "P C C A"
_symmetry_group_IT_number 54
_symmetry_cell_setting 'orthorhombic'
loop_
_space_group_symop_operation_xyz
x,y,z
1/2-x,-y,z
1/2+x,-y,1/2-z
-x,y,1/2-z
-x,-y,-z
1/2+x,y,-z
1/2-x,y,1/2+z
x,-y,1/2+z
loop_
_atom_site_type_symbol
_atom_site_label
_atom_site_fract_x
_atom_site_fract_y
_atom_site_fract_z
Si Si1 0.381121 0.879172 0.361497
Si Si2 0.013601 0.268681 0.411283
Si Si3 0.662299 0.432990 0.207826
Si Si4 0.652251 0.064641 0.321825
Si Si5 0.242424 0.346133 0.043060
O O1 0.500000 0.908114 0.250000
O O2 0.429559 0.807015 0.421708
O O3 0.234530 0.876119 0.268249
O O4 0.363423 0.923837 0.506092
O O5 0.105106 0.323396 0.492114
O O6 0.000000 0.293985 0.250000
O O7 0.855287 0.278982 0.473536
O O8 0.750000 0.500000 0.235841
O O9 0.500000 0.446236 0.250000
O O10 0.733990 0.371431 0.294517
O O11 0.676861 0.409783 0.042087
O O12 0.500000 0.054286 0.250000
O O13 0.750000 0.000000 0.294474
#
# Coordination Sequence:
#
# PCOD8224115 Si02
#       5
#     8   8   8   8   8
#     4  11  27  48  74 114 149 195 248 304 372 439
#     4  11  26  45  73 107 146 185 237 298 355 441
#     4  12  28  45  71 103 139 186 240 296 360 429
#     4  12  27  49  78 108 152 200 251 309 368 436
#     4  12  25  47  71 102 141 187 234 294 361 430
#
# _framework density 23.071766
#
# number of rings (size 3 to 8) (size 9 to 14) (size 15 to 20)
#    0.000    0.400    4.000    3.000   11.200    4.000 
#    0.000    1.000    0.000    0.000    0.000    0.000 
#    0.000    0.000    0.000    0.000    0.000    0.000 
#
# Total GULP energy -495823.163709 kJ/mol
# GULP energy per Si atom -12395.579093 kJ/mol
# Density = 2.301925 g / cm^3
# Si number density = 23.071766 Si / 1000 Ang^3
#
#
#
# Elastic Constant Matrix: (Units=GPa)
#
#
# Indices 1 2 3 4 5 6 
#
# 1 164.8323 49.0330 42.8069 0.0000 0.0000 0.0000
# 2 49.0330 90.3863 17.9661 0.0000 0.0000 0.0000
# 3 42.8069 17.9661 118.7582 0.0000 0.0000 0.0000
# 4 0.0000 0.0000 0.0000 36.2459 0.0000 0.0000
# 5 0.0000 0.0000 0.0000 0.0000 39.7124 0.0000
# 6 0.0000 0.0000 0.0000 0.0000 0.0000 33.5264
#
#
#
# Elastic Compliance Matrix: (Units=1/GPa)
#
#
# Indices 1 2 3 4 5 6 
#
# 1 0.007767 -0.003771 -0.002229 0.000000 0.000000 0.000000
# 2 -0.003771 0.013237 -0.000643 0.000000 0.000000 0.000000
# 3 -0.002229 -0.000643 0.009321 0.000000 0.000000 0.000000
# 4 0.000000 0.000000 0.000000 0.027589 0.000000 0.000000
# 5 0.000000 0.000000 0.000000 0.000000 0.025181 0.000000
# 6 0.000000 0.000000 0.000000 0.000000 0.000000 0.029827
#
#
# Mechanical properties :
#
#
# Convention : Reuss Voigt Hill
#
# Bulk Modulus (GPa) = 58.68859 65.95430 62.32145
# Shear Modulus (GPa) = 37.91047 39.50832 38.70940
#
# Velocity S-wave (km/s) = 4.05798 4.14262 4.10052
# Velocity P-wave (km/s) = 6.88832 7.17846 7.03489
#
# Compressibility (1/GPa) = 0.01703909
#
# Stress axis : x y z
#
# Youngs Moduli (GPa) = 128.74386 75.54610 107.28013
#
# Poissons Ratio (x) = 0.28485 0.23917
# Poissons Ratio (y) = 0.48543 0.06903
# Poissons Ratio (z) = 0.28702 0.04861
#
# Static dielectric constant tensor:
#      x y z
#    x 4.419170 0.000000 0.000000 
#    y 0.000000 3.844410 0.000000 
#    z 0.000000 0.000000 4.566390 
# 
# 
# High freq. dielectric constant tensor:
#      x y z
#    x 1.933000 0.000000 0.000000 
#    y 0.000000 1.902120 0.000000 
#    z 0.000000 0.000000 1.923290 
# 
# From -- ./inp_files/2527.got.cif
#   From: 2010.03.12/outbox.cif.g09.slc.cpg/sg54_2_cif.got.tgz:2527.got - 2010.04.16 15:00:50.
