data_PCOD8224014
_publ_section_title
;
Structure prediction by ZEFSAII (Michael W. Deem and Ramdas Pophale) SiO2 
 PCOD8224014
Probable space group: P C C A
;
_chemical_formula_sum "Si O2"
_cell_formula_units_Z 40
_cell_length_a 9.072241
_cell_length_b 11.519244
_cell_length_c 16.383897
_cell_angle_alpha 90.000000
_cell_angle_beta 90.000000
_cell_angle_gamma 90.000000
_cell_volume 1712.205017
_symmetry_space_group_name_H-M "P C C A"
_symmetry_group_IT_number 54
_symmetry_cell_setting 'orthorhombic'
loop_
_space_group_symop_operation_xyz
x,y,z
1/2-x,-y,z
1/2+x,-y,1/2-z
-x,y,1/2-z
-x,-y,-z
1/2+x,y,-z
1/2-x,y,1/2+z
x,-y,1/2+z
loop_
_atom_site_type_symbol
_atom_site_label
_atom_site_fract_x
_atom_site_fract_y
_atom_site_fract_z
Si Si1 0.341327 0.724369 0.727819
Si Si2 0.909043 0.539859 0.406193
Si Si3 0.721562 0.134627 0.416372
Si Si4 0.082185 0.324563 0.332814
Si Si5 0.982430 0.749107 0.994106
O O1 0.500000 0.776817 0.750000
O O2 0.360866 0.614009 0.671090
O O3 0.252574 0.823703 0.676998
O O4 0.255681 0.680198 0.809118
O O5 0.750000 0.500000 0.443684
O O6 0.000549 0.614792 0.474348
O O7 0.018670 0.444056 0.369372
O O8 0.552976 0.162630 0.440774
O O9 0.813320 0.213689 0.480823
O O10 0.750000 0.000000 0.426117
O O11 0.057144 0.231811 0.404937
O O12 0.000000 0.289207 0.250000
#
# Coordination Sequence:
#
# PCOD8224014 Si02
#       5
#     8   8   8   8   8
#     4  11  26  45  65 103 148 183 237 290 343 428
#     4  11  23  43  68 105 147 189 229 279 356 437
#     4  11  25  51  74 100 137 184 246 307 355 410
#     4  12  22  43  68 100 145 185 224 285 352 422
#     4  11  25  45  72 102 142 181 240 290 352 435
#
# _framework density 23.361689999999999
#
# number of rings (size 3 to 8) (size 9 to 14) (size 15 to 20)
#    0.000    0.800    4.000    3.000    5.600    0.000 
#    7.200    0.000    0.000    0.000    0.000    0.000 
#    0.000    0.000    0.000    0.000    0.000    0.000 
#
# Total GULP energy -495732.348208 kJ/mol
# GULP energy per Si atom -12393.308705 kJ/mol
# Density = 2.330852 g / cm^3
# Si number density = 23.361690 Si / 1000 Ang^3
#
#
#
# Elastic Constant Matrix: (Units=GPa)
#
#
# Indices 1 2 3 4 5 6 
#
# 1 113.1667 32.4338 21.2578 0.0000 0.0000 0.0000
# 2 32.4338 105.0517 19.2207 0.0000 0.0000 0.0000
# 3 21.2578 19.2207 99.4862 0.0000 0.0000 0.0000
# 4 0.0000 0.0000 0.0000 3.0426 0.0000 0.0000
# 5 0.0000 0.0000 0.0000 0.0000 36.3040 0.0000
# 6 0.0000 0.0000 0.0000 0.0000 0.0000 21.0987
#
#
#
# Elastic Compliance Matrix: (Units=1/GPa)
#
#
# Indices 1 2 3 4 5 6 
#
# 1 0.009930 -0.002776 -0.001586 0.000000 0.000000 0.000000
# 2 -0.002776 0.010644 -0.001463 0.000000 0.000000 0.000000
# 3 -0.001586 -0.001463 0.010673 0.000000 0.000000 0.000000
# 4 0.000000 0.000000 0.000000 0.328667 0.000000 0.000000
# 5 0.000000 0.000000 0.000000 0.000000 0.027545 0.000000
# 6 0.000000 0.000000 0.000000 0.000000 0.000000 0.047396
#
#
# Mechanical properties :
#
#
# Convention : Reuss Voigt Hill
#
# Bulk Modulus (GPa) = 51.02592 51.50324 51.26458
# Shear Modulus (GPa) = 11.03662 28.40855 19.72259
#
# Velocity S-wave (km/s) = 2.17589 3.49095 2.90871
# Velocity P-wave (km/s) = 5.31054 6.19216 5.76822
#
# Compressibility (1/GPa) = 0.01959788
#
# Stress axis : x y z
#
# Youngs Moduli (GPa) = 100.70631 93.95130 93.69318
#
# Poissons Ratio (x) = 0.26078 0.14855
# Poissons Ratio (y) = 0.27953 0.13710
# Poissons Ratio (z) = 0.15967 0.13748
#
# Static dielectric constant tensor:
#      x y z
#    x 4.523440 0.000000 0.000000 
#    y 0.000000 3.868640 0.000000 
#    z 0.000000 0.000000 4.699250 
# 
# 
# High freq. dielectric constant tensor:
#      x y z
#    x 1.933280 0.000000 0.000000 
#    y 0.000000 1.883710 0.000000 
#    z 0.000000 0.000000 1.944050 
# 
# From -- ./inp_files/16304.got.cif
#   From: 2010.03.12/outbox.cif.g09.slc.cpg/sg54_9_cif.got.tgz:16304.got - 2010.04.16 15:00:50.
