data_PCOD8224213
_publ_section_title
;
Structure prediction by ZEFSAII (Michael W. Deem and Ramdas Pophale) SiO2 
 PCOD8224213
Probable space group: P C C A
;
_chemical_formula_sum "Si O2"
_cell_formula_units_Z 32
_cell_length_a 32.316127
_cell_length_b 4.684608
_cell_length_c 8.296940
_cell_angle_alpha 90.000000
_cell_angle_beta 90.000000
_cell_angle_gamma 90.000000
_cell_volume 1256.060364
_symmetry_space_group_name_H-M "P C C A"
_symmetry_group_IT_number 54
_symmetry_cell_setting 'orthorhombic'
loop_
_space_group_symop_operation_xyz
x,y,z
1/2-x,-y,z
1/2+x,-y,1/2-z
-x,y,1/2-z
-x,-y,-z
1/2+x,y,-z
1/2-x,y,1/2+z
x,-y,1/2+z
loop_
_atom_site_type_symbol
_atom_site_label
_atom_site_fract_x
_atom_site_fract_y
_atom_site_fract_z
Si Si1 0.920703 0.398455 0.688804
Si Si2 0.452964 0.905415 0.494893
Si Si3 0.796213 0.901448 0.408077
Si Si4 0.327580 0.591482 0.275969
O O1 0.946608 0.683618 0.652042
O O2 0.873514 0.472177 0.721677
O O3 0.924109 0.182186 0.536652
O O4 0.940516 0.242331 0.840192
O O5 0.500000 0.000000 0.500000
O O6 0.797075 0.677338 0.258493
O O7 0.815801 0.740597 0.558527
O O8 0.750000 0.000000 0.444566
O O9 0.823795 0.178136 0.368044
#
# Coordination Sequence:
#
# PCOD8224213 Si02
#       4
#     8   8   8   8
#     4  12  27  50  77 112 152 201 254 314 380 454
#     4  12  27  50  77 112 153 200 254 315 382 455
#     4  12  27  50  77 112 152 200 252 312 378 450
#     4  12  27  50  78 112 153 201 254 313 379 453
#
# _framework density 25.476483000000002
#
# number of rings (size 3 to 8) (size 9 to 14) (size 15 to 20)
#    0.000    0.000    0.000    9.000    0.000    8.000 
#    0.000    1.250    0.000    0.000    0.000    0.000 
#    0.000    0.000    0.000    0.000    0.000    0.000 
#
# Total GULP energy -397041.128582 kJ/mol
# GULP energy per Si atom -12407.535268 kJ/mol
# Density = 2.541850 g / cm^3
# Si number density = 25.476483 Si / 1000 Ang^3
#
#
#
# Elastic Constant Matrix: (Units=GPa)
#
#
# Indices 1 2 3 4 5 6 
#
# 1 128.7179 68.4820 47.2573 0.0000 0.0000 0.0000
# 2 68.4820 156.7480 5.4414 0.0000 0.0000 0.0000
# 3 47.2573 5.4414 39.1764 0.0000 0.0000 0.0000
# 4 0.0000 0.0000 0.0000 68.8369 0.0000 0.0000
# 5 0.0000 0.0000 0.0000 0.0000 40.2649 0.0000
# 6 0.0000 0.0000 0.0000 0.0000 0.0000 67.0406
#
#
#
# Elastic Compliance Matrix: (Units=1/GPa)
#
#
# Indices 1 2 3 4 5 6 
#
# 1 0.021215 -0.008421 -0.024422 0.000000 0.000000 0.000000
# 2 -0.008421 0.009753 0.008803 0.000000 0.000000 0.000000
# 3 -0.024422 0.008803 0.053762 0.000000 0.000000 0.000000
# 4 0.000000 0.000000 0.000000 0.014527 0.000000 0.000000
# 5 0.000000 0.000000 0.000000 0.000000 0.024835 0.000000
# 6 0.000000 0.000000 0.000000 0.000000 0.000000 0.014916
#
#
# Mechanical properties :
#
#
# Convention : Reuss Voigt Hill
#
# Bulk Modulus (GPa) = 27.28380 63.00040 45.14210
# Shear Modulus (GPa) = 25.08702 48.79258 36.93980
#
# Velocity S-wave (km/s) = 3.14142 4.38105 3.81196
# Velocity P-wave (km/s) = 4.88781 7.09746 6.09363
#
# Compressibility (1/GPa) = 0.03665179
#
# Stress axis : x y z
#
# Youngs Moduli (GPa) = 47.13545 102.53075 18.60039
#
# Poissons Ratio (x) = 0.86342 0.45426
# Poissons Ratio (y) = 0.39693 -0.16375
# Poissons Ratio (z) = 1.15114 -0.90262
#
# Static dielectric constant tensor:
#      x y z
#    x 1.717090 0.000000 0.000000 
#    y 0.000000 5.845880 0.000000 
#    z 0.000000 0.000000 15.622040 
# 
# 
# High freq. dielectric constant tensor:
#      x y z
#    x 2.014470 0.000000 0.000000 
#    y 0.000000 2.058120 0.000000 
#    z 0.000000 0.000000 2.033110 
# 
# From -- ./inp_files/5698.got.cif
#   From: 2010.03.12/outbox.cif.g09.slc.cpg/sg54_3_cif.got.tgz:5698.got - 2010.04.16 15:00:50.
