data_PCOD8224187
_publ_section_title
;
Structure prediction by ZEFSAII (Michael W. Deem and Ramdas Pophale) SiO2 
 PCOD8224187
Probable space group: P C C A
;
_chemical_formula_sum "Si O2"
_cell_formula_units_Z 36
_cell_length_a 11.345655
_cell_length_b 5.045097
_cell_length_c 23.822987
_cell_angle_alpha 90.000000
_cell_angle_beta 90.000000
_cell_angle_gamma 90.000000
_cell_volume 1363.626108
_symmetry_space_group_name_H-M "P C C A"
_symmetry_group_IT_number 54
_symmetry_cell_setting 'orthorhombic'
loop_
_space_group_symop_operation_xyz
x,y,z
1/2-x,-y,z
1/2+x,-y,1/2-z
-x,y,1/2-z
-x,-y,-z
1/2+x,y,-z
1/2-x,y,1/2+z
x,-y,1/2+z
loop_
_atom_site_type_symbol
_atom_site_label
_atom_site_fract_x
_atom_site_fract_y
_atom_site_fract_z
Si Si1 0.631800 0.327802 0.761241
Si Si2 0.050514 0.848342 0.625587
Si Si3 0.250000 0.000000 0.823755
Si Si4 0.674090 0.750244 0.490515
Si Si5 0.589019 0.346962 0.109853
O O1 0.750000 0.500000 0.750017
O O2 0.500000 0.457621 0.750000
O O3 0.642009 0.220951 0.825011
O O4 0.640912 0.085878 0.716706
O O5 0.103138 0.826876 0.564169
O O6 0.938715 0.647034 0.628824
O O7 0.012266 0.151899 0.633052
O O8 0.288560 0.751248 0.862842
O O9 0.750000 0.500000 0.472679
O O10 0.591122 0.668762 0.542341
O O11 0.750000 0.000000 0.510838
#
# Coordination Sequence:
#
# PCOD8224187 Si02
#       5
#     8   8   4   8   8
#     4  12  28  50  80 116 163 214 271 336 399 483
#     4  12  27  48  77 115 153 208 262 335 405 470
#     4  12  28  46  80 108 158 214 272 322 408 482
#     4  12  25  45  77 113 156 203 258 331 405 482
#     4  12  26  49  76 110 158 205 267 325 405 489
#
# _framework density 26.400198
#
# number of rings (size 3 to 8) (size 9 to 14) (size 15 to 20)
#    0.000    0.000    3.333    6.000    4.667    0.889 
#    0.000    0.000    0.000    0.000    0.000    0.000 
#    0.000    0.000    0.000    0.000    0.000    0.000 
#
# Total GULP energy -446367.202051 kJ/mol
# GULP energy per Si atom -12399.088946 kJ/mol
# Density = 2.634011 g / cm^3
# Si number density = 26.400198 Si / 1000 Ang^3
#
#
#
# Elastic Constant Matrix: (Units=GPa)
#
#
# Indices 1 2 3 4 5 6 
#
# 1 109.8098 12.0456 13.2978 0.0000 0.0000 0.0000
# 2 12.0456 52.1164 -17.5501 0.0000 0.0000 0.0000
# 3 13.2978 -17.5501 172.1613 0.0000 0.0000 0.0000
# 4 0.0000 0.0000 0.0000 33.5375 0.0000 0.0000
# 5 0.0000 0.0000 0.0000 0.0000 41.1700 0.0000
# 6 0.0000 0.0000 0.0000 0.0000 0.0000 35.3092
#
#
#
# Elastic Compliance Matrix: (Units=1/GPa)
#
#
# Indices 1 2 3 4 5 6 
#
# 1 0.009504 -0.002531 -0.000992 0.000000 0.000000 0.000000
# 2 -0.002531 0.020544 0.002290 0.000000 0.000000 0.000000
# 3 -0.000992 0.002290 0.006119 0.000000 0.000000 0.000000
# 4 0.000000 0.000000 0.000000 0.029817 0.000000 0.000000
# 5 0.000000 0.000000 0.000000 0.000000 0.024290 0.000000
# 6 0.000000 0.000000 0.000000 0.000000 0.000000 0.028321
#
#
# Mechanical properties :
#
#
# Convention : Reuss Voigt Hill
#
# Bulk Modulus (GPa) = 29.67328 38.85266 34.26297
# Shear Modulus (GPa) = 37.79435 43.75628 40.77531
#
# Velocity S-wave (km/s) = 3.78775 4.07556 3.93429
# Velocity P-wave (km/s) = 5.51303 6.07418 5.80040
#
# Compressibility (1/GPa) = 0.03370035
#
# Stress axis : x y z
#
# Youngs Moduli (GPa) = 105.21422 48.67640 163.43738
#
# Poissons Ratio (x) = 0.12319 0.16215
# Poissons Ratio (y) = 0.26628 -0.37423
# Poissons Ratio (z) = 0.10438 -0.11146
#
# Static dielectric constant tensor:
#      x y z
#    x 4.619870 0.000000 0.000000 
#    y 0.000000 4.726100 0.000000 
#    z 0.000000 0.000000 5.039160 
# 
# 
# High freq. dielectric constant tensor:
#      x y z
#    x 2.049740 0.000000 0.000000 
#    y 0.000000 2.056590 0.000000 
#    z 0.000000 0.000000 2.094090 
# 
# From -- ./inp_files/23818.got.cif
#   From: 2010.03.12/outbox.cif.g09.slc.cpg/sg54_12_cif.got.tgz:23818.got - 2010.04.16 15:00:50.
