data_PCOD8224536
_publ_section_title
;
Structure prediction by ZEFSAII (Michael W. Deem and Ramdas Pophale) SiO2 
 PCOD8224536
Probable space group: P B A M
;
_chemical_formula_sum "Si O2"
_cell_formula_units_Z 40
_cell_length_a 25.852386
_cell_length_b 9.714262
_cell_length_c 8.812886
_cell_angle_alpha 90.000000
_cell_angle_beta 90.000000
_cell_angle_gamma 90.000000
_cell_volume 2213.240438
_symmetry_space_group_name_H-M "P B A M"
_symmetry_group_IT_number 55
_symmetry_cell_setting 'orthorhombic'
loop_
_space_group_symop_operation_xyz
x,y,z
-x,-y,z
1/2+x,1/2-y,-z
1/2-x,1/2+y,-z
-x,-y,-z
x,y,-z
1/2-x,1/2+y,z
1/2+x,1/2-y,z
loop_
_atom_site_type_symbol
_atom_site_label
_atom_site_fract_x
_atom_site_fract_y
_atom_site_fract_z
Si Si1 0.139837 0.201028 0.820944
Si Si2 0.137524 0.776452 0.677509
Si Si3 0.164230 0.480258 0.679629
Si Si4 0.283287 0.499987 0.320748
Si Si5 0.558779 0.497616 0.678351
O O1 0.135350 0.357654 0.764994
O O2 0.192391 0.135878 0.754412
O O3 0.088912 0.122185 0.764467
O O4 0.141857 0.195470 0.000000
O O5 0.146330 0.762492 0.500000
O O6 0.138262 0.621604 0.742447
O O7 0.185451 0.866848 0.740640
O O8 0.083843 0.853377 0.716642
O O9 0.157593 0.460447 0.500000
O O10 0.224221 0.484067 0.727027
O O11 0.289893 0.518957 0.500000
O O12 0.500000 0.500000 0.735878
O O13 0.562570 0.466428 0.500000
#
# Coordination Sequence:
#
# PCOD8224536 Si02
#       5
#     8   8   8   8   8
#     4  11  22  33  48  75 109 138 165 201 251 311
#     4   8  15  28  49  76  97 119 163 214 253 290
#     4  10  18  31  52  75 102 134 168 207 245 289
#     4   9  17  32  53  74  98 134 176 209 242 290
#     4   9  18  36  59  76  93 125 173 223 263 303
#
# _framework density 18.073046000000001
#
# number of rings (size 3 to 8) (size 9 to 14) (size 15 to 20)
#    0.000    2.600    0.000    4.200    0.000    4.400 
#    0.000    5.000    0.000    6.000    0.000    0.000 
#    0.000    0.000    0.000    0.000    0.000    0.000 
#
# Total GULP energy -495937.692268 kJ/mol
# GULP energy per Si atom -12398.442307 kJ/mol
# Density = 1.803191 g / cm^3
# Si number density = 18.073046 Si / 1000 Ang^3
#
#
#
# Elastic Constant Matrix: (Units=GPa)
#
#
# Indices 1 2 3 4 5 6 
#
# 1 106.5259 55.3686 37.8592 0.0000 0.0000 0.0000
# 2 55.3686 160.3963 40.8643 0.0000 0.0000 0.0000
# 3 37.8592 40.8643 52.8262 0.0000 0.0000 0.0000
# 4 0.0000 0.0000 0.0000 6.5967 0.0000 0.0000
# 5 0.0000 0.0000 0.0000 0.0000 9.6988 0.0000
# 6 0.0000 0.0000 0.0000 0.0000 0.0000 12.9009
#
#
#
# Elastic Compliance Matrix: (Units=1/GPa)
#
#
# Indices 1 2 3 4 5 6 
#
# 1 0.013493 -0.002733 -0.007556 0.000000 0.000000 0.000000
# 2 -0.002733 0.008318 -0.004476 0.000000 0.000000 0.000000
# 3 -0.007556 -0.004476 0.027808 0.000000 0.000000 0.000000
# 4 0.000000 0.000000 0.000000 0.151591 0.000000 0.000000
# 5 0.000000 0.000000 0.000000 0.000000 0.103106 0.000000
# 6 0.000000 0.000000 0.000000 0.000000 0.000000 0.077514
#
#
# Mechanical properties :
#
#
# Convention : Reuss Voigt Hill
#
# Bulk Modulus (GPa) = 49.77844 65.32586 57.55215
# Shear Modulus (GPa) = 11.96010 18.21637 15.08823
#
# Velocity S-wave (km/s) = 2.57527 3.17824 2.89251
# Velocity P-wave (km/s) = 6.03700 7.04927 6.56268
#
# Compressibility (1/GPa) = 0.02008902
#
# Stress axis : x y z
#
# Youngs Moduli (GPa) = 74.11081 120.21677 35.96071
#
# Poissons Ratio (x) = 0.32852 0.27173
# Poissons Ratio (y) = 0.20252 0.16097
# Poissons Ratio (z) = 0.56001 0.53812
#
# Static dielectric constant tensor:
#      x y z
#    x 3.303310 0.000000 0.000000 
#    y 0.000000 3.636590 0.000000 
#    z 0.000000 0.000000 2.984800 
# 
# 
# High freq. dielectric constant tensor:
#      x y z
#    x 1.685390 0.000000 0.000000 
#    y 0.000000 1.710440 0.000000 
#    z 0.000000 0.000000 1.667020 
# 
# From -- ./inp_files/2302.got.cif
#   From: 2010.03.12/outbox.cif.g09.slc.cpg/sg55_2_cif.got.tgz:2302.got - 2010.04.16 15:19:21.
