data_PCOD8224139
_publ_section_title
;
Structure prediction by ZEFSAII (Michael W. Deem and Ramdas Pophale) SiO2 
 PCOD8224139
Probable space group: P C C A
;
_chemical_formula_sum "Si O2"
_cell_formula_units_Z 32
_cell_length_a 13.546212
_cell_length_b 10.361853
_cell_length_c 8.894449
_cell_angle_alpha 90.000000
_cell_angle_beta 90.000000
_cell_angle_gamma 90.000000
_cell_volume 1248.459172
_symmetry_space_group_name_H-M "P C C A"
_symmetry_group_IT_number 54
_symmetry_cell_setting 'orthorhombic'
loop_
_space_group_symop_operation_xyz
x,y,z
1/2-x,-y,z
1/2+x,-y,1/2-z
-x,y,1/2-z
-x,-y,-z
1/2+x,y,-z
1/2-x,y,1/2+z
x,-y,1/2+z
loop_
_atom_site_type_symbol
_atom_site_label
_atom_site_fract_x
_atom_site_fract_y
_atom_site_fract_z
Si Si1 0.659923 0.768267 0.236004
Si Si2 0.434586 0.128833 0.507046
Si Si3 0.500000 0.318368 0.250000
Si Si4 0.682508 0.623385 0.928686
Si Si5 0.750000 0.000000 0.088174
O O1 0.560685 0.783207 0.340564
O O2 0.753693 0.720923 0.331003
O O3 0.677159 0.914822 0.187408
O O4 0.643977 0.681380 0.086882
O O5 0.453470 0.222830 0.370202
O O6 0.500000 0.000000 0.500000
O O7 0.319129 0.091436 0.510794
O O8 0.415626 0.408054 0.172014
O O9 0.750000 0.500000 0.963334
#
# Coordination Sequence:
#
# PCOD8224139 Si02
#       5
#     8   8   4   8   4
#     4  12  25  49  76 117 167 210 266 342 420 488
#     4  12  26  45  78 126 166 214 261 328 427 517
#     4  12  26  52  78 122 164 214 284 336 414 498
#     4  12  27  52  83 115 164 222 286 344 408 485
#     4  12  22  44  76 118 168 208 256 338 420 500
#
# _framework density 25.631594
#
# number of rings (size 3 to 8) (size 9 to 14) (size 15 to 20)
#    0.000    0.000    5.000    4.500    0.000    3.000 
#    0.000   15.000    0.000    0.000    0.000    0.000 
#    0.000    0.000    0.000    0.000    0.000    0.000 
#
# Total GULP energy -396480.403829 kJ/mol
# GULP energy per Si atom -12390.012620 kJ/mol
# Density = 2.557326 g / cm^3
# Si number density = 25.631594 Si / 1000 Ang^3
#
#
#
# Elastic Constant Matrix: (Units=GPa)
#
#
# Indices 1 2 3 4 5 6 
#
# 1 100.7383 25.6726 77.0989 0.0000 0.0000 0.0000
# 2 25.6726 93.5317 54.7140 0.0000 0.0000 0.0000
# 3 77.0989 54.7140 194.3559 0.0000 0.0000 0.0000
# 4 0.0000 0.0000 0.0000 68.2662 0.0000 0.0000
# 5 0.0000 0.0000 0.0000 0.0000 14.2035 0.0000
# 6 0.0000 0.0000 0.0000 0.0000 0.0000 46.5141
#
#
#
# Elastic Compliance Matrix: (Units=1/GPa)
#
#
# Indices 1 2 3 4 5 6 
#
# 1 0.014295 -0.000726 -0.005466 0.000000 0.000000 0.000000
# 2 -0.000726 0.012836 -0.003326 0.000000 0.000000 0.000000
# 3 -0.005466 -0.003326 0.008250 0.000000 0.000000 0.000000
# 4 0.000000 0.000000 0.000000 0.014649 0.000000 0.000000
# 5 0.000000 0.000000 0.000000 0.000000 0.070405 0.000000
# 6 0.000000 0.000000 0.000000 0.000000 0.000000 0.021499
#
#
# Mechanical properties :
#
#
# Convention : Reuss Voigt Hill
#
# Bulk Modulus (GPa) = 61.17931 78.17744 69.67837
# Shear Modulus (GPa) = 30.04474 41.20614 35.62544
#
# Velocity S-wave (km/s) = 3.42742 4.01388 3.73219
# Velocity P-wave (km/s) = 6.29154 7.21445 6.76874
#
# Compressibility (1/GPa) = 0.01634540
#
# Stress axis : x y z
#
# Youngs Moduli (GPa) = 69.95245 77.90449 121.21396
#
# Poissons Ratio (x) = 0.05656 0.66261
# Poissons Ratio (y) = 0.05079 0.40311
# Poissons Ratio (z) = 0.38239 0.25908
#
# Static dielectric constant tensor:
#      x y z
#    x 4.826220 0.000000 0.000000 
#    y 0.000000 4.439950 0.000000 
#    z 0.000000 0.000000 5.141420 
# 
# 
# High freq. dielectric constant tensor:
#      x y z
#    x 2.035130 0.000000 0.000000 
#    y 0.000000 2.006770 0.000000 
#    z 0.000000 0.000000 2.057710 
# 
# From -- ./inp_files/3291.got.cif
#   From: 2010.03.12/outbox.cif.g09.slc.cpg/sg54_2_cif.got.tgz:3291.got - 2010.04.16 15:00:50.
