data_PCOD8224160
_publ_section_title
;
Structure prediction by ZEFSAII (Michael W. Deem and Ramdas Pophale) SiO2 
 PCOD8224160
Probable space group: P C C A
;
_chemical_formula_sum "Si O2"
_cell_formula_units_Z 32
_cell_length_a 32.498824
_cell_length_b 4.830889
_cell_length_c 8.450312
_cell_angle_alpha 90.000000
_cell_angle_beta 90.000000
_cell_angle_gamma 90.000000
_cell_volume 1326.683870
_symmetry_space_group_name_H-M "P C C A"
_symmetry_group_IT_number 54
_symmetry_cell_setting 'orthorhombic'
loop_
_space_group_symop_operation_xyz
x,y,z
1/2-x,-y,z
1/2+x,-y,1/2-z
-x,y,1/2-z
-x,-y,-z
1/2+x,y,-z
1/2-x,y,1/2+z
x,-y,1/2+z
loop_
_atom_site_type_symbol
_atom_site_label
_atom_site_fract_x
_atom_site_fract_y
_atom_site_fract_z
Si Si1 0.079835 0.871839 0.041641
Si Si2 0.704598 0.381591 0.725921
Si Si3 0.452354 0.360571 0.717853
Si Si4 0.326177 0.135864 0.096339
O O1 0.067650 0.652561 0.175667
O O2 0.127624 0.947933 0.052657
O O3 0.053495 0.150302 0.071073
O O4 0.071041 0.761627 0.867835
O O5 0.750000 0.500000 0.743983
O O6 0.697163 0.269371 0.551462
O O7 0.673521 0.635543 0.763331
O O8 0.698265 0.137612 0.852840
O O9 0.500000 0.408291 0.750000
#
# Coordination Sequence:
#
# PCOD8224160 Si02
#       4
#     8   8   8   8
#     4  12  24  43  70 101 138 183 230 283 341 406
#     4  12  27  47  72 102 138 179 227 286 346 411
#     4  12  25  44  68 102 141 184 231 284 342 406
#     4  12  25  46  71 103 137 180 230 283 342 409
#
# _framework density 24.120289
#
# number of rings (size 3 to 8) (size 9 to 14) (size 15 to 20)
#    0.000    0.000    0.000   11.250    0.000    2.000 
#    0.000    1.250    0.000    0.000    0.000    0.000 
#    0.000    0.000    0.000    0.000    0.000    0.000 
#
# Total GULP energy -397127.896977 kJ/mol
# GULP energy per Si atom -12410.246781 kJ/mol
# Density = 2.406539 g / cm^3
# Si number density = 24.120289 Si / 1000 Ang^3
#
#
#
# Elastic Constant Matrix: (Units=GPa)
#
#
# Indices 1 2 3 4 5 6 
#
# 1 121.9134 60.0454 36.9795 0.0000 0.0000 0.0000
# 2 60.0454 112.0723 9.4817 0.0000 0.0000 0.0000
# 3 36.9795 9.4817 63.4405 0.0000 0.0000 0.0000
# 4 0.0000 0.0000 0.0000 41.8699 0.0000 0.0000
# 5 0.0000 0.0000 0.0000 0.0000 39.6463 0.0000
# 6 0.0000 0.0000 0.0000 0.0000 0.0000 20.6217
#
#
#
# Elastic Compliance Matrix: (Units=1/GPa)
#
#
# Indices 1 2 3 4 5 6 
#
# 1 0.013606 -0.006703 -0.006929 0.000000 0.000000 0.000000
# 2 -0.006703 0.012340 0.002063 0.000000 0.000000 0.000000
# 3 -0.006929 0.002063 0.019493 0.000000 0.000000 0.000000
# 4 0.000000 0.000000 0.000000 0.023883 0.000000 0.000000
# 5 0.000000 0.000000 0.000000 0.000000 0.025223 0.000000
# 6 0.000000 0.000000 0.000000 0.000000 0.000000 0.048493
#
#
# Mechanical properties :
#
#
# Convention : Reuss Voigt Hill
#
# Bulk Modulus (GPa) = 44.84213 56.71548 50.77880
# Shear Modulus (GPa) = 28.80013 33.15555 30.97784
#
# Velocity S-wave (km/s) = 3.45921 3.71157 3.58761
# Velocity P-wave (km/s) = 5.88101 6.47552 6.18541
#
# Compressibility (1/GPa) = 0.02230046
#
# Stress axis : x y z
#
# Youngs Moduli (GPa) = 73.49742 81.03858 51.29954
#
# Poissons Ratio (x) = 0.54324 0.35545
# Poissons Ratio (y) = 0.49269 -0.10584
# Poissons Ratio (z) = 0.50926 -0.16720
#
# Static dielectric constant tensor:
#      x y z
#    x 4.353020 0.000000 0.000000 
#    y 0.000000 4.796440 0.000000 
#    z 0.000000 0.000000 4.626720 
# 
# 
# High freq. dielectric constant tensor:
#      x y z
#    x 1.963660 0.000000 0.000000 
#    y 0.000000 1.980410 0.000000 
#    z 0.000000 0.000000 1.970160 
# 
# From -- ./inp_files/5655.got.cif
#   From: 2010.03.12/outbox.cif.g09.slc.cpg/sg54_3_cif.got.tgz:5655.got - 2010.04.16 15:00:50.
