data_PCOD8224857
_publ_section_title
;
Structure prediction by ZEFSAII (Michael W. Deem and Ramdas Pophale) SiO2 
 PCOD8224857
Probable space group: P B A M
;
_chemical_formula_sum "Si O2"
_cell_formula_units_Z 64
_cell_length_a 11.521986
_cell_length_b 33.457786
_cell_length_c 9.030380
_cell_angle_alpha 90.000000
_cell_angle_beta 90.000000
_cell_angle_gamma 90.000000
_cell_volume 3481.212771
_symmetry_space_group_name_H-M "P B A M"
_symmetry_group_IT_number 55
_symmetry_cell_setting 'orthorhombic'
loop_
_space_group_symop_operation_xyz
x,y,z
-x,-y,z
1/2+x,1/2-y,-z
1/2-x,1/2+y,-z
-x,-y,-z
x,y,-z
1/2-x,1/2+y,z
1/2+x,1/2-y,z
loop_
_atom_site_type_symbol
_atom_site_label
_atom_site_fract_x
_atom_site_fract_y
_atom_site_fract_z
Si Si1 0.677650 0.831605 0.823983
Si Si2 0.308000 0.591041 0.827809
Si Si3 0.836128 0.470554 0.674983
Si Si4 0.462397 0.362220 0.826751
Si Si5 0.069847 0.303418 0.176775
Si Si6 0.085611 0.444435 0.324518
Si Si7 0.722450 0.132652 0.323848
Si Si8 0.396745 0.713910 0.175599
O O1 0.718961 0.875025 0.769311
O O2 0.550059 0.822146 0.762626
O O3 0.769504 0.798683 0.764384
O O4 0.677154 0.830067 0.000000
O O5 0.277612 0.550012 0.744375
O O6 0.439298 0.604554 0.794995
O O7 0.289760 0.583691 0.000000
O O8 0.825742 0.468071 0.500000
O O9 0.841918 0.516628 0.728677
O O10 0.952787 0.447807 0.731241
O O11 0.353349 0.374410 0.728266
O O12 0.507454 0.318569 0.773951
O O13 0.429178 0.361537 0.000000
O O14 0.175807 0.326796 0.250642
O O15 0.072628 0.257824 0.234603
O O16 0.081552 0.305888 0.000000
O O17 0.085803 0.444011 0.500000
O O18 0.145352 0.404342 0.262898
O O19 0.717762 0.136032 0.500000
O O20 0.393933 0.713586 0.000000
#
# Coordination Sequence:
#
# PCOD8224857 Si02
#       8
#     8   8   8   8   8   8   8   8
#     4   8  15  28  46  73 101 123 155 201 247 290
#     4   9  17  31  50  74 104 129 158 208 261 295
#     4   9  16  31  56  77  96 129 173 209 243 300
#     4   9  19  36  54  72  99 137 174 208 245 296
#     4  10  19  30  52  77  96 125 165 206 244 293
#     4   8  17  33  51  74 103 134 167 206 249 298
#     4  11  22  35  50  72 104 135 163 204 256 302
#     4   8  16  30  51  75  96 124 167 210 240 281
#
# _framework density 18.384397
#
# number of rings (size 3 to 8) (size 9 to 14) (size 15 to 20)
#    0.000    3.000    0.000    3.375    1.750    0.500 
#    0.000    4.375    0.000    5.250    0.000    0.000 
#    0.000    0.000    0.000    0.000    0.000    0.000 
#
# Total GULP energy -793347.356527 kJ/mol
# GULP energy per Si atom -12396.052446 kJ/mol
# Density = 1.834255 g / cm^3
# Si number density = 18.384397 Si / 1000 Ang^3
#
#
#
# Elastic Constant Matrix: (Units=GPa)
#
#
# Indices 1 2 3 4 5 6 
#
# 1 81.2677 32.3252 22.3388 0.0000 0.0000 0.0000
# 2 32.3252 93.3916 22.9865 0.0000 0.0000 0.0000
# 3 22.3388 22.9865 30.2043 0.0000 0.0000 0.0000
# 4 0.0000 0.0000 0.0000 17.4893 0.0000 0.0000
# 5 0.0000 0.0000 0.0000 0.0000 22.7243 0.0000
# 6 0.0000 0.0000 0.0000 0.0000 0.0000 25.8479
#
#
#
# Elastic Compliance Matrix: (Units=1/GPa)
#
#
# Indices 1 2 3 4 5 6 
#
# 1 0.016220 -0.003275 -0.009504 0.000000 0.000000 0.000000
# 2 -0.003275 0.013837 -0.008108 0.000000 0.000000 0.000000
# 3 -0.009504 -0.008108 0.046307 0.000000 0.000000 0.000000
# 4 0.000000 0.000000 0.000000 0.057178 0.000000 0.000000
# 5 0.000000 0.000000 0.000000 0.000000 0.044006 0.000000
# 6 0.000000 0.000000 0.000000 0.000000 0.000000 0.038688
#
#
# Mechanical properties :
#
#
# Convention : Reuss Voigt Hill
#
# Bulk Modulus (GPa) = 28.90980 40.01830 34.46405
# Shear Modulus (GPa) = 18.55013 21.69316 20.12165
#
# Velocity S-wave (km/s) = 3.17995 3.43881 3.31191
# Velocity P-wave (km/s) = 5.40759 6.13041 5.78031
#
# Compressibility (1/GPa) = 0.03459034
#
# Stress axis : x y z
#
# Youngs Moduli (GPa) = 61.65201 72.27089 21.59485
#
# Poissons Ratio (x) = 0.23669 0.20523
# Poissons Ratio (y) = 0.20191 0.17509
# Poissons Ratio (z) = 0.58593 0.58598
#
# Static dielectric constant tensor:
#      x y z
#    x 3.478410 0.000000 0.000000 
#    y 0.000000 3.628630 0.000000 
#    z 0.000000 0.000000 2.883620 
# 
# 
# High freq. dielectric constant tensor:
#      x y z
#    x 1.713000 0.000000 0.000000 
#    y 0.000000 1.717460 0.000000 
#    z 0.000000 0.000000 1.668130 
# 
# From -- ./inp_files/4607.got.cif
#   From: 2010.03.12/outbox.cif.g09.slc.cpg/sg55_3_cif.got.tgz:4607.got - 2010.04.16 15:19:21.
