data_PCOD8224263
_publ_section_title
;
Structure prediction by ZEFSAII (Michael W. Deem and Ramdas Pophale) SiO2 
 PCOD8224263
Probable space group: P B A M
;
_chemical_formula_sum "Si O2"
_cell_formula_units_Z 56
_cell_length_a 13.767812
_cell_length_b 29.235639
_cell_length_c 9.091905
_cell_angle_alpha 90.000000
_cell_angle_beta 90.000000
_cell_angle_gamma 90.000000
_cell_volume 3659.589786
_symmetry_space_group_name_H-M "P B A M"
_symmetry_group_IT_number 55
_symmetry_cell_setting 'orthorhombic'
loop_
_space_group_symop_operation_xyz
x,y,z
-x,-y,z
1/2+x,1/2-y,-z
1/2-x,1/2+y,-z
-x,-y,-z
x,y,-z
1/2-x,1/2+y,z
1/2+x,1/2-y,z
loop_
_atom_site_type_symbol
_atom_site_label
_atom_site_fract_x
_atom_site_fract_y
_atom_site_fract_z
Si Si1 0.209973 0.180553 0.172353
Si Si2 0.615428 0.496492 0.662235
Si Si3 0.099567 0.904528 0.671712
Si Si4 0.604004 0.407742 0.825537
Si Si5 0.711239 0.686219 0.672409
Si Si6 0.886081 0.726953 0.173292
Si Si7 0.894697 0.267064 0.172648
O O1 0.174348 0.132276 0.238260
O O2 0.142185 0.222138 0.228144
O O3 0.321804 0.191455 0.215080
O O4 0.197747 0.176764 0.000000
O O5 0.500000 0.500000 0.659357
O O6 0.655631 0.484523 0.500000
O O7 0.651761 0.546980 0.712882
O O8 0.648087 0.456233 0.771850
O O9 0.069590 0.904879 0.500000
O O10 0.175329 0.864752 0.708231
O O11 0.002830 0.897355 0.765774
O O12 0.599552 0.408810 0.000000
O O13 0.717995 0.695728 0.500000
O O14 0.817928 0.690761 0.743442
O O15 0.634563 0.721462 0.741403
O O16 0.997372 0.717395 0.217061
O O17 0.867909 0.721541 0.000000
O O18 0.887933 0.255438 0.000000
#
# Coordination Sequence:
#
# PCOD8224263 Si02
#       7
#     8   8   8   8   8   8   8
#     4   8  15  26  40  61  85 107 133 165 204 243
#     4   8  15  28  41  54  79 112 139 163 201 253
#     4   9  18  30  41  56  83 116 140 162 203 253
#     4  10  17  25  41  64  86 107 136 174 206 237
#     4  10  19  29  43  64  87 110 139 175 211 245
#     4   9  17  30  46  61  81 112 144 171 202 244
#     4   9  17  31  47  61  83 115 145 170 202 249
#
# _framework density 15.302262000000001
#
# number of rings (size 3 to 8) (size 9 to 14) (size 15 to 20)
#    0.000    3.000    0.000    3.429    0.000    5.429 
#    0.000    7.143    0.000    0.000    0.000    1.000 
#    0.000    8.000    0.000    0.000    0.000    0.000 
#
# Total GULP energy -694059.157705 kJ/mol
# GULP energy per Si atom -12393.913530 kJ/mol
# Density = 1.526743 g / cm^3
# Si number density = 15.302262 Si / 1000 Ang^3
#
#
#
# Elastic Constant Matrix: (Units=GPa)
#
#
# Indices 1 2 3 4 5 6 
#
# 1 103.8302 64.1462 39.1083 0.0000 0.0000 0.0000
# 2 64.1462 141.1372 47.3474 0.0000 0.0000 0.0000
# 3 39.1083 47.3474 55.3853 0.0000 0.0000 0.0000
# 4 0.0000 0.0000 0.0000 23.9822 0.0000 0.0000
# 5 0.0000 0.0000 0.0000 0.0000 12.9454 0.0000
# 6 0.0000 0.0000 0.0000 0.0000 0.0000 23.0417
#
#
#
# Elastic Compliance Matrix: (Units=1/GPa)
#
#
# Indices 1 2 3 4 5 6 
#
# 1 0.014960 -0.004565 -0.006661 0.000000 0.000000 0.000000
# 2 -0.004565 0.011327 -0.006460 0.000000 0.000000 0.000000
# 3 -0.006661 -0.006460 0.028282 0.000000 0.000000 0.000000
# 4 0.000000 0.000000 0.000000 0.041698 0.000000 0.000000
# 5 0.000000 0.000000 0.000000 0.000000 0.077247 0.000000
# 6 0.000000 0.000000 0.000000 0.000000 0.000000 0.043400
#
#
# Mechanical properties :
#
#
# Convention : Reuss Voigt Hill
#
# Bulk Modulus (GPa) = 52.09248 66.83962 59.46605
# Shear Modulus (GPa) = 19.32856 21.97725 20.65291
#
# Velocity S-wave (km/s) = 3.55789 3.79385 3.67776
# Velocity P-wave (km/s) = 7.14104 7.93508 7.54850
#
# Compressibility (1/GPa) = 0.01919663
#
# Stress axis : x y z
#
# Youngs Moduli (GPa) = 66.84407 88.28413 35.35872
#
# Poissons Ratio (x) = 0.40298 0.23554
# Poissons Ratio (y) = 0.30512 0.22842
# Poissons Ratio (z) = 0.44528 0.57032
#
# Static dielectric constant tensor:
#      x y z
#    x 2.832070 0.000000 0.000000 
#    y 0.000000 3.305800 0.000000 
#    z 0.000000 0.000000 2.857900 
# 
# 
# High freq. dielectric constant tensor:
#      x y z
#    x 1.556950 0.000000 0.000000 
#    y 0.000000 1.586510 0.000000 
#    z 0.000000 0.000000 1.579890 
# 
# From -- ./inp_files/6846.got.cif
#   From: 2010.03.12/outbox.cif.g09.slc.cpg/sg55_4_cif.got.tgz:6846.got - 2010.04.16 15:19:21.
