data_PCOD8224006
_publ_section_title
;
Structure prediction by ZEFSAII (Michael W. Deem and Ramdas Pophale) SiO2 
 PCOD8224006
Probable space group: P C C A
;
_chemical_formula_sum "Si O2"
_cell_formula_units_Z 36
_cell_length_a 5.454911
_cell_length_b 15.600580
_cell_length_c 19.027892
_cell_angle_alpha 90.000000
_cell_angle_beta 90.000000
_cell_angle_gamma 90.000000
_cell_volume 1619.269336
_symmetry_space_group_name_H-M "P C C A"
_symmetry_group_IT_number 54
_symmetry_cell_setting 'orthorhombic'
loop_
_space_group_symop_operation_xyz
x,y,z
1/2-x,-y,z
1/2+x,-y,1/2-z
-x,y,1/2-z
-x,-y,-z
1/2+x,y,-z
1/2-x,y,1/2+z
x,-y,1/2+z
loop_
_atom_site_type_symbol
_atom_site_label
_atom_site_fract_x
_atom_site_fract_y
_atom_site_fract_z
Si Si1 0.070099 0.263745 0.331961
Si Si2 0.249649 0.906648 0.794482
Si Si3 0.396138 0.416413 0.321679
Si Si4 0.641372 0.679704 0.464623
Si Si5 0.750000 0.500000 0.429421
O O1 0.217251 0.174437 0.346459
O O2 0.233799 0.343546 0.356956
O O3 0.000000 0.272680 0.250000
O O4 0.843549 0.277787 0.385679
O O5 0.500000 0.893972 0.750000
O O6 0.000000 0.905084 0.750000
O O7 0.250000 0.000000 0.833057
O O8 0.250000 0.500000 0.297467
O O9 0.500000 0.376160 0.250000
O O10 0.587765 0.439230 0.380718
O O11 0.390035 0.714482 0.499743
O O12 0.607131 0.574220 0.472404
#
# Coordination Sequence:
#
# PCOD8224006 Si02
#       5
#     8   8   8   8   4
#     4  11  23  42  67  93 124 168 216 262 319 382
#     4   9  19  37  64  98 129 157 202 265 323 376
#     4  12  21  35  55  91 128 161 210 264 319 366
#     4  12  27  44  62  89 128 171 218 268 318 374
#     4  12  24  40  58  80 122 178 228 258 310 376
#
# _framework density 22.232247999999998
#
# number of rings (size 3 to 8) (size 9 to 14) (size 15 to 20)
#    0.000    0.889    3.333    4.667    0.000    5.333 
#    0.000    0.000    0.000    1.333    0.000    0.000 
#    0.000    0.000    0.000    0.000    0.000    0.000 
#
# Total GULP energy -445999.892999 kJ/mol
# GULP energy per Si atom -12388.885917 kJ/mol
# Density = 2.218165 g / cm^3
# Si number density = 22.232248 Si / 1000 Ang^3
#
#
#
# Elastic Constant Matrix: (Units=GPa)
#
#
# Indices 1 2 3 4 5 6 
#
# 1 129.4723 27.3632 34.1728 0.0000 0.0000 0.0000
# 2 27.3632 142.6289 14.1105 0.0000 0.0000 0.0000
# 3 34.1728 14.1105 88.5556 0.0000 0.0000 0.0000
# 4 0.0000 0.0000 0.0000 -33.8993 0.0000 0.0000
# 5 0.0000 0.0000 0.0000 0.0000 -25.0113 0.0000
# 6 0.0000 0.0000 0.0000 0.0000 0.0000 33.5462
#
#
#
# Elastic Compliance Matrix: (Units=1/GPa)
#
#
# Indices 1 2 3 4 5 6 
#
# 1 0.008860 -0.001383 -0.003199 0.000000 0.000000 0.000000
# 2 -0.001383 0.007339 -0.000636 0.000000 0.000000 0.000000
# 3 -0.003199 -0.000636 0.012628 0.000000 0.000000 0.000000
# 4 0.000000 0.000000 0.000000 -0.029499 0.000000 0.000000
# 5 0.000000 0.000000 0.000000 0.000000 -0.039982 0.000000
# 6 0.000000 0.000000 0.000000 0.000000 0.000000 0.029810
#
#
# Mechanical properties :
#
#
# Convention : Reuss Voigt Hill
#
# Bulk Modulus (GPa) = 54.37048 56.88332 55.62690
# Shear Modulus (GPa) = 873.75151 13.92781 443.83966
#
# Velocity S-wave (km/s) = 19.84601 2.50565 14.14465
# Velocity P-wave (km/s) = 23.44485 5.83203 17.08323
#
# Compressibility (1/GPa) = 0.01839233
#
# Stress axis : x y z
#
# Youngs Moduli (GPa) = 112.86318 136.24933 79.18928
#
# Poissons Ratio (x) = 0.18849 0.25330
# Poissons Ratio (y) = 0.15613 0.05034
# Poissons Ratio (z) = 0.36101 0.08661
#
# Static dielectric constant tensor:
#      x y z
#    x 4.293550 0.000000 0.000000 
#    y 0.000000 4.795250 0.000000 
#    z 0.000000 0.000000 3.782170 
# 
# 
# High freq. dielectric constant tensor:
#      x y z
#    x 1.893420 0.000000 0.000000 
#    y 0.000000 1.861570 0.000000 
#    z 0.000000 0.000000 1.850760 
# 
# From -- ./inp_files/19604.got.cif
#   From: 2010.03.12/outbox.cif.g09.slc.cpg/sg54_10_cif.got.tgz:19604.got - 2010.04.16 15:00:50.
