data_PCOD8224496
_publ_section_title
;
Structure prediction by ZEFSAII (Michael W. Deem and Ramdas Pophale) SiO2 
 PCOD8224496
Probable space group: P B A M
;
_chemical_formula_sum "Si O2"
_cell_formula_units_Z 64
_cell_length_a 18.519390
_cell_length_b 20.735089
_cell_length_c 9.085433
_cell_angle_alpha 90.000000
_cell_angle_beta 90.000000
_cell_angle_gamma 90.000000
_cell_volume 3488.817173
_symmetry_space_group_name_H-M "P B A M"
_symmetry_group_IT_number 55
_symmetry_cell_setting 'orthorhombic'
loop_
_space_group_symop_operation_xyz
x,y,z
-x,-y,z
1/2+x,1/2-y,-z
1/2-x,1/2+y,-z
-x,-y,-z
x,y,-z
1/2-x,1/2+y,z
1/2+x,1/2-y,z
loop_
_atom_site_type_symbol
_atom_site_label
_atom_site_fract_x
_atom_site_fract_y
_atom_site_fract_z
Si Si1 0.919134 0.501332 0.325352
Si Si2 0.337518 0.747350 0.165531
Si Si3 0.162921 0.120243 0.326306
Si Si4 0.322213 0.382829 0.827939
Si Si5 0.828854 0.381631 0.327061
Si Si6 0.083826 0.005936 0.830212
Si Si7 0.334097 0.242581 0.837547
Si Si8 0.172026 0.375884 0.325450
O O1 0.920460 0.495682 0.500000
O O2 0.874549 0.440776 0.260098
O O3 0.881410 0.567266 0.276812
O O4 0.000000 0.500000 0.260507
O O5 0.368142 0.684492 0.248845
O O6 0.251893 0.744471 0.162651
O O7 0.360714 0.811307 0.253527
O O8 0.369263 0.749323 0.000000
O O9 0.155366 0.128784 0.500000
O O10 0.245925 0.108587 0.279059
O O11 0.116879 0.059808 0.274132
O O12 0.379703 0.437834 0.791856
O O13 0.359312 0.313949 0.785188
O O14 0.251036 0.394848 0.732322
O O15 0.299949 0.381343 0.000000
O O16 0.836275 0.378822 0.500000
O O17 0.861727 0.314180 0.268121
O O18 0.097101 0.024993 0.000000
O O19 0.000000 0.000000 0.793724
O O20 0.364073 0.227437 0.000000
O O21 0.176165 0.366689 0.500000
#
# Coordination Sequence:
#
# PCOD8224496 Si02
#       8
#     8   8   8   8   8   8   8   8
#     4   9  18  32  48  68  99 135 165 197 242 293
#     4   9  17  31  51  75 102 130 162 202 251 304
#     4  10  19  32  52  78 103 126 162 211 256 299
#     4   9  18  33  52  73  99 131 166 204 250 303
#     4   9  17  30  50  74  96 123 161 202 243 291
#     4  10  21  36  52  71  99 137 175 208 249 304
#     4   8  15  28  47  71  96 122 154 197 245 290
#     4  10  18  30  52  78 100 127 167 211 252 295
#
# _framework density 18.344327
#
# number of rings (size 3 to 8) (size 9 to 14) (size 15 to 20)
#    0.000    2.750    0.000    2.625    0.000    5.250 
#    0.000    2.500    0.000    6.375    0.000    0.000 
#    0.000    0.000    0.000    0.000    0.000    0.000 
#
# Total GULP energy -793490.236873 kJ/mol
# GULP energy per Si atom -12398.284951 kJ/mol
# Density = 1.830257 g / cm^3
# Si number density = 18.344327 Si / 1000 Ang^3
#
#
#
# Elastic Constant Matrix: (Units=GPa)
#
#
# Indices 1 2 3 4 5 6 
#
# 1 76.8768 67.4285 36.5899 0.0000 0.0000 0.0000
# 2 67.4285 184.1695 60.4539 0.0000 0.0000 0.0000
# 3 36.5899 60.4539 69.6269 0.0000 0.0000 0.0000
# 4 0.0000 0.0000 0.0000 33.0152 0.0000 0.0000
# 5 0.0000 0.0000 0.0000 0.0000 13.4454 0.0000
# 6 0.0000 0.0000 0.0000 0.0000 0.0000 2.7608
#
#
#
# Elastic Compliance Matrix: (Units=1/GPa)
#
#
# Indices 1 2 3 4 5 6 
#
# 1 0.020837 -0.005643 -0.006051 0.000000 0.000000 0.000000
# 2 -0.005643 0.009122 -0.004955 0.000000 0.000000 0.000000
# 3 -0.006051 -0.004955 0.021844 0.000000 0.000000 0.000000
# 4 0.000000 0.000000 0.000000 0.030289 0.000000 0.000000
# 5 0.000000 0.000000 0.000000 0.000000 0.074375 0.000000
# 6 0.000000 0.000000 0.000000 0.000000 0.000000 0.362215
#
#
# Mechanical properties :
#
#
# Convention : Reuss Voigt Hill
#
# Bulk Modulus (GPa) = 54.03568 73.29088 63.66328
# Shear Modulus (GPa) = 8.95819 20.92435 14.94127
#
# Velocity S-wave (km/s) = 2.21223 3.38101 2.85702
# Velocity P-wave (km/s) = 6.00380 7.43513 6.75747
#
# Compressibility (1/GPa) = 0.01850629
#
# Stress axis : x y z
#
# Youngs Moduli (GPa) = 47.99177 109.62274 45.77845
#
# Poissons Ratio (x) = 0.61856 0.27700
# Poissons Ratio (y) = 0.27080 0.22684
# Poissons Ratio (z) = 0.29039 0.54319
#
# Static dielectric constant tensor:
#      x y z
#    x 3.120050 0.000000 0.000000 
#    y 0.000000 3.790590 0.000000 
#    z 0.000000 0.000000 3.311290 
# 
# 
# High freq. dielectric constant tensor:
#      x y z
#    x 1.673170 0.000000 0.000000 
#    y 0.000000 1.732410 0.000000 
#    z 0.000000 0.000000 1.700720 
# 
# From -- ./inp_files/8080.got.cif
#   From: 2010.03.12/outbox.cif.g09.slc.cpg/sg55_5_cif.got.tgz:8080.got - 2010.04.16 15:19:21.
