data_PCOD8224663
_publ_section_title
;
Structure prediction by ZEFSAII (Michael W. Deem and Ramdas Pophale) SiO2 
 PCOD8224663
Probable space group: P B A M
;
_chemical_formula_sum "Si O2"
_cell_formula_units_Z 56
_cell_length_a 10.547780
_cell_length_b 19.445299
_cell_length_c 13.682227
_cell_angle_alpha 90.000000
_cell_angle_beta 90.000000
_cell_angle_gamma 90.000000
_cell_volume 2806.289555
_symmetry_space_group_name_H-M "P B A M"
_symmetry_group_IT_number 55
_symmetry_cell_setting 'orthorhombic'
loop_
_space_group_symop_operation_xyz
x,y,z
-x,-y,z
1/2+x,1/2-y,-z
1/2-x,1/2+y,-z
-x,-y,-z
x,y,-z
1/2-x,1/2+y,z
1/2+x,1/2-y,z
loop_
_atom_site_type_symbol
_atom_site_label
_atom_site_fract_x
_atom_site_fract_y
_atom_site_fract_z
Si Si1 0.550183 0.836398 0.106533
Si Si2 0.883166 0.185001 0.891768
Si Si3 0.337717 0.385318 0.384746
Si Si4 0.835644 0.689076 0.252604
Si Si5 0.928210 0.838806 0.267473
Si Si6 0.140833 0.520015 0.109969
Si Si7 0.859565 0.987741 0.746894
O O1 0.629207 0.767073 0.103863
O O2 0.464367 0.837457 0.203625
O O3 0.651757 0.897459 0.115232
O O4 0.477271 0.843668 0.000000
O O5 0.766231 0.162888 0.826305
O O6 0.014835 0.161127 0.842550
O O7 0.876478 0.152561 0.000000
O O8 0.343027 0.386077 0.500000
O O9 0.203966 0.350777 0.351489
O O10 0.455005 0.339333 0.344399
O O11 0.346944 0.464106 0.348161
O O12 0.842815 0.770339 0.279420
O O13 0.843412 0.907417 0.282789
O O14 0.251849 0.488471 0.176578
O O15 0.000000 0.500000 0.148064
O O16 0.160204 0.492033 0.000000
O O17 0.000000 0.000000 0.793088
#
# Coordination Sequence:
#
# PCOD8224663 Si02
#       7
#     8   8   8   8   8   8   8
#     4   9  17  29  49  77 110 149 182 212 263 332
#     4   9  17  29  48  78 114 147 179 218 265 321
#     4  10  22  39  57  78 105 140 185 240 300 348
#     4  10  18  33  55  80 110 143 184 231 279 331
#     4   9  20  34  54  82 108 140 185 232 275 327
#     4  10  20  33  51  78 112 150 186 220 268 329
#     4  10  21  38  58  81 110 149 191 233 280 332
#
# _framework density 19.955176999999999
#
# number of rings (size 3 to 8) (size 9 to 14) (size 15 to 20)
#    0.000    2.429    0.000    2.143    0.000    4.571 
#    0.000    7.143    0.000    3.857    0.000    0.000 
#    0.000    0.000    0.000    0.000    0.000    0.000 
#
# Total GULP energy -693974.865046 kJ/mol
# GULP energy per Si atom -12392.408304 kJ/mol
# Density = 1.990976 g / cm^3
# Si number density = 19.955177 Si / 1000 Ang^3
#
#
#
# Elastic Constant Matrix: (Units=GPa)
#
#
# Indices 1 2 3 4 5 6 
#
# 1 71.0037 6.1461 42.1464 0.0000 0.0000 0.0000
# 2 6.1461 85.6261 30.8871 0.0000 0.0000 0.0000
# 3 42.1464 30.8871 129.0385 0.0000 0.0000 0.0000
# 4 0.0000 0.0000 0.0000 22.4275 0.0000 0.0000
# 5 0.0000 0.0000 0.0000 0.0000 19.5521 0.0000
# 6 0.0000 0.0000 0.0000 0.0000 0.0000 23.8040
#
#
#
# Elastic Compliance Matrix: (Units=1/GPa)
#
#
# Indices 1 2 3 4 5 6 
#
# 1 0.017532 0.000883 -0.005938 0.000000 0.000000 0.000000
# 2 0.000883 0.012827 -0.003359 0.000000 0.000000 0.000000
# 3 -0.005938 -0.003359 0.010493 0.000000 0.000000 0.000000
# 4 0.000000 0.000000 0.000000 0.044588 0.000000 0.000000
# 5 0.000000 0.000000 0.000000 0.000000 0.051146 0.000000
# 6 0.000000 0.000000 0.000000 0.000000 0.000000 0.042010
#
#
# Mechanical properties :
#
#
# Convention : Reuss Voigt Hill
#
# Bulk Modulus (GPa) = 41.62246 49.33639 45.47943
# Shear Modulus (GPa) = 24.57852 26.92262 25.75057
#
# Velocity S-wave (km/s) = 3.51335 3.67707 3.59614
# Velocity P-wave (km/s) = 6.11240 6.54256 6.33113
#
# Compressibility (1/GPa) = 0.02402549
#
# Stress axis : x y z
#
# Youngs Moduli (GPa) = 57.03924 77.96132 95.30192
#
# Poissons Ratio (x) = -0.06887 0.56587
# Poissons Ratio (y) = -0.05039 0.32010
# Poissons Ratio (z) = 0.33868 0.26186
#
# Static dielectric constant tensor:
#      x y z
#    x 3.457050 0.000000 0.000000 
#    y 0.000000 3.838530 0.000000 
#    z 0.000000 0.000000 3.435530 
# 
# 
# High freq. dielectric constant tensor:
#      x y z
#    x 1.759220 0.000000 0.000000 
#    y 0.000000 1.793310 0.000000 
#    z 0.000000 0.000000 1.746570 
# 
# From -- ./inp_files/13389.got.cif
#   From: 2010.03.12/outbox.cif.g09.slc.cpg/sg55_7_cif.got.tgz:13389.got - 2010.04.16 15:19:21.
