data_PCOD8224490
_publ_section_title
;
Structure prediction by ZEFSAII (Michael W. Deem and Ramdas Pophale) SiO2 
 PCOD8224490
Probable space group: P B A M
;
_chemical_formula_sum "Si O2"
_cell_formula_units_Z 64
_cell_length_a 18.477928
_cell_length_b 21.278280
_cell_length_c 9.167168
_cell_angle_alpha 90.000000
_cell_angle_beta 90.000000
_cell_angle_gamma 90.000000
_cell_volume 3604.333600
_symmetry_space_group_name_H-M "P B A M"
_symmetry_group_IT_number 55
_symmetry_cell_setting 'orthorhombic'
loop_
_space_group_symop_operation_xyz
x,y,z
-x,-y,z
1/2+x,1/2-y,-z
1/2-x,1/2+y,-z
-x,-y,-z
x,y,-z
1/2-x,1/2+y,z
1/2+x,1/2-y,z
loop_
_atom_site_type_symbol
_atom_site_label
_atom_site_fract_x
_atom_site_fract_y
_atom_site_fract_z
Si Si1 0.370315 0.237921 0.164541
Si Si2 0.330987 0.583718 0.333658
Si Si3 0.418955 0.481174 0.171312
Si Si4 0.979997 0.430591 0.329071
Si Si5 0.968722 0.685032 0.835753
Si Si6 0.426392 0.699832 0.332763
Si Si7 0.326519 0.123336 0.333303
Si Si8 0.582195 0.646630 0.671289
O O1 0.451216 0.212294 0.169401
O O2 0.318854 0.185229 0.234286
O O3 0.365094 0.301149 0.259334
O O4 0.344995 0.251924 0.000000
O O5 0.352140 0.565198 0.500000
O O6 0.365295 0.536043 0.219772
O O7 0.359094 0.654177 0.300827
O O8 0.244793 0.581432 0.310877
O O9 0.500000 0.500000 0.214575
O O10 0.396374 0.418987 0.256844
O O11 0.410857 0.469390 0.000000
O O12 0.994695 0.423584 0.500000
O O13 0.032705 0.381102 0.249067
O O14 0.895998 0.418364 0.289236
O O15 0.000000 0.500000 0.273171
O O16 0.916550 0.736676 0.761091
O O17 0.941664 0.673662 0.000000
O O18 0.430234 0.721316 0.500000
O O19 0.499026 0.661969 0.290699
O O20 0.333943 0.146147 0.500000
O O21 0.596662 0.643194 0.500000
#
# Coordination Sequence:
#
# PCOD8224490 Si02
#       8
#     8   8   8   8   8   8   8   8
#     4   9  17  30  49  73 100 126 158 203 255 304
#     4  10  20  34  52  73 100 136 177 216 257 309
#     4  11  22  33  48  74 107 140 176 216 260 310
#     4   9  17  31  53  78 102 130 166 210 258 305
#     4   9  17  28  46  73 100 124 155 199 247 297
#     4   9  17  29  47  71  97 127 162 206 252 295
#     4   9  18  33  53  76 101 130 172 215 256 310
#     4  10  18  30  51  74  99 130 170 214 253 295
#
# _framework density 17.756402999999999
#
# number of rings (size 3 to 8) (size 9 to 14) (size 15 to 20)
#    0.000    2.500    1.250    1.500    0.000    5.250 
#    0.000    0.000    2.750    0.000    0.000    0.000 
#    0.000    0.000    0.000    0.000    0.000    0.000 
#
# Total GULP energy -793678.823432 kJ/mol
# GULP energy per Si atom -12401.231616 kJ/mol
# Density = 1.771599 g / cm^3
# Si number density = 17.756403 Si / 1000 Ang^3
#
#
#
# Elastic Constant Matrix: (Units=GPa)
#
#
# Indices 1 2 3 4 5 6 
#
# 1 53.3261 33.1593 25.7780 0.0000 0.0000 0.0000
# 2 33.1593 133.2046 64.3664 0.0000 0.0000 0.0000
# 3 25.7780 64.3664 94.2338 0.0000 0.0000 0.0000
# 4 0.0000 0.0000 0.0000 29.9342 0.0000 0.0000
# 5 0.0000 0.0000 0.0000 0.0000 13.2142 0.0000
# 6 0.0000 0.0000 0.0000 0.0000 0.0000 19.3029
#
#
#
# Elastic Compliance Matrix: (Units=1/GPa)
#
#
# Indices 1 2 3 4 5 6 
#
# 1 0.022955 -0.004000 -0.003547 0.000000 0.000000 0.000000
# 2 -0.004000 0.011903 -0.007036 0.000000 0.000000 0.000000
# 3 -0.003547 -0.007036 0.016388 0.000000 0.000000 0.000000
# 4 0.000000 0.000000 0.000000 0.033407 0.000000 0.000000
# 5 0.000000 0.000000 0.000000 0.000000 0.075676 0.000000
# 6 0.000000 0.000000 0.000000 0.000000 0.000000 0.051806
#
#
# Mechanical properties :
#
#
# Convention : Reuss Voigt Hill
#
# Bulk Modulus (GPa) = 45.29142 58.59688 51.94415
# Shear Modulus (GPa) = 20.10774 22.98765 21.54770
#
# Velocity S-wave (km/s) = 3.36880 3.60198 3.48734
# Velocity P-wave (km/s) = 6.37920 7.09726 6.74779
#
# Compressibility (1/GPa) = 0.02207924
#
# Stress axis : x y z
#
# Youngs Moduli (GPa) = 43.56424 84.01266 61.01977
#
# Poissons Ratio (x) = 0.33607 0.21643
# Poissons Ratio (y) = 0.17427 0.42934
# Poissons Ratio (z) = 0.15452 0.59112
#
# Static dielectric constant tensor:
#      x y z
#    x 2.979750 0.000000 0.000000 
#    y 0.000000 3.298460 0.000000 
#    z 0.000000 0.000000 3.363310 
# 
# 
# High freq. dielectric constant tensor:
#      x y z
#    x 1.646660 0.000000 0.000000 
#    y 0.000000 1.687640 0.000000 
#    z 0.000000 0.000000 1.692400 
# 
# From -- ./inp_files/9173.got.cif
#   From: 2010.03.12/outbox.cif.g09.slc.cpg/sg55_5_cif.got.tgz:9173.got - 2010.04.16 15:19:21.
