data_PCOD8224731
_publ_section_title
;
Structure prediction by ZEFSAII (Michael W. Deem and Ramdas Pophale) SiO2 
 PCOD8224731
Probable space group: P B A M
;
_chemical_formula_sum "Si O2"
_cell_formula_units_Z 48
_cell_length_a 10.021936
_cell_length_b 29.442217
_cell_length_c 8.584113
_cell_angle_alpha 90.000000
_cell_angle_beta 90.000000
_cell_angle_gamma 90.000000
_cell_volume 2532.897179
_symmetry_space_group_name_H-M "P B A M"
_symmetry_group_IT_number 55
_symmetry_cell_setting 'orthorhombic'
loop_
_space_group_symop_operation_xyz
x,y,z
-x,-y,z
1/2+x,1/2-y,-z
1/2-x,1/2+y,-z
-x,-y,-z
x,y,-z
1/2-x,1/2+y,z
1/2+x,1/2-y,z
loop_
_atom_site_type_symbol
_atom_site_label
_atom_site_fract_x
_atom_site_fract_y
_atom_site_fract_z
Si Si1 0.506408 0.716113 0.182937
Si Si2 0.874185 0.471392 0.681149
Si Si3 0.283254 0.118400 0.183452
Si Si4 0.284423 0.214290 0.317391
Si Si5 0.139292 0.974454 0.822771
Si Si6 0.015488 0.884935 0.182873
O O1 0.617969 0.751282 0.231157
O O2 0.367056 0.725327 0.269196
O O3 0.561926 0.665848 0.227608
O O4 0.476901 0.718972 0.000000
O O5 0.884691 0.460068 0.500000
O O6 0.877082 0.423784 0.773457
O O7 0.742441 0.500453 0.712229
O O8 0.000000 0.500000 0.740874
O O9 0.331483 0.163980 0.269094
O O10 0.134573 0.106933 0.245129
O O11 0.286558 0.127785 0.000000
O O12 0.300456 0.220989 0.500000
O O13 0.116676 0.923368 0.752985
O O14 0.194764 0.974040 0.000000
O O15 0.000000 0.000000 0.817499
O O16 0.010638 0.892711 0.000000
#
# Coordination Sequence:
#
# PCOD8224731 Si02
#       6
#     8   8   8   8   8   8
#     4  10  20  38  61  85 116 156 199 237 282 350
#     4  11  24  39  53  79 120 157 188 232 286 341
#     4  10  19  37  62  84 109 150 195 234 282 348
#     4  11  22  38  60  89 120 151 188 242 301 346
#     4  10  18  34  60  86 110 141 187 236 278 331
#     4   8  16  32  57  86 110 137 184 242 281 324
#
# _framework density 18.95063
#
# number of rings (size 3 to 8) (size 9 to 14) (size 15 to 20)
#    0.000    2.000    1.667    4.000    0.000    1.667 
#    3.000    1.667    0.000    0.000    0.000    0.000 
#    0.000    0.000    0.000    0.000    0.000    0.000 
#
# Total GULP energy -595151.877683 kJ/mol
# GULP energy per Si atom -12398.997452 kJ/mol
# Density = 1.890750 g / cm^3
# Si number density = 18.950630 Si / 1000 Ang^3
#
#
#
# Elastic Constant Matrix: (Units=GPa)
#
#
# Indices 1 2 3 4 5 6 
#
# 1 52.0764 41.6593 0.8925 0.0000 0.0000 0.0000
# 2 41.6593 129.1418 0.2682 0.0000 0.0000 0.0000
# 3 0.8925 0.2682 30.2661 0.0000 0.0000 0.0000
# 4 0.0000 0.0000 0.0000 27.0888 0.0000 0.0000
# 5 0.0000 0.0000 0.0000 0.0000 24.7237 0.0000
# 6 0.0000 0.0000 0.0000 0.0000 0.0000 37.2151
#
#
#
# Elastic Compliance Matrix: (Units=1/GPa)
#
#
# Indices 1 2 3 4 5 6 
#
# 1 0.025896 -0.008352 -0.000690 0.000000 0.000000 0.000000
# 2 -0.008352 0.010437 0.000154 0.000000 0.000000 0.000000
# 3 -0.000690 0.000154 0.033059 0.000000 0.000000 0.000000
# 4 0.000000 0.000000 0.000000 0.036916 0.000000 0.000000
# 5 0.000000 0.000000 0.000000 0.000000 0.040447 0.000000
# 6 0.000000 0.000000 0.000000 0.000000 0.000000 0.026871
#
#
# Mechanical properties :
#
#
# Convention : Reuss Voigt Hill
#
# Bulk Modulus (GPa) = 19.37367 33.01380 26.19373
# Shear Modulus (GPa) = 23.96846 29.04980 26.50913
#
# Velocity S-wave (km/s) = 3.56024 3.91950 3.74418
# Velocity P-wave (km/s) = 5.21017 6.15971 5.70473
#
# Compressibility (1/GPa) = 0.05161645
#
# Stress axis : x y z
#
# Youngs Moduli (GPa) = 38.61622 95.80930 30.24876
#
# Poissons Ratio (x) = 0.80022 0.02086
# Poissons Ratio (y) = 0.32253 -0.00465
# Poissons Ratio (z) = 0.02663 -0.01474
#
# Static dielectric constant tensor:
#      x y z
#    x 3.413810 0.000000 0.000000 
#    y 0.000000 3.868450 0.000000 
#    z 0.000000 0.000000 3.331880 
# 
# 
# High freq. dielectric constant tensor:
#      x y z
#    x 1.714790 0.000000 0.000000 
#    y 0.000000 1.755150 0.000000 
#    z 0.000000 0.000000 1.726950 
# 
# From -- ./inp_files/2843.got.cif
#   From: 2010.03.12/outbox.cif.g09.slc.cpg/sg55_2_cif.got.tgz:2843.got - 2010.04.16 15:19:21.
