data_PCOD8224276
_publ_section_title
;
Structure prediction by ZEFSAII (Michael W. Deem and Ramdas Pophale) SiO2 
 PCOD8224276
Probable space group: P B A M
;
_chemical_formula_sum "Si O2"
_cell_formula_units_Z 48
_cell_length_a 9.082670
_cell_length_b 31.156232
_cell_length_c 8.392249
_cell_angle_alpha 90.000000
_cell_angle_beta 90.000000
_cell_angle_gamma 90.000000
_cell_volume 2374.853507
_symmetry_space_group_name_H-M "P B A M"
_symmetry_group_IT_number 55
_symmetry_cell_setting 'orthorhombic'
loop_
_space_group_symop_operation_xyz
x,y,z
-x,-y,z
1/2+x,1/2-y,-z
1/2-x,1/2+y,-z
-x,-y,-z
x,y,-z
1/2-x,1/2+y,z
1/2+x,1/2-y,z
loop_
_atom_site_type_symbol
_atom_site_label
_atom_site_fract_x
_atom_site_fract_y
_atom_site_fract_z
Si Si1 0.365426 0.708953 0.816795
Si Si2 0.118412 0.361140 0.314591
Si Si3 0.186984 0.539371 0.184272
Si Si4 0.286138 0.128707 0.312538
Si Si5 0.865900 0.545227 0.314618
Si Si6 0.184688 0.784569 0.685750
O O1 0.535886 0.717033 0.784515
O O2 0.326429 0.660005 0.775789
O O3 0.268327 0.739780 0.706021
O O4 0.331132 0.718960 0.000000
O O5 0.104706 0.351545 0.500000
O O6 0.951640 0.361916 0.246742
O O7 0.199869 0.407089 0.283132
O O8 0.215122 0.322944 0.239784
O O9 0.242483 0.493516 0.259301
O O10 0.262406 0.579964 0.270944
O O11 0.012798 0.541882 0.210637
O O12 0.228441 0.540615 0.000000
O O13 0.274497 0.135638 0.500000
O O14 0.908004 0.540390 0.500000
O O15 0.149005 0.792010 0.500000
#
# Coordination Sequence:
#
# PCOD8224276 Si02
#       6
#     8   8   8   8   8   8
#     4  12  25  40  57  84 115 143 178 230 283 328
#     4   8  17  32  55  82 107 137 184 231 266 312
#     4  10  17  26  43  74 110 143 178 224 275 323
#     4  10  19  35  57  81 108 146 188 228 273 330
#     4   9  15  27  46  72 105 143 184 227 268 318
#     4  11  22  40  62  83 108 146 187 224 270 335
#
# _framework density 20.211772
#
# number of rings (size 3 to 8) (size 9 to 14) (size 15 to 20)
#    0.000    2.000    0.000    7.500    0.000    1.333 
#    0.000    9.167    0.000    1.000    0.000    7.000 
#    0.000    0.000    0.000    0.000    0.000    0.000 
#
# Total GULP energy -595020.564942 kJ/mol
# GULP energy per Si atom -12396.261770 kJ/mol
# Density = 2.016577 g / cm^3
# Si number density = 20.211772 Si / 1000 Ang^3
#
#
#
# Elastic Constant Matrix: (Units=GPa)
#
#
# Indices 1 2 3 4 5 6 
#
# 1 49.1606 9.6992 15.4980 0.0000 0.0000 0.0000
# 2 9.6992 97.7324 22.8999 0.0000 0.0000 0.0000
# 3 15.4980 22.8999 69.9853 0.0000 0.0000 0.0000
# 4 0.0000 0.0000 0.0000 23.3180 0.0000 0.0000
# 5 0.0000 0.0000 0.0000 0.0000 18.8784 0.0000
# 6 0.0000 0.0000 0.0000 0.0000 0.0000 25.9292
#
#
#
# Elastic Compliance Matrix: (Units=1/GPa)
#
#
# Indices 1 2 3 4 5 6 
#
# 1 0.021982 -0.001127 -0.004499 0.000000 0.000000 0.000000
# 2 -0.001127 0.011139 -0.003395 0.000000 0.000000 0.000000
# 3 -0.004499 -0.003395 0.016396 0.000000 0.000000 0.000000
# 4 0.000000 0.000000 0.000000 0.042885 0.000000 0.000000
# 5 0.000000 0.000000 0.000000 0.000000 0.052970 0.000000
# 6 0.000000 0.000000 0.000000 0.000000 0.000000 0.038567
#
#
# Mechanical properties :
#
#
# Convention : Reuss Voigt Hill
#
# Bulk Modulus (GPa) = 31.77195 34.78583 33.27889
# Shear Modulus (GPa) = 23.53221 24.87722 24.20471
#
# Velocity S-wave (km/s) = 3.41586 3.51212 3.46433
# Velocity P-wave (km/s) = 5.59563 5.80471 5.70113
#
# Compressibility (1/GPa) = 0.03147430
#
# Stress axis : x y z
#
# Youngs Moduli (GPa) = 45.49129 89.77095 60.99053
#
# Poissons Ratio (x) = 0.10121 0.27440
# Poissons Ratio (y) = 0.05129 0.20708
# Poissons Ratio (z) = 0.20467 0.30480
#
# Static dielectric constant tensor:
#      x y z
#    x 3.253110 0.000000 0.000000 
#    y 0.000000 4.347530 0.000000 
#    z 0.000000 0.000000 3.436240 
# 
# 
# High freq. dielectric constant tensor:
#      x y z
#    x 1.731200 0.000000 0.000000 
#    y 0.000000 1.819170 0.000000 
#    z 0.000000 0.000000 1.779810 
# 
# From -- ./inp_files/2856.got.cif
#   From: 2010.03.12/outbox.cif.g09.slc.cpg/sg55_2_cif.got.tgz:2856.got - 2010.04.16 15:19:21.
