data_PCOD8224644
_publ_section_title
;
Structure prediction by ZEFSAII (Michael W. Deem and Ramdas Pophale) SiO2 
 PCOD8224644
Probable space group: P B A M
;
_chemical_formula_sum "Si O2"
_cell_formula_units_Z 64
_cell_length_a 11.982107
_cell_length_b 30.917396
_cell_length_c 8.734087
_cell_angle_alpha 90.000000
_cell_angle_beta 90.000000
_cell_angle_gamma 90.000000
_cell_volume 3235.590977
_symmetry_space_group_name_H-M "P B A M"
_symmetry_group_IT_number 55
_symmetry_cell_setting 'orthorhombic'
loop_
_space_group_symop_operation_xyz
x,y,z
-x,-y,z
1/2+x,1/2-y,-z
1/2-x,1/2+y,-z
-x,-y,-z
x,y,-z
1/2-x,1/2+y,z
1/2+x,1/2-y,z
loop_
_atom_site_type_symbol
_atom_site_label
_atom_site_fract_x
_atom_site_fract_y
_atom_site_fract_z
Si Si1 0.749960 0.047091 0.818750
Si Si2 0.285074 0.041345 0.318689
Si Si3 0.509376 0.161853 0.322868
Si Si4 0.502905 0.072000 0.820553
Si Si5 0.101240 0.878750 0.681711
Si Si6 0.846768 0.874449 0.317777
Si Si7 0.743724 0.198221 0.318099
Si Si8 0.714771 0.792581 0.677330
O O1 0.627040 0.061233 0.761569
O O2 0.841290 0.080019 0.756572
O O3 0.777931 0.000082 0.750690
O O4 0.756785 0.045796 0.000000
O O5 0.282546 0.038620 0.500000
O O6 0.413019 0.041175 0.261163
O O7 0.220497 0.083801 0.257343
O O8 0.517785 0.147209 0.500000
O O9 0.474524 0.121095 0.222143
O O10 0.624737 0.181052 0.260669
O O11 0.415930 0.198224 0.300608
O O12 0.491726 0.064266 0.000000
O O13 0.109749 0.883535 0.500000
O O14 0.161220 0.834833 0.739110
O O15 0.973985 0.876772 0.738804
O O16 0.839530 0.873475 0.500000
O O17 0.790014 0.830864 0.249283
O O18 0.746949 0.201248 0.500000
O O19 0.762005 0.245885 0.245494
O O20 0.746810 0.789771 0.500000
#
# Coordination Sequence:
#
# PCOD8224644 Si02
#       8
#     8   8   8   8   8   8   8   8
#     4  11  24  40  57  81 112 148 184 229 285 335
#     4  11  22  38  60  86 112 144 185 232 281 338
#     4  10  18  32  56  84 113 147 190 230 277 336
#     4  11  22  37  57  82 115 148 183 229 284 334
#     4  10  20  36  57  82 111 146 188 230 273 330
#     4   9  19  34  54  82 115 145 179 229 285 328
#     4   9  18  29  51  86 115 143 183 230 278 325
#     4   9  17  30  51  84 119 143 175 233 284 322
#
# _framework density 19.780004000000002
#
# number of rings (size 3 to 8) (size 9 to 14) (size 15 to 20)
#    0.000    2.000    2.500    1.500    1.750    3.500 
#    0.000    3.750    0.000    1.500    0.000    0.000 
#    0.000    0.000    0.000    0.000    0.000    0.000 
#
# Total GULP energy -793692.510558 kJ/mol
# GULP energy per Si atom -12401.445477 kJ/mol
# Density = 1.973498 g / cm^3
# Si number density = 19.780004 Si / 1000 Ang^3
#
#
#
# Elastic Constant Matrix: (Units=GPa)
#
#
# Indices 1 2 3 4 5 6 
#
# 1 132.1040 49.3573 24.2278 0.0000 0.0000 0.0000
# 2 49.3573 140.7584 21.9985 0.0000 0.0000 0.0000
# 3 24.2278 21.9985 30.1887 0.0000 0.0000 0.0000
# 4 0.0000 0.0000 0.0000 5.8372 0.0000 0.0000
# 5 0.0000 0.0000 0.0000 0.0000 15.6227 0.0000
# 6 0.0000 0.0000 0.0000 0.0000 0.0000 29.6597
#
#
#
# Elastic Compliance Matrix: (Units=1/GPa)
#
#
# Indices 1 2 3 4 5 6 
#
# 1 0.009560 -0.002430 -0.005902 0.000000 0.000000 0.000000
# 2 -0.002430 0.008635 -0.004342 0.000000 0.000000 0.000000
# 3 -0.005902 -0.004342 0.041026 0.000000 0.000000 0.000000
# 4 0.000000 0.000000 0.000000 0.171316 0.000000 0.000000
# 5 0.000000 0.000000 0.000000 0.000000 0.064009 0.000000
# 6 0.000000 0.000000 0.000000 0.000000 0.000000 0.033716
#
#
# Mechanical properties :
#
#
# Convention : Reuss Voigt Hill
#
# Bulk Modulus (GPa) = 29.52209 54.91313 42.21761
# Shear Modulus (GPa) = 13.70237 24.05508 18.87872
#
# Velocity S-wave (km/s) = 2.63485 3.49109 3.09274
# Velocity P-wave (km/s) = 4.92079 6.63871 5.84323
#
# Compressibility (1/GPa) = 0.03387294
#
# Stress axis : x y z
#
# Youngs Moduli (GPa) = 104.60222 115.80706 24.37507
#
# Poissons Ratio (x) = 0.28140 0.14385
# Poissons Ratio (y) = 0.25417 0.10584
# Poissons Ratio (z) = 0.61733 0.50286
#
# Static dielectric constant tensor:
#      x y z
#    x 3.744930 0.000000 0.000000 
#    y 0.000000 3.885600 0.000000 
#    z 0.000000 0.000000 3.116390 
# 
# 
# High freq. dielectric constant tensor:
#      x y z
#    x 1.777480 0.000000 0.000000 
#    y 0.000000 1.786700 0.000000 
#    z 0.000000 0.000000 1.722800 
# 
# From -- ./inp_files/4479.got.cif
#   From: 2010.03.12/outbox.cif.g09.slc.cpg/sg55_3_cif.got.tgz:4479.got - 2010.04.16 15:19:21.
