data_PCOD8224995
_publ_section_title
;
Structure prediction by ZEFSAII (Michael W. Deem and Ramdas Pophale) SiO2 
 PCOD8224995
Probable space group: P B A M
;
_chemical_formula_sum "Si O2"
_cell_formula_units_Z 64
_cell_length_a 19.017877
_cell_length_b 23.135879
_cell_length_c 8.620480
_cell_angle_alpha 90.000000
_cell_angle_beta 90.000000
_cell_angle_gamma 90.000000
_cell_volume 3792.970693
_symmetry_space_group_name_H-M "P B A M"
_symmetry_group_IT_number 55
_symmetry_cell_setting 'orthorhombic'
loop_
_space_group_symop_operation_xyz
x,y,z
-x,-y,z
1/2+x,1/2-y,-z
1/2-x,1/2+y,-z
-x,-y,-z
x,y,-z
1/2-x,1/2+y,z
1/2+x,1/2-y,z
loop_
_atom_site_type_symbol
_atom_site_label
_atom_site_fract_x
_atom_site_fract_y
_atom_site_fract_z
Si Si1 0.504839 0.386003 0.819602
Si Si2 0.858030 0.056457 0.820463
Si Si3 0.152115 0.726014 0.320490
Si Si4 0.499063 0.261876 0.679839
Si Si5 0.227247 0.832848 0.820779
Si Si6 0.724664 0.333466 0.819567
Si Si7 0.850203 0.725310 0.320495
Si Si8 0.855652 0.934386 0.320323
O O1 0.431719 0.415170 0.771456
O O2 0.501162 0.318262 0.785904
O O3 0.565335 0.416973 0.722748
O O4 0.521376 0.394971 0.000000
O O5 0.795502 0.101717 0.786369
O O6 0.842655 0.001263 0.715911
O O7 0.859740 0.038030 0.000000
O O8 0.165348 0.713106 0.500000
O O9 0.180725 0.789748 0.281886
O O10 0.193370 0.677257 0.222239
O O11 0.069463 0.723810 0.279227
O O12 0.498103 0.281580 0.500000
O O13 0.566722 0.221928 0.715237
O O14 0.309393 0.823937 0.777416
O O15 0.214365 0.817232 0.000000
O O16 0.676538 0.289047 0.724143
O O17 0.701719 0.397897 0.775373
O O18 0.712285 0.322603 0.000000
O O19 0.834255 0.714545 0.500000
O O20 0.843097 0.922569 0.500000
#
# Coordination Sequence:
#
# PCOD8224995 Si02
#       8
#     8   8   8   8   8   8   8   8
#     4  11  21  34  51  71 101 139 174 210 246 292
#     4  10  22  37  51  71 100 135 175 212 250 296
#     4  10  19  32  51  74 101 132 166 208 253 298
#     4  10  20  32  50  75 105 137 169 205 249 299
#     4  10  19  33  50  72  99 131 168 209 251 297
#     4  11  21  34  51  72  98 132 169 210 254 298
#     4  10  19  32  50  74 102 132 166 207 250 299
#     4  12  24  36  51  72  99 134 175 214 252 299
#
# _framework density 16.873318000000001
#
# number of rings (size 3 to 8) (size 9 to 14) (size 15 to 20)
#    0.000    1.500    2.500    5.625    0.000    4.500 
#    0.000    0.000    0.000    0.000    0.000    0.875 
#    0.000    7.000    0.000    0.000    0.000    0.000 
#
# Total GULP energy -793759.989546 kJ/mol
# GULP energy per Si atom -12402.499837 kJ/mol
# Density = 1.683491 g / cm^3
# Si number density = 16.873318 Si / 1000 Ang^3
#
#
#
# Elastic Constant Matrix: (Units=GPa)
#
#
# Indices 1 2 3 4 5 6 
#
# 1 118.9712 48.1092 23.0066 0.0000 0.0000 0.0000
# 2 48.1092 76.2235 22.7069 0.0000 0.0000 0.0000
# 3 23.0066 22.7069 48.6386 0.0000 0.0000 0.0000
# 4 0.0000 0.0000 0.0000 25.8283 0.0000 0.0000
# 5 0.0000 0.0000 0.0000 0.0000 23.5968 0.0000
# 6 0.0000 0.0000 0.0000 0.0000 0.0000 21.6282
#
#
#
# Elastic Compliance Matrix: (Units=1/GPa)
#
#
# Indices 1 2 3 4 5 6 
#
# 1 0.011519 -0.006560 -0.002386 0.000000 0.000000 0.000000
# 2 -0.006560 0.018974 -0.005755 0.000000 0.000000 0.000000
# 3 -0.002386 -0.005755 0.024375 0.000000 0.000000 0.000000
# 4 0.000000 0.000000 0.000000 0.038717 0.000000 0.000000
# 5 0.000000 0.000000 0.000000 0.000000 0.042379 0.000000
# 6 0.000000 0.000000 0.000000 0.000000 0.000000 0.046236
#
#
# Mechanical properties :
#
#
# Convention : Reuss Voigt Hill
#
# Bulk Modulus (GPa) = 39.26768 47.94206 43.60487
# Shear Modulus (GPa) = 22.71776 24.21137 23.46456
#
# Velocity S-wave (km/s) = 3.67327 3.79210 3.73316
# Velocity P-wave (km/s) = 6.42753 6.90276 6.66938
#
# Compressibility (1/GPa) = 0.02546623
#
# Stress axis : x y z
#
# Youngs Moduli (GPa) = 86.80943 52.70373 41.02491
#
# Poissons Ratio (x) = 0.34572 0.09790
# Poissons Ratio (y) = 0.56944 0.23611
# Poissons Ratio (z) = 0.20717 0.30332
#
# Static dielectric constant tensor:
#      x y z
#    x 3.398440 0.000000 0.000000 
#    y 0.000000 2.956770 0.000000 
#    z 0.000000 0.000000 3.230180 
# 
# 
# High freq. dielectric constant tensor:
#      x y z
#    x 1.648990 0.000000 0.000000 
#    y 0.000000 1.617930 0.000000 
#    z 0.000000 0.000000 1.664070 
# 
# From -- ./inp_files/9113.got.cif
#   From: 2010.03.12/outbox.cif.g09.slc.cpg/sg55_5_cif.got.tgz:9113.got - 2010.04.16 15:19:21.
