data_PCOD8224727
_publ_section_title
;
Structure prediction by ZEFSAII (Michael W. Deem and Ramdas Pophale) SiO2 
 PCOD8224727
Probable space group: P B A M
;
_chemical_formula_sum "Si O2"
_cell_formula_units_Z 56
_cell_length_a 21.396213
_cell_length_b 15.033372
_cell_length_c 8.815126
_cell_angle_alpha 90.000000
_cell_angle_beta 90.000000
_cell_angle_gamma 90.000000
_cell_volume 2835.449006
_symmetry_space_group_name_H-M "P B A M"
_symmetry_group_IT_number 55
_symmetry_cell_setting 'orthorhombic'
loop_
_space_group_symop_operation_xyz
x,y,z
-x,-y,z
1/2+x,1/2-y,-z
1/2-x,1/2+y,-z
-x,-y,-z
x,y,-z
1/2-x,1/2+y,z
1/2+x,1/2-y,z
loop_
_atom_site_type_symbol
_atom_site_label
_atom_site_fract_x
_atom_site_fract_y
_atom_site_fract_z
Si Si1 0.393248 0.286447 0.679778
Si Si2 0.597224 0.035215 0.679333
Si Si3 0.691585 0.427778 0.676999
Si Si4 0.734405 0.767027 0.824291
Si Si5 0.726050 0.071004 0.825269
Si Si6 0.931265 0.021490 0.679086
Si Si7 0.479074 0.133210 0.322005
O O1 0.385644 0.288621 0.500000
O O2 0.332488 0.237007 0.743958
O O3 0.404677 0.385275 0.746683
O O4 0.453627 0.228734 0.732125
O O5 0.613726 0.034314 0.500000
O O6 0.657684 0.040911 0.781086
O O7 0.551589 0.118210 0.722286
O O8 0.564423 0.945833 0.739308
O O9 0.700822 0.410282 0.500000
O O10 0.721101 0.345042 0.764139
O O11 0.724666 0.519762 0.721146
O O12 0.617796 0.442055 0.716835
O O13 0.769776 0.675367 0.792461
O O14 0.722328 0.784578 0.000000
O O15 0.739670 0.047911 0.000000
O O16 0.937865 0.033966 0.500000
O O17 0.000000 0.000000 0.748328
O O18 0.473908 0.124368 0.500000
#
# Coordination Sequence:
#
# PCOD8224727 Si02
#       7
#     8   8   8   8   8   8   8
#     4  10  18  34  59  84 112 152 201 244 291 351
#     4   9  17  32  53  81 114 146 189 236 288 344
#     4  11  22  38  62  89 116 151 198 249 297 349
#     4  11  24  39  57  83 118 157 195 240 295 352
#     4  11  23  38  56  81 118 155 189 235 289 343
#     4   9  19  35  57  87 119 148 190 249 302 347
#     4   8  16  30  52  81 111 145 184 238 291 338
#
# _framework density 19.749957999999999
#
# number of rings (size 3 to 8) (size 9 to 14) (size 15 to 20)
#    0.000    2.143    1.429    3.000    0.000    4.000 
#    0.000    5.000    0.000    3.857    0.000    0.000 
#    0.000    0.000    0.000    0.000    0.000    0.000 
#
# Total GULP energy -694159.132081 kJ/mol
# GULP energy per Si atom -12395.698787 kJ/mol
# Density = 1.970501 g / cm^3
# Si number density = 19.749958 Si / 1000 Ang^3
#
#
#
# Elastic Constant Matrix: (Units=GPa)
#
#
# Indices 1 2 3 4 5 6 
#
# 1 120.4794 37.9043 17.0944 0.0000 0.0000 0.0000
# 2 37.9043 99.8923 22.0030 0.0000 0.0000 0.0000
# 3 17.0944 22.0030 29.8620 0.0000 0.0000 0.0000
# 4 0.0000 0.0000 0.0000 23.5047 0.0000 0.0000
# 5 0.0000 0.0000 0.0000 0.0000 4.0707 0.0000
# 6 0.0000 0.0000 0.0000 0.0000 0.0000 29.1879
#
#
#
# Elastic Compliance Matrix: (Units=1/GPa)
#
#
# Indices 1 2 3 4 5 6 
#
# 1 0.009705 -0.002935 -0.003393 0.000000 0.000000 0.000000
# 2 -0.002935 0.012838 -0.007779 0.000000 0.000000 0.000000
# 3 -0.003393 -0.007779 0.041161 0.000000 0.000000 0.000000
# 4 0.000000 0.000000 0.000000 0.042545 0.000000 0.000000
# 5 0.000000 0.000000 0.000000 0.000000 0.245659 0.000000
# 6 0.000000 0.000000 0.000000 0.000000 0.000000 0.034261
#
#
# Mechanical properties :
#
#
# Convention : Reuss Voigt Hill
#
# Bulk Modulus (GPa) = 28.17691 44.91524 36.54607
# Shear Modulus (GPa) = 11.73121 22.90146 17.31634
#
# Velocity S-wave (km/s) = 2.43983 3.40894 2.96426
# Velocity P-wave (km/s) = 4.71538 6.18755 5.50094
#
# Compressibility (1/GPa) = 0.03549006
#
# Stress axis : x y z
#
# Youngs Moduli (GPa) = 103.03924 77.89349 24.29464
#
# Poissons Ratio (x) = 0.22864 0.08243
# Poissons Ratio (y) = 0.30245 0.18899
# Poissons Ratio (z) = 0.34960 0.60594
#
# Static dielectric constant tensor:
#      x y z
#    x 3.893640 0.000000 0.000000 
#    y 0.000000 4.071230 0.000000 
#    z 0.000000 0.000000 3.290490 
# 
# 
# High freq. dielectric constant tensor:
#      x y z
#    x 1.779690 0.000000 0.000000 
#    y 0.000000 1.774620 0.000000 
#    z 0.000000 0.000000 1.736270 
# 
# From -- ./inp_files/6038.got.cif
#   From: 2010.03.12/outbox.cif.g09.slc.cpg/sg55_4_cif.got.tgz:6038.got - 2010.04.16 15:19:21.
