data_PCOD8224624
_publ_section_title
;
Structure prediction by ZEFSAII (Michael W. Deem and Ramdas Pophale) SiO2 
 PCOD8224624
Probable space group: P B A M
;
_chemical_formula_sum "Si O2"
_cell_formula_units_Z 52
_cell_length_a 14.489723
_cell_length_b 19.851155
_cell_length_c 9.593622
_cell_angle_alpha 90.000000
_cell_angle_beta 90.000000
_cell_angle_gamma 90.000000
_cell_volume 2759.487723
_symmetry_space_group_name_H-M "P B A M"
_symmetry_group_IT_number 55
_symmetry_cell_setting 'orthorhombic'
loop_
_space_group_symop_operation_xyz
x,y,z
-x,-y,z
1/2+x,1/2-y,-z
1/2-x,1/2+y,-z
-x,-y,-z
x,y,-z
1/2-x,1/2+y,z
1/2+x,1/2-y,z
loop_
_atom_site_type_symbol
_atom_site_label
_atom_site_fract_x
_atom_site_fract_y
_atom_site_fract_z
Si Si1 0.762468 0.077688 0.661743
Si Si2 0.741875 0.798027 0.665231
Si Si3 0.686890 0.942673 0.656594
Si Si4 0.106287 0.375696 0.152207
Si Si5 0.407910 0.315612 0.660300
Si Si6 0.000000 0.500000 0.249110
Si Si7 0.574440 0.271975 0.838299
O O1 0.735054 0.077582 0.500000
O O2 0.686035 0.124154 0.733569
O O3 0.862567 0.110490 0.684520
O O4 0.753817 0.001073 0.722467
O O5 0.765697 0.797578 0.500000
O O6 0.701893 0.869424 0.723999
O O7 0.665515 0.741931 0.698144
O O8 0.831090 0.784429 0.757263
O O9 0.718752 0.932604 0.500000
O O10 0.581250 0.967968 0.658506
O O11 0.048452 0.307088 0.173835
O O12 0.038631 0.439626 0.155390
O O13 0.153674 0.374694 0.000000
O O14 0.440699 0.307680 0.500000
O O15 0.494117 0.313814 0.763370
O O16 0.582767 0.294680 0.000000
#
# Coordination Sequence:
#
# PCOD8224624 Si02
#       7
#     8   8   8   8   8   4   8
#     4   9  18  34  55  78 105 137 176 220 273 325
#     4  10  20  37  58  83 113 146 187 232 279 333
#     4   9  18  32  54  83 112 141 177 229 283 331
#     4  10  20  33  50  76 111 145 178 218 271 333
#     4  10  20  35  57  81 106 142 186 230 277 331
#     4  10  18  32  54  82 115 146 179 222 283 352
#     4  11  23  36  54  81 112 148 189 232 279 330
#
# _framework density 18.844076999999999
#
# number of rings (size 3 to 8) (size 9 to 14) (size 15 to 20)
#    0.000    2.154    1.538    1.846    0.000    2.462 
#    0.000    4.615    0.000    4.615    0.000    0.000 
#    0.000    0.000    0.000    0.000    0.000    0.000 
#
# Total GULP energy -644412.908664 kJ/mol
# GULP energy per Si atom -12392.555936 kJ/mol
# Density = 1.880119 g / cm^3
# Si number density = 18.844077 Si / 1000 Ang^3
#
#
#
# Elastic Constant Matrix: (Units=GPa)
#
#
# Indices 1 2 3 4 5 6 
#
# 1 79.2292 29.2779 33.8907 0.0000 0.0000 0.0000
# 2 29.2779 92.8612 15.2012 0.0000 0.0000 0.0000
# 3 33.8907 15.2012 64.0750 0.0000 0.0000 0.0000
# 4 0.0000 0.0000 0.0000 18.5348 0.0000 0.0000
# 5 0.0000 0.0000 0.0000 0.0000 14.4029 0.0000
# 6 0.0000 0.0000 0.0000 0.0000 0.0000 26.3639
#
#
#
# Elastic Compliance Matrix: (Units=1/GPa)
#
#
# Indices 1 2 3 4 5 6 
#
# 1 0.017778 -0.004230 -0.008399 0.000000 0.000000 0.000000
# 2 -0.004230 0.012210 -0.000659 0.000000 0.000000 0.000000
# 3 -0.008399 -0.000659 0.020206 0.000000 0.000000 0.000000
# 4 0.000000 0.000000 0.000000 0.053953 0.000000 0.000000
# 5 0.000000 0.000000 0.000000 0.000000 0.069431 0.000000
# 6 0.000000 0.000000 0.000000 0.000000 0.000000 0.037931
#
#
# Mechanical properties :
#
#
# Convention : Reuss Voigt Hill
#
# Bulk Modulus (GPa) = 42.34423 43.65609 43.00016
# Shear Modulus (GPa) = 20.32871 22.38003 21.35437
#
# Velocity S-wave (km/s) = 3.28805 3.44996 3.36998
# Velocity P-wave (km/s) = 6.07739 6.25195 6.16529
#
# Compressibility (1/GPa) = 0.02361597
#
# Stress axis : x y z
#
# Youngs Moduli (GPa) = 56.25038 81.89744 49.49079
#
# Poissons Ratio (x) = 0.34643 0.41569
# Poissons Ratio (y) = 0.23794 0.03263
# Poissons Ratio (z) = 0.47247 0.05400
#
# Static dielectric constant tensor:
#      x y z
#    x 3.221230 0.000000 0.000000 
#    y 0.000000 3.904750 0.000000 
#    z 0.000000 0.000000 3.313140 
# 
# 
# High freq. dielectric constant tensor:
#      x y z
#    x 1.710500 0.000000 0.000000 
#    y 0.000000 1.745210 0.000000 
#    z 0.000000 0.000000 1.718070 
# 
# From -- ./inp_files/5896.got.cif
#   From: 2010.03.12/outbox.cif.g09.slc.cpg/sg55_3_cif.got.tgz:5896.got - 2010.04.16 15:19:21.
