data_PCOD8224625
_publ_section_title
;
Structure prediction by ZEFSAII (Michael W. Deem and Ramdas Pophale) SiO2 
 PCOD8224625
Probable space group: P B A M
;
_chemical_formula_sum "Si O2"
_cell_formula_units_Z 40
_cell_length_a 8.916885
_cell_length_b 22.312397
_cell_length_c 10.491863
_cell_angle_alpha 90.000000
_cell_angle_beta 90.000000
_cell_angle_gamma 90.000000
_cell_volume 2087.430407
_symmetry_space_group_name_H-M "P B A M"
_symmetry_group_IT_number 55
_symmetry_cell_setting 'orthorhombic'
loop_
_space_group_symop_operation_xyz
x,y,z
-x,-y,z
1/2+x,1/2-y,-z
1/2-x,1/2+y,-z
-x,-y,-z
x,y,-z
1/2-x,1/2+y,z
1/2+x,1/2-y,z
loop_
_atom_site_type_symbol
_atom_site_label
_atom_site_fract_x
_atom_site_fract_y
_atom_site_fract_z
Si Si1 0.658343 0.574556 0.150501
Si Si2 0.680617 0.442502 0.149264
Si Si3 0.679606 0.824483 0.146553
Si Si4 0.929079 0.753228 0.271877
Si Si5 0.689836 0.667952 0.639086
O O1 0.737392 0.510096 0.178047
O O2 0.487717 0.568408 0.198339
O O3 0.732043 0.623991 0.243045
O O4 0.674739 0.592370 0.000000
O O5 0.792490 0.391695 0.204418
O O6 0.669226 0.432991 0.000000
O O7 0.831070 0.785487 0.162297
O O8 0.537952 0.796664 0.215181
O O9 0.637653 0.827981 0.000000
O O10 0.814173 0.720289 0.366337
O O11 0.025282 0.803336 0.344606
O O12 0.692410 0.635687 0.500000
#
# Coordination Sequence:
#
# PCOD8224625 Si02
#       5
#     8   8   8   8   8
#     4   9  17  32  56  81 107 140 179 222 267 315
#     4   8  15  30  53  80 112 141 171 218 273 317
#     4  10  18  32  54  84 112 139 175 223 270 319
#     4  10  22  34  52  77 110 145 180 217 270 324
#     4  11  22  38  56  77 108 145 182 222 268 322
#
# _framework density 19.162313999999999
#
# number of rings (size 3 to 8) (size 9 to 14) (size 15 to 20)
#    0.000    2.400    2.000    2.400    0.000    4.000 
#    0.000    3.000    0.000    4.800    0.000    0.000 
#    0.000    0.000    0.000    0.000    0.000    0.000 
#
# Total GULP energy -495604.739117 kJ/mol
# GULP energy per Si atom -12390.118478 kJ/mol
# Density = 1.911870 g / cm^3
# Si number density = 19.162314 Si / 1000 Ang^3
#
#
#
# Elastic Constant Matrix: (Units=GPa)
#
#
# Indices 1 2 3 4 5 6 
#
# 1 61.8773 17.3035 12.6800 0.0000 0.0000 0.0000
# 2 17.3035 101.7709 39.6858 0.0000 0.0000 0.0000
# 3 12.6800 39.6858 91.7859 0.0000 0.0000 0.0000
# 4 0.0000 0.0000 0.0000 13.8812 0.0000 0.0000
# 5 0.0000 0.0000 0.0000 0.0000 6.3655 0.0000
# 6 0.0000 0.0000 0.0000 0.0000 0.0000 26.0290
#
#
#
# Elastic Compliance Matrix: (Units=1/GPa)
#
#
# Indices 1 2 3 4 5 6 
#
# 1 0.017102 -0.002389 -0.001330 0.000000 0.000000 0.000000
# 2 -0.002389 0.012152 -0.004924 0.000000 0.000000 0.000000
# 3 -0.001330 -0.004924 0.013208 0.000000 0.000000 0.000000
# 4 0.000000 0.000000 0.000000 0.072040 0.000000 0.000000
# 5 0.000000 0.000000 0.000000 0.000000 0.157096 0.000000
# 6 0.000000 0.000000 0.000000 0.000000 0.000000 0.038419
#
#
# Mechanical properties :
#
#
# Convention : Reuss Voigt Hill
#
# Bulk Modulus (GPa) = 39.72093 43.86363 41.79228
# Shear Modulus (GPa) = 14.89451 21.63946 18.26699
#
# Velocity S-wave (km/s) = 2.79100 3.36411 3.09087
# Velocity P-wave (km/s) = 5.58211 6.16684 5.88174
#
# Compressibility (1/GPa) = 0.02517565
#
# Stress axis : x y z
#
# Youngs Moduli (GPa) = 58.47408 82.28773 75.71322
#
# Poissons Ratio (x) = 0.19661 0.10066
# Poissons Ratio (y) = 0.13971 0.37284
# Poissons Ratio (z) = 0.07774 0.40521
#
# Static dielectric constant tensor:
#      x y z
#    x 3.438390 0.000000 0.000000 
#    y 0.000000 3.891680 0.000000 
#    z 0.000000 0.000000 3.136560 
# 
# 
# High freq. dielectric constant tensor:
#      x y z
#    x 1.730850 0.000000 0.000000 
#    y 0.000000 1.752260 0.000000 
#    z 0.000000 0.000000 1.708940 
# 
# From -- ./inp_files/9308.got.cif
#   From: 2010.03.12/outbox.cif.g09.slc.cpg/sg55_5_cif.got.tgz:9308.got - 2010.04.16 15:19:21.
