data_PCOD8224535
_publ_section_title
;
Structure prediction by ZEFSAII (Michael W. Deem and Ramdas Pophale) SiO2 
 PCOD8224535
Probable space group: P B A M
;
_chemical_formula_sum "Si O2"
_cell_formula_units_Z 64
_cell_length_a 34.764252
_cell_length_b 11.187279
_cell_length_c 9.192726
_cell_angle_alpha 90.000000
_cell_angle_beta 90.000000
_cell_angle_gamma 90.000000
_cell_volume 3575.210969
_symmetry_space_group_name_H-M "P B A M"
_symmetry_group_IT_number 55
_symmetry_cell_setting 'orthorhombic'
loop_
_space_group_symop_operation_xyz
x,y,z
-x,-y,z
1/2+x,1/2-y,-z
1/2-x,1/2+y,-z
-x,-y,-z
x,y,-z
1/2-x,1/2+y,z
1/2+x,1/2-y,z
loop_
_atom_site_type_symbol
_atom_site_label
_atom_site_fract_x
_atom_site_fract_y
_atom_site_fract_z
Si Si1 0.571307 0.746418 0.834267
Si Si2 0.641158 0.858995 0.332386
Si Si3 0.273536 0.887400 0.169286
Si Si4 0.542248 0.489352 0.834673
Si Si5 0.147748 0.368996 0.667510
Si Si6 0.220269 0.660132 0.169123
Si Si7 0.418897 0.742889 0.172464
Si Si8 0.504849 0.130430 0.827223
O O1 0.606857 0.785157 0.737819
O O2 0.568653 0.604765 0.826596
O O3 0.530979 0.792918 0.768155
O O4 0.577666 0.791437 0.000000
O O5 0.644847 0.822745 0.500000
O O6 0.681078 0.826680 0.256946
O O7 0.631145 0.998072 0.312951
O O8 0.310605 0.858685 0.263062
O O9 0.244485 0.779263 0.212586
O O10 0.260176 0.027313 0.202028
O O11 0.283860 0.876585 0.000000
O O12 0.500000 0.500000 0.758182
O O13 0.568933 0.386896 0.767163
O O14 0.533477 0.448855 0.000000
O O15 0.151020 0.332324 0.500000
O O16 0.120044 0.277504 0.748233
O O17 0.210041 0.666088 0.000000
O O18 0.453796 0.826122 0.225872
O O19 0.411622 0.749521 0.000000
O O20 0.500000 0.000000 0.761599
O O21 0.503509 0.134168 0.000000
#
# Coordination Sequence:
#
# PCOD8224535 Si02
#       8
#     8   8   8   8   8   8   8   8
#     4  10  18  31  52  75 101 133 173 217 260 307
#     4  10  21  36  53  75 106 141 174 210 255 307
#     4   9  18  35  59  84 108 135 170 213 260 310
#     4   9  16  30  51  75 101 133 173 219 267 309
#     4  10  21  36  53  75 106 141 174 210 255 307
#     4   9  18  35  59  84 108 135 170 213 260 310
#     4  10  18  31  52  75 101 133 173 217 260 307
#     4   9  16  25  44  74  99 123 164 215 258 298
#
# _framework density 17.901039999999998
#
# number of rings (size 3 to 8) (size 9 to 14) (size 15 to 20)
#    0.000    2.500    1.250    1.500    0.000    3.000 
#    2.250    1.250    0.000    3.000    0.000    0.000 
#    0.000    0.000    0.000    0.000    0.000    0.000 
#
# Total GULP energy -793076.400401 kJ/mol
# GULP energy per Si atom -12391.818756 kJ/mol
# Density = 1.786030 g / cm^3
# Si number density = 17.901040 Si / 1000 Ang^3
#
#
#
# Elastic Constant Matrix: (Units=GPa)
#
#
# Indices 1 2 3 4 5 6 
#
# 1 85.2216 34.0454 42.8208 0.0000 0.0000 0.0000
# 2 34.0454 83.7071 23.8059 0.0000 0.0000 0.0000
# 3 42.8208 23.8059 55.8288 0.0000 0.0000 0.0000
# 4 0.0000 0.0000 0.0000 13.7890 0.0000 0.0000
# 5 0.0000 0.0000 0.0000 0.0000 -13.6971 0.0000
# 6 0.0000 0.0000 0.0000 0.0000 0.0000 34.3204
#
#
#
# Elastic Compliance Matrix: (Units=1/GPa)
#
#
# Indices 1 2 3 4 5 6 
#
# 1 0.020412 -0.004381 -0.013788 0.000000 0.000000 0.000000
# 2 -0.004381 0.014535 -0.002838 0.000000 0.000000 0.000000
# 3 -0.013788 -0.002838 0.029698 0.000000 0.000000 0.000000
# 4 0.000000 0.000000 0.000000 0.072521 0.000000 0.000000
# 5 0.000000 0.000000 0.000000 0.000000 -0.073008 0.000000
# 6 0.000000 0.000000 0.000000 0.000000 0.000000 0.029137
#
#
# Mechanical properties :
#
#
# Convention : Reuss Voigt Hill
#
# Bulk Modulus (GPa) = 44.18659 47.34464 45.76561
# Shear Modulus (GPa) = 35.00094 15.15483 25.07789
#
# Velocity S-wave (km/s) = 4.42661 2.91278 3.74694
# Velocity P-wave (km/s) = 7.13190 6.14961 6.65889
#
# Compressibility (1/GPa) = 0.02263130
#
# Stress axis : x y z
#
# Youngs Moduli (GPa) = 48.99001 68.79825 33.67267
#
# Poissons Ratio (x) = 0.30139 0.46429
# Poissons Ratio (y) = 0.21461 0.09556
# Poissons Ratio (z) = 0.67549 0.19524
#
# Static dielectric constant tensor:
#      x y z
#    x 3.205020 0.000000 0.000000 
#    y 0.000000 3.609980 0.000000 
#    z 0.000000 0.000000 3.036380 
# 
# 
# High freq. dielectric constant tensor:
#      x y z
#    x 1.688700 0.000000 0.000000 
#    y 0.000000 1.704490 0.000000 
#    z 0.000000 0.000000 1.660280 
# 
# From -- ./inp_files/10808.got.cif
#   From: 2010.03.12/outbox.cif.g09.slc.cpg/sg55_6_cif.got.tgz:10808.got - 2010.04.16 15:19:21.
