data_PCOD8224245
_publ_section_title
;
Structure prediction by ZEFSAII (Michael W. Deem and Ramdas Pophale) SiO2 
 PCOD8224245
Probable space group: P B A M
;
_chemical_formula_sum "Si O2"
_cell_formula_units_Z 64
_cell_length_a 30.785251
_cell_length_b 14.520286
_cell_length_c 8.809249
_cell_angle_alpha 90.000000
_cell_angle_beta 90.000000
_cell_angle_gamma 90.000000
_cell_volume 3937.828114
_symmetry_space_group_name_H-M "P B A M"
_symmetry_group_IT_number 55
_symmetry_cell_setting 'orthorhombic'
loop_
_space_group_symop_operation_xyz
x,y,z
-x,-y,z
1/2+x,1/2-y,-z
1/2-x,1/2+y,-z
-x,-y,-z
x,y,-z
1/2-x,1/2+y,z
1/2+x,1/2-y,z
loop_
_atom_site_type_symbol
_atom_site_label
_atom_site_fract_x
_atom_site_fract_y
_atom_site_fract_z
Si Si1 0.708725 0.277366 0.180530
Si Si2 0.366922 0.838697 0.677470
Si Si3 0.824460 0.496437 0.170756
Si Si4 0.296224 0.324010 0.180844
Si Si5 0.450421 0.894662 0.179255
Si Si6 0.452807 0.104185 0.180099
Si Si7 0.228243 0.021194 0.820256
Si Si8 0.130330 0.697295 0.169576
O O1 0.664967 0.233568 0.244217
O O2 0.751498 0.222867 0.240615
O O3 0.709171 0.382824 0.242651
O O4 0.707019 0.273935 0.000000
O O5 0.365575 0.821757 0.500000
O O6 0.353616 0.942322 0.719507
O O7 0.416386 0.827303 0.737283
O O8 0.776576 0.494901 0.241922
O O9 0.841366 0.393970 0.165127
O O10 0.824736 0.539315 0.000000
O O11 0.299426 0.431418 0.229818
O O12 0.339306 0.274320 0.251369
O O13 0.296648 0.312183 0.000000
O O14 0.499064 0.860324 0.222265
O O15 0.445269 0.999912 0.238044
O O16 0.442514 0.889113 0.000000
O O17 0.416127 0.173725 0.250225
O O18 0.446609 0.100706 0.000000
O O19 0.231064 0.028803 0.000000
O O20 0.120325 0.732486 0.000000
#
# Coordination Sequence:
#
# PCOD8224245 Si02
#       8
#     8   8   8   8   8   8   8   8
#     4  10  18  30  48  66  88 120 155 187 218 260
#     4  12  23  31  41  64  94 125 157 189 227 265
#     4  10  16  27  48  67  90 122 156 186 216 261
#     4   9  15  23  42  71  95 113 144 186 223 261
#     4   9  16  29  47  65  87 118 154 189 223 272
#     4   8  14  24  44  70  91 114 148 185 225 273
#     4   9  16  26  44  70  91 115 153 189 218 256
#     4   9  14  22  42  72  96 116 143 182 225 266
#
# _framework density 16.252614000000001
#
# number of rings (size 3 to 8) (size 9 to 14) (size 15 to 20)
#    0.000    2.500    3.750    1.875    0.000    0.000 
#    0.000    1.875    0.000    0.000    0.000    0.875 
#    0.000    7.000    0.000    0.000    0.000    0.000 
#
# Total GULP energy -792952.998440 kJ/mol
# GULP energy per Si atom -12389.890601 kJ/mol
# Density = 1.621562 g / cm^3
# Si number density = 16.252614 Si / 1000 Ang^3
#
#
#
# Elastic Constant Matrix: (Units=GPa)
#
#
# Indices 1 2 3 4 5 6 
#
# 1 124.2037 44.6873 16.5680 0.0000 0.0000 0.0000
# 2 44.6873 88.2906 13.2513 0.0000 0.0000 0.0000
# 3 16.5680 13.2513 24.0969 0.0000 0.0000 0.0000
# 4 0.0000 0.0000 0.0000 2.7007 0.0000 0.0000
# 5 0.0000 0.0000 0.0000 0.0000 3.8008 0.0000
# 6 0.0000 0.0000 0.0000 0.0000 0.0000 25.5961
#
#
#
# Elastic Compliance Matrix: (Units=1/GPa)
#
#
# Indices 1 2 3 4 5 6 
#
# 1 0.010289 -0.004519 -0.004589 0.000000 0.000000 0.000000
# 2 -0.004519 0.014330 -0.004773 0.000000 0.000000 0.000000
# 3 -0.004589 -0.004773 0.047279 0.000000 0.000000 0.000000
# 4 0.000000 0.000000 0.000000 0.370270 0.000000 0.000000
# 5 0.000000 0.000000 0.000000 0.000000 0.263104 0.000000
# 6 0.000000 0.000000 0.000000 0.000000 0.000000 0.039069
#
#
# Mechanical properties :
#
#
# Convention : Reuss Voigt Hill
#
# Bulk Modulus (GPa) = 22.65755 42.84493 32.75124
# Shear Modulus (GPa) = 6.35473 17.22515 11.78994
#
# Velocity S-wave (km/s) = 1.97951 3.25905 2.69628
# Velocity P-wave (km/s) = 4.38129 6.37032 5.46702
#
# Compressibility (1/GPa) = 0.04413540
#
# Stress axis : x y z
#
# Youngs Moduli (GPa) = 97.18737 69.78416 21.15086
#
# Poissons Ratio (x) = 0.31536 0.09707
# Poissons Ratio (y) = 0.43919 0.10096
# Poissons Ratio (z) = 0.44603 0.33309
#
# Static dielectric constant tensor:
#      x y z
#    x 3.381780 0.000000 0.000000 
#    y 0.000000 3.076430 0.000000 
#    z 0.000000 0.000000 2.564860 
# 
# 
# High freq. dielectric constant tensor:
#      x y z
#    x 1.630020 0.000000 0.000000 
#    y 0.000000 1.600740 0.000000 
#    z 0.000000 0.000000 1.567770 
# 
# From -- ./inp_files/10911.got.cif
#   From: 2010.03.12/outbox.cif.g09.slc.cpg/sg55_6_cif.got.tgz:10911.got - 2010.04.16 15:19:21.
