data_PCOD8224858
_publ_section_title
;
Structure prediction by ZEFSAII (Michael W. Deem and Ramdas Pophale) SiO2 
 PCOD8224858
Probable space group: P B A M
;
_chemical_formula_sum "Si O2"
_cell_formula_units_Z 52
_cell_length_a 32.886728
_cell_length_b 5.044721
_cell_length_c 23.683372
_cell_angle_alpha 90.000000
_cell_angle_beta 90.000000
_cell_angle_gamma 90.000000
_cell_volume 3929.174849
_symmetry_space_group_name_H-M "P B A M"
_symmetry_group_IT_number 55
_symmetry_cell_setting 'orthorhombic'
loop_
_space_group_symop_operation_xyz
x,y,z
-x,-y,z
1/2+x,1/2-y,-z
1/2-x,1/2+y,-z
-x,-y,-z
x,y,-z
1/2-x,1/2+y,z
1/2+x,1/2-y,z
loop_
_atom_site_type_symbol
_atom_site_label
_atom_site_fract_x
_atom_site_fract_y
_atom_site_fract_z
Si Si1 0.776264 0.613349 0.175601
Si Si2 0.884422 0.182711 0.566344
Si Si3 0.335795 0.801854 0.599075
Si Si4 0.975864 0.251093 0.432785
Si Si5 0.221938 0.301805 0.298418
Si Si6 0.222829 0.244722 0.939549
Si Si7 0.224017 0.274000 0.500000
O O1 0.763507 0.305924 0.173660
O O2 0.797962 0.673086 0.235486
O O3 0.802583 0.687888 0.118449
O O4 0.884522 0.114039 0.500000
O O5 0.854867 0.425261 0.578385
O O6 0.929465 0.251872 0.588470
O O7 0.869958 0.925416 0.600926
O O8 0.315841 0.840365 0.660072
O O9 0.301413 0.708664 0.555616
O O10 0.976318 0.257456 0.500000
O O11 0.000000 0.500000 0.407560
O O12 0.000000 0.000000 0.409107
O O13 0.257155 0.518298 0.308189
O O14 0.261491 0.443900 0.937618
O O15 0.199254 0.288176 0.000000
O O16 0.237335 0.580075 0.500000
#
# Coordination Sequence:
#
# PCOD8224858 Si02
#       7
#     8   8   8   8   8   8   4
#     4   8  14  23  35  47  62  84 110 143 179 211
#     4  11  20  33  45  60  78  92 109 139 182 220
#     4  12  21  32  43  56  72  94 118 153 188 216
#     4   9  17  29  46  64  78  92 106 123 157 216
#     4  10  19  31  41  51  67  92 127 159 185 216
#     4   8  12  18  29  46  64  80 100 130 173 218
#     4  12  22  32  42  52  66  90 122 154 188 218
#
# _framework density 13.23433
#
# number of rings (size 3 to 8) (size 9 to 14) (size 15 to 20)
#    0.000    2.154    1.538    3.692    0.000    2.462 
#    0.000    0.000    0.000    0.000    0.000    0.000 
#    0.000    0.000    0.000    0.000    0.000    0.000 
#
# Total GULP energy -644277.097044 kJ/mol
# GULP energy per Si atom -12389.944174 kJ/mol
# Density = 1.320421 g / cm^3
# Si number density = 13.234330 Si / 1000 Ang^3
#
#
#
# Elastic Constant Matrix: (Units=GPa)
#
#
# Indices 1 2 3 4 5 6 
#
# 1 43.8966 8.8753 27.3872 0.0000 0.0000 0.0000
# 2 8.8753 64.3149 5.8222 0.0000 0.0000 0.0000
# 3 27.3872 5.8222 80.3154 0.0000 0.0000 0.0000
# 4 0.0000 0.0000 0.0000 8.0317 0.0000 0.0000
# 5 0.0000 0.0000 0.0000 0.0000 3.5057 0.0000
# 6 0.0000 0.0000 0.0000 0.0000 0.0000 19.0369
#
#
#
# Elastic Compliance Matrix: (Units=1/GPa)
#
#
# Indices 1 2 3 4 5 6 
#
# 1 0.029573 -0.003189 -0.009853 0.000000 0.000000 0.000000
# 2 -0.003189 0.015995 -0.000072 0.000000 0.000000 0.000000
# 3 -0.009853 -0.000072 0.015816 0.000000 0.000000 0.000000
# 4 0.000000 0.000000 0.000000 0.124506 0.000000 0.000000
# 5 0.000000 0.000000 0.000000 0.000000 0.285250 0.000000
# 6 0.000000 0.000000 0.000000 0.000000 0.000000 0.052529
#
#
# Mechanical properties :
#
#
# Convention : Reuss Voigt Hill
#
# Bulk Modulus (GPa) = 28.44488 30.29958 29.37223
# Shear Modulus (GPa) = 8.90287 15.87769 12.39028
#
# Velocity S-wave (km/s) = 2.59648 3.46748 3.06309
# Velocity P-wave (km/s) = 5.52529 6.24304 5.89510
#
# Compressibility (1/GPa) = 0.03515571
#
# Stress axis : x y z
#
# Youngs Moduli (GPa) = 33.81471 62.51915 63.22721
#
# Poissons Ratio (x) = 0.19938 0.62298
# Poissons Ratio (y) = 0.10784 0.00456
# Poissons Ratio (z) = 0.33318 0.00451
#
# Static dielectric constant tensor:
#      x y z
#    x 2.353270 0.000000 0.000000 
#    y 0.000000 2.861740 0.000000 
#    z 0.000000 0.000000 2.949760 
# 
# 
# High freq. dielectric constant tensor:
#      x y z
#    x 1.443640 0.000000 0.000000 
#    y 0.000000 1.532320 0.000000 
#    z 0.000000 0.000000 1.491120 
# 
# From -- ./inp_files/23728.got.cif
#   From: 2010.03.12/outbox.cif.g09.slc.cpg/sg55_12_cif.got.tgz:23728.got - 2010.04.16 15:19:21.
