data_PCOD8224793
_publ_section_title
;
Structure prediction by ZEFSAII (Michael W. Deem and Ramdas Pophale) SiO2 
 PCOD8224793
Probable space group: P B A M
;
_chemical_formula_sum "Si O2"
_cell_formula_units_Z 64
_cell_length_a 9.503914
_cell_length_b 25.918453
_cell_length_c 14.114492
_cell_angle_alpha 90.000000
_cell_angle_beta 90.000000
_cell_angle_gamma 90.000000
_cell_volume 3476.776919
_symmetry_space_group_name_H-M "P B A M"
_symmetry_group_IT_number 55
_symmetry_cell_setting 'orthorhombic'
loop_
_space_group_symop_operation_xyz
x,y,z
-x,-y,z
1/2+x,1/2-y,-z
1/2-x,1/2+y,-z
-x,-y,-z
x,y,-z
1/2-x,1/2+y,z
1/2+x,1/2-y,z
loop_
_atom_site_type_symbol
_atom_site_label
_atom_site_fract_x
_atom_site_fract_y
_atom_site_fract_z
Si Si1 0.768782 0.129787 0.803503
Si Si2 0.011851 0.783412 0.212579
Si Si3 0.784333 0.867443 0.797461
Si Si4 0.492018 0.439808 0.889832
Si Si5 0.165939 0.355548 0.394460
Si Si6 0.665125 0.857654 0.395066
Si Si7 0.842191 0.240841 0.396575
Si Si8 0.491090 0.173501 0.888405
O O1 0.749660 0.116507 0.691004
O O2 0.620008 0.139122 0.852311
O O3 0.861653 0.180581 0.824550
O O4 0.844450 0.080341 0.848343
O O5 0.865285 0.812943 0.200809
O O6 0.035597 0.772281 0.322937
O O7 0.007136 0.730443 0.155325
O O8 0.875407 0.913282 0.840172
O O9 0.745911 0.886317 0.690156
O O10 0.646152 0.858517 0.859394
O O11 0.500000 0.500000 0.869248
O O12 0.498574 0.426539 0.000000
O O13 0.209794 0.376265 0.500000
O O14 0.001105 0.362387 0.378970
O O15 0.204277 0.295048 0.384829
O O16 0.706021 0.879271 0.500000
O O17 0.712288 0.798642 0.384514
O O18 0.911778 0.233088 0.500000
O O19 0.498010 0.179664 0.000000
#
# Coordination Sequence:
#
# PCOD8224793 Si02
#       8
#     8   8   8   8   8   8   8   8
#     4  10  20  37  59  82 111 148 189 228 277 335
#     4  10  21  32  49  77 117 158 187 217 268 327
#     4  11  22  36  56  82 114 147 188 234 282 332
#     4  10  23  45  67  83 103 138 186 243 302 343
#     4   9  17  31  51  78 114 152 186 224 270 320
#     4  10  19  29  49  78 114 152 185 224 270 322
#     4   9  17  28  45  71 108 155 198 226 254 305
#     4  12  23  34  51  78 114 151 190 229 270 330
#
# _framework density 18.407851999999998
#
# number of rings (size 3 to 8) (size 9 to 14) (size 15 to 20)
#    0.000    1.875    2.500    1.500    3.500    4.500 
#    0.000    2.500    0.000    3.750    0.000    1.750 
#    0.000    0.000    0.000    0.000    0.000    0.000 
#
# Total GULP energy -793380.448076 kJ/mol
# GULP energy per Si atom -12396.569501 kJ/mol
# Density = 1.836596 g / cm^3
# Si number density = 18.407852 Si / 1000 Ang^3
#
#
#
# Elastic Constant Matrix: (Units=GPa)
#
#
# Indices 1 2 3 4 5 6 
#
# 1 115.5071 41.1734 67.0511 0.0000 0.0000 0.0000
# 2 41.1734 69.2751 63.0591 0.0000 0.0000 0.0000
# 3 67.0511 63.0591 162.5739 0.0000 0.0000 0.0000
# 4 0.0000 0.0000 0.0000 15.6290 0.0000 0.0000
# 5 0.0000 0.0000 0.0000 0.0000 28.6302 0.0000
# 6 0.0000 0.0000 0.0000 0.0000 0.0000 11.1440
#
#
#
# Elastic Compliance Matrix: (Units=1/GPa)
#
#
# Indices 1 2 3 4 5 6 
#
# 1 0.012089 -0.004091 -0.003399 0.000000 0.000000 0.000000
# 2 -0.004091 0.023698 -0.007505 0.000000 0.000000 0.000000
# 3 -0.003399 -0.007505 0.010464 0.000000 0.000000 0.000000
# 4 0.000000 0.000000 0.000000 0.063984 0.000000 0.000000
# 5 0.000000 0.000000 0.000000 0.000000 0.034928 0.000000
# 6 0.000000 0.000000 0.000000 0.000000 0.000000 0.089734
#
#
# Mechanical properties :
#
#
# Convention : Reuss Voigt Hill
#
# Bulk Modulus (GPa) = 61.49578 76.65814 69.07696
# Shear Modulus (GPa) = 18.49751 22.81881 20.65816
#
# Velocity S-wave (km/s) = 3.17341 3.52465 3.35363
# Velocity P-wave (km/s) = 6.84889 7.63537 7.25280
#
# Compressibility (1/GPa) = 0.01626128
#
# Stress axis : x y z
#
# Youngs Moduli (GPa) = 82.72083 42.19780 95.56676
#
# Poissons Ratio (x) = 0.17263 0.32484
# Poissons Ratio (y) = 0.33840 0.71720
# Poissons Ratio (z) = 0.28118 0.31668
#
# Static dielectric constant tensor:
#      x y z
#    x 3.461580 0.000000 0.000000 
#    y 0.000000 2.940860 0.000000 
#    z 0.000000 0.000000 3.788390 
# 
# 
# High freq. dielectric constant tensor:
#      x y z
#    x 1.722720 0.000000 0.000000 
#    y 0.000000 1.655920 0.000000 
#    z 0.000000 0.000000 1.736620 
# 
# From -- ./inp_files/17811.got.cif
#   From: 2010.03.12/outbox.cif.g09.slc.cpg/sg55_9_cif.got.tgz:17811.got - 2010.04.16 15:19:21.
