data_PCOD8224395
_publ_section_title
;
Structure prediction by ZEFSAII (Michael W. Deem and Ramdas Pophale) SiO2 
 PCOD8224395
Probable space group: P B A M
;
_chemical_formula_sum "Si O2"
_cell_formula_units_Z 64
_cell_length_a 26.637057
_cell_length_b 18.514697
_cell_length_c 8.588964
_cell_angle_alpha 90.000000
_cell_angle_beta 90.000000
_cell_angle_gamma 90.000000
_cell_volume 4235.879836
_symmetry_space_group_name_H-M "P B A M"
_symmetry_group_IT_number 55
_symmetry_cell_setting 'orthorhombic'
loop_
_space_group_symop_operation_xyz
x,y,z
-x,-y,z
1/2+x,1/2-y,-z
1/2-x,1/2+y,-z
-x,-y,-z
x,y,-z
1/2-x,1/2+y,z
1/2+x,1/2-y,z
loop_
_atom_site_type_symbol
_atom_site_label
_atom_site_fract_x
_atom_site_fract_y
_atom_site_fract_z
Si Si1 0.852161 0.166369 0.686591
Si Si2 0.654102 0.349726 0.818325
Si Si3 0.745150 0.435226 0.313929
Si Si4 0.058866 0.081147 0.684433
Si Si5 0.243674 0.908996 0.817031
Si Si6 0.299261 0.783338 0.327624
Si Si7 0.553217 0.581930 0.684002
Si Si8 0.696802 0.803268 0.670418
O O1 0.850255 0.169010 0.500000
O O2 0.809237 0.111583 0.740598
O O3 0.905590 0.138018 0.750849
O O4 0.842785 0.248471 0.754301
O O5 0.690150 0.405365 0.727873
O O6 0.596969 0.368608 0.777517
O O7 0.662312 0.266637 0.768214
O O8 0.664537 0.357995 0.000000
O O9 0.747975 0.442507 0.500000
O O10 0.756993 0.509971 0.231514
O O11 0.788130 0.379069 0.248158
O O12 0.067668 0.088748 0.500000
O O13 0.002647 0.106403 0.732828
O O14 0.065856 0.998704 0.742258
O O15 0.289648 0.858798 0.760399
O O16 0.238208 0.902129 0.000000
O O17 0.321371 0.798723 0.500000
O O18 0.247211 0.742448 0.344329
O O19 0.556467 0.579928 0.500000
O O20 0.675595 0.822296 0.500000
#
# Coordination Sequence:
#
# PCOD8224395 Si02
#       8
#     8   8   8   8   8   8   8   8
#     4   9  15  27  44  60  79 110 145 175 207 247
#     4  11  20  29  42  63  86 110 140 178 216 249
#     4  10  18  29  42  57  80 114 146 171 202 251
#     4   9  16  28  42  59  82 112 145 176 210 251
#     4  11  20  28  40  63  88 109 136 175 212 246
#     4   9  17  31  46  59  78 110 142 169 203 250
#     4   8  15  26  43  61  79 107 148 185 207 237
#     4   7  13  24  40  58  75  98 135 171 199 233
#
# _framework density 15.109021
#
# number of rings (size 3 to 8) (size 9 to 14) (size 15 to 20)
#    0.000    2.750    0.000    6.000    0.000    1.000 
#    0.000    2.500    0.000    0.000    0.000    0.000 
#    0.000    1.000    0.000   11.750    0.000    2.250 
#
# Total GULP energy -792988.866227 kJ/mol
# GULP energy per Si atom -12390.451035 kJ/mol
# Density = 1.507463 g / cm^3
# Si number density = 15.109021 Si / 1000 Ang^3
#
#
#
# Elastic Constant Matrix: (Units=GPa)
#
#
# Indices 1 2 3 4 5 6 
#
# 1 82.5318 53.1193 13.0465 0.0000 0.0000 0.0000
# 2 53.1193 105.5775 12.6823 0.0000 0.0000 0.0000
# 3 13.0465 12.6823 40.5779 0.0000 0.0000 0.0000
# 4 0.0000 0.0000 0.0000 16.2150 0.0000 0.0000
# 5 0.0000 0.0000 0.0000 0.0000 8.9033 0.0000
# 6 0.0000 0.0000 0.0000 0.0000 0.0000 27.2015
#
#
#
# Elastic Compliance Matrix: (Units=1/GPa)
#
#
# Indices 1 2 3 4 5 6 
#
# 1 0.018292 -0.008828 -0.003122 0.000000 0.000000 0.000000
# 2 -0.008828 0.014102 -0.001569 0.000000 0.000000 0.000000
# 3 -0.003122 -0.001569 0.026138 0.000000 0.000000 0.000000
# 4 0.000000 0.000000 0.000000 0.061671 0.000000 0.000000
# 5 0.000000 0.000000 0.000000 0.000000 0.112318 0.000000
# 6 0.000000 0.000000 0.000000 0.000000 0.000000 0.036763
#
#
# Mechanical properties :
#
#
# Convention : Reuss Voigt Hill
#
# Bulk Modulus (GPa) = 31.75252 42.93150 37.34201
# Shear Modulus (GPa) = 16.29615 20.45324 18.37469
#
# Velocity S-wave (km/s) = 3.28772 3.68327 3.49110
# Velocity P-wave (km/s) = 5.95595 6.82384 6.40462
#
# Compressibility (1/GPa) = 0.03149356
#
# Stress axis : x y z
#
# Youngs Moduli (GPa) = 54.66821 70.91203 38.25827
#
# Poissons Ratio (x) = 0.62603 0.11944
# Poissons Ratio (y) = 0.48263 0.06003
# Poissons Ratio (z) = 0.17068 0.11126
#
# Static dielectric constant tensor:
#      x y z
#    x 2.945930 0.000000 0.000000 
#    y 0.000000 3.182960 0.000000 
#    z 0.000000 0.000000 2.757270 
# 
# 
# High freq. dielectric constant tensor:
#      x y z
#    x 1.545100 0.000000 0.000000 
#    y 0.000000 1.572610 0.000000 
#    z 0.000000 0.000000 1.566690 
# 
# From -- ./inp_files/10298.got.cif
#   From: 2010.03.12/outbox.cif.g09.slc.cpg/sg55_6_cif.got.tgz:10298.got - 2010.04.16 15:19:21.
