data_PCOD8224648
_publ_section_title
;
Structure prediction by ZEFSAII (Michael W. Deem and Ramdas Pophale) SiO2 
 PCOD8224648
Probable space group: P B A M
;
_chemical_formula_sum "Si O2"
_cell_formula_units_Z 48
_cell_length_a 14.855310
_cell_length_b 20.112444
_cell_length_c 8.424857
_cell_angle_alpha 90.000000
_cell_angle_beta 90.000000
_cell_angle_gamma 90.000000
_cell_volume 2517.150050
_symmetry_space_group_name_H-M "P B A M"
_symmetry_group_IT_number 55
_symmetry_cell_setting 'orthorhombic'
loop_
_space_group_symop_operation_xyz
x,y,z
-x,-y,z
1/2+x,1/2-y,-z
1/2-x,1/2+y,-z
-x,-y,-z
x,y,-z
1/2-x,1/2+y,z
1/2+x,1/2-y,z
loop_
_atom_site_type_symbol
_atom_site_label
_atom_site_fract_x
_atom_site_fract_y
_atom_site_fract_z
Si Si1 0.435696 0.556688 0.187776
Si Si2 0.805914 0.158021 0.684808
Si Si3 0.010577 0.804093 0.188550
Si Si4 0.119134 0.312619 0.185282
Si Si5 0.920479 0.547152 0.684321
Si Si6 0.263814 0.481476 0.184472
O O1 0.500000 0.500000 0.262709
O O2 0.462905 0.628851 0.253586
O O3 0.332542 0.540032 0.233674
O O4 0.447034 0.555932 0.000000
O O5 0.808063 0.141043 0.500000
O O6 0.890748 0.203123 0.734326
O O7 0.713734 0.196959 0.724247
O O8 0.810657 0.089557 0.783414
O O9 0.950557 0.742525 0.247722
O O10 0.020631 0.804195 0.000000
O O11 0.076534 0.384772 0.217304
O O12 0.137853 0.303772 0.000000
O O13 0.931985 0.564182 0.500000
O O14 0.826092 0.509465 0.712360
O O15 0.000000 0.500000 0.746237
O O16 0.238258 0.485181 0.000000
#
# Coordination Sequence:
#
# PCOD8224648 Si02
#       6
#     8   8   8   8   8   8
#     4   9  16  30  55  83 110 138 171 220 273 314
#     4  11  21  34  55  79 110 147 181 217 272 335
#     4  10  20  37  58  81 109 142 185 229 271 319
#     4  10  21  37  59  82 108 142 187 235 271 321
#     4  10  21  38  58  78 109 146 181 225 278 334
#     4  10  18  32  57  82 107 139 182 227 268 319
#
# _framework density 19.069184
#
# number of rings (size 3 to 8) (size 9 to 14) (size 15 to 20)
#    0.000    2.000    1.667    5.000    0.000    2.667 
#    3.000    2.500    0.000    0.000    0.000    0.000 
#    0.000    0.000    0.000    0.000    0.000    0.000 
#
# Total GULP energy -595261.475065 kJ/mol
# GULP energy per Si atom -12401.280731 kJ/mol
# Density = 1.902578 g / cm^3
# Si number density = 19.069184 Si / 1000 Ang^3
#
#
#
# Elastic Constant Matrix: (Units=GPa)
#
#
# Indices 1 2 3 4 5 6 
#
# 1 148.2428 82.6182 19.4619 0.0000 0.0000 0.0000
# 2 82.6182 97.5352 11.6541 0.0000 0.0000 0.0000
# 3 19.4619 11.6541 38.4883 0.0000 0.0000 0.0000
# 4 0.0000 0.0000 0.0000 11.7310 0.0000 0.0000
# 5 0.0000 0.0000 0.0000 0.0000 18.6377 0.0000
# 6 0.0000 0.0000 0.0000 0.0000 0.0000 37.4450
#
#
#
# Elastic Compliance Matrix: (Units=1/GPa)
#
#
# Indices 1 2 3 4 5 6 
#
# 1 0.013196 -0.010770 -0.003411 0.000000 0.000000 0.000000
# 2 -0.010770 0.019428 -0.000437 0.000000 0.000000 0.000000
# 3 -0.003411 -0.000437 0.027839 0.000000 0.000000 0.000000
# 4 0.000000 0.000000 0.000000 0.085244 0.000000 0.000000
# 5 0.000000 0.000000 0.000000 0.000000 0.053655 0.000000
# 6 0.000000 0.000000 0.000000 0.000000 0.000000 0.026706
#
#
# Mechanical properties :
#
#
# Convention : Reuss Voigt Hill
#
# Bulk Modulus (GPa) = 32.02418 56.85943 44.44180
# Shear Modulus (GPa) = 18.81730 24.93156 21.87443
#
# Velocity S-wave (km/s) = 3.14473 3.61976 3.39057
# Velocity P-wave (km/s) = 5.47868 6.88131 6.21966
#
# Compressibility (1/GPa) = 0.03122640
#
# Stress axis : x y z
#
# Youngs Moduli (GPa) = 75.78097 51.47259 35.92056
#
# Poissons Ratio (x) = 0.55437 0.12254
# Poissons Ratio (y) = 0.81617 0.01569
# Poissons Ratio (z) = 0.25853 0.02248
#
# Static dielectric constant tensor:
#      x y z
#    x 3.665580 0.000000 0.000000 
#    y 0.000000 3.449180 0.000000 
#    z 0.000000 0.000000 3.265850 
# 
# 
# High freq. dielectric constant tensor:
#      x y z
#    x 1.752550 0.000000 0.000000 
#    y 0.000000 1.720420 0.000000 
#    z 0.000000 0.000000 1.729310 
# 
# From -- ./inp_files/5567.got.cif
#   From: 2010.03.12/outbox.cif.g09.slc.cpg/sg55_3_cif.got.tgz:5567.got - 2010.04.16 15:19:21.
