data_PCOD8224042
_publ_section_title
;
Structure prediction by ZEFSAII (Michael W. Deem and Ramdas Pophale) SiO2 
 PCOD8224042
Probable space group: P C C A
;
_chemical_formula_sum "Si O2"
_cell_formula_units_Z 24
_cell_length_a 4.820226
_cell_length_b 18.334843
_cell_length_c 11.891456
_cell_angle_alpha 90.000000
_cell_angle_beta 90.000000
_cell_angle_gamma 90.000000
_cell_volume 1050.944132
_symmetry_space_group_name_H-M "P C C A"
_symmetry_group_IT_number 54
_symmetry_cell_setting 'orthorhombic'
loop_
_space_group_symop_operation_xyz
x,y,z
1/2-x,-y,z
1/2+x,-y,1/2-z
-x,y,1/2-z
-x,-y,-z
1/2+x,y,-z
1/2-x,y,1/2+z
x,-y,1/2+z
loop_
_atom_site_type_symbol
_atom_site_label
_atom_site_fract_x
_atom_site_fract_y
_atom_site_fract_z
Si Si1 0.166781 0.330407 0.923942
Si Si2 0.500000 0.549600 0.750000
Si Si3 0.750000 0.000000 0.083953
Si Si4 0.000000 0.115464 0.250000
Si Si5 0.500000 0.789032 0.750000
O O1 0.108951 0.402451 0.852855
O O2 0.118860 0.258278 0.851639
O O3 0.985648 0.330382 0.037703
O O4 0.750000 0.500000 0.795634
O O5 0.682626 0.931229 0.162483
O O6 0.500000 0.000000 0.000000
O O7 0.244268 0.164734 0.196183
#
# Coordination Sequence:
#
# PCOD8224042 Si02
#       5
#     8   4   4   4   4
#     4  11  24  42  64  94 129 167 216 268 320 386
#     4  11  24  41  63  94 129 168 214 264 321 384
#     4  12  26  44  68  98 132 172 218 270 330 398
#     4  12  25  45  67  97 134 170 218 274 328 395
#     4  11  25  42  66  95 129 170 216 270 327 389
#
# _framework density 22.83661
#
# number of rings (size 3 to 8) (size 9 to 14) (size 15 to 20)
#    0.000    0.667    0.000    8.000    0.000   17.333 
#    0.000    0.000    0.000    0.000    0.000    0.000 
#    0.000    0.000    0.000    0.000    0.000    0.000 
#
# Total GULP energy -297516.589514 kJ/mol
# GULP energy per Si atom -12396.524563 kJ/mol
# Density = 2.278463 g / cm^3
# Si number density = 22.836610 Si / 1000 Ang^3
#
#
#
# Elastic Constant Matrix: (Units=GPa)
#
#
# Indices 1 2 3 4 5 6 
#
# 1 125.5096 43.3390 15.1611 0.0000 0.0000 0.0000
# 2 43.3390 124.1624 34.3569 0.0000 0.0000 0.0000
# 3 15.1611 34.3569 89.8810 0.0000 0.0000 0.0000
# 4 0.0000 0.0000 0.0000 -11.6070 0.0000 0.0000
# 5 0.0000 0.0000 0.0000 0.0000 58.1028 0.0000
# 6 0.0000 0.0000 0.0000 0.0000 0.0000 38.3630
#
#
#
# Elastic Compliance Matrix: (Units=1/GPa)
#
#
# Indices 1 2 3 4 5 6 
#
# 1 0.009070 -0.003067 -0.000358 0.000000 0.000000 0.000000
# 2 -0.003067 0.010044 -0.003322 0.000000 0.000000 0.000000
# 3 -0.000358 -0.003322 0.012456 0.000000 0.000000 0.000000
# 4 0.000000 0.000000 0.000000 -0.086155 0.000000 0.000000
# 5 0.000000 0.000000 0.000000 0.000000 0.017211 0.000000
# 6 0.000000 0.000000 0.000000 0.000000 0.000000 0.026067
#
#
# Mechanical properties :
#
#
# Convention : Reuss Voigt Hill
#
# Bulk Modulus (GPa) = 55.31979 58.36298 56.84138
# Shear Modulus (GPa) = 608.99095 33.41815 321.20455
#
# Velocity S-wave (km/s) = 16.34784 3.82954 11.87260
# Velocity P-wave (km/s) = 19.50930 6.72057 14.59073
#
# Compressibility (1/GPa) = 0.01807672
#
# Stress axis : x y z
#
# Youngs Moduli (GPa) = 110.25711 99.56551 80.28312
#
# Poissons Ratio (x) = 0.30535 0.02871
# Poissons Ratio (y) = 0.33814 0.26669
# Poissons Ratio (z) = 0.03943 0.33074
#
# Static dielectric constant tensor:
#      x y z
#    x 4.271190 0.000000 0.000000 
#    y 0.000000 4.390300 0.000000 
#    z 0.000000 0.000000 3.891220 
# 
# 
# High freq. dielectric constant tensor:
#      x y z
#    x 1.928930 0.000000 0.000000 
#    y 0.000000 1.916000 0.000000 
#    z 0.000000 0.000000 1.893120 
# 
# From -- ./inp_files/6212.got.cif
#   From: 2010.03.12/outbox.cif.g09.slc.cpg/sg54_4_cif.got.tgz:6212.got - 2010.04.16 15:00:50.
