data_PCOD8224618
_publ_section_title
;
Structure prediction by ZEFSAII (Michael W. Deem and Ramdas Pophale) SiO2 
 PCOD8224618
Probable space group: P B A M
;
_chemical_formula_sum "Si O2"
_cell_formula_units_Z 48
_cell_length_a 14.973007
_cell_length_b 19.726757
_cell_length_c 8.834486
_cell_angle_alpha 90.000000
_cell_angle_beta 90.000000
_cell_angle_gamma 90.000000
_cell_volume 2609.432153
_symmetry_space_group_name_H-M "P B A M"
_symmetry_group_IT_number 55
_symmetry_cell_setting 'orthorhombic'
loop_
_space_group_symop_operation_xyz
x,y,z
-x,-y,z
1/2+x,1/2-y,-z
1/2-x,1/2+y,-z
-x,-y,-z
x,y,-z
1/2-x,1/2+y,z
1/2+x,1/2-y,z
loop_
_atom_site_type_symbol
_atom_site_label
_atom_site_fract_x
_atom_site_fract_y
_atom_site_fract_z
Si Si1 0.484419 0.305401 0.822895
Si Si2 0.919138 0.546436 0.322182
Si Si3 0.276371 0.480401 0.677004
Si Si4 0.936430 0.935637 0.327004
Si Si5 0.619240 0.187623 0.821839
Si Si6 0.197391 0.829453 0.320222
O O1 0.527965 0.376529 0.778302
O O2 0.550567 0.245769 0.773540
O O3 0.390843 0.291935 0.738481
O O4 0.465622 0.305017 0.000000
O O5 0.926118 0.562408 0.500000
O O6 0.827480 0.505742 0.285649
O O7 0.921764 0.616965 0.234684
O O8 0.000000 0.500000 0.264553
O O9 0.294931 0.477071 0.500000
O O10 0.339399 0.540696 0.739118
O O11 0.304516 0.406869 0.741657
O O12 0.931230 0.909052 0.500000
O O13 0.000000 0.000000 0.316904
O O14 0.713677 0.205830 0.744465
O O15 0.633723 0.184262 0.000000
O O16 0.201357 0.825725 0.500000
#
# Coordination Sequence:
#
# PCOD8224618 Si02
#       6
#     8   8   8   8   8   8
#     4  11  23  37  54  80 117 152 183 225 277 335
#     4   9  18  35  59  83 109 141 186 236 276 323
#     4   8  15  30  52  78 106 135 171 226 279 315
#     4  10  18  32  54  80 110 142 183 231 275 321
#     4  10  22  39  56  79 115 152 185 225 277 336
#     4  10  19  36  61  82 104 141 188 231 276 328
#
# _framework density 18.394807
#
# number of rings (size 3 to 8) (size 9 to 14) (size 15 to 20)
#    0.000    2.333    1.667    2.500    0.000    3.333 
#    3.000    0.833    0.000    0.000    0.000    0.000 
#    0.000    0.000    0.000    0.000    0.000    0.000 
#
# Total GULP energy -595128.228759 kJ/mol
# GULP energy per Si atom -12398.504766 kJ/mol
# Density = 1.835294 g / cm^3
# Si number density = 18.394807 Si / 1000 Ang^3
#
#
#
# Elastic Constant Matrix: (Units=GPa)
#
#
# Indices 1 2 3 4 5 6 
#
# 1 174.9680 69.9547 50.7339 0.0000 0.0000 0.0000
# 2 69.9547 74.0227 32.9986 0.0000 0.0000 0.0000
# 3 50.7339 32.9986 58.8289 0.0000 0.0000 0.0000
# 4 0.0000 0.0000 0.0000 26.0987 0.0000 0.0000
# 5 0.0000 0.0000 0.0000 0.0000 27.8030 0.0000
# 6 0.0000 0.0000 0.0000 0.0000 0.0000 32.6120
#
#
#
# Elastic Compliance Matrix: (Units=1/GPa)
#
#
# Indices 1 2 3 4 5 6 
#
# 1 0.009980 -0.007461 -0.004422 0.000000 0.000000 0.000000
# 2 -0.007461 0.023591 -0.006799 0.000000 0.000000 0.000000
# 3 -0.004422 -0.006799 0.024626 0.000000 0.000000 0.000000
# 4 0.000000 0.000000 0.000000 0.038316 0.000000 0.000000
# 5 0.000000 0.000000 0.000000 0.000000 0.035967 0.000000
# 6 0.000000 0.000000 0.000000 0.000000 0.000000 0.030664
#
#
# Mechanical properties :
#
#
# Convention : Reuss Voigt Hill
#
# Bulk Modulus (GPa) = 47.99870 68.35489 58.17680
# Shear Modulus (GPa) = 24.10201 27.57824 25.84012
#
# Velocity S-wave (km/s) = 3.62368 3.87620 3.75207
# Velocity P-wave (km/s) = 6.60745 7.56795 7.10395
#
# Compressibility (1/GPa) = 0.02083390
#
# Stress axis : x y z
#
# Youngs Moduli (GPa) = 100.19566 42.38957 40.60793
#
# Poissons Ratio (x) = 0.31625 0.17958
# Poissons Ratio (y) = 0.74752 0.27608
# Poissons Ratio (z) = 0.44310 0.28819
#
# Static dielectric constant tensor:
#      x y z
#    x 3.738710 0.000000 0.000000 
#    y 0.000000 3.329850 0.000000 
#    z 0.000000 0.000000 3.222690 
# 
# 
# High freq. dielectric constant tensor:
#      x y z
#    x 1.731720 0.000000 0.000000 
#    y 0.000000 1.691870 0.000000 
#    z 0.000000 0.000000 1.699380 
# 
# From -- ./inp_files/5792.got.cif
#   From: 2010.03.12/outbox.cif.g09.slc.cpg/sg55_3_cif.got.tgz:5792.got - 2010.04.16 15:19:21.
