data_PCOD8224556
_publ_section_title
;
Structure prediction by ZEFSAII (Michael W. Deem and Ramdas Pophale) SiO2 
 PCOD8224556
Probable space group: P B A M
;
_chemical_formula_sum "Si O2"
_cell_formula_units_Z 56
_cell_length_a 15.030228
_cell_length_b 21.201253
_cell_length_c 8.932007
_cell_angle_alpha 90.000000
_cell_angle_beta 90.000000
_cell_angle_gamma 90.000000
_cell_volume 2846.270372
_symmetry_space_group_name_H-M "P B A M"
_symmetry_group_IT_number 55
_symmetry_cell_setting 'orthorhombic'
loop_
_space_group_symop_operation_xyz
x,y,z
-x,-y,z
1/2+x,1/2-y,-z
1/2-x,1/2+y,-z
-x,-y,-z
x,y,-z
1/2-x,1/2+y,z
1/2+x,1/2-y,z
loop_
_atom_site_type_symbol
_atom_site_label
_atom_site_fract_x
_atom_site_fract_y
_atom_site_fract_z
Si Si1 0.575348 0.948473 0.833578
Si Si2 0.967823 0.772747 0.171460
Si Si3 0.572210 0.133865 0.827925
Si Si4 0.806521 0.828694 0.677001
Si Si5 0.170994 0.771762 0.822783
Si Si6 0.740893 0.592625 0.177507
Si Si7 0.247992 0.032263 0.325360
O O1 0.523855 0.887502 0.762806
O O2 0.648872 0.970001 0.717445
O O3 0.500000 0.000000 0.846869
O O4 0.617012 0.935687 0.000000
O O5 0.914012 0.707887 0.188581
O O6 0.908859 0.819261 0.271888
O O7 0.068602 0.762623 0.228402
O O8 0.968947 0.796699 0.000000
O O9 0.658081 0.099023 0.759446
O O10 0.567991 0.113209 0.000000
O O11 0.799119 0.821262 0.500000
O O12 0.735164 0.780166 0.747808
O O13 0.788038 0.900236 0.730502
O O14 0.191438 0.843507 0.772136
O O15 0.183098 0.763178 0.000000
O O16 0.699472 0.528523 0.248571
O O17 0.737246 0.585636 0.000000
O O18 0.234207 0.024402 0.500000
#
# Coordination Sequence:
#
# PCOD8224556 Si02
#       7
#     8   8   8   8   8   8   8
#     4  10  18  31  53  80 109 145 185 228 287 348
#     4  10  20  37  62  89 115 148 195 250 299 345
#     4   9  16  30  53  81 112 142 179 230 288 347
#     4  11  24  40  58  85 123 161 197 239 290 354
#     4  10  21  39  66  93 116 148 197 251 299 348
#     4  10  19  36  59  84 112 146 189 237 287 345
#     4  11  24  38  52  79 118 158 196 235 284 343
#
# _framework density 19.674872000000001
#
# number of rings (size 3 to 8) (size 9 to 14) (size 15 to 20)
#    0.000    1.857    2.857    1.714    0.000    4.857 
#    0.000    1.429    0.000    4.286    0.000    0.000 
#    0.000    0.000    0.000    0.000    0.000    0.000 
#
# Total GULP energy -693855.535598 kJ/mol
# GULP energy per Si atom -12390.277421 kJ/mol
# Density = 1.963009 g / cm^3
# Si number density = 19.674872 Si / 1000 Ang^3
#
#
#
# Elastic Constant Matrix: (Units=GPa)
#
#
# Indices 1 2 3 4 5 6 
#
# 1 74.0982 37.9835 24.7499 0.0000 0.0000 0.0000
# 2 37.9835 141.6453 42.2403 0.0000 0.0000 0.0000
# 3 24.7499 42.2403 45.8988 0.0000 0.0000 0.0000
# 4 0.0000 0.0000 0.0000 27.6345 0.0000 0.0000
# 5 0.0000 0.0000 0.0000 0.0000 17.9049 0.0000
# 6 0.0000 0.0000 0.0000 0.0000 0.0000 32.1041
#
#
#
# Elastic Compliance Matrix: (Units=1/GPa)
#
#
# Indices 1 2 3 4 5 6 
#
# 1 0.017093 -0.002529 -0.006890 0.000000 0.000000 0.000000
# 2 -0.002529 0.010105 -0.007935 0.000000 0.000000 0.000000
# 3 -0.006890 -0.007935 0.032805 0.000000 0.000000 0.000000
# 4 0.000000 0.000000 0.000000 0.036187 0.000000 0.000000
# 5 0.000000 0.000000 0.000000 0.000000 0.055851 0.000000
# 6 0.000000 0.000000 0.000000 0.000000 0.000000 0.031149
#
#
# Mechanical properties :
#
#
# Convention : Reuss Voigt Hill
#
# Bulk Modulus (GPa) = 39.53413 52.39886 45.96649
# Shear Modulus (GPa) = 22.09179 25.97327 24.03253
#
# Velocity S-wave (km/s) = 3.35452 3.63729 3.49876
# Velocity P-wave (km/s) = 5.92799 6.65808 6.30362
#
# Compressibility (1/GPa) = 0.02529460
#
# Stress axis : x y z
#
# Youngs Moduli (GPa) = 58.50245 98.96568 30.48321
#
# Poissons Ratio (x) = 0.25030 0.21002
# Poissons Ratio (y) = 0.14796 0.24189
# Poissons Ratio (z) = 0.40306 0.78532
#
# Static dielectric constant tensor:
#      x y z
#    x 3.693920 0.000000 0.000000 
#    y 0.000000 4.028110 0.000000 
#    z 0.000000 0.000000 3.282110 
# 
# 
# High freq. dielectric constant tensor:
#      x y z
#    x 1.753670 0.000000 0.000000 
#    y 0.000000 1.784650 0.000000 
#    z 0.000000 0.000000 1.731950 
# 
# From -- ./inp_files/6007.got.cif
#   From: 2010.03.12/outbox.cif.g09.slc.cpg/sg55_4_cif.got.tgz:6007.got - 2010.04.16 15:19:21.
