data_PCOD8224259
_publ_section_title
;
Structure prediction by ZEFSAII (Michael W. Deem and Ramdas Pophale) SiO2 
 PCOD8224259
Probable space group: P B A M
;
_chemical_formula_sum "Si O2"
_cell_formula_units_Z 64
_cell_length_a 20.899405
_cell_length_b 19.092191
_cell_length_c 9.106007
_cell_angle_alpha 90.000000
_cell_angle_beta 90.000000
_cell_angle_gamma 90.000000
_cell_volume 3633.437317
_symmetry_space_group_name_H-M "P B A M"
_symmetry_group_IT_number 55
_symmetry_cell_setting 'orthorhombic'
loop_
_space_group_symop_operation_xyz
x,y,z
-x,-y,z
1/2+x,1/2-y,-z
1/2-x,1/2+y,-z
-x,-y,-z
x,y,-z
1/2-x,1/2+y,z
1/2+x,1/2-y,z
loop_
_atom_site_type_symbol
_atom_site_label
_atom_site_fract_x
_atom_site_fract_y
_atom_site_fract_z
Si Si1 0.307088 0.546151 0.662926
Si Si2 0.685179 0.947216 0.827716
Si Si3 0.314559 0.196593 0.669054
Si Si4 0.059799 0.544266 0.670118
Si Si5 0.179137 0.212679 0.338324
Si Si6 0.953893 0.291499 0.666139
Si Si7 0.055560 0.202029 0.172851
Si Si8 0.553180 0.445283 0.673488
O O1 0.292636 0.517573 0.500000
O O2 0.251058 0.517395 0.768633
O O3 0.309510 0.629894 0.663212
O O4 0.377680 0.521386 0.715601
O O5 0.685340 0.866092 0.784814
O O6 0.622467 0.982721 0.756818
O O7 0.682532 0.957338 0.000000
O O8 0.312501 0.167137 0.500000
O O9 0.250525 0.244105 0.698175
O O10 0.381293 0.238659 0.688974
O O11 0.072113 0.528476 0.500000
O O12 0.046249 0.625858 0.697884
O O13 0.000000 0.500000 0.730150
O O14 0.156471 0.237537 0.500000
O O15 0.124338 0.233847 0.223190
O O16 0.977263 0.275970 0.500000
O O17 0.000227 0.255393 0.781870
O O18 0.041050 0.127574 0.245369
O O19 0.056613 0.193259 0.000000
O O20 0.500000 0.500000 0.725817
O O21 0.549793 0.429991 0.500000
#
# Coordination Sequence:
#
# PCOD8224259 Si02
#       8
#     8   8   8   8   8   8   8   8
#     4   8  14  26  44  65  89 116 150 192 230 267
#     4  10  17  24  40  67  96 122 148 183 228 277
#     4   8  15  28  46  66  87 115 154 197 233 265
#     4   9  18  33  52  71  91 119 157 198 235 271
#     4   8  14  27  46  66  88 116 154 197 233 265
#     4   9  17  31  50  70  93 121 154 193 233 273
#     4  11  21  30  44  70 101 129 154 183 227 282
#     4   9  18  33  52  71  91 120 159 199 235 270
#
# _framework density 17.614173999999998
#
# number of rings (size 3 to 8) (size 9 to 14) (size 15 to 20)
#    0.000    3.000    0.000    4.500    0.000    7.000 
#    0.000    0.000    0.000    1.500    0.000    5.250 
#    0.000    0.000    0.000    0.000    0.000    0.000 
#
# Total GULP energy -792995.161101 kJ/mol
# GULP energy per Si atom -12390.549392 kJ/mol
# Density = 1.757408 g / cm^3
# Si number density = 17.614174 Si / 1000 Ang^3
#
#
#
# Elastic Constant Matrix: (Units=GPa)
#
#
# Indices 1 2 3 4 5 6 
#
# 1 180.1760 38.2060 66.3732 0.0000 0.0000 0.0000
# 2 38.2060 26.2698 23.3056 0.0000 0.0000 0.0000
# 3 66.3732 23.3056 90.9873 0.0000 0.0000 0.0000
# 4 0.0000 0.0000 0.0000 13.0030 0.0000 0.0000
# 5 0.0000 0.0000 0.0000 0.0000 15.2981 0.0000
# 6 0.0000 0.0000 0.0000 0.0000 0.0000 23.2048
#
#
#
# Elastic Compliance Matrix: (Units=1/GPa)
#
#
# Indices 1 2 3 4 5 6 
#
# 1 0.009123 -0.009530 -0.004214 0.000000 0.000000 0.000000
# 2 -0.009530 0.059215 -0.008215 0.000000 0.000000 0.000000
# 3 -0.004214 -0.008215 0.016169 0.000000 0.000000 0.000000
# 4 0.000000 0.000000 0.000000 0.076906 0.000000 0.000000
# 5 0.000000 0.000000 0.000000 0.000000 0.065368 0.000000
# 6 0.000000 0.000000 0.000000 0.000000 0.000000 0.043095
#
#
# Mechanical properties :
#
#
# Convention : Reuss Voigt Hill
#
# Bulk Modulus (GPa) = 24.63772 61.46695 43.05234
# Shear Modulus (GPa) = 15.27534 21.60439 18.43987
#
# Velocity S-wave (km/s) = 2.94805 3.50599 3.23906
# Velocity P-wave (km/s) = 5.06022 7.16668 6.20351
#
# Compressibility (1/GPa) = 0.04058818
#
# Stress axis : x y z
#
# Youngs Moduli (GPa) = 109.60784 16.88749 61.84639
#
# Poissons Ratio (x) = 0.16094 0.26064
# Poissons Ratio (y) = 1.04458 0.50810
# Poissons Ratio (z) = 0.46192 0.13874
#
# Static dielectric constant tensor:
#      x y z
#    x 4.085220 0.000000 0.000000 
#    y 0.000000 2.664710 0.000000 
#    z 0.000000 0.000000 3.096220 
# 
# 
# High freq. dielectric constant tensor:
#      x y z
#    x 1.712780 0.000000 0.000000 
#    y 0.000000 1.605600 0.000000 
#    z 0.000000 0.000000 1.668390 
# 
# From -- ./inp_files/9047.got.cif
#   From: 2010.03.12/outbox.cif.g09.slc.cpg/sg55_5_cif.got.tgz:9047.got - 2010.04.16 15:19:21.
