data_PCOD8224056
_publ_section_title
;
Structure prediction by ZEFSAII (Michael W. Deem and Ramdas Pophale) SiO2 
 PCOD8224056
Probable space group: P C C A
;
_chemical_formula_sum "Si O2"
_cell_formula_units_Z 36
_cell_length_a 21.159923
_cell_length_b 7.424979
_cell_length_c 9.026818
_cell_angle_alpha 90.000000
_cell_angle_beta 90.000000
_cell_angle_gamma 90.000000
_cell_volume 1418.221284
_symmetry_space_group_name_H-M "P C C A"
_symmetry_group_IT_number 54
_symmetry_cell_setting 'orthorhombic'
loop_
_space_group_symop_operation_xyz
x,y,z
1/2-x,-y,z
1/2+x,-y,1/2-z
-x,y,1/2-z
-x,-y,-z
1/2+x,y,-z
1/2-x,y,1/2+z
x,-y,1/2+z
loop_
_atom_site_type_symbol
_atom_site_label
_atom_site_fract_x
_atom_site_fract_y
_atom_site_fract_z
Si Si1 0.000000 0.256135 0.250000
Si Si2 0.890781 0.965459 0.882575
Si Si3 0.181824 0.490224 0.696675
Si Si4 0.891110 0.667080 0.558481
Si Si5 0.311972 0.877234 0.867154
O O1 0.042198 0.380545 0.360630
O O2 0.042764 0.131761 0.143040
O O3 0.865221 0.014453 0.722323
O O4 0.896348 0.135291 0.991772
O O5 0.839408 0.838619 0.967123
O O6 0.250000 0.500000 0.614752
O O7 0.161388 0.650772 0.808949
O O8 0.126141 0.467920 0.575203
O O9 0.196599 0.314248 0.794303
O O10 0.250000 0.000000 0.879567
#
# Coordination Sequence:
#
# PCOD8224056 Si02
#       5
#     4   8   8   8   8
#     4  12  26  48  76 102 146 196 262 296 348 440
#     4  11  24  46  75 106 142 192 248 303 358 426
#     4  11  26  46  73 109 150 184 234 301 382 442
#     4  11  26  47  73 107 144 199 233 303 364 435
#     4  11  24  43  76 111 141 184 244 302 370 435
#
# _framework density 25.383911000000001
#
# number of rings (size 3 to 8) (size 9 to 14) (size 15 to 20)
#    0.000    0.889    2.222    3.333    3.111    4.444 
#    0.000    0.000    0.000    0.000    0.000    0.000 
#    0.000    0.000    0.000    0.000    0.000    0.000 
#
# Total GULP energy -446059.659722 kJ/mol
# GULP energy per Si atom -12390.546103 kJ/mol
# Density = 2.532614 g / cm^3
# Si number density = 25.383911 Si / 1000 Ang^3
#
#
#
# Elastic Constant Matrix: (Units=GPa)
#
#
# Indices 1 2 3 4 5 6 
#
# 1 156.5057 34.1628 44.5853 0.0000 0.0000 0.0000
# 2 34.1628 57.7870 21.4306 0.0000 0.0000 0.0000
# 3 44.5853 21.4306 126.5282 0.0000 0.0000 0.0000
# 4 0.0000 0.0000 0.0000 14.8282 0.0000 0.0000
# 5 0.0000 0.0000 0.0000 0.0000 62.3809 0.0000
# 6 0.0000 0.0000 0.0000 0.0000 0.0000 37.2784
#
#
#
# Elastic Compliance Matrix: (Units=1/GPa)
#
#
# Indices 1 2 3 4 5 6 
#
# 1 0.007830 -0.003847 -0.002107 0.000000 0.000000 0.000000
# 2 -0.003847 0.020355 -0.002092 0.000000 0.000000 0.000000
# 3 -0.002107 -0.002092 0.009000 0.000000 0.000000 0.000000
# 4 0.000000 0.000000 0.000000 0.067439 0.000000 0.000000
# 5 0.000000 0.000000 0.000000 0.000000 0.016031 0.000000
# 6 0.000000 0.000000 0.000000 0.000000 0.000000 0.026825
#
#
# Mechanical properties :
#
#
# Convention : Reuss Voigt Hill
#
# Bulk Modulus (GPa) = 47.41134 60.13091 53.77113
# Shear Modulus (GPa) = 29.30768 38.94033 34.12401
#
# Velocity S-wave (km/s) = 3.40159 3.92095 3.67047
# Velocity P-wave (km/s) = 5.84346 6.65120 6.26037
#
# Compressibility (1/GPa) = 0.02109200
#
# Stress axis : x y z
#
# Youngs Moduli (GPa) = 127.71904 49.12749 111.10766
#
# Poissons Ratio (x) = 0.18901 0.23414
# Poissons Ratio (y) = 0.49137 0.23243
# Poissons Ratio (z) = 0.26915 0.10277
#
# Static dielectric constant tensor:
#      x y z
#    x 4.614530 0.000000 0.000000 
#    y 0.000000 4.616940 0.000000 
#    z 0.000000 0.000000 4.907850 
# 
# 
# High freq. dielectric constant tensor:
#      x y z
#    x 2.008270 0.000000 0.000000 
#    y 0.000000 2.011210 0.000000 
#    z 0.000000 0.000000 2.041530 
# 
# From -- ./inp_files/4561.got.cif
#   From: 2010.03.12/outbox.cif.g09.slc.cpg/sg54_3_cif.got.tgz:4561.got - 2010.04.16 15:00:50.
