data_PCOD8224902
_publ_section_title
;
Structure prediction by ZEFSAII (Michael W. Deem and Ramdas Pophale) SiO2 
 PCOD8224902
Probable space group: P B A M
;
_chemical_formula_sum "Si O2"
_cell_formula_units_Z 64
_cell_length_a 12.757959
_cell_length_b 28.261640
_cell_length_c 9.763810
_cell_angle_alpha 90.000000
_cell_angle_beta 90.000000
_cell_angle_gamma 90.000000
_cell_volume 3520.447578
_symmetry_space_group_name_H-M "P B A M"
_symmetry_group_IT_number 55
_symmetry_cell_setting 'orthorhombic'
loop_
_space_group_symop_operation_xyz
x,y,z
-x,-y,z
1/2+x,1/2-y,-z
1/2-x,1/2+y,-z
-x,-y,-z
x,y,-z
1/2-x,1/2+y,z
1/2+x,1/2-y,z
loop_
_atom_site_type_symbol
_atom_site_label
_atom_site_fract_x
_atom_site_fract_y
_atom_site_fract_z
Si Si1 0.309345 0.235119 0.657921
Si Si2 0.233725 0.335286 0.655893
Si Si3 0.691169 0.329675 0.848411
Si Si4 0.885188 0.400176 0.847729
Si Si5 0.994920 0.332287 0.343872
Si Si6 0.184453 0.918335 0.837282
Si Si7 0.266256 0.522305 0.837688
Si Si8 0.948499 0.912555 0.837903
O O1 0.282704 0.225633 0.500000
O O2 0.310857 0.291229 0.688214
O O3 0.214360 0.212375 0.743704
O O4 0.421271 0.212164 0.699626
O O5 0.250397 0.353185 0.500000
O O6 0.114769 0.317058 0.676594
O O7 0.254327 0.376947 0.761599
O O8 0.787192 0.365545 0.854798
O O9 0.590265 0.359670 0.798084
O O10 0.671837 0.308096 0.000000
O O11 0.840651 0.450665 0.791704
O O12 0.972148 0.379012 0.746416
O O13 0.934843 0.405710 0.000000
O O14 0.970965 0.346463 0.500000
O O15 0.065383 0.919813 0.781791
O O16 0.238712 0.967657 0.793277
O O17 0.190103 0.909632 0.000000
O O18 0.370314 0.547649 0.775020
O O19 0.274734 0.526673 0.000000
O O20 0.949286 0.918201 0.000000
#
# Coordination Sequence:
#
# PCOD8224902 Si02
#       8
#     8   8   8   8   8   8   8   8
#     4   9  18  33  52  70  89 121 163 197 229 281
#     4  10  22  37  49  66  97 129 154 192 244 285
#     4   8  14  26  46  73 100 121 147 190 239 279
#     4   8  14  27  49  74  96 119 151 193 235 271
#     4   9  18  34  53  70  91 122 157 191 234 287
#     4  10  19  31  49  72  97 128 165 197 227 275
#     4   8  14  27  49  75 100 126 157 193 232 275
#     4   8  14  26  47  75 103 127 152 189 239 286
#
# _framework density 18.179507000000001
#
# number of rings (size 3 to 8) (size 9 to 14) (size 15 to 20)
#    0.000    3.250    0.000    1.875    0.000    3.500 
#    0.000    3.125    0.000    6.750    0.000    0.000 
#    0.000    0.000    0.000    0.000    0.000    0.000 
#
# Total GULP energy -793187.780645 kJ/mol
# GULP energy per Si atom -12393.559073 kJ/mol
# Density = 1.813813 g / cm^3
# Si number density = 18.179507 Si / 1000 Ang^3
#
#
#
# Elastic Constant Matrix: (Units=GPa)
#
#
# Indices 1 2 3 4 5 6 
#
# 1 58.2310 41.4683 25.6062 0.0000 0.0000 0.0000
# 2 41.4683 111.0674 45.6232 0.0000 0.0000 0.0000
# 3 25.6062 45.6232 51.8018 0.0000 0.0000 0.0000
# 4 0.0000 0.0000 0.0000 19.8785 0.0000 0.0000
# 5 0.0000 0.0000 0.0000 0.0000 18.7539 0.0000
# 6 0.0000 0.0000 0.0000 0.0000 0.0000 25.0265
#
#
#
# Elastic Compliance Matrix: (Units=1/GPa)
#
#
# Indices 1 2 3 4 5 6 
#
# 1 0.024676 -0.006585 -0.006398 0.000000 0.000000 0.000000
# 2 -0.006585 0.015864 -0.010717 0.000000 0.000000 0.000000
# 3 -0.006398 -0.010717 0.031906 0.000000 0.000000 0.000000
# 4 0.000000 0.000000 0.000000 0.050305 0.000000 0.000000
# 5 0.000000 0.000000 0.000000 0.000000 0.053322 0.000000
# 6 0.000000 0.000000 0.000000 0.000000 0.000000 0.039958
#
#
# Mechanical properties :
#
#
# Convention : Reuss Voigt Hill
#
# Bulk Modulus (GPa) = 39.92683 49.61063 44.76873
# Shear Modulus (GPa) = 18.39721 19.95861 19.17791
#
# Velocity S-wave (km/s) = 3.18461 3.31700 3.25148
# Velocity P-wave (km/s) = 5.96092 6.48217 6.22700
#
# Compressibility (1/GPa) = 0.02504581
#
# Stress axis : x y z
#
# Youngs Moduli (GPa) = 40.52562 63.03418 31.34211
#
# Poissons Ratio (x) = 0.41507 0.20053
# Poissons Ratio (y) = 0.26686 0.33590
# Poissons Ratio (z) = 0.25929 0.67555
#
# Static dielectric constant tensor:
#      x y z
#    x 3.369220 0.000000 0.000000 
#    y 0.000000 3.484650 0.000000 
#    z 0.000000 0.000000 3.218580 
# 
# 
# High freq. dielectric constant tensor:
#      x y z
#    x 1.692620 0.000000 0.000000 
#    y 0.000000 1.698330 0.000000 
#    z 0.000000 0.000000 1.671220 
# 
# From -- ./inp_files/13664.got.cif
#   From: 2010.03.12/outbox.cif.g09.slc.cpg/sg55_7_cif.got.tgz:13664.got - 2010.04.16 15:19:21.
