data_PCOD8224075
_publ_section_title
;
Structure prediction by ZEFSAII (Michael W. Deem and Ramdas Pophale) SiO2 
 PCOD8224075
Probable space group: P C C A
;
_chemical_formula_sum "Si O2"
_cell_formula_units_Z 32
_cell_length_a 15.376363
_cell_length_b 6.550135
_cell_length_c 13.837621
_cell_angle_alpha 90.000000
_cell_angle_beta 90.000000
_cell_angle_gamma 90.000000
_cell_volume 1393.687182
_symmetry_space_group_name_H-M "P C C A"
_symmetry_group_IT_number 54
_symmetry_cell_setting 'orthorhombic'
loop_
_space_group_symop_operation_xyz
x,y,z
1/2-x,-y,z
1/2+x,-y,1/2-z
-x,y,1/2-z
-x,-y,-z
1/2+x,y,-z
1/2-x,y,1/2+z
x,-y,1/2+z
loop_
_atom_site_type_symbol
_atom_site_label
_atom_site_fract_x
_atom_site_fract_y
_atom_site_fract_z
Si Si1 0.500000 0.469810 0.250000
Si Si2 0.250000 0.000000 0.139388
Si Si3 0.012369 0.709411 0.447643
Si Si4 0.183238 0.684285 0.792254
Si Si5 0.131351 0.047050 0.466088
O O1 0.522456 0.318870 0.338639
O O2 0.584594 0.606651 0.224892
O O3 0.284971 0.809243 0.199768
O O4 0.175929 0.916934 0.068815
O O5 0.000000 0.500000 0.500000
O O6 0.961332 0.850968 0.521906
O O7 0.110622 0.806697 0.441684
O O8 0.250000 0.500000 0.812546
O O9 0.186499 0.841533 0.882466
#
# Coordination Sequence:
#
# PCOD8224075 Si02
#       5
#     4   4   8   8   8
#     4  12  26  46  82 104 154 194 256 306 392 450
#     4  12  28  46  72 106 150 194 244 318 372 458
#     4  11  24  47  72 109 144 193 244 315 373 459
#     4  12  29  49  74 114 148 202 254 314 381 458
#     4  11  27  45  76 106 148 193 254 308 389 452
#
# _framework density 22.960675999999999
#
# number of rings (size 3 to 8) (size 9 to 14) (size 15 to 20)
#    0.000    0.500    2.500    3.750   14.000    3.000 
#    0.000    0.000    0.000    0.000    0.000    0.000 
#    0.000    0.000    0.000    0.000    0.000    0.000 
#
# Total GULP energy -396470.550636 kJ/mol
# GULP energy per Si atom -12389.704707 kJ/mol
# Density = 2.290842 g / cm^3
# Si number density = 22.960676 Si / 1000 Ang^3
#
#
#
# Elastic Constant Matrix: (Units=GPa)
#
#
# Indices 1 2 3 4 5 6 
#
# 1 114.9545 77.3334 36.7079 0.0000 0.0000 0.0000
# 2 77.3334 134.7426 66.5091 0.0000 0.0000 0.0000
# 3 36.7079 66.5091 173.9461 0.0000 0.0000 0.0000
# 4 0.0000 0.0000 0.0000 46.6526 0.0000 0.0000
# 5 0.0000 0.0000 0.0000 0.0000 38.4710 0.0000
# 6 0.0000 0.0000 0.0000 0.0000 0.0000 41.1461
#
#
#
# Elastic Compliance Matrix: (Units=1/GPa)
#
#
# Indices 1 2 3 4 5 6 
#
# 1 0.014173 -0.008207 0.000147 0.000000 0.000000 0.000000
# 2 -0.008207 0.013900 -0.003583 0.000000 0.000000 0.000000
# 3 0.000147 -0.003583 0.007088 0.000000 0.000000 0.000000
# 4 0.000000 0.000000 0.000000 0.021435 0.000000 0.000000
# 5 0.000000 0.000000 0.000000 0.000000 0.025994 0.000000
# 6 0.000000 0.000000 0.000000 0.000000 0.000000 0.024304
#
#
# Mechanical properties :
#
#
# Convention : Reuss Voigt Hill
#
# Bulk Modulus (GPa) = 84.20682 87.19377 85.70029
# Shear Modulus (GPa) = 37.27490 41.46012 39.36751
#
# Velocity S-wave (km/s) = 4.03354 4.25396 4.14522
# Velocity P-wave (km/s) = 7.64504 7.88581 7.76636
#
# Compressibility (1/GPa) = 0.01187552
#
# Stress axis : x y z
#
# Youngs Moduli (GPa) = 70.55504 71.94003 141.08675
#
# Poissons Ratio (x) = 0.59042 -0.02074
# Poissons Ratio (y) = 0.57905 0.50551
# Poissons Ratio (z) = -0.01037 0.25776
#
# Static dielectric constant tensor:
#      x y z
#    x 4.314640 0.000000 0.000000 
#    y 0.000000 3.854220 0.000000 
#    z 0.000000 0.000000 4.171420 
# 
# 
# High freq. dielectric constant tensor:
#      x y z
#    x 1.913610 0.000000 0.000000 
#    y 0.000000 1.919970 0.000000 
#    z 0.000000 0.000000 1.922940 
# 
# From -- ./inp_files/13759.got.cif
#   From: 2010.03.12/outbox.cif.g09.slc.cpg/sg54_7_cif.got.tgz:13759.got - 2010.04.16 15:00:50.
