data_PCOD8224378
_publ_section_title
;
Structure prediction by ZEFSAII (Michael W. Deem and Ramdas Pophale) SiO2 
 PCOD8224378
Probable space group: P B A M
;
_chemical_formula_sum "Si O2"
_cell_formula_units_Z 64
_cell_length_a 19.320927
_cell_length_b 20.156137
_cell_length_c 9.754054
_cell_angle_alpha 90.000000
_cell_angle_beta 90.000000
_cell_angle_gamma 90.000000
_cell_volume 3798.572473
_symmetry_space_group_name_H-M "P B A M"
_symmetry_group_IT_number 55
_symmetry_cell_setting 'orthorhombic'
loop_
_space_group_symop_operation_xyz
x,y,z
-x,-y,z
1/2+x,1/2-y,-z
1/2-x,1/2+y,-z
-x,-y,-z
x,y,-z
1/2-x,1/2+y,z
1/2+x,1/2-y,z
loop_
_atom_site_type_symbol
_atom_site_label
_atom_site_fract_x
_atom_site_fract_y
_atom_site_fract_z
Si Si1 0.378244 0.527494 0.658708
Si Si2 0.604420 0.963246 0.844942
Si Si3 0.035543 0.396740 0.156329
Si Si4 0.454744 0.654806 0.336875
Si Si5 0.777710 0.491690 0.657771
Si Si6 0.896515 0.119296 0.663492
Si Si7 0.610193 0.208743 0.663026
Si Si8 0.746744 0.139813 0.662079
O O1 0.397819 0.525469 0.500000
O O2 0.420336 0.588349 0.727074
O O3 0.297039 0.541270 0.678987
O O4 0.399636 0.456217 0.722228
O O5 0.546521 0.907013 0.823101
O O6 0.668154 0.948398 0.744353
O O7 0.573560 0.034938 0.809770
O O8 0.631925 0.961507 0.000000
O O9 0.059129 0.342040 0.263780
O O10 0.051260 0.374417 0.000000
O O11 0.451401 0.652516 0.500000
O O12 0.535084 0.658798 0.287030
O O13 0.411543 0.718312 0.285442
O O14 0.800649 0.489267 0.500000
O O15 0.777116 0.567335 0.713826
O O16 0.893989 0.115645 0.500000
O O17 0.825201 0.154743 0.716954
O O18 0.601324 0.200132 0.500000
O O19 0.690111 0.194529 0.708745
O O20 0.750569 0.136730 0.500000
#
# Coordination Sequence:
#
# PCOD8224378 Si02
#       8
#     8   8   8   8   8   8   8   8
#     4   8  14  24  40  63  90 117 147 186 229 268
#     4   9  17  29  45  65  88 114 149 189 220 252
#     4   9  18  31  45  62  86 118 152 183 218 261
#     4   9  16  25  39  63  91 119 150 186 224 265
#     4   9  15  25  43  66  91 116 142 176 225 273
#     4   8  13  23  40  60  86 119 152 181 218 267
#     4  10  18  28  43  65  93 118 146 184 226 267
#     4   8  14  24  38  59  86 116 142 174 220 264
#
# _framework density 16.848434000000001
#
# number of rings (size 3 to 8) (size 9 to 14) (size 15 to 20)
#    0.000    3.250    1.250    2.625    0.000    2.000 
#    0.000    2.500    0.000    5.250    0.000    4.375 
#    0.000    5.000    0.000    0.000    0.000    0.000 
#
# Total GULP energy -792987.584761 kJ/mol
# GULP energy per Si atom -12390.431012 kJ/mol
# Density = 1.681009 g / cm^3
# Si number density = 16.848434 Si / 1000 Ang^3
#
#
#
# Elastic Constant Matrix: (Units=GPa)
#
#
# Indices 1 2 3 4 5 6 
#
# 1 133.9152 61.3093 27.6015 0.0000 0.0000 0.0000
# 2 61.3093 83.8496 15.5720 0.0000 0.0000 0.0000
# 3 27.6015 15.5720 26.1353 0.0000 0.0000 0.0000
# 4 0.0000 0.0000 0.0000 9.4241 0.0000 0.0000
# 5 0.0000 0.0000 0.0000 0.0000 6.5465 0.0000
# 6 0.0000 0.0000 0.0000 0.0000 0.0000 26.6508
#
#
#
# Elastic Compliance Matrix: (Units=1/GPa)
#
#
# Indices 1 2 3 4 5 6 
#
# 1 0.012858 -0.007735 -0.008970 0.000000 0.000000 0.000000
# 2 -0.007735 0.018064 -0.002593 0.000000 0.000000 0.000000
# 3 -0.008970 -0.002593 0.049281 0.000000 0.000000 0.000000
# 4 0.000000 0.000000 0.000000 0.106111 0.000000 0.000000
# 5 0.000000 0.000000 0.000000 0.000000 0.152753 0.000000
# 6 0.000000 0.000000 0.000000 0.000000 0.000000 0.037522
#
#
# Mechanical properties :
#
#
# Convention : Reuss Voigt Hill
#
# Bulk Modulus (GPa) = 24.03579 50.31841 37.17710
# Shear Modulus (GPa) = 11.65351 17.81875 14.73613
#
# Velocity S-wave (km/s) = 2.63281 3.25559 2.96062
# Velocity P-wave (km/s) = 4.85171 6.63792 5.81382
#
# Compressibility (1/GPa) = 0.04160462
#
# Stress axis : x y z
#
# Youngs Moduli (GPa) = 77.77423 55.35938 20.29177
#
# Poissons Ratio (x) = 0.42823 0.18202
# Poissons Ratio (y) = 0.60162 0.05262
# Poissons Ratio (z) = 0.69764 0.14357
#
# Static dielectric constant tensor:
#      x y z
#    x 3.506450 0.000000 0.000000 
#    y 0.000000 3.122130 0.000000 
#    z 0.000000 0.000000 2.628180 
# 
# 
# High freq. dielectric constant tensor:
#      x y z
#    x 1.665390 0.000000 0.000000 
#    y 0.000000 1.623430 0.000000 
#    z 0.000000 0.000000 1.588840 
# 
# From -- ./inp_files/9150.got.cif
#   From: 2010.03.12/outbox.cif.g09.slc.cpg/sg55_5_cif.got.tgz:9150.got - 2010.04.16 15:19:21.
