data_PCOD8224175
_publ_section_title
;
Structure prediction by ZEFSAII (Michael W. Deem and Ramdas Pophale) SiO2 
 PCOD8224175
Probable space group: P C C A
;
_chemical_formula_sum "Si O2"
_cell_formula_units_Z 40
_cell_length_a 17.882505
_cell_length_b 5.360590
_cell_length_c 18.026376
_cell_angle_alpha 90.000000
_cell_angle_beta 90.000000
_cell_angle_gamma 90.000000
_cell_volume 1728.022418
_symmetry_space_group_name_H-M "P C C A"
_symmetry_group_IT_number 54
_symmetry_cell_setting 'orthorhombic'
loop_
_space_group_symop_operation_xyz
x,y,z
1/2-x,-y,z
1/2+x,-y,1/2-z
-x,y,1/2-z
-x,-y,-z
1/2+x,y,-z
1/2-x,y,1/2+z
x,-y,1/2+z
loop_
_atom_site_type_symbol
_atom_site_label
_atom_site_fract_x
_atom_site_fract_y
_atom_site_fract_z
Si Si1 0.917298 0.742244 0.719322
Si Si2 0.557264 0.332832 0.452983
Si Si3 0.169115 0.944360 0.496115
Si Si4 0.672403 0.643338 0.361711
Si Si5 0.579963 0.770826 0.628408
O O1 0.854512 0.741829 0.782740
O O2 0.914677 0.481187 0.675652
O O3 0.000000 0.786481 0.750000
O O4 0.893310 0.982307 0.671315
O O5 0.500000 0.500000 0.500000
O O6 0.609947 0.172359 0.507178
O O7 0.607597 0.476818 0.395172
O O8 0.504206 0.167731 0.399547
O O9 0.250000 0.000000 0.461063
O O10 0.182799 0.869799 0.581212
O O11 0.133618 0.729491 0.443926
O O12 0.750000 0.500000 0.352515
#
# Coordination Sequence:
#
# PCOD8224175 Si02
#       5
#     8   8   8   8   8
#     4  12  27  47  74 107 151 197 251 308 379 455
#     4  12  24  47  76 113 146 196 260 323 381 460
#     4  12  27  46  77 108 152 198 252 320 385 457
#     4  12  27  47  76 109 155 199 254 317 389 457
#     4  12  27  47  76 111 147 197 254 312 374 458
#
# _framework density 23.147849000000001
#
# number of rings (size 3 to 8) (size 9 to 14) (size 15 to 20)
#    0.000    0.000    6.000    3.600    2.800    1.600 
#    0.000    0.000    0.000    0.000    0.000    0.000 
#    0.000    0.000    0.000    0.000    0.000    0.000 
#
# Total GULP energy -495940.618080 kJ/mol
# GULP energy per Si atom -12398.515452 kJ/mol
# Density = 2.309516 g / cm^3
# Si number density = 23.147849 Si / 1000 Ang^3
#
#
#
# Elastic Constant Matrix: (Units=GPa)
#
#
# Indices 1 2 3 4 5 6 
#
# 1 163.0971 36.9096 51.6917 0.0000 0.0000 0.0000
# 2 36.9096 111.0011 40.2255 0.0000 0.0000 0.0000
# 3 51.6917 40.2255 109.6576 0.0000 0.0000 0.0000
# 4 0.0000 0.0000 0.0000 21.5237 0.0000 0.0000
# 5 0.0000 0.0000 0.0000 0.0000 37.6743 0.0000
# 6 0.0000 0.0000 0.0000 0.0000 0.0000 29.4246
#
#
#
# Elastic Compliance Matrix: (Units=1/GPa)
#
#
# Indices 1 2 3 4 5 6 
#
# 1 0.007386 -0.001377 -0.002977 0.000000 0.000000 0.000000
# 2 -0.001377 0.010647 -0.003256 0.000000 0.000000 0.000000
# 3 -0.002977 -0.003256 0.011717 0.000000 0.000000 0.000000
# 4 0.000000 0.000000 0.000000 0.046460 0.000000 0.000000
# 5 0.000000 0.000000 0.000000 0.000000 0.026543 0.000000
# 6 0.000000 0.000000 0.000000 0.000000 0.000000 0.033985
#
#
# Mechanical properties :
#
#
# Convention : Reuss Voigt Hill
#
# Bulk Modulus (GPa) = 68.82469 71.26771 70.04620
# Shear Modulus (GPa) = 31.88713 34.71981 33.30347
#
# Velocity S-wave (km/s) = 3.71555 3.87708 3.79717
# Velocity P-wave (km/s) = 6.94293 7.13423 7.03923
#
# Compressibility (1/GPa) = 0.01452967
#
# Stress axis : x y z
#
# Youngs Moduli (GPa) = 135.38327 93.92339 85.34637
#
# Poissons Ratio (x) = 0.12937 0.25404
# Poissons Ratio (y) = 0.18648 0.27791
# Poissons Ratio (z) = 0.40299 0.30584
#
# Static dielectric constant tensor:
#      x y z
#    x 4.413390 0.000000 0.000000 
#    y 0.000000 3.998780 0.000000 
#    z 0.000000 0.000000 -0.510720 
# 
# 
# High freq. dielectric constant tensor:
#      x y z
#    x 1.930340 0.000000 0.000000 
#    y 0.000000 1.913550 0.000000 
#    z 0.000000 0.000000 1.925450 
# 
# From -- ./inp_files/18373.got.cif
#   From: 2010.03.12/outbox.cif.g09.slc.cpg/sg54_10_cif.got.tgz:18373.got - 2010.04.16 15:00:50.
