data_PCOD8224035
_publ_section_title
;
Structure prediction by ZEFSAII (Michael W. Deem and Ramdas Pophale) SiO2 
 PCOD8224035
Probable space group: P C C A
;
_chemical_formula_sum "Si O2"
_cell_formula_units_Z 40
_cell_length_a 16.919746
_cell_length_b 10.210439
_cell_length_c 9.400346
_cell_angle_alpha 90.000000
_cell_angle_beta 90.000000
_cell_angle_gamma 90.000000
_cell_volume 1623.985298
_symmetry_space_group_name_H-M "P C C A"
_symmetry_group_IT_number 54
_symmetry_cell_setting 'orthorhombic'
loop_
_space_group_symop_operation_xyz
x,y,z
1/2-x,-y,z
1/2+x,-y,1/2-z
-x,y,1/2-z
-x,-y,-z
1/2+x,y,-z
1/2-x,y,1/2+z
x,-y,1/2+z
loop_
_atom_site_type_symbol
_atom_site_label
_atom_site_fract_x
_atom_site_fract_y
_atom_site_fract_z
Si Si1 0.024764 0.871605 0.585436
Si Si2 0.022359 0.632787 0.099120
Si Si3 0.786744 0.134780 0.443569
Si Si4 0.624938 0.488801 0.192354
Si Si5 0.740167 0.705925 0.189356
O O1 0.118741 0.859998 0.566818
O O2 0.000000 0.884377 0.750000
O O3 0.978960 0.743379 0.522677
O O4 0.000000 0.000000 0.500000
O O5 0.103280 0.554421 0.143437
O O6 0.000000 0.706634 0.250000
O O7 0.048915 0.479048 0.916097
O O8 0.749266 0.251242 0.351156
O O9 0.749623 0.162074 0.598182
O O10 0.750000 0.000000 0.388942
O O11 0.653734 0.638162 0.179286
O O12 0.693100 0.393515 0.137856
#
# Coordination Sequence:
#
# PCOD8224035 Si02
#       5
#     8   8   8   8   8
#     4  12  28  47  77 111 158 212 268 331 403 475
#     4   8  18  45  75 110 150 194 264 310 394 464
#     4  12  29  47  76 112 152 207 268 330 398 476
#     4   8  20  41  80 105 149 203 240 329 381 477
#     4  11  23  47  74 109 153 197 261 315 405 459
#
# _framework density 24.630763999999999
#
# number of rings (size 3 to 8) (size 9 to 14) (size 15 to 20)
#    1.200    0.400    2.000    1.200    8.400    3.200 
#    3.600    1.000    0.000    0.000    0.000    0.000 
#    0.000    0.000    0.000    0.000    0.000    0.000 
#
# Total GULP energy -495549.625200 kJ/mol
# GULP energy per Si atom -12388.740630 kJ/mol
# Density = 2.457470 g / cm^3
# Si number density = 24.630764 Si / 1000 Ang^3
#
#
#
# Elastic Constant Matrix: (Units=GPa)
#
#
# Indices 1 2 3 4 5 6 
#
# 1 135.7736 68.2073 49.4940 0.0000 0.0000 0.0000
# 2 68.2073 125.9358 43.1041 0.0000 0.0000 0.0000
# 3 49.4940 43.1041 118.1364 0.0000 0.0000 0.0000
# 4 0.0000 0.0000 0.0000 31.2854 0.0000 0.0000
# 5 0.0000 0.0000 0.0000 0.0000 38.3121 0.0000
# 6 0.0000 0.0000 0.0000 0.0000 0.0000 39.7714
#
#
#
# Elastic Compliance Matrix: (Units=1/GPa)
#
#
# Indices 1 2 3 4 5 6 
#
# 1 0.010844 -0.004934 -0.002743 0.000000 0.000000 0.000000
# 2 -0.004934 0.011319 -0.002063 0.000000 0.000000 0.000000
# 3 -0.002743 -0.002063 0.010366 0.000000 0.000000 0.000000
# 4 0.000000 0.000000 0.000000 0.031964 0.000000 0.000000
# 5 0.000000 0.000000 0.000000 0.000000 0.026101 0.000000
# 6 0.000000 0.000000 0.000000 0.000000 0.000000 0.025144
#
#
# Mechanical properties :
#
#
# Convention : Reuss Voigt Hill
#
# Bulk Modulus (GPa) = 76.62898 77.93959 77.28429
# Shear Modulus (GPa) = 35.82496 36.47647 36.15072
#
# Velocity S-wave (km/s) = 3.81790 3.85246 3.83522
# Velocity P-wave (km/s) = 7.11434 7.17639 7.14543
#
# Compressibility (1/GPa) = 0.01304989
#
# Stress axis : x y z
#
# Youngs Moduli (GPa) = 92.21854 88.34727 96.46483
#
# Poissons Ratio (x) = 0.43593 0.26458
# Poissons Ratio (y) = 0.45503 0.19897
# Poissons Ratio (z) = 0.25293 0.18223
#
# Static dielectric constant tensor:
#      x y z
#    x 4.482230 0.000000 0.000000 
#    y 0.000000 4.282150 0.000000 
#    z 0.000000 0.000000 4.604730 
# 
# 
# High freq. dielectric constant tensor:
#      x y z
#    x 1.986380 0.000000 0.000000 
#    y 0.000000 1.979370 0.000000 
#    z 0.000000 0.000000 1.997500 
# 
# From -- ./inp_files/3985.got.cif
#   From: 2010.03.12/outbox.cif.g09.slc.cpg/sg54_2_cif.got.tgz:3985.got - 2010.04.16 15:00:50.
