data_PCOD8224595
_publ_section_title
;
Structure prediction by ZEFSAII (Michael W. Deem and Ramdas Pophale) SiO2 
 PCOD8224595
Probable space group: P B A M
;
_chemical_formula_sum "Si O2"
_cell_formula_units_Z 60
_cell_length_a 26.516621
_cell_length_b 5.328144
_cell_length_c 20.763968
_cell_angle_alpha 90.000000
_cell_angle_beta 90.000000
_cell_angle_gamma 90.000000
_cell_volume 2933.624243
_symmetry_space_group_name_H-M "P B A M"
_symmetry_group_IT_number 55
_symmetry_cell_setting 'orthorhombic'
loop_
_space_group_symop_operation_xyz
x,y,z
-x,-y,z
1/2+x,1/2-y,-z
1/2-x,1/2+y,-z
-x,-y,-z
x,y,-z
1/2-x,1/2+y,z
1/2+x,1/2-y,z
loop_
_atom_site_type_symbol
_atom_site_label
_atom_site_fract_x
_atom_site_fract_y
_atom_site_fract_z
Si Si1 0.926492 0.748567 0.139376
Si Si2 0.942955 0.519957 0.423602
Si Si3 0.512498 0.750056 0.251185
Si Si4 0.468537 0.751577 0.000000
Si Si5 0.774183 0.092010 0.383058
Si Si6 0.887256 0.021117 0.423215
Si Si7 0.726028 0.656012 0.233514
Si Si8 0.614844 0.747163 0.189122
O O1 0.936601 0.738787 0.064380
O O2 0.890131 0.510978 0.152055
O O3 0.977545 0.746832 0.184645
O O4 0.894682 0.003427 0.145708
O O5 0.941211 0.529431 0.500000
O O6 0.916040 0.772712 0.396939
O O7 0.000000 0.500000 0.398842
O O8 0.915280 0.270431 0.397838
O O9 0.500000 0.500000 0.291403
O O10 0.571860 0.749149 0.242820
O O11 0.500000 0.000000 0.291902
O O12 0.500000 0.500000 0.000000
O O13 0.500000 0.000000 0.000000
O O14 0.758142 0.360602 0.414291
O O15 0.761477 0.123331 0.308275
O O16 0.832006 0.025188 0.393609
O O17 0.884181 0.018794 0.500000
O O18 0.741968 0.387697 0.202272
O O19 0.667923 0.721581 0.223652
#
# Coordination Sequence:
#
# PCOD8224595 Si02
#       8
#     8   8   8   4   8   8   8   8
#     4  10  19  30  48  77 108 138 165 195 243 302
#     4   9  17  30  49  73 101 135 175 214 244 283
#     4   8  14  25  41  65  95 124 152 181 227 286
#     4  12  20  30  48  78 120 152 170 198 236 298
#     4  10  21  36  53  75 105 134 167 220 278 326
#     4  10  19  31  51  78 106 140 176 208 258 324
#     4  10  21  37  56  77  95 124 175 229 273 307
#     4  10  18  32  51  71  97 130 169 213 250 291
#
# _framework density 20.452514999999998
#
# number of rings (size 3 to 8) (size 9 to 14) (size 15 to 20)
#    0.000    2.267    0.000    5.200    0.000    2.133 
#    0.000    0.000    0.000    7.200    0.000   10.267 
#    0.000    0.000    0.000    0.000    0.000    0.000 
#
# Total GULP energy -743335.935605 kJ/mol
# GULP energy per Si atom -12388.932260 kJ/mol
# Density = 2.040596 g / cm^3
# Si number density = 20.452515 Si / 1000 Ang^3
#
#
#
# Elastic Constant Matrix: (Units=GPa)
#
#
# Indices 1 2 3 4 5 6 
#
# 1 131.3676 76.4554 -1.4082 0.0000 0.0000 0.0000
# 2 76.4554 243.2117 13.8764 0.0000 0.0000 0.0000
# 3 -1.4082 13.8764 16.6449 0.0000 0.0000 0.0000
# 4 0.0000 0.0000 0.0000 11.0233 0.0000 0.0000
# 5 0.0000 0.0000 0.0000 0.0000 20.5802 0.0000
# 6 0.0000 0.0000 0.0000 0.0000 0.0000 42.6402
#
#
#
# Elastic Compliance Matrix: (Units=1/GPa)
#
#
# Indices 1 2 3 4 5 6 
#
# 1 0.009503 -0.003185 0.003459 0.000000 0.000000 0.000000
# 2 -0.003185 0.005384 -0.004758 0.000000 0.000000 0.000000
# 3 0.003459 -0.004758 0.064338 0.000000 0.000000 0.000000
# 4 0.000000 0.000000 0.000000 0.090717 0.000000 0.000000
# 5 0.000000 0.000000 0.000000 0.000000 0.048590 0.000000
# 6 0.000000 0.000000 0.000000 0.000000 0.000000 0.023452
#
#
# Mechanical properties :
#
#
# Convention : Reuss Voigt Hill
#
# Bulk Modulus (GPa) = 14.23345 63.23017 38.73181
# Shear Modulus (GPa) = 18.22350 35.00209 26.61280
#
# Velocity S-wave (km/s) = 2.98823 4.14137 3.61113
# Velocity P-wave (km/s) = 4.34515 7.33830 6.03038
#
# Compressibility (1/GPa) = 0.07025702
#
# Stress axis : x y z
#
# Youngs Moduli (GPa) = 105.23288 185.72787 15.54298
#
# Poissons Ratio (x) = 0.59147 -0.05376
# Poissons Ratio (y) = 0.33512 0.07396
# Poissons Ratio (z) = -0.36399 0.88371
#
# Static dielectric constant tensor:
#      x y z
#    x 3.556830 0.000000 0.000000 
#    y 0.000000 4.993560 0.000000 
#    z 0.000000 0.000000 2.921810 
# 
# 
# High freq. dielectric constant tensor:
#      x y z
#    x 1.789700 0.000000 0.000000 
#    y 0.000000 1.843280 0.000000 
#    z 0.000000 0.000000 1.752660 
# 
# From -- ./inp_files/23179.got.cif
#   From: 2010.03.12/outbox.cif.g09.slc.cpg/sg55_12_cif.got.tgz:23179.got - 2010.04.16 15:19:21.
