data_PCOD8224991
_publ_section_title
;
Structure prediction by ZEFSAII (Michael W. Deem and Ramdas Pophale) SiO2 
 PCOD8224991
Probable space group: P B A M
;
_chemical_formula_sum "Si O2"
_cell_formula_units_Z 48
_cell_length_a 8.868599
_cell_length_b 25.025357
_cell_length_c 12.320754
_cell_angle_alpha 90.000000
_cell_angle_beta 90.000000
_cell_angle_gamma 90.000000
_cell_volume 2734.466369
_symmetry_space_group_name_H-M "P B A M"
_symmetry_group_IT_number 55
_symmetry_cell_setting 'orthorhombic'
loop_
_space_group_symop_operation_xyz
x,y,z
-x,-y,z
1/2+x,1/2-y,-z
1/2-x,1/2+y,-z
-x,-y,-z
x,y,-z
1/2-x,1/2+y,z
1/2+x,1/2-y,z
loop_
_atom_site_type_symbol
_atom_site_label
_atom_site_fract_x
_atom_site_fract_y
_atom_site_fract_z
Si Si1 0.833429 0.489195 0.871153
Si Si2 0.671048 0.594530 0.127950
Si Si3 0.685182 0.182577 0.500000
Si Si4 0.167618 0.318996 0.263363
Si Si5 0.330706 0.616647 0.128832
Si Si6 0.177450 0.706101 0.734881
Si Si7 0.858191 0.283680 0.500000
O O1 0.720467 0.535726 0.832005
O O2 0.772656 0.432271 0.829265
O O3 0.000000 0.500000 0.822996
O O4 0.839306 0.487941 0.000000
O O5 0.784986 0.637664 0.176020
O O6 0.500885 0.604620 0.165813
O O7 0.686828 0.599218 0.000000
O O8 0.683230 0.152113 0.616490
O O9 0.827618 0.220918 0.500000
O O10 0.537572 0.219348 0.500000
O O11 0.276421 0.267837 0.251720
O O12 0.998196 0.300581 0.236072
O O13 0.278219 0.670540 0.186248
O O14 0.318981 0.624520 0.000000
O O15 0.205705 0.688127 0.609135
#
# Coordination Sequence:
#
# PCOD8224991 Si02
#       7
#     8   8   4   8   8   8   4
#     4   9  17  31  51  72  93 122 161 199 235 279
#     4  10  20  33  49  71  99 129 160 195 236 282
#     4   8  16  30  48  69  92 121 158 198 236 278
#     4  10  19  32  50  72  98 127 160 197 239 285
#     4  10  20  33  49  71  99 129 160 195 236 282
#     4  10  19  32  50  72  98 127 160 197 239 285
#     4   8  16  30  48  69  92 121 158 198 236 278
#
# _framework density 17.553699000000002
#
# number of rings (size 3 to 8) (size 9 to 14) (size 15 to 20)
#    0.000    2.500    0.000    2.500    0.000    6.000 
#    0.000    0.000    0.000    1.000    0.000    7.000 
#    0.000    0.000    0.000    0.000    0.000    0.000 
#
# Total GULP energy -594852.224168 kJ/mol
# GULP energy per Si atom -12392.754670 kJ/mol
# Density = 1.751375 g / cm^3
# Si number density = 17.553699 Si / 1000 Ang^3
#
#
#
# Elastic Constant Matrix: (Units=GPa)
#
#
# Indices 1 2 3 4 5 6 
#
# 1 67.4036 5.5431 18.8649 0.0000 0.0000 0.0000
# 2 5.5431 61.4744 20.0849 0.0000 0.0000 0.0000
# 3 18.8649 20.0849 31.9724 0.0000 0.0000 0.0000
# 4 0.0000 0.0000 0.0000 1.9523 0.0000 0.0000
# 5 0.0000 0.0000 0.0000 0.0000 21.4608 0.0000
# 6 0.0000 0.0000 0.0000 0.0000 0.0000 33.7056
#
#
#
# Elastic Compliance Matrix: (Units=1/GPa)
#
#
# Indices 1 2 3 4 5 6 
#
# 1 0.018032 0.002328 -0.012102 0.000000 0.000000 0.000000
# 2 0.002328 0.020768 -0.014420 0.000000 0.000000 0.000000
# 3 -0.012102 -0.014420 0.047476 0.000000 0.000000 0.000000
# 4 0.000000 0.000000 0.000000 0.512223 0.000000 0.000000
# 5 0.000000 0.000000 0.000000 0.000000 0.046597 0.000000
# 6 0.000000 0.000000 0.000000 0.000000 0.000000 0.029669
#
#
# Mechanical properties :
#
#
# Convention : Reuss Voigt Hill
#
# Bulk Modulus (GPa) = 26.39340 27.75956 27.07648
# Shear Modulus (GPa) = 6.79549 19.18090 12.98820
#
# Velocity S-wave (km/s) = 1.96969 3.30919 2.72308
# Velocity P-wave (km/s) = 4.49904 5.51809 5.03442
#
# Compressibility (1/GPa) = 0.03788826
#
# Stress axis : x y z
#
# Youngs Moduli (GPa) = 55.45825 48.15014 21.06320
#
# Poissons Ratio (x) = -0.11209 0.25490
# Poissons Ratio (y) = -0.12911 0.30374
# Poissons Ratio (z) = 0.67114 0.69433
#
# Static dielectric constant tensor:
#      x y z
#    x 3.481530 0.000000 0.000000 
#    y 0.000000 3.091930 0.000000 
#    z 0.000000 0.000000 3.275220 
# 
# 
# High freq. dielectric constant tensor:
#      x y z
#    x 1.697650 0.000000 0.000000 
#    y 0.000000 1.656090 0.000000 
#    z 0.000000 0.000000 1.659410 
# 
# From -- ./inp_files/12278.got.cif
#   From: 2010.03.12/outbox.cif.g09.slc.cpg/sg55_7_cif.got.tgz:12278.got - 2010.04.16 15:19:21.
