data_PCOD8224128
_publ_section_title
;
Structure prediction by ZEFSAII (Michael W. Deem and Ramdas Pophale) SiO2 
 PCOD8224128
Probable space group: P C C A
;
_chemical_formula_sum "Si O2"
_cell_formula_units_Z 64
_cell_length_a 23.344450
_cell_length_b 8.711901
_cell_length_c 13.658922
_cell_angle_alpha 90.000000
_cell_angle_beta 90.000000
_cell_angle_gamma 90.000000
_cell_volume 2777.876942
_symmetry_space_group_name_H-M "P C C A"
_symmetry_group_IT_number 54
_symmetry_cell_setting 'orthorhombic'
loop_
_space_group_symop_operation_xyz
x,y,z
1/2-x,-y,z
1/2+x,-y,1/2-z
-x,y,1/2-z
-x,-y,-z
1/2+x,y,-z
1/2-x,y,1/2+z
x,-y,1/2+z
loop_
_atom_site_type_symbol
_atom_site_label
_atom_site_fract_x
_atom_site_fract_y
_atom_site_fract_z
Si Si1 0.481367 0.756684 0.644039
Si Si2 0.119332 0.539451 0.112516
Si Si3 0.903896 0.027568 0.300713
Si Si4 0.697960 0.886641 0.439825
Si Si5 0.588746 0.596036 0.581334
Si Si6 0.564166 0.646575 0.225834
Si Si7 0.233547 0.664683 0.179169
Si Si8 0.671151 0.822616 0.661950
O O1 0.500000 0.691774 0.750000
O O2 0.431162 0.659649 0.596843
O O3 0.458773 0.932725 0.656129
O O4 0.536659 0.722033 0.575187
O O5 0.111094 0.440433 0.209380
O O6 0.176040 0.643685 0.115198
O O7 0.117593 0.416565 0.024596
O O8 0.870411 0.940173 0.215740
O O9 0.861800 0.062636 0.391269
O O10 0.927170 0.173316 0.240860
O O11 0.716318 0.722452 0.393648
O O12 0.691036 0.884407 0.556858
O O13 0.750000 0.000000 0.412636
O O14 0.572613 0.423132 0.616593
O O15 0.636384 0.664299 0.653788
O O16 0.500000 0.599745 0.250000
O O17 0.250000 0.500000 0.223397
O O18 0.225748 0.784443 0.269040
#
# Coordination Sequence:
#
# PCOD8224128 Si02
#       8
#     8   8   8   8   8   8   8   8
#     4  12  20  45  72  99 146 197 227 287 371 429
#     4  12  23  46  70 105 144 182 239 300 352 435
#     4  12  26  47  71 101 151 191 240 296 360 441
#     4  12  28  50  72 106 143 191 249 304 363 434
#     4  12  24  43  74 106 143 187 239 295 364 432
#     4  12  24  42  68 109 142 184 238 289 348 433
#     4  12  25  48  77 102 140 188 241 311 364 418
#     4  12  26  48  72 103 143 191 236 295 373 436
#
# _framework density 23.039176999999999
#
# number of rings (size 3 to 8) (size 9 to 14) (size 15 to 20)
#    0.000    0.000    7.500    3.000    1.750    3.500 
#    0.000    1.250    0.000    0.000    0.000    0.000 
#    0.000    0.000    0.000    0.000    0.000    0.000 
#
# Total GULP energy -793408.255331 kJ/mol
# GULP energy per Si atom -12397.003990 kJ/mol
# Density = 2.298674 g / cm^3
# Si number density = 23.039177 Si / 1000 Ang^3
#
#
#
# Elastic Constant Matrix: (Units=GPa)
#
#
# Indices 1 2 3 4 5 6 
#
# 1 86.9976 23.5670 50.2902 0.0000 0.0000 0.0000
# 2 23.5670 112.5630 38.3170 0.0000 0.0000 0.0000
# 3 50.2902 38.3170 113.7435 0.0000 0.0000 0.0000
# 4 0.0000 0.0000 0.0000 33.1078 0.0000 0.0000
# 5 0.0000 0.0000 0.0000 0.0000 29.5984 0.0000
# 6 0.0000 0.0000 0.0000 0.0000 0.0000 36.3226
#
#
#
# Elastic Compliance Matrix: (Units=1/GPa)
#
#
# Indices 1 2 3 4 5 6 
#
# 1 0.015547 -0.001034 -0.006526 0.000000 0.000000 0.000000
# 2 -0.001034 0.010103 -0.002947 0.000000 0.000000 0.000000
# 3 -0.006526 -0.002947 0.012670 0.000000 0.000000 0.000000
# 4 0.000000 0.000000 0.000000 0.030204 0.000000 0.000000
# 5 0.000000 0.000000 0.000000 0.000000 0.033786 0.000000
# 6 0.000000 0.000000 0.000000 0.000000 0.000000 0.027531
#
#
# Mechanical properties :
#
#
# Convention : Reuss Voigt Hill
#
# Bulk Modulus (GPa) = 57.77636 59.73918 58.75777
# Shear Modulus (GPa) = 31.92406 33.21440 32.56923
#
# Velocity S-wave (km/s) = 3.72646 3.80102 3.76393
# Velocity P-wave (km/s) = 6.60660 6.72677 6.66696
#
# Compressibility (1/GPa) = 0.01730812
#
# Stress axis : x y z
#
# Youngs Moduli (GPa) = 64.32193 98.97719 78.92956
#
# Poissons Ratio (x) = 0.10231 0.51506
# Poissons Ratio (y) = 0.06649 0.23257
# Poissons Ratio (z) = 0.41974 0.29164
#
# Static dielectric constant tensor:
#      x y z
#    x 4.400120 0.000000 0.000000 
#    y 0.000000 4.269070 0.000000 
#    z 0.000000 0.000000 4.012820 
# 
# 
# High freq. dielectric constant tensor:
#      x y z
#    x 1.921920 0.000000 0.000000 
#    y 0.000000 1.917590 0.000000 
#    z 0.000000 0.000000 1.896920 
# 
# From -- ./inp_files/14989.got.cif
#   From: 2010.03.12/outbox.cif.g09.slc.cpg/sg54_8_cif.got.tgz:14989.got - 2010.04.16 15:00:50.
