data_PCOD8224510
_publ_section_title
;
Structure prediction by ZEFSAII (Michael W. Deem and Ramdas Pophale) SiO2 
 PCOD8224510
Probable space group: P B A M
;
_chemical_formula_sum "Si O2"
_cell_formula_units_Z 48
_cell_length_a 14.072981
_cell_length_b 20.567358
_cell_length_c 8.657989
_cell_angle_alpha 90.000000
_cell_angle_beta 90.000000
_cell_angle_gamma 90.000000
_cell_volume 2506.003300
_symmetry_space_group_name_H-M "P B A M"
_symmetry_group_IT_number 55
_symmetry_cell_setting 'orthorhombic'
loop_
_space_group_symop_operation_xyz
x,y,z
-x,-y,z
1/2+x,1/2-y,-z
1/2-x,1/2+y,-z
-x,-y,-z
x,y,-z
1/2-x,1/2+y,z
1/2+x,1/2-y,z
loop_
_atom_site_type_symbol
_atom_site_label
_atom_site_fract_x
_atom_site_fract_y
_atom_site_fract_z
Si Si1 0.446439 0.939143 0.820732
Si Si2 0.953924 0.817257 0.817898
Si Si3 0.442220 0.436856 0.320921
Si Si4 0.740954 0.511281 0.821016
Si Si5 0.049439 0.686896 0.184460
Si Si6 0.750971 0.862376 0.183459
O O1 0.335090 0.946681 0.795647
O O2 0.484406 0.871720 0.749706
O O3 0.500000 0.000000 0.741352
O O4 0.474663 0.938341 0.000000
O O5 0.847014 0.828411 0.750909
O O6 0.020869 0.877270 0.778890
O O7 0.003199 0.752784 0.747094
O O8 0.946402 0.810404 0.000000
O O9 0.500000 0.500000 0.269504
O O10 0.455811 0.420518 0.500000
O O11 0.333256 0.450172 0.282976
O O12 0.753665 0.437405 0.760678
O O13 0.709475 0.511097 0.000000
O O14 0.158022 0.676539 0.244132
O O15 0.048799 0.689556 0.000000
O O16 0.751215 0.861806 0.000000
#
# Coordination Sequence:
#
# PCOD8224510 Si02
#       6
#     8   8   8   8   8   8
#     4   9  15  26  48  81 111 137 170 216 264 304
#     4  10  20  33  53  78 107 139 174 217 262 313
#     4  11  23  37  53  74 102 136 177 221 264 314
#     4  10  18  30  55  83 107 136 176 218 259 310
#     4   9  17  29  48  79 115 141 170 215 265 313
#     4   9  16  28  48  77 110 140 170 212 263 309
#
# _framework density 19.154005000000002
#
# number of rings (size 3 to 8) (size 9 to 14) (size 15 to 20)
#    0.000    2.333    3.333    0.500    0.000    2.000 
#    0.000    5.000    0.000    5.500    0.000    0.000 
#    0.000    0.000    0.000    0.000    0.000    0.000 
#
# Total GULP energy -595059.278531 kJ/mol
# GULP energy per Si atom -12397.068303 kJ/mol
# Density = 1.911041 g / cm^3
# Si number density = 19.154005 Si / 1000 Ang^3
#
#
#
# Elastic Constant Matrix: (Units=GPa)
#
#
# Indices 1 2 3 4 5 6 
#
# 1 131.5869 80.8616 8.7498 0.0000 0.0000 0.0000
# 2 80.8616 151.5226 6.0487 0.0000 0.0000 0.0000
# 3 8.7498 6.0487 4.6223 0.0000 0.0000 0.0000
# 4 0.0000 0.0000 0.0000 5.3204 0.0000 0.0000
# 5 0.0000 0.0000 0.0000 0.0000 6.6812 0.0000
# 6 0.0000 0.0000 0.0000 0.0000 0.0000 37.0880
#
#
#
# Elastic Compliance Matrix: (Units=1/GPa)
#
#
# Indices 1 2 3 4 5 6 
#
# 1 0.012274 -0.005932 -0.015470 0.000000 0.000000 0.000000
# 2 -0.005932 0.009831 -0.001635 0.000000 0.000000 0.000000
# 3 -0.015470 -0.001635 0.247765 0.000000 0.000000 0.000000
# 4 0.000000 0.000000 0.000000 0.187954 0.000000 0.000000
# 5 0.000000 0.000000 0.000000 0.000000 0.149673 0.000000
# 6 0.000000 0.000000 0.000000 0.000000 0.000000 0.026963
#
#
# Mechanical properties :
#
#
# Convention : Reuss Voigt Hill
#
# Bulk Modulus (GPa) = 4.46838 53.22800 28.84819
# Shear Modulus (GPa) = 6.62134 22.62272 14.62203
#
# Velocity S-wave (km/s) = 1.86129 3.44044 2.76595
# Velocity P-wave (km/s) = 2.63764 6.60545 5.02937
#
# Compressibility (1/GPa) = 0.22379492
#
# Stress axis : x y z
#
# Youngs Moduli (GPa) = 81.47433 101.72054 4.03607
#
# Poissons Ratio (x) = 0.60345 0.06244
# Poissons Ratio (y) = 0.48334 0.00660
# Poissons Ratio (z) = 1.26044 0.16629
#
# Static dielectric constant tensor:
#      x y z
#    x 3.741240 0.000000 0.000000 
#    y 0.000000 3.691510 0.000000 
#    z 0.000000 0.000000 2.846120 
# 
# 
# High freq. dielectric constant tensor:
#      x y z
#    x 1.761440 0.000000 0.000000 
#    y 0.000000 1.748880 0.000000 
#    z 0.000000 0.000000 1.678010 
# 
# From -- ./inp_files/5639.got.cif
#   From: 2010.03.12/outbox.cif.g09.slc.cpg/sg55_3_cif.got.tgz:5639.got - 2010.04.16 15:19:21.
