data_PCOD8224796
_publ_section_title
;
Structure prediction by ZEFSAII (Michael W. Deem and Ramdas Pophale) SiO2 
 PCOD8224796
Probable space group: P B A M
;
_chemical_formula_sum "Si O2"
_cell_formula_units_Z 64
_cell_length_a 14.059895
_cell_length_b 27.112131
_cell_length_c 10.374908
_cell_angle_alpha 90.000000
_cell_angle_beta 90.000000
_cell_angle_gamma 90.000000
_cell_volume 3954.849724
_symmetry_space_group_name_H-M "P B A M"
_symmetry_group_IT_number 55
_symmetry_cell_setting 'orthorhombic'
loop_
_space_group_symop_operation_xyz
x,y,z
-x,-y,z
1/2+x,1/2-y,-z
1/2-x,1/2+y,-z
-x,-y,-z
x,y,-z
1/2-x,1/2+y,z
1/2+x,1/2-y,z
loop_
_atom_site_type_symbol
_atom_site_label
_atom_site_fract_x
_atom_site_fract_y
_atom_site_fract_z
Si Si1 0.975076 0.684930 0.644706
Si Si2 0.471369 0.702580 0.274833
Si Si3 0.864124 0.889451 0.359428
Si Si4 0.789533 0.773687 0.138120
Si Si5 0.123335 0.860667 0.851912
Si Si6 0.827181 0.661055 0.143332
Si Si7 0.023991 0.055793 0.148009
Si Si8 0.688266 0.828017 0.355519
O O1 0.937446 0.673984 0.500000
O O2 0.981981 0.744246 0.658286
O O3 0.908620 0.657593 0.748764
O O4 0.077694 0.659857 0.665576
O O5 0.425208 0.661259 0.367441
O O6 0.397362 0.707067 0.156508
O O7 0.573985 0.683713 0.227419
O O8 0.876514 0.915104 0.500000
O O9 0.893968 0.925609 0.244140
O O10 0.752680 0.876802 0.336018
O O11 0.787689 0.715592 0.133097
O O12 0.718636 0.787467 0.252143
O O13 0.754172 0.795002 0.000000
O O14 0.233685 0.869749 0.812107
O O15 0.070218 0.912207 0.827491
O O16 0.118546 0.844566 0.000000
O O17 0.864200 0.644245 0.000000
O O18 0.059568 0.060781 0.000000
O O19 0.000000 0.000000 0.183161
O O20 0.703947 0.806485 0.500000
#
# Coordination Sequence:
#
# PCOD8224796 Si02
#       8
#     8   8   8   8   8   8   8   8
#     4  10  19  30  42  58  85 121 156 187 213 239
#     4   9  16  26  41  62  87 118 150 179 211 249
#     4   9  17  29  44  64  90 115 141 175 213 255
#     4   9  16  25  39  59  83 111 147 183 212 245
#     4   9  16  28  45  63  87 115 141 173 217 261
#     4   9  18  29  40  58  82 112 148 183 214 246
#     4   9  18  32  50  71  91 110 133 165 211 268
#     4   9  18  29  41  59  84 115 148 180 215 248
#
# _framework density 16.182663999999999
#
# number of rings (size 3 to 8) (size 9 to 14) (size 15 to 20)
#    0.000    2.875    0.000    1.500    0.000    7.250 
#    0.000    3.125    0.000    0.000    0.000    0.875 
#    0.000    7.000    0.000    0.000    0.000    0.000 
#
# Total GULP energy -793009.941811 kJ/mol
# GULP energy per Si atom -12390.780341 kJ/mol
# Density = 1.614583 g / cm^3
# Si number density = 16.182664 Si / 1000 Ang^3
#
#
#
# Elastic Constant Matrix: (Units=GPa)
#
#
# Indices 1 2 3 4 5 6 
#
# 1 108.3180 26.0648 63.4798 0.0000 0.0000 0.0000
# 2 26.0648 41.5044 23.2574 0.0000 0.0000 0.0000
# 3 63.4798 23.2574 114.9304 0.0000 0.0000 0.0000
# 4 0.0000 0.0000 0.0000 12.3097 0.0000 0.0000
# 5 0.0000 0.0000 0.0000 0.0000 23.7589 0.0000
# 6 0.0000 0.0000 0.0000 0.0000 0.0000 11.2641
#
#
#
# Elastic Compliance Matrix: (Units=1/GPa)
#
#
# Indices 1 2 3 4 5 6 
#
# 1 0.014597 -0.005244 -0.007001 0.000000 0.000000 0.000000
# 2 -0.005244 0.029059 -0.002984 0.000000 0.000000 0.000000
# 3 -0.007001 -0.002984 0.013172 0.000000 0.000000 0.000000
# 4 0.000000 0.000000 0.000000 0.081237 0.000000 0.000000
# 5 0.000000 0.000000 0.000000 0.000000 0.042090 0.000000
# 6 0.000000 0.000000 0.000000 0.000000 0.000000 0.088777
#
#
# Mechanical properties :
#
#
# Convention : Reuss Voigt Hill
#
# Bulk Modulus (GPa) = 37.92239 54.48407 46.20323
# Shear Modulus (GPa) = 16.22430 19.59659 17.91045
#
# Velocity S-wave (km/s) = 3.16978 3.48366 3.33042
# Velocity P-wave (km/s) = 6.07301 7.06558 6.58802
#
# Compressibility (1/GPa) = 0.02636965
#
# Stress axis : x y z
#
# Youngs Moduli (GPa) = 68.50737 34.41269 75.91966
#
# Poissons Ratio (x) = 0.18045 0.53153
# Poissons Ratio (y) = 0.35923 0.22656
# Poissons Ratio (z) = 0.47964 0.10269
#
# Static dielectric constant tensor:
#      x y z
#    x 3.168480 0.000000 0.000000 
#    y 0.000000 2.712460 0.000000 
#    z 0.000000 0.000000 3.259590 
# 
# 
# High freq. dielectric constant tensor:
#      x y z
#    x 1.618560 0.000000 0.000000 
#    y 0.000000 1.568140 0.000000 
#    z 0.000000 0.000000 1.634020 
# 
# From -- ./inp_files/6933.got.cif
#   From: 2010.03.12/outbox.cif.g09.slc.cpg/sg55_4_cif.got.tgz:6933.got - 2010.04.16 15:19:21.
