data_PCOD8224516
_publ_section_title
;
Structure prediction by ZEFSAII (Michael W. Deem and Ramdas Pophale) SiO2 
 PCOD8224516
Probable space group: P B A M
;
_chemical_formula_sum "Si O2"
_cell_formula_units_Z 56
_cell_length_a 9.506140
_cell_length_b 25.289103
_cell_length_c 14.297739
_cell_angle_alpha 90.000000
_cell_angle_beta 90.000000
_cell_angle_gamma 90.000000
_cell_volume 3437.201528
_symmetry_space_group_name_H-M "P B A M"
_symmetry_group_IT_number 55
_symmetry_cell_setting 'orthorhombic'
loop_
_space_group_symop_operation_xyz
x,y,z
-x,-y,z
1/2+x,1/2-y,-z
1/2-x,1/2+y,-z
-x,-y,-z
x,y,-z
1/2-x,1/2+y,z
1/2+x,1/2-y,z
loop_
_atom_site_type_symbol
_atom_site_label
_atom_site_fract_x
_atom_site_fract_y
_atom_site_fract_z
Si Si1 0.638572 0.418360 0.110580
Si Si2 0.721207 0.475192 0.397876
Si Si3 0.668650 0.301259 0.109942
Si Si4 0.348222 0.399554 0.205572
Si Si5 0.447718 0.416624 0.602155
Si Si6 0.338863 0.000421 0.791275
Si Si7 0.352254 0.293088 0.110932
O O1 0.703586 0.361275 0.140491
O O2 0.485887 0.425998 0.157937
O O3 0.747235 0.463097 0.140527
O O4 0.613719 0.421015 0.000000
O O5 0.796242 0.470516 0.500000
O O6 0.629128 0.527536 0.393516
O O7 0.614876 0.425905 0.383917
O O8 0.834403 0.476017 0.314367
O O9 0.512475 0.286648 0.142701
O O10 0.772680 0.257745 0.154393
O O11 0.682437 0.296266 0.000000
O O12 0.387600 0.382105 0.312180
O O13 0.221543 0.441309 0.203302
O O14 0.291937 0.347582 0.153155
O O15 0.420543 0.389780 0.500000
O O16 0.500000 0.000000 0.825345
O O17 0.335667 0.297463 0.000000
#
# Coordination Sequence:
#
# PCOD8224516 Si02
#       7
#     8   8   8   8   8   8   8
#     4  10  20  34  49  63  88 128 164 193 226 273
#     4   8  14  27  45  64  89 119 151 190 229 265
#     4   8  16  30  47  66  85 110 149 192 228 261
#     4  10  18  31  49  69  92 122 157 188 227 279
#     4   8  13  24  46  70  87 112 154 194 223 258
#     4  11  22  31  42  68 100 126 154 189 234 286
#     4   9  17  30  49  70  89 113 151 194 231 269
#
# _framework density 16.292323
#
# number of rings (size 3 to 8) (size 9 to 14) (size 15 to 20)
#    0.000    2.857    1.429    2.571    0.000    3.429 
#    0.000    1.429    0.000    0.000    0.000    5.000 
#    0.000    0.000    0.000    0.000    0.000    0.000 
#
# Total GULP energy -693943.196012 kJ/mol
# GULP energy per Si atom -12391.842786 kJ/mol
# Density = 1.625524 g / cm^3
# Si number density = 16.292323 Si / 1000 Ang^3
#
#
#
# Elastic Constant Matrix: (Units=GPa)
#
#
# Indices 1 2 3 4 5 6 
#
# 1 56.9566 21.2109 13.0551 0.0000 0.0000 0.0000
# 2 21.2109 50.7295 10.3974 0.0000 0.0000 0.0000
# 3 13.0551 10.3974 65.6945 0.0000 0.0000 0.0000
# 4 0.0000 0.0000 0.0000 9.4087 0.0000 0.0000
# 5 0.0000 0.0000 0.0000 0.0000 15.4915 0.0000
# 6 0.0000 0.0000 0.0000 0.0000 0.0000 26.1522
#
#
#
# Elastic Compliance Matrix: (Units=1/GPa)
#
#
# Indices 1 2 3 4 5 6 
#
# 1 0.021324 -0.008317 -0.002921 0.000000 0.000000 0.000000
# 2 -0.008317 0.023617 -0.002085 0.000000 0.000000 0.000000
# 3 -0.002921 -0.002085 0.016132 0.000000 0.000000 0.000000
# 4 0.000000 0.000000 0.000000 0.106284 0.000000 0.000000
# 5 0.000000 0.000000 0.000000 0.000000 0.064551 0.000000
# 6 0.000000 0.000000 0.000000 0.000000 0.000000 0.038238
#
#
# Mechanical properties :
#
#
# Convention : Reuss Voigt Hill
#
# Bulk Modulus (GPa) = 29.04710 29.18972 29.11841
# Shear Modulus (GPa) = 16.21953 18.79163 17.50558
#
# Velocity S-wave (km/s) = 3.15863 3.39986 3.28146
# Velocity P-wave (km/s) = 5.58301 5.77644 5.68055
#
# Compressibility (1/GPa) = 0.03442684
#
# Stress axis : x y z
#
# Youngs Moduli (GPa) = 46.89498 42.34171 61.98669
#
# Poissons Ratio (x) = 0.35217 0.18108
# Poissons Ratio (y) = 0.39004 0.12924
# Poissons Ratio (z) = 0.13699 0.08828
#
# Static dielectric constant tensor:
#      x y z
#    x 2.950820 0.000000 0.000000 
#    y 0.000000 3.054230 0.000000 
#    z 0.000000 0.000000 3.314760 
# 
# 
# High freq. dielectric constant tensor:
#      x y z
#    x 1.606310 0.000000 0.000000 
#    y 0.000000 1.600600 0.000000 
#    z 0.000000 0.000000 1.621850 
# 
# From -- ./inp_files/17906.got.cif
#   From: 2010.03.12/outbox.cif.g09.slc.cpg/sg55_9_cif.got.tgz:17906.got - 2010.04.16 15:19:21.
