data_PCOD8224412
_publ_section_title
;
Structure prediction by ZEFSAII (Michael W. Deem and Ramdas Pophale) SiO2 
 PCOD8224412
Probable space group: P B A M
;
_chemical_formula_sum "Si O2"
_cell_formula_units_Z 52
_cell_length_a 15.983229
_cell_length_b 16.873982
_cell_length_c 9.750759
_cell_angle_alpha 90.000000
_cell_angle_beta 90.000000
_cell_angle_gamma 90.000000
_cell_volume 2629.786708
_symmetry_space_group_name_H-M "P B A M"
_symmetry_group_IT_number 55
_symmetry_cell_setting 'orthorhombic'
loop_
_space_group_symop_operation_xyz
x,y,z
-x,-y,z
1/2+x,1/2-y,-z
1/2-x,1/2+y,-z
-x,-y,-z
x,y,-z
1/2-x,1/2+y,z
1/2+x,1/2-y,z
loop_
_atom_site_type_symbol
_atom_site_label
_atom_site_fract_x
_atom_site_fract_y
_atom_site_fract_z
Si Si1 0.864050 0.384646 0.849803
Si Si2 0.177558 0.066387 0.162470
Si Si3 0.000000 0.500000 0.761800
Si Si4 0.375023 0.876677 0.343602
Si Si5 0.353044 0.707368 0.344755
Si Si6 0.158102 0.746251 0.650486
Si Si7 0.694504 0.579105 0.338273
O O1 0.775841 0.422385 0.807203
O O2 0.891292 0.312377 0.751774
O O3 0.933641 0.453345 0.854006
O O4 0.856387 0.347296 0.000000
O O5 0.126822 0.138114 0.235363
O O6 0.150269 0.986542 0.242258
O O7 0.156606 0.062054 0.000000
O O8 0.048088 0.436569 0.668556
O O9 0.351515 0.861338 0.500000
O O10 0.397756 0.788169 0.287973
O O11 0.289730 0.912525 0.280611
O O12 0.382138 0.683486 0.500000
O O13 0.255269 0.726241 0.345779
O O14 0.120835 0.729493 0.500000
O O15 0.144927 0.838647 0.687442
O O16 0.691602 0.554772 0.500000
#
# Coordination Sequence:
#
# PCOD8224412 Si02
#       7
#     8   8   4   8   8   8   8
#     4  10  21  33  44  64  99 136 168 197 236 286
#     4  10  18  29  46  72  97 125 164 203 242 288
#     4  12  20  32  48  70 103 138 167 192 237 284
#     4   9  18  30  46  70  97 128 168 203 237 285
#     4   8  15  30  47  65  92 125 159 203 248 283
#     4   8  16  30  49  67  89 122 163 205 245 287
#     4   9  16  30  49  72  97 124 158 203 254 291
#
# _framework density 19.773467
#
# number of rings (size 3 to 8) (size 9 to 14) (size 15 to 20)
#    0.000    2.769    1.538    2.769    0.000    2.462 
#    0.000    3.846    0.000    0.000    0.000    1.077 
#    0.000    7.385    0.000    0.000    0.000    0.000 
#
# Total GULP energy -644327.280549 kJ/mol
# GULP energy per Si atom -12390.909241 kJ/mol
# Density = 1.972846 g / cm^3
# Si number density = 19.773467 Si / 1000 Ang^3
#
#
#
# Elastic Constant Matrix: (Units=GPa)
#
#
# Indices 1 2 3 4 5 6 
#
# 1 24.0665 16.6218 5.7386 0.0000 0.0000 0.0000
# 2 16.6218 159.7773 83.3783 0.0000 0.0000 0.0000
# 3 5.7386 83.3783 109.3692 0.0000 0.0000 0.0000
# 4 0.0000 0.0000 0.0000 18.7106 0.0000 0.0000
# 5 0.0000 0.0000 0.0000 0.0000 9.5734 0.0000
# 6 0.0000 0.0000 0.0000 0.0000 0.0000 28.5924
#
#
#
# Elastic Compliance Matrix: (Units=1/GPa)
#
#
# Indices 1 2 3 4 5 6 
#
# 1 0.045032 -0.005732 0.002007 0.000000 0.000000 0.000000
# 2 -0.005732 0.011123 -0.008179 0.000000 0.000000 0.000000
# 3 0.002007 -0.008179 0.015273 0.000000 0.000000 0.000000
# 4 0.000000 0.000000 0.000000 0.053446 0.000000 0.000000
# 5 0.000000 0.000000 0.000000 0.000000 0.104457 0.000000
# 6 0.000000 0.000000 0.000000 0.000000 0.000000 0.034974
#
#
# Mechanical properties :
#
#
# Convention : Reuss Voigt Hill
#
# Bulk Modulus (GPa) = 20.99945 56.07669 38.53807
# Shear Modulus (GPa) = 16.44810 23.87356 20.16083
#
# Velocity S-wave (km/s) = 2.88727 3.47847 3.19657
# Velocity P-wave (km/s) = 4.66457 6.67489 5.75814
#
# Compressibility (1/GPa) = 0.04762030
#
# Stress axis : x y z
#
# Youngs Moduli (GPa) = 22.20649 89.90214 65.47325
#
# Poissons Ratio (x) = 0.51533 -0.13141
# Poissons Ratio (y) = 0.12729 0.53551
# Poissons Ratio (z) = -0.04457 0.73532
#
# Static dielectric constant tensor:
#      x y z
#    x 3.058180 0.000000 0.000000 
#    y 0.000000 3.885100 0.000000 
#    z 0.000000 0.000000 3.453610 
# 
# 
# High freq. dielectric constant tensor:
#      x y z
#    x 1.716140 0.000000 0.000000 
#    y 0.000000 1.785420 0.000000 
#    z 0.000000 0.000000 1.752830 
# 
# From -- ./inp_files/7620.got.cif
#   From: 2010.03.12/outbox.cif.g09.slc.cpg/sg55_4_cif.got.tgz:7620.got - 2010.04.16 15:19:21.
