data_PCOD8224792
_publ_section_title
;
Structure prediction by ZEFSAII (Michael W. Deem and Ramdas Pophale) SiO2 
 PCOD8224792
Probable space group: P B A M
;
_chemical_formula_sum "Si O2"
_cell_formula_units_Z 64
_cell_length_a 14.759396
_cell_length_b 19.777102
_cell_length_c 11.318222
_cell_angle_alpha 90.000000
_cell_angle_beta 90.000000
_cell_angle_gamma 90.000000
_cell_volume 3303.767273
_symmetry_space_group_name_H-M "P B A M"
_symmetry_group_IT_number 55
_symmetry_cell_setting 'orthorhombic'
loop_
_space_group_symop_operation_xyz
x,y,z
-x,-y,z
1/2+x,1/2-y,-z
1/2-x,1/2+y,-z
-x,-y,-z
x,y,-z
1/2-x,1/2+y,z
1/2+x,1/2-y,z
loop_
_atom_site_type_symbol
_atom_site_label
_atom_site_fract_x
_atom_site_fract_y
_atom_site_fract_z
Si Si1 0.856575 0.065316 0.858740
Si Si2 0.832189 0.918452 0.811901
Si Si3 0.844184 0.591182 0.134401
Si Si4 0.004530 0.166885 0.128989
Si Si5 0.786821 0.811610 0.632348
Si Si6 0.908583 0.354760 0.367863
Si Si7 0.071305 0.288604 0.272331
Si Si8 0.629174 0.937689 0.867654
O O1 0.758546 0.091865 0.817852
O O2 0.931177 0.117532 0.809193
O O3 0.875078 0.992867 0.797517
O O4 0.862758 0.055170 0.000000
O O5 0.899641 0.871014 0.885477
O O6 0.819392 0.883080 0.685271
O O7 0.736362 0.923716 0.878274
O O8 0.904731 0.644022 0.202960
O O9 0.888984 0.517378 0.149878
O O10 0.843654 0.614703 0.000000
O O11 0.012313 0.236982 0.195918
O O12 0.967370 0.185322 0.000000
O O13 0.820090 0.814629 0.500000
O O14 0.678224 0.805152 0.646986
O O15 0.835521 0.746093 0.687126
O O16 0.900469 0.390571 0.500000
O O17 0.912575 0.402390 0.249968
O O18 0.001202 0.311422 0.374304
O O19 0.590072 0.915922 0.000000
#
# Coordination Sequence:
#
# PCOD8224792 Si02
#       8
#     8   8   8   8   8   8   8   8
#     4   9  17  30  51  77 111 145 176 221 281 335
#     4   9  16  30  54  80 106 141 180 227 279 334
#     4   9  19  35  53  79 116 149 180 228 283 332
#     4  10  19  29  47  80 114 144 182 226 274 329
#     4   9  20  38  57  76 105 145 185 229 276 327
#     4  10  22  40  60  82 110 145 188 235 279 331
#     4  11  22  34  55  78 109 149 191 222 270 331
#     4   9  18  35  59  84 110 147 188 230 282 331
#
# _framework density 19.371825000000001
#
# number of rings (size 3 to 8) (size 9 to 14) (size 15 to 20)
#    0.000    2.500    0.000    3.000    1.750    2.500 
#    0.000    3.750    0.000    8.250    0.000    0.000 
#    0.000    0.000    0.000    0.000    0.000    0.000 
#
# Total GULP energy -792886.064445 kJ/mol
# GULP energy per Si atom -12388.844757 kJ/mol
# Density = 1.932773 g / cm^3
# Si number density = 19.371825 Si / 1000 Ang^3
#
#
#
# Elastic Constant Matrix: (Units=GPa)
#
#
# Indices 1 2 3 4 5 6 
#
# 1 60.2851 46.8194 26.2945 0.0000 0.0000 0.0000
# 2 46.8194 97.9417 50.6994 0.0000 0.0000 0.0000
# 3 26.2945 50.6994 106.0684 0.0000 0.0000 0.0000
# 4 0.0000 0.0000 0.0000 19.0151 0.0000 0.0000
# 5 0.0000 0.0000 0.0000 0.0000 16.3221 0.0000
# 6 0.0000 0.0000 0.0000 0.0000 0.0000 32.6375
#
#
#
# Elastic Compliance Matrix: (Units=1/GPa)
#
#
# Indices 1 2 3 4 5 6 
#
# 1 0.026420 -0.012277 -0.000681 0.000000 0.000000 0.000000
# 2 -0.012277 0.019272 -0.006168 0.000000 0.000000 0.000000
# 3 -0.000681 -0.006168 0.012545 0.000000 0.000000 0.000000
# 4 0.000000 0.000000 0.000000 0.052590 0.000000 0.000000
# 5 0.000000 0.000000 0.000000 0.000000 0.061267 0.000000
# 6 0.000000 0.000000 0.000000 0.000000 0.000000 0.030640
#
#
# Mechanical properties :
#
#
# Convention : Reuss Voigt Hill
#
# Bulk Modulus (GPa) = 50.04042 56.88021 53.46031
# Shear Modulus (GPa) = 20.19005 22.96037 21.57521
#
# Velocity S-wave (km/s) = 3.23187 3.44647 3.34090
# Velocity P-wave (km/s) = 6.30986 6.72783 6.52219
#
# Compressibility (1/GPa) = 0.01998385
#
# Stress axis : x y z
#
# Youngs Moduli (GPa) = 37.85079 51.88914 79.71211
#
# Poissons Ratio (x) = 0.63703 0.05431
# Poissons Ratio (y) = 0.46468 0.49169
# Poissons Ratio (z) = 0.02579 0.32007
#
# Static dielectric constant tensor:
#      x y z
#    x 3.664860 0.000000 0.000000 
#    y 0.000000 3.461640 0.000000 
#    z 0.000000 0.000000 3.416820 
# 
# 
# High freq. dielectric constant tensor:
#      x y z
#    x 1.765950 0.000000 0.000000 
#    y 0.000000 1.742870 0.000000 
#    z 0.000000 0.000000 1.732650 
# 
# From -- ./inp_files/14385.got.cif
#   From: 2010.03.12/outbox.cif.g09.slc.cpg/sg55_8_cif.got.tgz:14385.got - 2010.04.16 15:19:21.
