data_PCOD8224767
_publ_section_title
;
Structure prediction by ZEFSAII (Michael W. Deem and Ramdas Pophale) SiO2 
 PCOD8224767
Probable space group: P B A M
;
_chemical_formula_sum "Si O2"
_cell_formula_units_Z 56
_cell_length_a 18.120284
_cell_length_b 21.398789
_cell_length_c 9.250633
_cell_angle_alpha 90.000000
_cell_angle_beta 90.000000
_cell_angle_gamma 90.000000
_cell_volume 3586.952686
_symmetry_space_group_name_H-M "P B A M"
_symmetry_group_IT_number 55
_symmetry_cell_setting 'orthorhombic'
loop_
_space_group_symop_operation_xyz
x,y,z
-x,-y,z
1/2+x,1/2-y,-z
1/2-x,1/2+y,-z
-x,-y,-z
x,y,-z
1/2-x,1/2+y,z
1/2+x,1/2-y,z
loop_
_atom_site_type_symbol
_atom_site_label
_atom_site_fract_x
_atom_site_fract_y
_atom_site_fract_z
Si Si1 0.068153 0.749993 0.663060
Si Si2 0.838058 0.126151 0.668168
Si Si3 0.780193 0.690422 0.833386
Si Si4 0.416901 0.497190 0.672016
Si Si5 0.923135 0.758269 0.168646
Si Si6 0.283742 0.199214 0.337391
Si Si7 0.352967 0.626391 0.666025
O O1 0.036728 0.752217 0.500000
O O2 0.109087 0.815043 0.700282
O O3 0.127564 0.692829 0.680346
O O4 0.002415 0.737089 0.773167
O O5 0.822378 0.118093 0.500000
O O6 0.757859 0.134504 0.743592
O O7 0.876712 0.064450 0.733519
O O8 0.867759 0.699592 0.803910
O O9 0.743775 0.755297 0.786936
O O10 0.763499 0.677910 0.000000
O O11 0.500000 0.500000 0.733262
O O12 0.418278 0.493763 0.500000
O O13 0.372883 0.558224 0.727507
O O14 0.897359 0.820910 0.248458
O O15 0.928280 0.773917 0.000000
O O16 0.269081 0.227298 0.500000
O O17 0.236306 0.135463 0.320410
O O18 0.378942 0.631597 0.500000
#
# Coordination Sequence:
#
# PCOD8224767 Si02
#       7
#     8   8   8   8   8   8   8
#     4   9  16  26  41  60  82 107 135 169 207 245
#     4   9  17  29  44  62  84 111 142 170 198 240
#     4   9  17  28  41  58  81 108 136 169 208 245
#     4   9  16  26  42  64  87 111 139 167 195 234
#     4  10  19  28  40  61  86 109 136 171 209 247
#     4   8  15  27  42  60  80 105 138 171 204 244
#     4   9  16  28  45  61  82 113 142 168 200 240
#
# _framework density 15.612138
#
# number of rings (size 3 to 8) (size 9 to 14) (size 15 to 20)
#    0.000    3.000    0.000    2.571    0.000    6.286 
#    0.000    0.714    0.000    1.714    0.000    1.000 
#    0.000    8.000    0.000    0.000    0.000    0.000 
#
# Total GULP energy -693856.316538 kJ/mol
# GULP energy per Si atom -12390.291367 kJ/mol
# Density = 1.557660 g / cm^3
# Si number density = 15.612138 Si / 1000 Ang^3
#
#
#
# Elastic Constant Matrix: (Units=GPa)
#
#
# Indices 1 2 3 4 5 6 
#
# 1 123.5272 60.9695 48.6526 0.0000 0.0000 0.0000
# 2 60.9695 78.5360 23.8100 0.0000 0.0000 0.0000
# 3 48.6526 23.8100 52.1271 0.0000 0.0000 0.0000
# 4 0.0000 0.0000 0.0000 9.7186 0.0000 0.0000
# 5 0.0000 0.0000 0.0000 0.0000 22.6343 0.0000
# 6 0.0000 0.0000 0.0000 0.0000 0.0000 27.2301
#
#
#
# Elastic Compliance Matrix: (Units=1/GPa)
#
#
# Indices 1 2 3 4 5 6 
#
# 1 0.017880 -0.010239 -0.012011 0.000000 0.000000 0.000000
# 2 -0.010239 0.020643 0.000127 0.000000 0.000000 0.000000
# 3 -0.012011 0.000127 0.030336 0.000000 0.000000 0.000000
# 4 0.000000 0.000000 0.000000 0.102895 0.000000 0.000000
# 5 0.000000 0.000000 0.000000 0.000000 0.044181 0.000000
# 6 0.000000 0.000000 0.000000 0.000000 0.000000 0.036724
#
#
# Mechanical properties :
#
#
# Convention : Reuss Voigt Hill
#
# Bulk Modulus (GPa) = 40.62781 57.89494 49.26138
# Shear Modulus (GPa) = 16.38756 19.96717 18.17736
#
# Velocity S-wave (km/s) = 3.24337 3.58012 3.41590
# Velocity P-wave (km/s) = 6.33290 7.36570 6.86874
#
# Compressibility (1/GPa) = 0.02461368
#
# Stress axis : x y z
#
# Youngs Moduli (GPa) = 55.92885 48.44199 32.96387
#
# Poissons Ratio (x) = 0.49600 0.39594
# Poissons Ratio (y) = 0.57266 -0.00420
# Poissons Ratio (z) = 0.67177 -0.00618
#
# Static dielectric constant tensor:
#      x y z
#    x 3.247900 0.000000 0.000000 
#    y 0.000000 2.867230 0.000000 
#    z 0.000000 0.000000 2.872200 
# 
# 
# High freq. dielectric constant tensor:
#      x y z
#    x 1.602460 0.000000 0.000000 
#    y 0.000000 1.558330 0.000000 
#    z 0.000000 0.000000 1.588750 
# 
# From -- ./inp_files/7848.got.cif
#   From: 2010.03.12/outbox.cif.g09.slc.cpg/sg55_4_cif.got.tgz:7848.got - 2010.04.16 15:19:21.
