data_PCOD8224798
_publ_section_title
;
Structure prediction by ZEFSAII (Michael W. Deem and Ramdas Pophale) SiO2 
 PCOD8224798
Probable space group: P B A M
;
_chemical_formula_sum "Si O2"
_cell_formula_units_Z 64
_cell_length_a 22.453195
_cell_length_b 20.278651
_cell_length_c 9.152229
_cell_angle_alpha 90.000000
_cell_angle_beta 90.000000
_cell_angle_gamma 90.000000
_cell_volume 4167.197532
_symmetry_space_group_name_H-M "P B A M"
_symmetry_group_IT_number 55
_symmetry_cell_setting 'orthorhombic'
loop_
_space_group_symop_operation_xyz
x,y,z
-x,-y,z
1/2+x,1/2-y,-z
1/2-x,1/2+y,-z
-x,-y,-z
x,y,-z
1/2-x,1/2+y,z
1/2+x,1/2-y,z
loop_
_atom_site_type_symbol
_atom_site_label
_atom_site_fract_x
_atom_site_fract_y
_atom_site_fract_z
Si Si1 0.346659 0.769989 0.661063
Si Si2 0.254263 0.650528 0.334693
Si Si3 0.433740 0.690222 0.829797
Si Si4 0.262127 0.341672 0.666695
Si Si5 0.567622 0.674596 0.170586
Si Si6 0.652544 0.428267 0.172585
Si Si7 0.330180 0.233275 0.832579
Si Si8 0.860105 0.062047 0.331495
O O1 0.374545 0.771808 0.500000
O O2 0.296664 0.713644 0.674507
O O3 0.401594 0.755778 0.767577
O O4 0.309870 0.838111 0.694974
O O5 0.244065 0.626398 0.500000
O O6 0.284270 0.591267 0.244005
O O7 0.190254 0.670396 0.264230
O O8 0.500679 0.684369 0.770642
O O9 0.397711 0.624920 0.784287
O O10 0.434444 0.700761 0.000000
O O11 0.274411 0.315151 0.500000
O O12 0.293186 0.297610 0.788758
O O13 0.290699 0.414496 0.681558
O O14 0.600910 0.745358 0.190827
O O15 0.596431 0.618063 0.269549
O O16 0.569421 0.652942 0.000000
O O17 0.630161 0.496925 0.237333
O O18 0.660814 0.434161 0.000000
O O19 0.316480 0.215721 0.000000
O O20 0.876757 0.048200 0.500000
#
# Coordination Sequence:
#
# PCOD8224798 Si02
#       8
#     8   8   8   8   8   8   8   8
#     4   8  14  25  41  59  77  98 127 165 206 244
#     4   9  16  27  42  59  80 103 129 165 209 250
#     4   9  18  30  42  57  80 111 142 171 203 238
#     4   8  15  27  41  57  78 103 130 165 209 251
#     4   9  18  31  43  57  81 112 143 172 202 238
#     4  10  19  30  43  59  81 110 144 176 205 239
#     4   9  15  24  41  61  78  99 130 167 205 243
#     4  10  19  30  43  59  81 110 143 175 208 243
#
# _framework density 15.358044
#
# number of rings (size 3 to 8) (size 9 to 14) (size 15 to 20)
#    0.000    3.000    0.000    2.250    0.000    5.500 
#    0.000    2.500    0.000    0.000    0.000    0.000 
#    0.000    1.000    0.000   11.500    0.000    4.000 
#
# Total GULP energy -792995.662158 kJ/mol
# GULP energy per Si atom -12390.557221 kJ/mol
# Density = 1.532309 g / cm^3
# Si number density = 15.358044 Si / 1000 Ang^3
#
#
#
# Elastic Constant Matrix: (Units=GPa)
#
#
# Indices 1 2 3 4 5 6 
#
# 1 95.8773 46.1660 47.1087 0.0000 0.0000 0.0000
# 2 46.1660 25.0187 24.4233 0.0000 0.0000 0.0000
# 3 47.1087 24.4233 72.8818 0.0000 0.0000 0.0000
# 4 0.0000 0.0000 0.0000 21.1871 0.0000 0.0000
# 5 0.0000 0.0000 0.0000 0.0000 20.2136 0.0000
# 6 0.0000 0.0000 0.0000 0.0000 0.0000 15.0573
#
#
#
# Elastic Compliance Matrix: (Units=1/GPa)
#
#
# Indices 1 2 3 4 5 6 
#
# 1 0.094304 -0.170183 -0.003926 0.000000 0.000000 0.000000
# 2 -0.170183 0.366520 -0.012822 0.000000 0.000000 0.000000
# 3 -0.003926 -0.012822 0.020555 0.000000 0.000000 0.000000
# 4 0.000000 0.000000 0.000000 0.047198 0.000000 0.000000
# 5 0.000000 0.000000 0.000000 0.000000 0.049472 0.000000
# 6 0.000000 0.000000 0.000000 0.000000 0.000000 0.066413
#
#
# Mechanical properties :
#
#
# Convention : Reuss Voigt Hill
#
# Bulk Modulus (GPa) = 9.30086 47.68597 28.49341
# Shear Modulus (GPa) = 4.74310 16.36359 10.55334
#
# Velocity S-wave (km/s) = 1.75928 3.26770 2.62421
# Velocity P-wave (km/s) = 3.19310 6.73454 5.27020
#
# Compressibility (1/GPa) = 0.10751693
#
# Stress axis : x y z
#
# Youngs Moduli (GPa) = 10.60401 2.72836 48.64981
#
# Poissons Ratio (x) = 0.46432 0.19098
# Poissons Ratio (y) = 1.80463 0.62380
# Poissons Ratio (z) = 0.04163 0.03498
#
# Static dielectric constant tensor:
#      x y z
#    x 3.128140 0.000000 0.000000 
#    y 0.000000 2.765620 0.000000 
#    z 0.000000 0.000000 3.031750 
# 
# 
# High freq. dielectric constant tensor:
#      x y z
#    x 1.571100 0.000000 0.000000 
#    y 0.000000 1.547040 0.000000 
#    z 0.000000 0.000000 1.601950 
# 
# From -- ./inp_files/8167.got.cif
#   From: 2010.03.12/outbox.cif.g09.slc.cpg/sg55_5_cif.got.tgz:8167.got - 2010.04.16 15:19:21.
