data_PCOD8224586
_publ_section_title
;
Structure prediction by ZEFSAII (Michael W. Deem and Ramdas Pophale) SiO2 
 PCOD8224586
Probable space group: P B A M
;
_chemical_formula_sum "Si O2"
_cell_formula_units_Z 64
_cell_length_a 12.883963
_cell_length_b 18.393785
_cell_length_c 14.224625
_cell_angle_alpha 90.000000
_cell_angle_beta 90.000000
_cell_angle_gamma 90.000000
_cell_volume 3371.020556
_symmetry_space_group_name_H-M "P B A M"
_symmetry_group_IT_number 55
_symmetry_cell_setting 'orthorhombic'
loop_
_space_group_symop_operation_xyz
x,y,z
-x,-y,z
1/2+x,1/2-y,-z
1/2-x,1/2+y,-z
-x,-y,-z
x,y,-z
1/2-x,1/2+y,z
1/2+x,1/2-y,z
loop_
_atom_site_type_symbol
_atom_site_label
_atom_site_fract_x
_atom_site_fract_y
_atom_site_fract_z
Si Si1 0.272569 0.034280 0.895415
Si Si2 0.379472 0.512878 0.730312
Si Si3 0.311551 0.644265 0.609754
Si Si4 0.166804 0.371623 0.895531
Si Si5 0.412426 0.798160 0.391986
Si Si6 0.927783 0.337372 0.105301
Si Si7 0.877213 0.285144 0.704685
Si Si8 0.225245 0.859484 0.708803
O O1 0.176637 0.043088 0.823793
O O2 0.366186 0.088706 0.875390
O O3 0.328566 0.957704 0.885555
O O4 0.225913 0.045885 0.000000
O O5 0.500000 0.500000 0.753533
O O6 0.368952 0.572257 0.647787
O O7 0.327531 0.437578 0.696783
O O8 0.285722 0.633485 0.500000
O O9 0.383256 0.714342 0.625912
O O10 0.207205 0.657027 0.668776
O O11 0.242490 0.338868 0.816111
O O12 0.049437 0.347981 0.877911
O O13 0.203675 0.346522 0.000000
O O14 0.431767 0.814543 0.500000
O O15 0.516727 0.814703 0.337020
O O16 0.327016 0.855493 0.355972
O O17 0.884798 0.281191 0.181992
O O18 0.906555 0.307661 0.000000
O O19 0.852753 0.202993 0.671687
#
# Coordination Sequence:
#
# PCOD8224586 Si02
#       8
#     8   8   8   8   8   8   8   8
#     4   9  18  33  54  82 114 148 185 227 273 333
#     4  11  22  38  58  83 112 149 190 232 280 335
#     4  10  22  39  59  83 111 146 189 236 281 330
#     4   9  17  32  54  81 114 148 183 225 277 332
#     4  10  21  39  61  83 110 147 188 229 282 336
#     4  10  18  31  56  86 113 145 185 228 277 330
#     4  11  20  37  59  84 114 147 184 233 282 337
#     4  10  22  36  57  82 114 149 186 228 278 335
#
# _framework density 18.985347000000001
#
# number of rings (size 3 to 8) (size 9 to 14) (size 15 to 20)
#    0.000    2.000    2.500    1.500    0.000    3.500 
#    0.000    0.625    0.000    3.750    0.000    0.000 
#    0.000    0.000    0.000    0.000    0.000    0.000 
#
# Total GULP energy -793467.209667 kJ/mol
# GULP energy per Si atom -12397.925151 kJ/mol
# Density = 1.894214 g / cm^3
# Si number density = 18.985347 Si / 1000 Ang^3
#
#
#
# Elastic Constant Matrix: (Units=GPa)
#
#
# Indices 1 2 3 4 5 6 
#
# 1 72.0856 12.4304 12.7519 0.0000 0.0000 0.0000
# 2 12.4304 47.7270 6.7418 0.0000 0.0000 0.0000
# 3 12.7519 6.7418 84.4315 0.0000 0.0000 0.0000
# 4 0.0000 0.0000 0.0000 28.9545 0.0000 0.0000
# 5 0.0000 0.0000 0.0000 0.0000 19.3569 0.0000
# 6 0.0000 0.0000 0.0000 0.0000 0.0000 14.8021
#
#
#
# Elastic Compliance Matrix: (Units=1/GPa)
#
#
# Indices 1 2 3 4 5 6 
#
# 1 0.014837 -0.003588 -0.001954 0.000000 0.000000 0.000000
# 2 -0.003588 0.022059 -0.001219 0.000000 0.000000 0.000000
# 3 -0.001954 -0.001219 0.012236 0.000000 0.000000 0.000000
# 4 0.000000 0.000000 0.000000 0.034537 0.000000 0.000000
# 5 0.000000 0.000000 0.000000 0.000000 0.051661 0.000000
# 6 0.000000 0.000000 0.000000 0.000000 0.000000 0.067558
#
#
# Mechanical properties :
#
#
# Convention : Reuss Voigt Hill
#
# Bulk Modulus (GPa) = 28.08306 29.78801 28.93554
# Shear Modulus (GPa) = 21.90272 24.11070 23.00671
#
# Velocity S-wave (km/s) = 3.40025 3.56752 3.48489
# Velocity P-wave (km/s) = 5.49906 5.71784 5.60952
#
# Compressibility (1/GPa) = 0.03560865
#
# Stress axis : x y z
#
# Youngs Moduli (GPa) = 67.39973 45.33239 81.72294
#
# Poissons Ratio (x) = 0.16266 0.15971
# Poissons Ratio (y) = 0.24184 0.09966
# Poissons Ratio (z) = 0.13172 0.05528
#
# Static dielectric constant tensor:
#      x y z
#    x 3.396560 0.000000 0.000000 
#    y 0.000000 3.256080 0.000000 
#    z 0.000000 0.000000 3.723180 
# 
# 
# High freq. dielectric constant tensor:
#      x y z
#    x 1.738310 0.000000 0.000000 
#    y 0.000000 1.722250 0.000000 
#    z 0.000000 0.000000 1.748350 
# 
# From -- ./inp_files/18584.got.cif
#   From: 2010.03.12/outbox.cif.g09.slc.cpg/sg55_10_cif.got.tgz:18584.got - 2010.04.16 15:19:21.
