data_PCOD8224993
_publ_section_title
;
Structure prediction by ZEFSAII (Michael W. Deem and Ramdas Pophale) SiO2 
 PCOD8224993
Probable space group: P B A M
;
_chemical_formula_sum "Si O2"
_cell_formula_units_Z 56
_cell_length_a 14.018555
_cell_length_b 23.454607
_cell_length_c 9.036946
_cell_angle_alpha 90.000000
_cell_angle_beta 90.000000
_cell_angle_gamma 90.000000
_cell_volume 2971.345118
_symmetry_space_group_name_H-M "P B A M"
_symmetry_group_IT_number 55
_symmetry_cell_setting 'orthorhombic'
loop_
_space_group_symop_operation_xyz
x,y,z
-x,-y,z
1/2+x,1/2-y,-z
1/2-x,1/2+y,-z
-x,-y,-z
x,y,-z
1/2-x,1/2+y,z
1/2+x,1/2-y,z
loop_
_atom_site_type_symbol
_atom_site_label
_atom_site_fract_x
_atom_site_fract_y
_atom_site_fract_z
Si Si1 0.781177 0.963283 0.323696
Si Si2 0.712135 0.726832 0.325527
Si Si3 0.115900 0.941033 0.834367
Si Si4 0.306823 0.868704 0.162378
Si Si5 0.895838 0.519623 0.826769
Si Si6 0.815481 0.836185 0.325468
Si Si7 0.471116 0.339668 0.325709
O O1 0.789544 0.967561 0.500000
O O2 0.791338 0.898630 0.263462
O O3 0.867841 0.999768 0.252889
O O4 0.678284 0.985003 0.272642
O O5 0.712541 0.729053 0.500000
O O6 0.794307 0.682160 0.278307
O O7 0.741484 0.788916 0.260632
O O8 0.607975 0.706230 0.267187
O O9 0.215113 0.908669 0.840424
O O10 0.040431 0.901350 0.749573
O O11 0.078447 0.954050 0.000000
O O12 0.391755 0.912100 0.206847
O O13 0.324126 0.841789 0.000000
O O14 0.000000 0.500000 0.779206
O O15 0.874070 0.508008 0.000000
O O16 0.804624 0.838038 0.500000
O O17 0.923661 0.817318 0.284126
O O18 0.458200 0.348884 0.500000
#
# Coordination Sequence:
#
# PCOD8224993 Si02
#       7
#     8   8   8   8   8   8   8
#     4  10  19  32  50  73 105 135 167 212 258 307
#     4   9  17  32  52  71  94 130 172 209 248 301
#     4   9  17  31  51  74 101 128 162 206 252 304
#     4   8  15  29  49  70  93 125 161 203 249 292
#     4   9  18  34  53  73 103 138 170 209 261 314
#     4   9  19  34  49  73 106 135 166 212 264 305
#     4   9  17  32  54  73  95 133 173 207 254 311
#
# _framework density 18.846682999999999
#
# number of rings (size 3 to 8) (size 9 to 14) (size 15 to 20)
#    0.000    3.000    0.000    1.714    0.000    4.286 
#    2.571    6.429    0.000    0.000    0.000    0.000 
#    0.000    0.000    0.000    0.000    0.000    0.000 
#
# Total GULP energy -694020.061813 kJ/mol
# GULP energy per Si atom -12393.215390 kJ/mol
# Density = 1.880379 g / cm^3
# Si number density = 18.846683 Si / 1000 Ang^3
#
#
#
# Elastic Constant Matrix: (Units=GPa)
#
#
# Indices 1 2 3 4 5 6 
#
# 1 65.4937 44.9214 20.9137 0.0000 0.0000 0.0000
# 2 44.9214 136.2054 31.0408 0.0000 0.0000 0.0000
# 3 20.9137 31.0408 46.0621 0.0000 0.0000 0.0000
# 4 0.0000 0.0000 0.0000 16.6131 0.0000 0.0000
# 5 0.0000 0.0000 0.0000 0.0000 15.1645 0.0000
# 6 0.0000 0.0000 0.0000 0.0000 0.0000 28.8130
#
#
#
# Elastic Compliance Matrix: (Units=1/GPa)
#
#
# Indices 1 2 3 4 5 6 
#
# 1 0.020940 -0.005599 -0.005734 0.000000 0.000000 0.000000
# 2 -0.005599 0.010171 -0.004312 0.000000 0.000000 0.000000
# 3 -0.005734 -0.004312 0.027219 0.000000 0.000000 0.000000
# 4 0.000000 0.000000 0.000000 0.060194 0.000000 0.000000
# 5 0.000000 0.000000 0.000000 0.000000 0.065944 0.000000
# 6 0.000000 0.000000 0.000000 0.000000 0.000000 0.034707
#
#
# Mechanical properties :
#
#
# Convention : Reuss Voigt Hill
#
# Bulk Modulus (GPa) = 36.98298 49.05704 43.02001
# Shear Modulus (GPa) = 19.26940 22.17713 20.72327
#
# Velocity S-wave (km/s) = 3.20101 3.43405 3.31958
# Velocity P-wave (km/s) = 5.77301 6.46603 6.12933
#
# Compressibility (1/GPa) = 0.02703947
#
# Stress axis : x y z
#
# Youngs Moduli (GPa) = 47.75483 98.31609 36.73888
#
# Poissons Ratio (x) = 0.55052 0.21067
# Poissons Ratio (y) = 0.26740 0.15842
# Poissons Ratio (z) = 0.27383 0.42394
#
# Static dielectric constant tensor:
#      x y z
#    x 3.470340 0.000000 0.000000 
#    y 0.000000 3.808340 0.000000 
#    z 0.000000 0.000000 3.346630 
# 
# 
# High freq. dielectric constant tensor:
#      x y z
#    x 1.718970 0.000000 0.000000 
#    y 0.000000 1.730890 0.000000 
#    z 0.000000 0.000000 1.713550 
# 
# From -- ./inp_files/6151.got.cif
#   From: 2010.03.12/outbox.cif.g09.slc.cpg/sg55_4_cif.got.tgz:6151.got - 2010.04.16 15:19:21.
