data_PCOD8224970
_publ_section_title
;
Structure prediction by ZEFSAII (Michael W. Deem and Ramdas Pophale) SiO2 
 PCOD8224970
Probable space group: P B A M
;
_chemical_formula_sum "Si O2"
_cell_formula_units_Z 48
_cell_length_a 23.619415
_cell_length_b 10.585891
_cell_length_c 10.308651
_cell_angle_alpha 90.000000
_cell_angle_beta 90.000000
_cell_angle_gamma 90.000000
_cell_volume 2577.498324
_symmetry_space_group_name_H-M "P B A M"
_symmetry_group_IT_number 55
_symmetry_cell_setting 'orthorhombic'
loop_
_space_group_symop_operation_xyz
x,y,z
-x,-y,z
1/2+x,1/2-y,-z
1/2-x,1/2+y,-z
-x,-y,-z
x,y,-z
1/2-x,1/2+y,z
1/2+x,1/2-y,z
loop_
_atom_site_type_symbol
_atom_site_label
_atom_site_fract_x
_atom_site_fract_y
_atom_site_fract_z
Si Si1 0.130819 0.719903 0.845238
Si Si2 0.733171 0.917073 0.729639
Si Si3 0.990756 0.361513 0.846770
Si Si4 0.159445 0.989348 0.146802
Si Si5 0.302777 0.820675 0.642536
Si Si6 0.607709 0.258206 0.154195
O O1 0.172683 0.613324 0.791967
O O2 0.067630 0.694732 0.791657
O O3 0.149487 0.854995 0.783635
O O4 0.133516 0.714307 0.000000
O O5 0.757526 0.793599 0.656782
O O6 0.777296 0.957058 0.841314
O O7 0.727433 0.041782 0.640403
O O8 0.000000 0.500000 0.786431
O O9 0.043704 0.274785 0.807599
O O10 0.985769 0.371514 0.000000
O O11 0.115221 0.095459 0.194960
O O12 0.145801 0.959824 0.000000
O O13 0.331032 0.803410 0.500000
O O14 0.348699 0.822585 0.758733
O O15 0.620351 0.234514 0.000000
#
# Coordination Sequence:
#
# PCOD8224970 Si02
#       6
#     8   8   8   8   8   8
#     4  10  19  31  53  83 116 145 179 228 278 325
#     4  11  20  36  53  77 110 146 186 223 274 331
#     4   9  17  30  49  78 110 144 182 223 273 324
#     4   9  18  31  49  81 112 142 182 225 275 323
#     4  11  23  37  57  80 109 146 184 227 277 330
#     4   9  19  35  56  80 110 144 183 227 271 324
#
# _framework density 18.622707999999999
#
# number of rings (size 3 to 8) (size 9 to 14) (size 15 to 20)
#    0.000    2.167    1.667    2.000    0.000    4.000 
#    0.000    3.333    0.000    5.500    0.000    2.333 
#    0.000    0.000    0.000    0.000    0.000    0.000 
#
# Total GULP energy -594763.888158 kJ/mol
# GULP energy per Si atom -12390.914337 kJ/mol
# Density = 1.858032 g / cm^3
# Si number density = 18.622708 Si / 1000 Ang^3
#
#
#
# Elastic Constant Matrix: (Units=GPa)
#
#
# Indices 1 2 3 4 5 6 
#
# 1 139.1704 65.4155 30.9347 0.0000 0.0000 0.0000
# 2 65.4155 147.7807 26.7222 0.0000 0.0000 0.0000
# 3 30.9347 26.7222 51.0327 0.0000 0.0000 0.0000
# 4 0.0000 0.0000 0.0000 8.4928 0.0000 0.0000
# 5 0.0000 0.0000 0.0000 0.0000 9.7711 0.0000
# 6 0.0000 0.0000 0.0000 0.0000 0.0000 29.0747
#
#
#
# Elastic Compliance Matrix: (Units=1/GPa)
#
#
# Indices 1 2 3 4 5 6 
#
# 1 0.009774 -0.003596 -0.004042 0.000000 0.000000 0.000000
# 2 -0.003596 0.008797 -0.002427 0.000000 0.000000 0.000000
# 3 -0.004042 -0.002427 0.023316 0.000000 0.000000 0.000000
# 4 0.000000 0.000000 0.000000 0.117746 0.000000 0.000000
# 5 0.000000 0.000000 0.000000 0.000000 0.102343 0.000000
# 6 0.000000 0.000000 0.000000 0.000000 0.000000 0.034394
#
#
# Mechanical properties :
#
#
# Convention : Reuss Voigt Hill
#
# Bulk Modulus (GPa) = 45.95917 64.90318 55.43117
# Shear Modulus (GPa) = 15.44389 23.79513 19.61951
#
# Velocity S-wave (km/s) = 2.88289 3.57844 3.24933
# Velocity P-wave (km/s) = 5.98449 7.21117 6.62627
#
# Compressibility (1/GPa) = 0.02175845
#
# Stress axis : x y z
#
# Youngs Moduli (GPa) = 102.31288 113.67214 42.88858
#
# Poissons Ratio (x) = 0.40872 0.17335
# Poissons Ratio (y) = 0.36787 0.10409
# Poissons Ratio (z) = 0.41354 0.27588
#
# Static dielectric constant tensor:
#      x y z
#    x 3.461230 0.000000 0.000000 
#    y 0.000000 3.809870 0.000000 
#    z 0.000000 0.000000 2.963790 
# 
# 
# High freq. dielectric constant tensor:
#      x y z
#    x 1.718190 0.000000 0.000000 
#    y 0.000000 1.746550 0.000000 
#    z 0.000000 0.000000 1.670140 
# 
# From -- ./inp_files/15608.got.cif
#   From: 2010.03.12/outbox.cif.g09.slc.cpg/sg55_8_cif.got.tgz:15608.got - 2010.04.16 15:19:21.
