data_PCOD8224530
_publ_section_title
;
Structure prediction by ZEFSAII (Michael W. Deem and Ramdas Pophale) SiO2 
 PCOD8224530
Probable space group: P B A M
;
_chemical_formula_sum "Si O2"
_cell_formula_units_Z 64
_cell_length_a 16.818835
_cell_length_b 21.262943
_cell_length_c 9.345709
_cell_angle_alpha 90.000000
_cell_angle_beta 90.000000
_cell_angle_gamma 90.000000
_cell_volume 3342.193106
_symmetry_space_group_name_H-M "P B A M"
_symmetry_group_IT_number 55
_symmetry_cell_setting 'orthorhombic'
loop_
_space_group_symop_operation_xyz
x,y,z
-x,-y,z
1/2+x,1/2-y,-z
1/2-x,1/2+y,-z
-x,-y,-z
x,y,-z
1/2-x,1/2+y,z
1/2+x,1/2-y,z
loop_
_atom_site_type_symbol
_atom_site_label
_atom_site_fract_x
_atom_site_fract_y
_atom_site_fract_z
Si Si1 0.450279 0.185290 0.336923
Si Si2 0.911653 0.188796 0.171025
Si Si3 0.829575 0.975212 0.331384
Si Si4 0.786155 0.113721 0.334298
Si Si5 0.817474 0.787238 0.841571
Si Si6 0.944471 0.896825 0.841437
Si Si7 0.625779 0.174229 0.338660
Si Si8 0.288789 0.131658 0.335630
O O1 0.443123 0.210402 0.500000
O O2 0.439756 0.244532 0.232572
O O3 0.535286 0.150870 0.312280
O O4 0.383853 0.131072 0.309706
O O5 0.827724 0.167939 0.239705
O O6 0.974228 0.134173 0.216218
O O7 0.905150 0.194605 0.000000
O O8 0.841605 0.972827 0.500000
O O9 0.912412 0.952287 0.260979
O O10 0.753969 0.932373 0.283276
O O11 0.811309 0.045283 0.277461
O O12 0.810220 0.122856 0.500000
O O13 0.690560 0.119275 0.314106
O O14 0.879018 0.843363 0.846841
O O15 0.861101 0.729165 0.772329
O O16 0.741180 0.807479 0.750506
O O17 0.788200 0.768857 0.000000
O O18 0.957386 0.925141 0.000000
O O19 0.634515 0.200749 0.500000
O O20 0.266590 0.143043 0.500000
#
# Coordination Sequence:
#
# PCOD8224530 Si02
#       8
#     8   8   8   8   8   8   8   8
#     4  10  20  34  54  80 108 137 171 214 263 315
#     4  11  22  36  54  80 111 139 171 215 267 316
#     4   9  19  36  56  75 102 140 181 218 254 304
#     4  10  22  38  53  75 106 141 179 217 257 309
#     4  10  18  31  51  76 104 134 169 209 259 313
#     4   9  19  34  52  76 106 136 168 213 261 308
#     4  10  20  34  52  74 105 140 171 210 262 312
#     4   9  18  33  53  77 102 133 175 217 257 305
#
# _framework density 19.149103
#
# number of rings (size 3 to 8) (size 9 to 14) (size 15 to 20)
#    0.000    2.250    1.250    1.500    0.000    6.500 
#    0.000    3.125    0.000    3.750    0.000    0.000 
#    0.000    7.000    0.000    0.000    0.000    0.000 
#
# Total GULP energy -793383.809438 kJ/mol
# GULP energy per Si atom -12396.622022 kJ/mol
# Density = 1.910552 g / cm^3
# Si number density = 19.149103 Si / 1000 Ang^3
#
#
#
# Elastic Constant Matrix: (Units=GPa)
#
#
# Indices 1 2 3 4 5 6 
#
# 1 105.7550 11.8151 21.9756 0.0000 0.0000 0.0000
# 2 11.8151 42.3262 17.9295 0.0000 0.0000 0.0000
# 3 21.9756 17.9295 61.9330 0.0000 0.0000 0.0000
# 4 0.0000 0.0000 0.0000 9.7790 0.0000 0.0000
# 5 0.0000 0.0000 0.0000 0.0000 17.8266 0.0000
# 6 0.0000 0.0000 0.0000 0.0000 0.0000 17.3356
#
#
#
# Elastic Compliance Matrix: (Units=1/GPa)
#
#
# Indices 1 2 3 4 5 6 
#
# 1 0.010293 -0.001511 -0.003215 0.000000 0.000000 0.000000
# 2 -0.001511 0.027150 -0.007324 0.000000 0.000000 0.000000
# 3 -0.003215 -0.007324 0.019407 0.000000 0.000000 0.000000
# 4 0.000000 0.000000 0.000000 0.102260 0.000000 0.000000
# 5 0.000000 0.000000 0.000000 0.000000 0.056096 0.000000
# 6 0.000000 0.000000 0.000000 0.000000 0.000000 0.057685
#
#
# Mechanical properties :
#
#
# Convention : Reuss Voigt Hill
#
# Bulk Modulus (GPa) = 30.53354 34.82829 32.68092
# Shear Modulus (GPa) = 16.23867 19.54118 17.88992
#
# Velocity S-wave (km/s) = 2.91522 3.19795 3.05986
# Velocity P-wave (km/s) = 5.22601 5.64476 5.43941
#
# Compressibility (1/GPa) = 0.03275087
#
# Stress axis : x y z
#
# Youngs Moduli (GPa) = 97.15669 36.83209 51.52704
#
# Poissons Ratio (x) = 0.05567 0.16564
# Poissons Ratio (y) = 0.14685 0.37737
# Poissons Ratio (z) = 0.31232 0.26975
#
# Static dielectric constant tensor:
#      x y z
#    x 3.767280 0.000000 0.000000 
#    y 0.000000 3.319630 0.000000 
#    z 0.000000 0.000000 3.628200 
# 
# 
# High freq. dielectric constant tensor:
#      x y z
#    x 1.756000 0.000000 0.000000 
#    y 0.000000 1.715860 0.000000 
#    z 0.000000 0.000000 1.741970 
# 
# From -- ./inp_files/7938.got.cif
#   From: 2010.03.12/outbox.cif.g09.slc.cpg/sg55_4_cif.got.tgz:7938.got - 2010.04.16 15:19:21.
