data_PCOD8224367
_publ_section_title
;
Structure prediction by ZEFSAII (Michael W. Deem and Ramdas Pophale) SiO2 
 PCOD8224367
Probable space group: P B A M
;
_chemical_formula_sum "Si O2"
_cell_formula_units_Z 64
_cell_length_a 26.376351
_cell_length_b 18.556113
_cell_length_c 8.464665
_cell_angle_alpha 90.000000
_cell_angle_beta 90.000000
_cell_angle_gamma 90.000000
_cell_volume 4142.967220
_symmetry_space_group_name_H-M "P B A M"
_symmetry_group_IT_number 55
_symmetry_cell_setting 'orthorhombic'
loop_
_space_group_symop_operation_xyz
x,y,z
-x,-y,z
1/2+x,1/2-y,-z
1/2-x,1/2+y,-z
-x,-y,-z
x,y,-z
1/2-x,1/2+y,z
1/2+x,1/2-y,z
loop_
_atom_site_type_symbol
_atom_site_label
_atom_site_fract_x
_atom_site_fract_y
_atom_site_fract_z
Si Si1 0.852617 0.644789 0.819696
Si Si2 0.052985 0.425152 0.682539
Si Si3 0.260393 0.084350 0.181118
Si Si4 0.643572 0.832847 0.688687
Si Si5 0.945437 0.420775 0.815265
Si Si6 0.805975 0.195344 0.321871
Si Si7 0.715810 0.270129 0.820876
Si Si8 0.244676 0.432013 0.313793
O O1 0.901603 0.630299 0.713110
O O2 0.838023 0.729625 0.797420
O O3 0.806606 0.592445 0.772028
O O4 0.866805 0.627657 0.000000
O O5 0.037944 0.424188 0.500000
O O6 0.070735 0.505126 0.730754
O O7 0.003922 0.401665 0.782469
O O8 0.314152 0.114416 0.240002
O O9 0.215065 0.143315 0.202538
O O10 0.243696 0.015009 0.280381
O O11 0.266677 0.061407 0.000000
O O12 0.647707 0.835608 0.500000
O O13 0.588496 0.856493 0.746528
O O14 0.652132 0.749875 0.753328
O O15 0.936269 0.429367 0.000000
O O16 0.822708 0.183057 0.500000
O O17 0.753175 0.238611 0.310603
O O18 0.793034 0.116177 0.248801
O O19 0.735678 0.253358 0.000000
O O20 0.237907 0.418868 0.500000
#
# Coordination Sequence:
#
# PCOD8224367 Si02
#       8
#     8   8   8   8   8   8   8   8
#     4  10  18  30  45  61  81 110 142 174 208 245
#     4  11  21  33  46  62  83 109 139 174 208 243
#     4  10  18  28  41  61  85 112 142 173 205 243
#     4  10  18  30  45  61  81 110 142 174 208 245
#     4  11  21  33  46  62  83 109 139 174 208 243
#     4   8  16  28  42  58  80 107 138 171 205 241
#     4   8  16  28  42  58  80 107 138 171 205 241
#     4  10  18  28  41  61  85 112 142 173 205 243
#
# _framework density 15.447865
#
# number of rings (size 3 to 8) (size 9 to 14) (size 15 to 20)
#    0.000    2.250    0.000    5.250    0.000    2.000 
#    0.000    0.000    0.000    0.000    0.000    0.000 
#    0.000    1.000    0.000   11.500    0.000    3.500 
#
# Total GULP energy -792955.914377 kJ/mol
# GULP energy per Si atom -12389.936162 kJ/mol
# Density = 1.541271 g / cm^3
# Si number density = 15.447865 Si / 1000 Ang^3
#
#
#
# Elastic Constant Matrix: (Units=GPa)
#
#
# Indices 1 2 3 4 5 6 
#
# 1 65.6587 42.2707 6.6255 0.0000 0.0000 0.0000
# 2 42.2707 98.3413 10.3000 0.0000 0.0000 0.0000
# 3 6.6255 10.3000 44.3128 0.0000 0.0000 0.0000
# 4 0.0000 0.0000 0.0000 17.3120 0.0000 0.0000
# 5 0.0000 0.0000 0.0000 0.0000 18.7541 0.0000
# 6 0.0000 0.0000 0.0000 0.0000 0.0000 28.0639
#
#
#
# Elastic Compliance Matrix: (Units=1/GPa)
#
#
# Indices 1 2 3 4 5 6 
#
# 1 0.021107 -0.008960 -0.001073 0.000000 0.000000 0.000000
# 2 -0.008960 0.014226 -0.001967 0.000000 0.000000 0.000000
# 3 -0.001073 -0.001967 0.023185 0.000000 0.000000 0.000000
# 4 0.000000 0.000000 0.000000 0.057763 0.000000 0.000000
# 5 0.000000 0.000000 0.000000 0.000000 0.053322 0.000000
# 6 0.000000 0.000000 0.000000 0.000000 0.000000 0.035633
#
#
# Mechanical properties :
#
#
# Convention : Reuss Voigt Hill
#
# Bulk Modulus (GPa) = 28.97123 36.30058 32.63591
# Shear Modulus (GPa) = 20.76910 22.76710 21.76810
#
# Velocity S-wave (km/s) = 3.67067 3.84318 3.75791
# Velocity P-wave (km/s) = 6.06300 6.57595 6.32468
#
# Compressibility (1/GPa) = 0.03451700
#
# Stress axis : x y z
#
# Youngs Moduli (GPa) = 47.37744 70.29323 43.13223
#
# Poissons Ratio (x) = 0.62984 0.04629
# Poissons Ratio (y) = 0.42451 0.08484
# Poissons Ratio (z) = 0.05084 0.13827
#
# Static dielectric constant tensor:
#      x y z
#    x 2.791970 0.000000 0.000000 
#    y 0.000000 3.164070 0.000000 
#    z 0.000000 0.000000 3.055920 
# 
# 
# High freq. dielectric constant tensor:
#      x y z
#    x 1.552630 0.000000 0.000000 
#    y 0.000000 1.585160 0.000000 
#    z 0.000000 0.000000 1.605950 
# 
# From -- ./inp_files/10302.got.cif
#   From: 2010.03.12/outbox.cif.g09.slc.cpg/sg55_6_cif.got.tgz:10302.got - 2010.04.16 15:19:21.
