data_PCOD8224280
_publ_section_title
;
Structure prediction by ZEFSAII (Michael W. Deem and Ramdas Pophale) SiO2 
 PCOD8224280
Probable space group: P B A M
;
_chemical_formula_sum "Si O2"
_cell_formula_units_Z 56
_cell_length_a 17.502036
_cell_length_b 22.336884
_cell_length_c 9.216676
_cell_angle_alpha 90.000000
_cell_angle_beta 90.000000
_cell_angle_gamma 90.000000
_cell_volume 3603.176052
_symmetry_space_group_name_H-M "P B A M"
_symmetry_group_IT_number 55
_symmetry_cell_setting 'orthorhombic'
loop_
_space_group_symop_operation_xyz
x,y,z
-x,-y,z
1/2+x,1/2-y,-z
1/2-x,1/2+y,-z
-x,-y,-z
x,y,-z
1/2-x,1/2+y,z
1/2+x,1/2-y,z
loop_
_atom_site_type_symbol
_atom_site_label
_atom_site_fract_x
_atom_site_fract_y
_atom_site_fract_z
Si Si1 0.118522 0.847868 0.672699
Si Si2 0.718143 0.181122 0.660358
Si Si3 0.916518 0.716579 0.165573
Si Si4 0.006679 0.930302 0.167721
Si Si5 0.132606 0.152209 0.830973
Si Si6 0.726091 0.816980 0.335701
Si Si7 0.912498 0.274806 0.170401
O O1 0.107655 0.838970 0.500000
O O2 0.208551 0.857929 0.710523
O O3 0.086983 0.789863 0.754904
O O4 0.073519 0.905451 0.729869
O O5 0.693467 0.162460 0.500000
O O6 0.642413 0.171663 0.755636
O O7 0.745269 0.249355 0.667532
O O8 0.906145 0.785238 0.216364
O O9 0.003564 0.696702 0.194015
O O10 0.893903 0.711203 0.000000
O O11 0.926101 0.900272 0.209036
O O12 0.027055 0.916836 0.000000
O O13 0.000000 0.000000 0.199560
O O14 0.210232 0.141267 0.740080
O O15 0.154017 0.151769 0.000000
O O16 0.711848 0.839159 0.500000
O O17 0.647331 0.820155 0.244844
O O18 0.893808 0.267044 0.000000
#
# Coordination Sequence:
#
# PCOD8224280 Si02
#       7
#     8   8   8   8   8   8   8
#     4  10  19  30  43  60  84 114 147 182 220 259
#     4   8  16  27  38  56  81 109 140 172 209 254
#     4   9  16  25  40  61  83 110 143 173 208 253
#     4  10  20  33  48  65  85 113 152 191 224 260
#     4   9  16  29  43  58  81 112 145 179 218 255
#     4   9  17  27  39  60  83 110 144 175 212 257
#     4  10  17  27  42  62  87 115 145 176 212 257
#
# _framework density 15.541843999999999
#
# number of rings (size 3 to 8) (size 9 to 14) (size 15 to 20)
#    0.000    2.714    1.429    2.143    0.000    6.000 
#    0.000    0.000    0.000    0.000    0.000    0.000 
#    0.000    1.143    0.000   12.857    0.000    6.429 
#
# Total GULP energy -694165.196775 kJ/mol
# GULP energy per Si atom -12395.807085 kJ/mol
# Density = 1.550647 g / cm^3
# Si number density = 15.541844 Si / 1000 Ang^3
#
#
#
# Elastic Constant Matrix: (Units=GPa)
#
#
# Indices 1 2 3 4 5 6 
#
# 1 138.4367 42.2586 73.0110 0.0000 0.0000 0.0000
# 2 42.2586 41.4940 28.6375 0.0000 0.0000 0.0000
# 3 73.0110 28.6375 90.8532 0.0000 0.0000 0.0000
# 4 0.0000 0.0000 0.0000 12.1211 0.0000 0.0000
# 5 0.0000 0.0000 0.0000 0.0000 26.8385 0.0000
# 6 0.0000 0.0000 0.0000 0.0000 0.0000 14.3982
#
#
#
# Elastic Compliance Matrix: (Units=1/GPa)
#
#
# Indices 1 2 3 4 5 6 
#
# 1 0.014629 -0.008671 -0.009023 0.000000 0.000000 0.000000
# 2 -0.008671 0.035940 -0.004360 0.000000 0.000000 0.000000
# 3 -0.009023 -0.004360 0.019632 0.000000 0.000000 0.000000
# 4 0.000000 0.000000 0.000000 0.082501 0.000000 0.000000
# 5 0.000000 0.000000 0.000000 0.000000 0.037260 0.000000
# 6 0.000000 0.000000 0.000000 0.000000 0.000000 0.069453
#
#
# Mechanical properties :
#
#
# Convention : Reuss Voigt Hill
#
# Bulk Modulus (GPa) = 38.32515 62.06646 50.19580
# Shear Modulus (GPa) = 16.01425 19.13001 17.57213
#
# Velocity S-wave (km/s) = 3.21346 3.51218 3.36614
# Velocity P-wave (km/s) = 6.20333 7.51459 6.89022
#
# Compressibility (1/GPa) = 0.02609253
#
# Stress axis : x y z
#
# Youngs Moduli (GPa) = 68.35644 27.82397 50.93704
#
# Poissons Ratio (x) = 0.24127 0.45960
# Poissons Ratio (y) = 0.59275 0.22209
# Poissons Ratio (z) = 0.61678 0.12131
#
# Static dielectric constant tensor:
#      x y z
#    x 3.224210 0.000000 0.000000 
#    y 0.000000 2.458120 0.000000 
#    z 0.000000 0.000000 3.091440 
# 
# 
# High freq. dielectric constant tensor:
#      x y z
#    x 1.608990 0.000000 0.000000 
#    y 0.000000 1.522530 0.000000 
#    z 0.000000 0.000000 1.606430 
# 
# From -- ./inp_files/7813.got.cif
#   From: 2010.03.12/outbox.cif.g09.slc.cpg/sg55_4_cif.got.tgz:7813.got - 2010.04.16 15:19:21.
