data_PCOD8224275
_publ_section_title
;
Structure prediction by ZEFSAII (Michael W. Deem and Ramdas Pophale) SiO2 
 PCOD8224275
Probable space group: P B A M
;
_chemical_formula_sum "Si O2"
_cell_formula_units_Z 56
_cell_length_a 20.763461
_cell_length_b 9.528326
_cell_length_c 16.228192
_cell_angle_alpha 90.000000
_cell_angle_beta 90.000000
_cell_angle_gamma 90.000000
_cell_volume 3210.602144
_symmetry_space_group_name_H-M "P B A M"
_symmetry_group_IT_number 55
_symmetry_cell_setting 'orthorhombic'
loop_
_space_group_symop_operation_xyz
x,y,z
-x,-y,z
1/2+x,1/2-y,-z
1/2-x,1/2+y,-z
-x,-y,-z
x,y,-z
1/2-x,1/2+y,z
1/2+x,1/2-y,z
loop_
_atom_site_type_symbol
_atom_site_label
_atom_site_fract_x
_atom_site_fract_y
_atom_site_fract_z
Si Si1 0.311728 0.990314 0.904800
Si Si2 0.711298 0.985412 0.408010
Si Si3 0.142051 0.277411 0.685164
Si Si4 0.253417 0.743684 0.181739
Si Si5 0.364092 0.505448 0.406300
Si Si6 0.143898 0.745950 0.299731
Si Si7 0.073472 0.506070 0.784570
O O1 0.275754 0.842864 0.892894
O O2 0.382699 0.989156 0.865478
O O3 0.266323 0.097097 0.856830
O O4 0.318546 0.028524 0.000000
O O5 0.685661 0.959781 0.500000
O O6 0.686224 0.135273 0.377618
O O7 0.787579 0.989859 0.405234
O O8 0.687743 0.858257 0.352834
O O9 0.186364 0.218018 0.758197
O O10 0.086765 0.379100 0.720861
O O11 0.109218 0.147228 0.636897
O O12 0.191954 0.809544 0.230329
O O13 0.390481 0.495446 0.500000
O O14 0.387375 0.369333 0.354657
O O15 0.086517 0.656300 0.258704
O O16 0.000000 0.500000 0.813450
#
# Coordination Sequence:
#
# PCOD8224275 Si02
#       7
#     8   8   8   8   8   8   8
#     4  10  20  32  53  79 104 125 148 197 248 303
#     4  10  17  26  43  72 109 137 159 195 248 297
#     4  10  18  30  49  71 103 135 166 203 238 294
#     4  10  17  30  47  74 106 130 156 182 245 304
#     4  11  18  26  45  76 106 128 159 206 254 291
#     4  10  18  30  49  71 103 135 166 203 238 294
#     4   9  21  38  54  68  89 134 178 205 237 284
#
# _framework density 17.442212000000001
#
# number of rings (size 3 to 8) (size 9 to 14) (size 15 to 20)
#    0.000    2.000    2.857    3.000    0.000    2.571 
#    0.000    0.714    0.000   16.286    0.000    0.000 
#    0.000   13.714    0.000    0.000    0.000    0.000 
#
# Total GULP energy -694375.089518 kJ/mol
# GULP energy per Si atom -12399.555170 kJ/mol
# Density = 1.740251 g / cm^3
# Si number density = 17.442212 Si / 1000 Ang^3
#
#
#
# Elastic Constant Matrix: (Units=GPa)
#
#
# Indices 1 2 3 4 5 6 
#
# 1 69.1779 18.6491 18.4927 0.0000 0.0000 0.0000
# 2 18.6491 79.8839 19.5204 0.0000 0.0000 0.0000
# 3 18.4927 19.5204 84.3966 0.0000 0.0000 0.0000
# 4 0.0000 0.0000 0.0000 23.1334 0.0000 0.0000
# 5 0.0000 0.0000 0.0000 0.0000 10.7674 0.0000
# 6 0.0000 0.0000 0.0000 0.0000 0.0000 9.6308
#
#
#
# Elastic Compliance Matrix: (Units=1/GPa)
#
#
# Indices 1 2 3 4 5 6 
#
# 1 0.016029 -0.003057 -0.002805 0.000000 0.000000 0.000000
# 2 -0.003057 0.013851 -0.002534 0.000000 0.000000 0.000000
# 3 -0.002805 -0.002534 0.013050 0.000000 0.000000 0.000000
# 4 0.000000 0.000000 0.000000 0.043228 0.000000 0.000000
# 5 0.000000 0.000000 0.000000 0.000000 0.092873 0.000000
# 6 0.000000 0.000000 0.000000 0.000000 0.000000 0.103834
#
#
# Mechanical properties :
#
#
# Convention : Reuss Voigt Hill
#
# Bulk Modulus (GPa) = 38.25807 38.53143 38.39475
# Shear Modulus (GPa) = 16.21437 20.49272 18.35354
#
# Velocity S-wave (km/s) = 3.05225 3.43139 3.24736
# Velocity P-wave (km/s) = 5.86544 6.15127 6.01006
#
# Compressibility (1/GPa) = 0.02613828
#
# Stress axis : x y z
#
# Youngs Moduli (GPa) = 62.38529 72.19734 76.63073
#
# Poissons Ratio (x) = 0.22068 0.21498
# Poissons Ratio (y) = 0.19069 0.19417
# Poissons Ratio (z) = 0.17501 0.18294
#
# Static dielectric constant tensor:
#      x y z
#    x 2.775140 0.000000 0.000000 
#    y 0.000000 3.377170 0.000000 
#    z 0.000000 0.000000 3.335980 
# 
# 
# High freq. dielectric constant tensor:
#      x y z
#    x 1.627490 0.000000 0.000000 
#    y 0.000000 1.683150 0.000000 
#    z 0.000000 0.000000 1.674030 
# 
# From -- ./inp_files/21048.got.cif
#   From: 2010.03.12/outbox.cif.g09.slc.cpg/sg55_11_cif.got.tgz:21048.got - 2010.04.16 15:19:21.
