data_PCOD8224896
_publ_section_title
;
Structure prediction by ZEFSAII (Michael W. Deem and Ramdas Pophale) SiO2 
 PCOD8224896
Probable space group: P B A M
;
_chemical_formula_sum "Si O2"
_cell_formula_units_Z 52
_cell_length_a 25.995601
_cell_length_b 9.748108
_cell_length_c 12.414118
_cell_angle_alpha 90.000000
_cell_angle_beta 90.000000
_cell_angle_gamma 90.000000
_cell_volume 3145.835896
_symmetry_space_group_name_H-M "P B A M"
_symmetry_group_IT_number 55
_symmetry_cell_setting 'orthorhombic'
loop_
_space_group_symop_operation_xyz
x,y,z
-x,-y,z
1/2+x,1/2-y,-z
1/2-x,1/2+y,-z
-x,-y,-z
x,y,-z
1/2-x,1/2+y,z
1/2+x,1/2-y,z
loop_
_atom_site_type_symbol
_atom_site_label
_atom_site_fract_x
_atom_site_fract_y
_atom_site_fract_z
Si Si1 0.209183 0.017236 0.877036
Si Si2 0.500000 0.500000 0.747270
Si Si3 0.849659 0.388616 0.376770
Si Si4 0.843289 0.703320 0.626306
Si Si5 0.258805 0.250111 0.750799
Si Si6 0.608671 0.430491 0.234658
Si Si7 0.923799 0.157106 0.623604
O O1 0.227779 0.897627 0.798573
O O2 0.240129 0.154520 0.848514
O O3 0.148475 0.048813 0.862405
O O4 0.219570 0.976554 0.000000
O O5 0.450469 0.560204 0.812781
O O6 0.519798 0.628778 0.674430
O O7 0.831292 0.371828 0.500000
O O8 0.857207 0.546598 0.347123
O O9 0.808089 0.318911 0.301225
O O10 0.904542 0.312925 0.358310
O O11 0.850305 0.737163 0.500000
O O12 0.784694 0.735290 0.659444
O O13 0.882294 0.790072 0.700018
O O14 0.617100 0.553693 0.320434
O O15 0.926065 0.117815 0.500000
#
# Coordination Sequence:
#
# PCOD8224896 Si02
#       7
#     8   4   8   8   8   8   8
#     4  11  22  35  53  74  97 131 175 218 255 298
#     4   8  17  32  53  76  96 132 167 204 259 306
#     4  10  19  31  48  75 107 137 167 199 244 301
#     4  10  20  31  47  74 107 137 166 201 246 298
#     4  11  19  36  49  71 104 136 167 207 251 301
#     4   9  19  33  53  71 100 128 170 209 249 299
#     4   9  16  28  51  74  98 128 162 198 242 304
#
# _framework density 16.529788
#
# number of rings (size 3 to 8) (size 9 to 14) (size 15 to 20)
#    0.923    1.231    3.077    1.615    0.000    0.000 
#    0.000    1.154    0.000    2.769    0.000    0.000 
#    0.000    4.000    0.000    0.000    0.000    0.000 
#
# Total GULP energy -644303.300223 kJ/mol
# GULP energy per Si atom -12390.448081 kJ/mol
# Density = 1.649217 g / cm^3
# Si number density = 16.529788 Si / 1000 Ang^3
#
#
#
# Elastic Constant Matrix: (Units=GPa)
#
#
# Indices 1 2 3 4 5 6 
#
# 1 86.0122 23.8768 13.5286 0.0000 0.0000 0.0000
# 2 23.8768 82.0290 11.7513 0.0000 0.0000 0.0000
# 3 13.5286 11.7513 36.8464 0.0000 0.0000 0.0000
# 4 0.0000 0.0000 0.0000 18.5375 0.0000 0.0000
# 5 0.0000 0.0000 0.0000 0.0000 11.4009 0.0000
# 6 0.0000 0.0000 0.0000 0.0000 0.0000 21.2635
#
#
#
# Elastic Compliance Matrix: (Units=1/GPa)
#
#
# Indices 1 2 3 4 5 6 
#
# 1 0.013131 -0.003281 -0.003775 0.000000 0.000000 0.000000
# 2 -0.003281 0.013594 -0.003131 0.000000 0.000000 0.000000
# 3 -0.003775 -0.003131 0.029524 0.000000 0.000000 0.000000
# 4 0.000000 0.000000 0.000000 0.053945 0.000000 0.000000
# 5 0.000000 0.000000 0.000000 0.000000 0.087712 0.000000
# 6 0.000000 0.000000 0.000000 0.000000 0.000000 0.047029
#
#
# Mechanical properties :
#
#
# Convention : Reuss Voigt Hill
#
# Bulk Modulus (GPa) = 27.87397 33.68897 30.78147
# Shear Modulus (GPa) = 18.03310 20.62243 19.32777
#
# Velocity S-wave (km/s) = 3.30653 3.53596 3.42317
# Velocity P-wave (km/s) = 5.61044 6.09062 5.85545
#
# Compressibility (1/GPa) = 0.03587577
#
# Stress axis : x y z
#
# Youngs Moduli (GPa) = 76.15655 73.55937 33.87064
#
# Poissons Ratio (x) = 0.24137 0.12785
# Poissons Ratio (y) = 0.24990 0.10604
# Poissons Ratio (z) = 0.28746 0.23030
#
# Static dielectric constant tensor:
#      x y z
#    x 3.039670 0.000000 0.000000 
#    y 0.000000 3.176900 0.000000 
#    z 0.000000 0.000000 2.795200 
# 
# 
# High freq. dielectric constant tensor:
#      x y z
#    x 1.629080 0.000000 0.000000 
#    y 0.000000 1.642500 0.000000 
#    z 0.000000 0.000000 1.611200 
# 
# From -- ./inp_files/12515.got.cif
#   From: 2010.03.12/outbox.cif.g09.slc.cpg/sg55_7_cif.got.tgz:12515.got - 2010.04.16 15:19:21.
