data_PCOD8224095
_publ_section_title
;
Structure prediction by ZEFSAII (Michael W. Deem and Ramdas Pophale) SiO2 
 PCOD8224095
Probable space group: P C C A
;
_chemical_formula_sum "Si O2"
_cell_formula_units_Z 48
_cell_length_a 16.301563
_cell_length_b 14.220216
_cell_length_c 9.265952
_cell_angle_alpha 90.000000
_cell_angle_beta 90.000000
_cell_angle_gamma 90.000000
_cell_volume 2147.956521
_symmetry_space_group_name_H-M "P C C A"
_symmetry_group_IT_number 54
_symmetry_cell_setting 'orthorhombic'
loop_
_space_group_symop_operation_xyz
x,y,z
1/2-x,-y,z
1/2+x,-y,1/2-z
-x,y,1/2-z
-x,-y,-z
1/2+x,y,-z
1/2-x,y,1/2+z
x,-y,1/2+z
loop_
_atom_site_type_symbol
_atom_site_label
_atom_site_fract_x
_atom_site_fract_y
_atom_site_fract_z
Si Si1 0.080100 0.732166 0.165069
Si Si2 0.419666 0.443895 0.465749
Si Si3 0.663145 0.090987 0.902803
Si Si4 0.669520 0.450553 0.311821
Si Si5 0.673889 0.904439 0.737732
Si Si6 0.970775 0.747793 0.907798
O O1 0.159212 0.661323 0.151704
O O2 0.107503 0.822056 0.256152
O O3 0.000000 0.688842 0.250000
O O4 0.052053 0.765311 0.005048
O O5 0.500000 0.500000 0.500000
O O6 0.404964 0.461345 0.298624
O O7 0.342906 0.489103 0.545891
O O8 0.420854 0.335544 0.514007
O O9 0.741811 0.129833 0.814253
O O10 0.586661 0.161314 0.893107
O O11 0.637834 0.993866 0.824327
O O12 0.688046 0.071702 0.069233
O O13 0.750000 0.500000 0.243007
O O14 0.000000 0.715714 0.750000
#
# Coordination Sequence:
#
# PCOD8224095 Si02
#       6
#     8   8   8   8   8   8
#     4  12  24  50  70 101 146 184 229 296 362 422
#     4  12  23  47  69  98 141 182 229 288 359 423
#     4  11  25  46  70 106 144 189 245 294 368 430
#     4  12  26  44  69 102 137 182 231 286 350 429
#     4  11  25  45  72 101 145 192 233 300 360 430
#     4  12  27  44  73 105 138 187 243 300 361 435
#
# _framework density 22.346822
#
# number of rings (size 3 to 8) (size 9 to 14) (size 15 to 20)
#    0.000    0.333    5.000    4.000    7.000    1.333 
#    3.000    0.000    0.000    0.000    0.000    0.000 
#    0.000    0.000    0.000    0.000    0.000    0.000 
#
# Total GULP energy -594723.909880 kJ/mol
# GULP energy per Si atom -12390.081456 kJ/mol
# Density = 2.229596 g / cm^3
# Si number density = 22.346822 Si / 1000 Ang^3
#
#
#
# Elastic Constant Matrix: (Units=GPa)
#
#
# Indices 1 2 3 4 5 6 
#
# 1 92.3903 55.8174 17.5824 0.0000 0.0000 0.0000
# 2 55.8174 120.1453 14.7777 0.0000 0.0000 0.0000
# 3 17.5824 14.7777 129.7276 0.0000 0.0000 0.0000
# 4 0.0000 0.0000 0.0000 26.4714 0.0000 0.0000
# 5 0.0000 0.0000 0.0000 0.0000 39.8591 0.0000
# 6 0.0000 0.0000 0.0000 0.0000 0.0000 57.9218
#
#
#
# Elastic Compliance Matrix: (Units=1/GPa)
#
#
# Indices 1 2 3 4 5 6 
#
# 1 0.015253 -0.006929 -0.001278 0.000000 0.000000 0.000000
# 2 -0.006929 0.011589 -0.000381 0.000000 0.000000 0.000000
# 3 -0.001278 -0.000381 0.007925 0.000000 0.000000 0.000000
# 4 0.000000 0.000000 0.000000 0.037777 0.000000 0.000000
# 5 0.000000 0.000000 0.000000 0.000000 0.025088 0.000000
# 6 0.000000 0.000000 0.000000 0.000000 0.000000 0.017265
#
#
# Mechanical properties :
#
#
# Convention : Reuss Voigt Hill
#
# Bulk Modulus (GPa) = 56.84684 57.62424 57.23554
# Shear Modulus (GPa) = 36.24839 41.78949 39.01894
#
# Velocity S-wave (km/s) = 4.03188 4.32909 4.18312
# Velocity P-wave (km/s) = 6.86792 7.12954 6.99995
#
# Compressibility (1/GPa) = 0.01759113
#
# Stress axis : x y z
#
# Youngs Moduli (GPa) = 65.56054 86.28666 126.18172
#
# Poissons Ratio (x) = 0.59789 0.16126
# Poissons Ratio (y) = 0.45428 0.04808
# Poissons Ratio (z) = 0.08379 0.03288
#
# Static dielectric constant tensor:
#      x y z
#    x 4.003590 0.000000 0.000000 
#    y 0.000000 3.973910 0.000000 
#    z 0.000000 0.000000 4.496870 
# 
# 
# High freq. dielectric constant tensor:
#      x y z
#    x 1.867030 0.000000 0.000000 
#    y 0.000000 1.882770 0.000000 
#    z 0.000000 0.000000 1.906420 
# 
# From -- ./inp_files/4204.got.cif
#   From: 2010.03.12/outbox.cif.g09.slc.cpg/sg54_3_cif.got.tgz:4204.got - 2010.04.16 15:00:50.
