data_PCOD8224290
_publ_section_title
;
Structure prediction by ZEFSAII (Michael W. Deem and Ramdas Pophale) SiO2 
 PCOD8224290
Probable space group: P B A M
;
_chemical_formula_sum "Si O2"
_cell_formula_units_Z 64
_cell_length_a 18.756297
_cell_length_b 23.774742
_cell_length_c 9.185282
_cell_angle_alpha 90.000000
_cell_angle_beta 90.000000
_cell_angle_gamma 90.000000
_cell_volume 4095.957182
_symmetry_space_group_name_H-M "P B A M"
_symmetry_group_IT_number 55
_symmetry_cell_setting 'orthorhombic'
loop_
_space_group_symop_operation_xyz
x,y,z
-x,-y,z
1/2+x,1/2-y,-z
1/2-x,1/2+y,-z
-x,-y,-z
x,y,-z
1/2-x,1/2+y,z
1/2+x,1/2-y,z
loop_
_atom_site_type_symbol
_atom_site_label
_atom_site_fract_x
_atom_site_fract_y
_atom_site_fract_z
Si Si1 0.230453 0.165163 0.830366
Si Si2 0.734498 0.666918 0.831500
Si Si3 0.001711 0.762964 0.332450
Si Si4 0.997355 0.880836 0.826872
Si Si5 0.354822 0.559862 0.828684
Si Si6 0.343558 0.764075 0.667445
Si Si7 0.367412 0.228281 0.165902
Si Si8 0.356494 0.435501 0.173136
O O1 0.211357 0.100800 0.789212
O O2 0.179075 0.205713 0.740710
O O3 0.313395 0.177117 0.795719
O O4 0.214745 0.177570 0.000000
O O5 0.805097 0.682756 0.741913
O O6 0.673095 0.713068 0.807836
O O7 0.704280 0.607609 0.771429
O O8 0.756242 0.663513 0.000000
O O9 0.016627 0.777648 0.500000
O O10 0.999191 0.819636 0.241286
O O11 0.064917 0.723542 0.271499
O O12 0.928297 0.728569 0.314703
O O13 0.065772 0.915886 0.773743
O O14 0.928133 0.913881 0.767926
O O15 0.995952 0.873190 0.000000
O O16 0.341058 0.497788 0.762177
O O17 0.363352 0.553089 0.000000
O O18 0.320376 0.761780 0.500000
O O19 0.393998 0.223982 0.000000
O O20 0.355177 0.435111 0.000000
#
# Coordination Sequence:
#
# PCOD8224290 Si02
#       8
#     8   8   8   8   8   8   8   8
#     4   9  17  30  47  68  89 115 150 186 224 265
#     4   9  17  30  47  67  90 116 148 187 225 264
#     4  11  21  30  43  65  91 121 153 186 226 266
#     4  10  17  28  45  65  92 125 156 183 211 254
#     4   9  16  26  46  70  92 120 152 185 220 260
#     4  10  20  31  44  63  89 118 150 188 227 268
#     4   9  17  29  45  65  89 115 147 186 225 269
#     4   9  16  27  44  70  95 117 152 188 217 259
#
# _framework density 15.625163000000001
#
# number of rings (size 3 to 8) (size 9 to 14) (size 15 to 20)
#    0.000    2.500    2.500    1.875    0.000    5.000 
#    0.000    0.000    0.000    3.750    0.000    0.875 
#    0.000    7.000    0.000    0.000    0.000    0.000 
#
# Total GULP energy -793427.810577 kJ/mol
# GULP energy per Si atom -12397.309540 kJ/mol
# Density = 1.558960 g / cm^3
# Si number density = 15.625163 Si / 1000 Ang^3
#
#
#
# Elastic Constant Matrix: (Units=GPa)
#
#
# Indices 1 2 3 4 5 6 
#
# 1 101.2306 64.1492 41.7425 0.0000 0.0000 0.0000
# 2 64.1492 107.9839 25.9210 0.0000 0.0000 0.0000
# 3 41.7425 25.9210 51.3477 0.0000 0.0000 0.0000
# 4 0.0000 0.0000 0.0000 4.7617 0.0000 0.0000
# 5 0.0000 0.0000 0.0000 0.0000 20.9931 0.0000
# 6 0.0000 0.0000 0.0000 0.0000 0.0000 24.5124
#
#
#
# Elastic Compliance Matrix: (Units=1/GPa)
#
#
# Indices 1 2 3 4 5 6 
#
# 1 0.020946 -0.009508 -0.012228 0.000000 0.000000 0.000000
# 2 -0.009508 0.014853 0.000231 0.000000 0.000000 0.000000
# 3 -0.012228 0.000231 0.029299 0.000000 0.000000 0.000000
# 4 0.000000 0.000000 0.000000 0.210010 0.000000 0.000000
# 5 0.000000 0.000000 0.000000 0.000000 0.047635 0.000000
# 6 0.000000 0.000000 0.000000 0.000000 0.000000 0.040796
#
#
# Mechanical properties :
#
#
# Convention : Reuss Voigt Hill
#
# Bulk Modulus (GPa) = 45.27182 58.24306 51.75744
# Shear Modulus (GPa) = 12.07991 18.63673 15.35832
#
# Velocity S-wave (km/s) = 2.78349 3.45735 3.13856
# Velocity P-wave (km/s) = 6.27431 7.30026 6.80664
#
# Compressibility (1/GPa) = 0.02208879
#
# Stress axis : x y z
#
# Youngs Moduli (GPa) = 47.74275 67.32470 34.13095
#
# Poissons Ratio (x) = 0.64011 0.41735
# Poissons Ratio (y) = 0.45393 -0.00789
# Poissons Ratio (z) = 0.58379 -0.01555
#
# Static dielectric constant tensor:
#      x y z
#    x 3.099700 0.000000 0.000000 
#    y 0.000000 3.067780 0.000000 
#    z 0.000000 0.000000 2.796170 
# 
# 
# High freq. dielectric constant tensor:
#      x y z
#    x 1.594440 0.000000 0.000000 
#    y 0.000000 1.579130 0.000000 
#    z 0.000000 0.000000 1.577940 
# 
# From -- ./inp_files/8176.got.cif
#   From: 2010.03.12/outbox.cif.g09.slc.cpg/sg55_5_cif.got.tgz:8176.got - 2010.04.16 15:19:21.
