data_PCOD8224955
_publ_section_title
;
Structure prediction by ZEFSAII (Michael W. Deem and Ramdas Pophale) SiO2 
 PCOD8224955
Probable space group: P B A M
;
_chemical_formula_sum "Si O2"
_cell_formula_units_Z 56
_cell_length_a 15.731480
_cell_length_b 19.217890
_cell_length_c 10.101079
_cell_angle_alpha 90.000000
_cell_angle_beta 90.000000
_cell_angle_gamma 90.000000
_cell_volume 3053.817317
_symmetry_space_group_name_H-M "P B A M"
_symmetry_group_IT_number 55
_symmetry_cell_setting 'orthorhombic'
loop_
_space_group_symop_operation_xyz
x,y,z
-x,-y,z
1/2+x,1/2-y,-z
1/2-x,1/2+y,-z
-x,-y,-z
x,y,-z
1/2-x,1/2+y,z
1/2+x,1/2-y,z
loop_
_atom_site_type_symbol
_atom_site_label
_atom_site_fract_x
_atom_site_fract_y
_atom_site_fract_z
Si Si1 0.912490 0.024009 0.651496
Si Si2 0.874297 0.173937 0.345472
Si Si3 0.756995 0.929351 0.349204
Si Si4 0.725705 0.273258 0.342621
Si Si5 0.363541 0.006288 0.853404
Si Si6 0.036213 0.265066 0.654759
Si Si7 0.985547 0.614110 0.147157
O O1 0.932874 0.044391 0.500000
O O2 0.873587 0.095325 0.714903
O O3 0.852509 0.957262 0.659814
O O4 0.000000 0.000000 0.722227
O O5 0.854267 0.173071 0.500000
O O6 0.796950 0.220307 0.283116
O O7 0.968058 0.204478 0.316956
O O8 0.723176 0.933094 0.500000
O O9 0.752330 0.851043 0.292539
O O10 0.704314 0.981827 0.259994
O O11 0.726268 0.274206 0.500000
O O12 0.630451 0.255005 0.294285
O O13 0.437352 0.061797 0.837044
O O14 0.398436 0.928441 0.833684
O O15 0.322558 0.013235 0.000000
O O16 0.036823 0.285239 0.500000
O O17 0.004388 0.330272 0.737955
O O18 0.986748 0.648350 0.000000
#
# Coordination Sequence:
#
# PCOD8224955 Si02
#       7
#     8   8   8   8   8   8   8
#     4   9  17  29  47  71 102 138 174 208 252 308
#     4   9  17  29  45  69 102 135 162 204 261 304
#     4  10  19  31  52  78 102 132 176 219 249 301
#     4   9  18  30  45  72 107 132 161 210 266 304
#     4   9  19  35  52  71 100 136 167 205 264 317
#     4  10  19  31  52  75 101 134 169 210 258 305
#     4   9  19  35  52  71 100 136 168 204 259 320
#
# _framework density 18.337706000000001
#
# number of rings (size 3 to 8) (size 9 to 14) (size 15 to 20)
#    0.000    2.714    0.000    2.571    2.000    5.714 
#    0.000    2.143    0.000    2.143    0.000    0.000 
#    0.000    0.000    0.000    0.000    0.000    0.000 
#
# Total GULP energy -694067.851482 kJ/mol
# GULP energy per Si atom -12394.068776 kJ/mol
# Density = 1.829597 g / cm^3
# Si number density = 18.337706 Si / 1000 Ang^3
#
#
#
# Elastic Constant Matrix: (Units=GPa)
#
#
# Indices 1 2 3 4 5 6 
#
# 1 86.2304 22.4182 9.9008 0.0000 0.0000 0.0000
# 2 22.4182 100.6856 15.2514 0.0000 0.0000 0.0000
# 3 9.9008 15.2514 44.3898 0.0000 0.0000 0.0000
# 4 0.0000 0.0000 0.0000 15.2249 0.0000 0.0000
# 5 0.0000 0.0000 0.0000 0.0000 7.9414 0.0000
# 6 0.0000 0.0000 0.0000 0.0000 0.0000 26.1019
#
#
#
# Elastic Compliance Matrix: (Units=1/GPa)
#
#
# Indices 1 2 3 4 5 6 
#
# 1 0.012464 -0.002483 -0.001927 0.000000 0.000000 0.000000
# 2 -0.002483 0.010972 -0.003216 0.000000 0.000000 0.000000
# 3 -0.001927 -0.003216 0.024062 0.000000 0.000000 0.000000
# 4 0.000000 0.000000 0.000000 0.065682 0.000000 0.000000
# 5 0.000000 0.000000 0.000000 0.000000 0.125922 0.000000
# 6 0.000000 0.000000 0.000000 0.000000 0.000000 0.038311
#
#
# Mechanical properties :
#
#
# Convention : Reuss Voigt Hill
#
# Bulk Modulus (GPa) = 31.01133 36.27182 33.64158
# Shear Modulus (GPa) = 16.47916 22.10267 19.29092
#
# Velocity S-wave (km/s) = 3.00100 3.47553 3.24694
# Velocity P-wave (km/s) = 5.38107 5.99405 5.69581
#
# Compressibility (1/GPa) = 0.03224628
#
# Stress axis : x y z
#
# Youngs Moduli (GPa) = 80.23324 91.14156 41.55869
#
# Poissons Ratio (x) = 0.22633 0.08007
# Poissons Ratio (y) = 0.19924 0.13365
# Poissons Ratio (z) = 0.15459 0.29310
#
# Static dielectric constant tensor:
#      x y z
#    x 3.514820 0.000000 0.000000 
#    y 0.000000 3.526720 0.000000 
#    z 0.000000 0.000000 3.010470 
# 
# 
# High freq. dielectric constant tensor:
#      x y z
#    x 1.716620 0.000000 0.000000 
#    y 0.000000 1.718440 0.000000 
#    z 0.000000 0.000000 1.655140 
# 
# From -- ./inp_files/6039.got.cif
#   From: 2010.03.12/outbox.cif.g09.slc.cpg/sg55_4_cif.got.tgz:6039.got - 2010.04.16 15:19:21.
