data_PCOD8224240
_publ_section_title
;
Structure prediction by ZEFSAII (Michael W. Deem and Ramdas Pophale) SiO2 
 PCOD8224240
Probable space group: P B A M
;
_chemical_formula_sum "Si O2"
_cell_formula_units_Z 36
_cell_length_a 12.368327
_cell_length_b 5.339794
_cell_length_c 21.646468
_cell_angle_alpha 90.000000
_cell_angle_beta 90.000000
_cell_angle_gamma 90.000000
_cell_volume 1429.626223
_symmetry_space_group_name_H-M "P B A M"
_symmetry_group_IT_number 55
_symmetry_cell_setting 'orthorhombic'
loop_
_space_group_symop_operation_xyz
x,y,z
-x,-y,z
1/2+x,1/2-y,-z
1/2-x,1/2+y,-z
-x,-y,-z
x,y,-z
1/2-x,1/2+y,z
1/2+x,1/2-y,z
loop_
_atom_site_type_symbol
_atom_site_label
_atom_site_fract_x
_atom_site_fract_y
_atom_site_fract_z
Si Si1 0.117527 0.646000 0.302862
Si Si2 0.181237 0.730754 0.432629
Si Si3 0.182236 0.317823 0.000000
Si Si4 0.065168 0.255573 0.127218
Si Si5 0.359717 0.643990 0.253578
O O1 0.098804 0.705736 0.375383
O O2 0.244733 0.598270 0.286112
O O3 0.069196 0.366951 0.287509
O O4 0.076059 0.878799 0.260815
O O5 0.122523 0.713231 0.500000
O O6 0.234901 0.002803 0.426914
O O7 0.112516 0.320544 0.061232
O O8 0.244585 0.576198 0.000000
O O9 0.154515 0.210455 0.181012
O O10 0.000000 0.500000 0.149122
O O11 0.000000 0.000000 0.119804
#
# Coordination Sequence:
#
# PCOD8224240 Si02
#       5
#     8   8   4   8   8
#     4  10  17  32  50  85 117 147 195 267 291 342
#     4  10  16  25  41  70 116 157 186 236 323 366
#     4  12  28  46  74 100 122 158 214 252 298 360
#     4  12  26  46  66  92 131 167 199 249 310 366
#     4  10  20  31  57  77 115 149 197 232 310 341
#
# _framework density 25.181408000000001
#
# number of rings (size 3 to 8) (size 9 to 14) (size 15 to 20)
#    0.000    1.333    4.444    3.333    6.222    0.000 
#    0.000    0.000    0.000    0.000    0.000    0.000 
#    0.000   30.222    0.000    0.000    0.000    0.000 
#
# Total GULP energy -446244.466404 kJ/mol
# GULP energy per Si atom -12395.679622 kJ/mol
# Density = 2.512409 g / cm^3
# Si number density = 25.181408 Si / 1000 Ang^3
#
#
#
# Elastic Constant Matrix: (Units=GPa)
#
#
# Indices 1 2 3 4 5 6 
#
# 1 41.0751 37.3227 10.8212 0.0000 0.0000 0.0000
# 2 37.3227 208.6243 22.2812 0.0000 0.0000 0.0000
# 3 10.8212 22.2812 207.8495 0.0000 0.0000 0.0000
# 4 0.0000 0.0000 0.0000 46.3112 0.0000 0.0000
# 5 0.0000 0.0000 0.0000 0.0000 -139.2328 0.0000
# 6 0.0000 0.0000 0.0000 0.0000 0.0000 36.9943
#
#
#
# Elastic Compliance Matrix: (Units=1/GPa)
#
#
# Indices 1 2 3 4 5 6 
#
# 1 0.029265 -0.005131 -0.000974 0.000000 0.000000 0.000000
# 2 -0.005131 0.005749 -0.000349 0.000000 0.000000 0.000000
# 3 -0.000974 -0.000349 0.004899 0.000000 0.000000 0.000000
# 4 0.000000 0.000000 0.000000 0.021593 0.000000 0.000000
# 5 0.000000 0.000000 0.000000 0.000000 -0.007182 0.000000
# 6 0.000000 0.000000 0.000000 0.000000 0.000000 0.027031
#
#
# Mechanical properties :
#
#
# Convention : Reuss Voigt Hill
#
# Bulk Modulus (GPa) = 37.03083 66.48878 51.75981
# Shear Modulus (GPa) = 48.41942 14.62280 31.52111
#
# Velocity S-wave (km/s) = 4.38976 2.41238 3.54186
# Velocity P-wave (km/s) = 6.35853 5.84985 6.10948
#
# Compressibility (1/GPa) = 0.02700453
#
# Stress axis : x y z
#
# Youngs Moduli (GPa) = 34.17075 173.95532 204.11164
#
# Poissons Ratio (x) = 0.89265 0.19871
# Poissons Ratio (y) = 0.17535 0.07125
# Poissons Ratio (z) = 0.03327 0.06073
#
# Static dielectric constant tensor:
#      x y z
#    x 4.374600 0.000000 0.000000 
#    y 0.000000 5.626270 0.000000 
#    z 0.000000 0.000000 8.409980 
# 
# 
# High freq. dielectric constant tensor:
#      x y z
#    x 1.985360 0.000000 0.000000 
#    y 0.000000 2.062410 0.000000 
#    z 0.000000 0.000000 2.019720 
# 
# From -- ./inp_files/22906.got.cif
#   From: 2010.03.12/outbox.cif.g09.slc.cpg/sg55_12_cif.got.tgz:22906.got - 2010.04.16 15:19:21.
