data_PCOD8224269
_publ_section_title
;
Structure prediction by ZEFSAII (Michael W. Deem and Ramdas Pophale) SiO2 
 PCOD8224269
Probable space group: P B A M
;
_chemical_formula_sum "Si O2"
_cell_formula_units_Z 64
_cell_length_a 24.535078
_cell_length_b 20.804061
_cell_length_c 8.826925
_cell_angle_alpha 90.000000
_cell_angle_beta 90.000000
_cell_angle_gamma 90.000000
_cell_volume 4505.520790
_symmetry_space_group_name_H-M "P B A M"
_symmetry_group_IT_number 55
_symmetry_cell_setting 'orthorhombic'
loop_
_space_group_symop_operation_xyz
x,y,z
-x,-y,z
1/2+x,1/2-y,-z
1/2-x,1/2+y,-z
-x,-y,-z
x,y,-z
1/2-x,1/2+y,z
1/2+x,1/2-y,z
loop_
_atom_site_type_symbol
_atom_site_label
_atom_site_fract_x
_atom_site_fract_y
_atom_site_fract_z
Si Si1 0.137489 0.300387 0.329883
Si Si2 0.407160 0.982782 0.673738
Si Si3 0.761179 0.741021 0.178269
Si Si4 0.735580 0.115526 0.331552
Si Si5 0.704436 0.996102 0.825084
Si Si6 0.459546 0.863089 0.821239
Si Si7 0.817486 0.354833 0.178524
Si Si8 0.431737 0.127681 0.672804
O O1 0.122087 0.278291 0.500000
O O2 0.178984 0.248479 0.254337
O O3 0.170115 0.368865 0.334102
O O4 0.083302 0.308132 0.229627
O O5 0.388740 0.970040 0.500000
O O6 0.356830 0.984051 0.788011
O O7 0.437351 0.050959 0.684841
O O8 0.448341 0.928372 0.729592
O O9 0.735865 0.672206 0.232688
O O10 0.721664 0.797671 0.232464
O O11 0.768567 0.740678 0.000000
O O12 0.760366 0.117255 0.500000
O O13 0.745215 0.044342 0.263594
O O14 0.712969 0.921708 0.777873
O O15 0.716049 0.007252 0.000000
O O16 0.520137 0.840742 0.773274
O O17 0.455621 0.874010 0.000000
O O18 0.874070 0.347227 0.265518
O O19 0.829529 0.353010 0.000000
O O20 0.437619 0.150918 0.500000
#
# Coordination Sequence:
#
# PCOD8224269 Si02
#       8
#     8   8   8   8   8   8   8   8
#     4   9  18  29  42  58  77  98 131 170 205 241
#     4  10  18  28  38  51  73 103 137 170 203 236
#     4   9  16  29  46  61  78 103 135 170 208 247
#     4   9  17  27  40  59  79 101 133 171 205 241
#     4  10  17  26  41  60  81 106 136 171 208 242
#     4  12  21  28  40  56  76 102 135 174 209 240
#     4   9  19  32  44  60  83 109 139 172 206 249
#     4  10  21  31  40  53  75 107 138 168 204 242
#
# _framework density 14.204795000000001
#
# number of rings (size 3 to 8) (size 9 to 14) (size 15 to 20)
#    0.750    1.500    1.250    3.375    0.000    4.500 
#    0.000    0.000    0.000    0.000    0.000    0.000 
#    0.000    0.000    0.000    1.125    0.000   22.500 
#
# Total GULP energy -793151.562591 kJ/mol
# GULP energy per Si atom -12392.993165 kJ/mol
# Density = 1.417246 g / cm^3
# Si number density = 14.204795 Si / 1000 Ang^3
#
#
#
# Elastic Constant Matrix: (Units=GPa)
#
#
# Indices 1 2 3 4 5 6 
#
# 1 45.9997 49.5416 27.6745 0.0000 0.0000 0.0000
# 2 49.5416 64.3467 31.8988 0.0000 0.0000 0.0000
# 3 27.6745 31.8988 69.4779 0.0000 0.0000 0.0000
# 4 0.0000 0.0000 0.0000 16.3423 0.0000 0.0000
# 5 0.0000 0.0000 0.0000 0.0000 18.9374 0.0000
# 6 0.0000 0.0000 0.0000 0.0000 0.0000 18.2852
#
#
#
# Elastic Compliance Matrix: (Units=1/GPa)
#
#
# Indices 1 2 3 4 5 6 
#
# 1 0.130277 -0.096554 -0.007562 0.000000 0.000000 0.000000
# 2 -0.096554 0.091680 -0.003633 0.000000 0.000000 0.000000
# 3 -0.007562 -0.003633 0.019073 0.000000 0.000000 0.000000
# 4 0.000000 0.000000 0.000000 0.061191 0.000000 0.000000
# 5 0.000000 0.000000 0.000000 0.000000 0.052806 0.000000
# 6 0.000000 0.000000 0.000000 0.000000 0.000000 0.054689
#
#
# Mechanical properties :
#
#
# Convention : Reuss Voigt Hill
#
# Bulk Modulus (GPa) = 39.16544 44.22825 41.69684
# Shear Modulus (GPa) = 7.88986 15.42695 11.65840
#
# Velocity S-wave (km/s) = 2.35933 3.29908 2.86796
# Velocity P-wave (km/s) = 5.92062 6.76134 6.35490
#
# Compressibility (1/GPa) = 0.02553271
#
# Stress axis : x y z
#
# Youngs Moduli (GPa) = 7.67594 10.90747 52.42958
#
# Poissons Ratio (x) = 1.05316 0.39648
# Poissons Ratio (y) = 0.74114 0.19048
# Poissons Ratio (z) = 0.05805 0.03963
#
# Static dielectric constant tensor:
#      x y z
#    x 2.492240 0.000000 0.000000 
#    y 0.000000 2.636400 0.000000 
#    z 0.000000 0.000000 2.845780 
# 
# 
# High freq. dielectric constant tensor:
#      x y z
#    x 1.504210 0.000000 0.000000 
#    y 0.000000 1.508500 0.000000 
#    z 0.000000 0.000000 1.561290 
# 
# From -- ./inp_files/9221.got.cif
#   From: 2010.03.12/outbox.cif.g09.slc.cpg/sg55_5_cif.got.tgz:9221.got - 2010.04.16 15:19:21.
