data_PCOD8224077
_publ_section_title
;
Structure prediction by ZEFSAII (Michael W. Deem and Ramdas Pophale) SiO2 
 PCOD8224077
Probable space group: P C C A
;
_chemical_formula_sum "Si O2"
_cell_formula_units_Z 36
_cell_length_a 19.296472
_cell_length_b 7.291733
_cell_length_c 11.093243
_cell_angle_alpha 90.000000
_cell_angle_beta 90.000000
_cell_angle_gamma 90.000000
_cell_volume 1560.871669
_symmetry_space_group_name_H-M "P C C A"
_symmetry_group_IT_number 54
_symmetry_cell_setting 'orthorhombic'
loop_
_space_group_symop_operation_xyz
x,y,z
1/2-x,-y,z
1/2+x,-y,1/2-z
-x,y,1/2-z
-x,-y,-z
1/2+x,y,-z
1/2-x,y,1/2+z
x,-y,1/2+z
loop_
_atom_site_type_symbol
_atom_site_label
_atom_site_fract_x
_atom_site_fract_y
_atom_site_fract_z
Si Si1 0.750000 0.000000 0.654391
Si Si2 0.483106 0.129460 0.612701
Si Si3 0.645724 0.766133 0.504666
Si Si4 0.441713 0.508370 0.338172
Si Si5 0.804528 0.646096 0.779895
O O1 0.686728 0.920482 0.576524
O O2 0.782095 0.844899 0.736679
O O3 0.500000 0.058366 0.750000
O O4 0.399869 0.142689 0.602696
O O5 0.522175 0.324627 0.588257
O O6 0.500000 0.000000 0.500000
O O7 0.590975 0.652088 0.583029
O O8 0.698838 0.640603 0.427112
O O9 0.500000 0.421002 0.250000
O O10 0.381109 0.596819 0.260596
O O11 0.750000 0.500000 0.726615
#
# Coordination Sequence:
#
# PCOD8224077 Si02
#       5
#     4   8   8   8   8
#     4  12  28  50  74 116 158 208 262 326 404 480
#     4  11  24  47  74 112 157 202 267 326 399 476
#     4  12  26  48  78 111 151 211 258 329 395 483
#     4  11  24  50  75 112 153 202 267 323 402 476
#     4  12  26  50  75 111 155 202 265 325 396 480
#
# _framework density 23.064035000000001
#
# number of rings (size 3 to 8) (size 9 to 14) (size 15 to 20)
#    0.000    0.444    6.667    2.667    3.111    0.889 
#    4.000    0.000    0.000    0.000    0.000    0.000 
#    0.000    0.000    0.000    0.000    0.000    0.000 
#
# Total GULP energy -446019.426993 kJ/mol
# GULP energy per Si atom -12389.428528 kJ/mol
# Density = 2.301154 g / cm^3
# Si number density = 23.064035 Si / 1000 Ang^3
#
#
#
# Elastic Constant Matrix: (Units=GPa)
#
#
# Indices 1 2 3 4 5 6 
#
# 1 157.7419 69.9600 69.7722 0.0000 0.0000 0.0000
# 2 69.9600 112.2120 69.3049 0.0000 0.0000 0.0000
# 3 69.7722 69.3049 152.2381 0.0000 0.0000 0.0000
# 4 0.0000 0.0000 0.0000 -8.2829 0.0000 0.0000
# 5 0.0000 0.0000 0.0000 0.0000 45.2568 0.0000
# 6 0.0000 0.0000 0.0000 0.0000 0.0000 43.1120
#
#
#
# Elastic Compliance Matrix: (Units=1/GPa)
#
#
# Indices 1 2 3 4 5 6 
#
# 1 0.009287 -0.004398 -0.002254 0.000000 0.000000 0.000000
# 2 -0.004398 0.014480 -0.004576 0.000000 0.000000 0.000000
# 3 -0.002254 -0.004576 0.009685 0.000000 0.000000 0.000000
# 4 0.000000 0.000000 0.000000 -0.120730 0.000000 0.000000
# 5 0.000000 0.000000 0.000000 0.000000 0.022096 0.000000
# 6 0.000000 0.000000 0.000000 0.000000 0.000000 0.023195
#
#
# Mechanical properties :
#
#
# Convention : Reuss Voigt Hill
#
# Bulk Modulus (GPa) = 90.94744 93.36293 92.15519
# Shear Modulus (GPa) = -315.16865 30.22750 -142.47058
#
# Velocity S-wave (km/s) = -11.70240 3.62413 -7.86803
# Velocity P-wave (km/s) = 11.96146 7.62104 6.51906
#
# Compressibility (1/GPa) = 0.01099536
#
# Stress axis : x y z
#
# Youngs Moduli (GPa) = 107.67670 69.06050 103.25088
#
# Poissons Ratio (x) = 0.30372 0.23276
# Poissons Ratio (y) = 0.47355 0.47251
# Poissons Ratio (z) = 0.24273 0.31604
#
# Static dielectric constant tensor:
#      x y z
#    x 4.616940 0.000000 0.000000 
#    y 0.000000 4.264880 0.000000 
#    z 0.000000 0.000000 4.400790 
# 
# 
# High freq. dielectric constant tensor:
#      x y z
#    x 1.937720 0.000000 0.000000 
#    y 0.000000 1.901060 0.000000 
#    z 0.000000 0.000000 1.924180 
# 
# From -- ./inp_files/4539.got.cif
#   From: 2010.03.12/outbox.cif.g09.slc.cpg/sg54_3_cif.got.tgz:4539.got - 2010.04.16 15:00:50.
