data_PCOD8224802
_publ_section_title
;
Structure prediction by ZEFSAII (Michael W. Deem and Ramdas Pophale) SiO2 
 PCOD8224802
Probable space group: P B A M
;
_chemical_formula_sum "Si O2"
_cell_formula_units_Z 56
_cell_length_a 13.502361
_cell_length_b 29.668228
_cell_length_c 8.962449
_cell_angle_alpha 90.000000
_cell_angle_beta 90.000000
_cell_angle_gamma 90.000000
_cell_volume 3590.277525
_symmetry_space_group_name_H-M "P B A M"
_symmetry_group_IT_number 55
_symmetry_cell_setting 'orthorhombic'
loop_
_space_group_symop_operation_xyz
x,y,z
-x,-y,z
1/2+x,1/2-y,-z
1/2-x,1/2+y,-z
-x,-y,-z
x,y,-z
1/2-x,1/2+y,z
1/2+x,1/2-y,z
loop_
_atom_site_type_symbol
_atom_site_label
_atom_site_fract_x
_atom_site_fract_y
_atom_site_fract_z
Si Si1 0.600229 0.767336 0.826218
Si Si2 0.108245 0.904341 0.322850
Si Si3 0.799407 0.817264 0.174636
Si Si4 0.401252 0.764690 0.325844
Si Si5 0.384248 0.597863 0.321548
Si Si6 0.202460 0.813330 0.673858
Si Si7 0.882548 0.999801 0.663202
O O1 0.686961 0.802764 0.790866
O O2 0.501932 0.784455 0.742903
O O3 0.629643 0.718210 0.767012
O O4 0.577854 0.763650 0.000000
O O5 0.106352 0.910666 0.500000
O O6 0.182903 0.864691 0.274178
O O7 0.997101 0.892085 0.270454
O O8 0.145754 0.952791 0.253543
O O9 0.875544 0.782946 0.251160
O O10 0.812368 0.866632 0.243190
O O11 0.822035 0.817469 0.000000
O O12 0.414942 0.755956 0.500000
O O13 0.316387 0.801516 0.292499
O O14 0.373548 0.600913 0.500000
O O15 0.351826 0.547809 0.260510
O O16 0.176787 0.806643 0.500000
O O17 0.832617 0.999773 0.500000
O O18 0.000000 0.000000 0.645267
#
# Coordination Sequence:
#
# PCOD8224802 Si02
#       7
#     8   8   8   8   8   8   8
#     4  10  20  32  44  59  83 114 143 172 208 249
#     4   8  13  23  40  62  87 111 135 165 203 248
#     4  10  20  31  43  61  85 113 142 171 207 250
#     4  10  19  30  44  62  84 109 140 178 211 242
#     4   9  15  24  42  65  86 111 141 170 201 242
#     4   9  17  28  44  65  85 109 141 173 207 247
#     4   7  11  20  36  60  86 109 134 164 200 245
#
# _framework density 15.59768
#
# number of rings (size 3 to 8) (size 9 to 14) (size 15 to 20)
#    0.000    3.000    0.000    3.857    0.000    3.429 
#    0.000    0.000    0.000    4.714    0.000    1.000 
#    0.000    8.000    0.000    0.000    0.000    0.000 
#
# Total GULP energy -693923.918692 kJ/mol
# GULP energy per Si atom -12391.498548 kJ/mol
# Density = 1.556218 g / cm^3
# Si number density = 15.597680 Si / 1000 Ang^3
#
#
#
# Elastic Constant Matrix: (Units=GPa)
#
#
# Indices 1 2 3 4 5 6 
#
# 1 79.8532 54.5183 34.7794 0.0000 0.0000 0.0000
# 2 54.5183 153.8705 38.3801 0.0000 0.0000 0.0000
# 3 34.7794 38.3801 51.0567 0.0000 0.0000 0.0000
# 4 0.0000 0.0000 0.0000 8.0757 0.0000 0.0000
# 5 0.0000 0.0000 0.0000 0.0000 21.1574 0.0000
# 6 0.0000 0.0000 0.0000 0.0000 0.0000 21.4279
#
#
#
# Elastic Compliance Matrix: (Units=1/GPa)
#
#
# Indices 1 2 3 4 5 6 
#
# 1 0.020112 -0.004565 -0.010269 0.000000 0.000000 0.000000
# 2 -0.004565 0.009035 -0.003682 0.000000 0.000000 0.000000
# 3 -0.010269 -0.003682 0.029349 0.000000 0.000000 0.000000
# 4 0.000000 0.000000 0.000000 0.123828 0.000000 0.000000
# 5 0.000000 0.000000 0.000000 0.000000 0.047265 0.000000
# 6 0.000000 0.000000 0.000000 0.000000 0.000000 0.046668
#
#
# Mechanical properties :
#
#
# Convention : Reuss Voigt Hill
#
# Bulk Modulus (GPa) = 46.58848 60.01512 53.30180
# Shear Modulus (GPa) = 15.60345 20.60572 18.10458
#
# Velocity S-wave (km/s) = 3.16629 3.63860 3.41063
# Velocity P-wave (km/s) = 6.58034 7.49754 7.05386
#
# Compressibility (1/GPa) = 0.02146453
#
# Stress axis : x y z
#
# Youngs Moduli (GPa) = 49.72203 110.68442 34.07264
#
# Poissons Ratio (x) = 0.50522 0.34989
# Poissons Ratio (y) = 0.22696 0.12546
# Poissons Ratio (z) = 0.51059 0.40756
#
# Static dielectric constant tensor:
#      x y z
#    x 2.811680 0.000000 0.000000 
#    y 0.000000 3.289810 0.000000 
#    z 0.000000 0.000000 2.778430 
# 
# 
# High freq. dielectric constant tensor:
#      x y z
#    x 1.567650 0.000000 0.000000 
#    y 0.000000 1.603130 0.000000 
#    z 0.000000 0.000000 1.578000 
# 
# From -- ./inp_files/6863.got.cif
#   From: 2010.03.12/outbox.cif.g09.slc.cpg/sg55_4_cif.got.tgz:6863.got - 2010.04.16 15:19:21.
