data_PCOD8224617
_publ_section_title
;
Structure prediction by ZEFSAII (Michael W. Deem and Ramdas Pophale) SiO2 
 PCOD8224617
Probable space group: P B A M
;
_chemical_formula_sum "Si O2"
_cell_formula_units_Z 48
_cell_length_a 18.051089
_cell_length_b 16.736053
_cell_length_c 8.756658
_cell_angle_alpha 90.000000
_cell_angle_beta 90.000000
_cell_angle_gamma 90.000000
_cell_volume 2645.421253
_symmetry_space_group_name_H-M "P B A M"
_symmetry_group_IT_number 55
_symmetry_cell_setting 'orthorhombic'
loop_
_space_group_symop_operation_xyz
x,y,z
-x,-y,z
1/2+x,1/2-y,-z
1/2-x,1/2+y,-z
-x,-y,-z
x,y,-z
1/2-x,1/2+y,z
1/2+x,1/2-y,z
loop_
_atom_site_type_symbol
_atom_site_label
_atom_site_fract_x
_atom_site_fract_y
_atom_site_fract_z
Si Si1 0.101312 0.316016 0.324531
Si Si2 0.175741 0.642210 0.682721
Si Si3 0.665378 0.334613 0.820918
Si Si4 0.053882 0.759771 0.324510
Si Si5 0.582108 0.007673 0.680757
Si Si6 0.974496 0.913474 0.682246
O O1 0.124049 0.299917 0.500000
O O2 0.149082 0.257431 0.219594
O O3 0.117823 0.406822 0.274309
O O4 0.013899 0.301338 0.302569
O O5 0.183250 0.643605 0.500000
O O6 0.254688 0.642435 0.760160
O O7 0.127521 0.718319 0.744276
O O8 0.135336 0.561964 0.741231
O O9 0.606937 0.394565 0.743971
O O10 0.661716 0.346783 0.000000
O O11 0.070530 0.774806 0.500000
O O12 0.032372 0.846428 0.253205
O O13 0.574640 0.001227 0.500000
O O14 0.500000 0.000000 0.753345
O O15 0.970603 0.909946 0.500000
O O16 0.000000 0.000000 0.741600
#
# Coordination Sequence:
#
# PCOD8224617 Si02
#       6
#     8   8   8   8   8   8
#     4   9  16  32  56  80 103 131 172 217 262 311
#     4  10  18  32  54  80 109 137 173 219 269 317
#     4  11  23  37  51  72 109 150 182 212 258 313
#     4   8  14  27  53  81 102 128 164 212 263 311
#     4   9  15  27  55  89 109 127 166 221 271 315
#     4   9  18  36  61  84 103 129 177 232 275 316
#
# _framework density 18.144558
#
# number of rings (size 3 to 8) (size 9 to 14) (size 15 to 20)
#    0.000    2.667    1.667    2.500    0.000    0.333 
#    3.000    4.167    0.000    1.000    0.000    0.000 
#    0.000    0.000    0.000    0.000    0.000    0.000 
#
# Total GULP energy -594940.582440 kJ/mol
# GULP energy per Si atom -12394.595468 kJ/mol
# Density = 1.810326 g / cm^3
# Si number density = 18.144558 Si / 1000 Ang^3
#
#
#
# Elastic Constant Matrix: (Units=GPa)
#
#
# Indices 1 2 3 4 5 6 
#
# 1 127.7576 81.6282 23.9930 0.0000 0.0000 0.0000
# 2 81.6282 155.9052 24.5118 0.0000 0.0000 0.0000
# 3 23.9930 24.5118 31.7156 0.0000 0.0000 0.0000
# 4 0.0000 0.0000 0.0000 6.6131 0.0000 0.0000
# 5 0.0000 0.0000 0.0000 0.0000 -4.3299 0.0000
# 6 0.0000 0.0000 0.0000 0.0000 0.0000 22.3781
#
#
#
# Elastic Compliance Matrix: (Units=1/GPa)
#
#
# Indices 1 2 3 4 5 6 
#
# 1 0.012415 -0.005718 -0.004972 0.000000 0.000000 0.000000
# 2 -0.005718 0.009935 -0.003353 0.000000 0.000000 0.000000
# 3 -0.004972 -0.003353 0.037883 0.000000 0.000000 0.000000
# 4 0.000000 0.000000 0.000000 0.151215 0.000000 0.000000
# 5 0.000000 0.000000 0.000000 0.000000 -0.230952 0.000000
# 6 0.000000 0.000000 0.000000 0.000000 0.000000 0.044686
#
#
# Mechanical properties :
#
#
# Convention : Reuss Voigt Hill
#
# Bulk Modulus (GPa) = 31.10776 63.96048 47.53412
# Shear Modulus (GPa) = 78.14360 17.28196 47.71278
#
# Velocity S-wave (km/s) = 6.56968 3.08954 5.13352
# Velocity P-wave (km/s) = 8.64461 6.93210 7.83528
#
# Compressibility (1/GPa) = 0.03214631
#
# Stress axis : x y z
#
# Youngs Moduli (GPa) = 80.54952 100.65198 26.39714
#
# Poissons Ratio (x) = 0.57556 0.13126
# Poissons Ratio (y) = 0.46061 0.08850
# Poissons Ratio (z) = 0.40052 0.33745
#
# Static dielectric constant tensor:
#      x y z
#    x 3.293720 0.000000 0.000000 
#    y 0.000000 3.712440 0.000000 
#    z 0.000000 0.000000 2.892680 
# 
# 
# High freq. dielectric constant tensor:
#      x y z
#    x 1.694020 0.000000 0.000000 
#    y 0.000000 1.715210 0.000000 
#    z 0.000000 0.000000 1.654630 
# 
# From -- ./inp_files/7551.got.cif
#   From: 2010.03.12/outbox.cif.g09.slc.cpg/sg55_4_cif.got.tgz:7551.got - 2010.04.16 15:19:21.
