data_PCOD8224705
_publ_section_title
;
Structure prediction by ZEFSAII (Michael W. Deem and Ramdas Pophale) SiO2 
 PCOD8224705
Probable space group: P B A M
;
_chemical_formula_sum "Si O2"
_cell_formula_units_Z 64
_cell_length_a 14.891406
_cell_length_b 19.435172
_cell_length_c 11.172484
_cell_angle_alpha 90.000000
_cell_angle_beta 90.000000
_cell_angle_gamma 90.000000
_cell_volume 3233.507214
_symmetry_space_group_name_H-M "P B A M"
_symmetry_group_IT_number 55
_symmetry_cell_setting 'orthorhombic'
loop_
_space_group_symop_operation_xyz
x,y,z
-x,-y,z
1/2+x,1/2-y,-z
1/2-x,1/2+y,-z
-x,-y,-z
x,y,-z
1/2-x,1/2+y,z
1/2+x,1/2-y,z
loop_
_atom_site_type_symbol
_atom_site_label
_atom_site_fract_x
_atom_site_fract_y
_atom_site_fract_z
Si Si1 0.833104 0.893436 0.807257
Si Si2 0.019800 0.837499 0.134298
Si Si3 0.928377 0.292079 0.289995
Si Si4 0.644012 0.542242 0.861926
Si Si5 0.231112 0.216187 0.633301
Si Si6 0.361834 0.089503 0.128323
Si Si7 0.389741 0.839411 0.363031
Si Si8 0.347461 0.932138 0.861198
O O1 0.913139 0.850049 0.866528
O O2 0.803190 0.855442 0.686889
O O3 0.744207 0.894154 0.888795
O O4 0.863634 0.972337 0.783714
O O5 0.046052 0.769565 0.203341
O O6 0.070938 0.903984 0.188855
O O7 0.054471 0.826560 0.000000
O O8 0.838079 0.272824 0.360224
O O9 0.912197 0.362884 0.220809
O O10 0.011743 0.305495 0.377699
O O11 0.740824 0.577398 0.849691
O O12 0.623723 0.521895 0.000000
O O13 0.197830 0.210219 0.500000
O O14 0.181885 0.283454 0.685493
O O15 0.375667 0.010465 0.164390
O O16 0.407151 0.102956 0.000000
O O17 0.365921 0.867298 0.500000
O O18 0.392893 0.892588 0.251072
O O19 0.375608 0.910587 0.000000
#
# Coordination Sequence:
#
# PCOD8224705 Si02
#       8
#     8   8   8   8   8   8   8   8
#     4  10  18  34  56  82 113 154 195 232 294 350
#     4  11  20  31  53  89 124 152 190 236 294 355
#     4  11  22  37  58  86 113 153 199 241 288 349
#     4   9  18  33  55  85 124 158 188 235 295 354
#     4  10  22  41  60  78 110 155 200 249 299 345
#     4   9  19  36  57  82 120 156 191 238 293 347
#     4  11  23  41  61  86 116 151 194 247 303 353
#     4   9  19  38  60  84 114 157 198 239 291 347
#
# _framework density 19.792750000000002
#
# number of rings (size 3 to 8) (size 9 to 14) (size 15 to 20)
#    0.000    2.000    1.250    3.750    0.000    2.500 
#    0.000    8.750    0.000    3.000    0.000    0.000 
#    0.000    0.000    0.000    0.000    0.000    0.000 
#
# Total GULP energy -792944.800283 kJ/mol
# GULP energy per Si atom -12389.762504 kJ/mol
# Density = 1.974770 g / cm^3
# Si number density = 19.792750 Si / 1000 Ang^3
#
#
#
# Elastic Constant Matrix: (Units=GPa)
#
#
# Indices 1 2 3 4 5 6 
#
# 1 93.6069 34.3507 16.3859 0.0000 0.0000 0.0000
# 2 34.3507 102.8144 50.8512 0.0000 0.0000 0.0000
# 3 16.3859 50.8512 79.8372 0.0000 0.0000 0.0000
# 4 0.0000 0.0000 0.0000 14.9563 0.0000 0.0000
# 5 0.0000 0.0000 0.0000 0.0000 9.8161 0.0000
# 6 0.0000 0.0000 0.0000 0.0000 0.0000 28.0321
#
#
#
# Elastic Compliance Matrix: (Units=1/GPa)
#
#
# Indices 1 2 3 4 5 6 
#
# 1 0.012177 -0.004135 0.000134 0.000000 0.000000 0.000000
# 2 -0.004135 0.015603 -0.009090 0.000000 0.000000 0.000000
# 3 0.000134 -0.009090 0.018287 0.000000 0.000000 0.000000
# 4 0.000000 0.000000 0.000000 0.066861 0.000000 0.000000
# 5 0.000000 0.000000 0.000000 0.000000 0.101873 0.000000
# 6 0.000000 0.000000 0.000000 0.000000 0.000000 0.035673
#
#
# Mechanical properties :
#
#
# Convention : Reuss Voigt Hill
#
# Bulk Modulus (GPa) = 50.28300 53.27046 51.77673
# Shear Modulus (GPa) = 17.65006 22.20561 19.92784
#
# Velocity S-wave (km/s) = 2.98945 3.35312 3.17649
# Velocity P-wave (km/s) = 6.11356 6.47795 6.29839
#
# Compressibility (1/GPa) = 0.01988744
#
# Stress axis : x y z
#
# Youngs Moduli (GPa) = 82.12353 64.08846 54.68218
#
# Poissons Ratio (x) = 0.26499 -0.00735
# Poissons Ratio (y) = 0.33956 0.49705
# Poissons Ratio (z) = -0.01104 0.58255
#
# Static dielectric constant tensor:
#      x y z
#    x 3.815790 0.000000 0.000000 
#    y 0.000000 3.646820 0.000000 
#    z 0.000000 0.000000 3.436630 
# 
# 
# High freq. dielectric constant tensor:
#      x y z
#    x 1.786400 0.000000 0.000000 
#    y 0.000000 1.769530 0.000000 
#    z 0.000000 0.000000 1.746830 
# 
# From -- ./inp_files/14413.got.cif
#   From: 2010.03.12/outbox.cif.g09.slc.cpg/sg55_8_cif.got.tgz:14413.got - 2010.04.16 15:19:21.
