data_PCOD8224222
_publ_section_title
;
Structure prediction by ZEFSAII (Michael W. Deem and Ramdas Pophale) SiO2 
 PCOD8224222
Probable space group: P B A M
;
_chemical_formula_sum "Si O2"
_cell_formula_units_Z 56
_cell_length_a 5.259446
_cell_length_b 35.255302
_cell_length_c 23.365590
_cell_angle_alpha 90.000000
_cell_angle_beta 90.000000
_cell_angle_gamma 90.000000
_cell_volume 4332.526138
_symmetry_space_group_name_H-M "P B A M"
_symmetry_group_IT_number 55
_symmetry_cell_setting 'orthorhombic'
loop_
_space_group_symop_operation_xyz
x,y,z
-x,-y,z
1/2+x,1/2-y,-z
1/2-x,1/2+y,-z
-x,-y,-z
x,y,-z
1/2-x,1/2+y,z
1/2+x,1/2-y,z
loop_
_atom_site_type_symbol
_atom_site_label
_atom_site_fract_x
_atom_site_fract_y
_atom_site_fract_z
Si Si1 0.732983 0.704882 0.614789
Si Si2 0.221683 0.273611 0.264101
Si Si3 0.748578 0.893112 0.068034
Si Si4 0.248312 0.849788 0.068035
Si Si5 0.749991 0.978683 0.931751
Si Si6 0.267012 0.210776 0.433121
Si Si7 0.224190 0.774690 0.862300
O O1 0.734991 0.697326 0.683234
O O2 0.480826 0.686726 0.586293
O O3 0.733533 0.749933 0.601703
O O4 0.982661 0.686877 0.584780
O O5 0.432554 0.240712 0.269589
O O6 0.258881 0.292707 0.201760
O O7 0.496495 0.872030 0.090478
O O8 0.750063 0.935866 0.092171
O O9 0.998371 0.871494 0.090774
O O10 0.750029 0.894085 0.000000
O O11 0.253185 0.807527 0.091773
O O12 0.247940 0.846987 0.000000
O O13 0.500000 0.000000 0.908411
O O14 0.749886 0.978624 0.000000
O O15 0.000000 0.000000 0.908425
O O16 0.261993 0.219789 0.500000
O O17 0.451146 0.744797 0.871793
#
# Coordination Sequence:
#
# PCOD8224222 Si02
#       7
#     8   8   8   8   8   8   8
#     4  10  14  22  31  41  58  79  95 117 149 188
#     4  10  16  27  37  47  59  76 101 131 170 208
#     4   9  17  28  42  57  75  97 113 127 158 205
#     4  10  19  31  43  55  71  90 112 140 180 225
#     4   9  15  23  37  58  80  97 113 129 143 172
#     4  10  16  20  29  45  62  78  96 114 141 190
#     4  10  21  31  43  55  65  81 112 154 190 222
#
# _framework density 12.925485999999999
#
# number of rings (size 3 to 8) (size 9 to 14) (size 15 to 20)
#    0.000    2.286    2.857    3.857    0.000    4.000 
#    0.000    0.000    0.000    0.000    0.000    0.000 
#    0.000    0.000    0.000    0.000    0.000    0.000 
#
# Total GULP energy -693977.665088 kJ/mol
# GULP energy per Si atom -12392.458305 kJ/mol
# Density = 1.289607 g / cm^3
# Si number density = 12.925486 Si / 1000 Ang^3
#
#
#
# Elastic Constant Matrix: (Units=GPa)
#
#
# Indices 1 2 3 4 5 6 
#
# 1 121.6157 25.0298 20.3189 0.0000 0.0000 0.0000
# 2 25.0298 48.9144 19.0469 0.0000 0.0000 0.0000
# 3 20.3189 19.0469 34.3326 0.0000 0.0000 0.0000
# 4 0.0000 0.0000 0.0000 0.1675 0.0000 0.0000
# 5 0.0000 0.0000 0.0000 0.0000 13.8129 0.0000
# 6 0.0000 0.0000 0.0000 0.0000 0.0000 16.1978
#
#
#
# Elastic Compliance Matrix: (Units=1/GPa)
#
#
# Indices 1 2 3 4 5 6 
#
# 1 0.009555 -0.003428 -0.003753 0.000000 0.000000 0.000000
# 2 -0.003428 0.027307 -0.013121 0.000000 0.000000 0.000000
# 3 -0.003753 -0.013121 0.038627 0.000000 0.000000 0.000000
# 4 0.000000 0.000000 0.000000 5.971842 0.000000 0.000000
# 5 0.000000 0.000000 0.000000 0.000000 0.072396 0.000000
# 6 0.000000 0.000000 0.000000 0.000000 0.000000 0.061737
#
#
# Mechanical properties :
#
#
# Convention : Reuss Voigt Hill
#
# Bulk Modulus (GPa) = 28.66493 37.07264 32.86879
# Shear Modulus (GPa) = 0.80209 15.40009 8.10109
#
# Velocity S-wave (km/s) = 0.78861 3.45549 2.50622
# Velocity P-wave (km/s) = 4.80150 6.68316 5.81889
#
# Compressibility (1/GPa) = 0.03488583
#
# Stress axis : x y z
#
# Youngs Moduli (GPa) = 104.65496 36.62060 25.88855
#
# Poissons Ratio (x) = 0.12553 0.09717
# Poissons Ratio (y) = 0.35875 0.33967
# Poissons Ratio (z) = 0.39280 0.48048
#
# Static dielectric constant tensor:
#      x y z
#    x 3.862790 0.000000 0.000000 
#    y 0.000000 2.206700 0.000000 
#    z 0.000000 0.000000 2.498060 
# 
# 
# High freq. dielectric constant tensor:
#      x y z
#    x 1.528400 0.000000 0.000000 
#    y 0.000000 1.422960 0.000000 
#    z 0.000000 0.000000 1.464380 
# 
# From -- ./inp_files/23381.got.cif
#   From: 2010.03.12/outbox.cif.g09.slc.cpg/sg55_12_cif.got.tgz:23381.got - 2010.04.16 15:19:21.
