data_PCOD8224787
_publ_section_title
;
Structure prediction by ZEFSAII (Michael W. Deem and Ramdas Pophale) SiO2 
 PCOD8224787
Probable space group: P B A M
;
_chemical_formula_sum "Si O2"
_cell_formula_units_Z 64
_cell_length_a 14.569444
_cell_length_b 30.192130
_cell_length_c 8.838444
_cell_angle_alpha 90.000000
_cell_angle_beta 90.000000
_cell_angle_gamma 90.000000
_cell_volume 3887.877261
_symmetry_space_group_name_H-M "P B A M"
_symmetry_group_IT_number 55
_symmetry_cell_setting 'orthorhombic'
loop_
_space_group_symop_operation_xyz
x,y,z
-x,-y,z
1/2+x,1/2-y,-z
1/2-x,1/2+y,-z
-x,-y,-z
x,y,-z
1/2-x,1/2+y,z
1/2+x,1/2-y,z
loop_
_atom_site_type_symbol
_atom_site_label
_atom_site_fract_x
_atom_site_fract_y
_atom_site_fract_z
Si Si1 0.703634 0.632026 0.328542
Si Si2 0.168662 0.302036 0.820907
Si Si3 0.475031 0.225289 0.177417
Si Si4 0.899915 0.045836 0.679633
Si Si5 0.981018 0.184126 0.671122
Si Si6 0.638694 0.361856 0.174749
Si Si7 0.902642 0.957480 0.175209
Si Si8 0.773320 0.285439 0.179591
O O1 0.737968 0.628285 0.500000
O O2 0.786758 0.651821 0.231150
O O3 0.672410 0.583630 0.269702
O O4 0.620673 0.665995 0.313172
O O5 0.062779 0.302463 0.761837
O O6 0.221725 0.258403 0.755995
O O7 0.171322 0.299669 0.000000
O O8 0.495679 0.276041 0.213919
O O9 0.376715 0.211199 0.249113
O O10 0.468669 0.219566 0.000000
O O11 0.917288 0.048037 0.500000
O O12 0.995398 0.053314 0.765530
O O13 0.859132 0.998055 0.729105
O O14 0.001074 0.199360 0.500000
O O15 0.051126 0.146123 0.719830
O O16 0.661890 0.414028 0.195599
O O17 0.721828 0.330433 0.229572
O O18 0.614250 0.351696 0.000000
O O19 0.908657 0.971188 0.000000
O O20 0.778392 0.281783 0.000000
#
# Coordination Sequence:
#
# PCOD8224787 Si02
#       8
#     8   8   8   8   8   8   8   8
#     4  10  21  33  45  66  95 127 159 190 232 276
#     4  10  19  30  49  70  89 122 160 193 230 272
#     4  10  19  33  48  66  93 124 160 194 230 274
#     4  10  19  32  47  64  94 128 154 186 232 285
#     4  11  20  29  44  67  95 125 159 193 227 267
#     4  10  19  32  48  68  95 127 159 190 230 276
#     4  10  19  29  46  71  95 120 154 195 231 272
#     4   9  17  30  48  68  92 122 156 190 227 274
#
# _framework density 16.461425999999999
#
# number of rings (size 3 to 8) (size 9 to 14) (size 15 to 20)
#    0.000    2.000    3.750    1.875    0.000    2.500 
#    0.000    0.625    0.000    0.000    0.000    0.875 
#    0.000    7.000    0.000    0.000    0.000    0.000 
#
# Total GULP energy -793246.384970 kJ/mol
# GULP energy per Si atom -12394.474765 kJ/mol
# Density = 1.642396 g / cm^3
# Si number density = 16.461426 Si / 1000 Ang^3
#
#
#
# Elastic Constant Matrix: (Units=GPa)
#
#
# Indices 1 2 3 4 5 6 
#
# 1 67.8894 27.3628 22.9395 0.0000 0.0000 0.0000
# 2 27.3628 95.8915 11.2031 0.0000 0.0000 0.0000
# 3 22.9395 11.2031 17.9985 0.0000 0.0000 0.0000
# 4 0.0000 0.0000 0.0000 22.4722 0.0000 0.0000
# 5 0.0000 0.0000 0.0000 0.0000 11.8473 0.0000
# 6 0.0000 0.0000 0.0000 0.0000 0.0000 24.6099
#
#
#
# Elastic Compliance Matrix: (Units=1/GPa)
#
#
# Indices 1 2 3 4 5 6 
#
# 1 0.027228 -0.004007 -0.032208 0.000000 0.000000 0.000000
# 2 -0.004007 0.011836 -0.002261 0.000000 0.000000 0.000000
# 3 -0.032208 -0.002261 0.098018 0.000000 0.000000 0.000000
# 4 0.000000 0.000000 0.000000 0.044499 0.000000 0.000000
# 5 0.000000 0.000000 0.000000 0.000000 0.084408 0.000000
# 6 0.000000 0.000000 0.000000 0.000000 0.000000 0.040634
#
#
# Mechanical properties :
#
#
# Convention : Reuss Voigt Hill
#
# Bulk Modulus (GPa) = 16.63071 33.86558 25.24815
# Shear Modulus (GPa) = 12.38799 19.80416 16.09607
#
# Velocity S-wave (km/s) = 2.74623 3.47228 3.13038
# Velocity P-wave (km/s) = 4.49227 6.05748 5.33261
#
# Compressibility (1/GPa) = 0.06012972
#
# Stress axis : x y z
#
# Youngs Moduli (GPa) = 36.72731 84.48900 10.20225
#
# Poissons Ratio (x) = 0.33851 0.32860
# Poissons Ratio (y) = 0.14715 0.02307
# Poissons Ratio (z) = 1.18293 0.19101
#
# Static dielectric constant tensor:
#      x y z
#    x 3.166290 0.000000 0.000000 
#    y 0.000000 3.205770 0.000000 
#    z 0.000000 0.000000 2.984840 
# 
# 
# High freq. dielectric constant tensor:
#      x y z
#    x 1.606490 0.000000 0.000000 
#    y 0.000000 1.627360 0.000000 
#    z 0.000000 0.000000 1.623530 
# 
# From -- ./inp_files/6940.got.cif
#   From: 2010.03.12/outbox.cif.g09.slc.cpg/sg55_4_cif.got.tgz:6940.got - 2010.04.16 15:19:21.
