data_PCOD8224762
_publ_section_title
;
Structure prediction by ZEFSAII (Michael W. Deem and Ramdas Pophale) SiO2 
 PCOD8224762
Probable space group: P B A M
;
_chemical_formula_sum "Si O2"
_cell_formula_units_Z 48
_cell_length_a 27.727573
_cell_length_b 5.847093
_cell_length_c 13.362040
_cell_angle_alpha 90.000000
_cell_angle_beta 90.000000
_cell_angle_gamma 90.000000
_cell_volume 2166.330062
_symmetry_space_group_name_H-M "P B A M"
_symmetry_group_IT_number 55
_symmetry_cell_setting 'orthorhombic'
loop_
_space_group_symop_operation_xyz
x,y,z
-x,-y,z
1/2+x,1/2-y,-z
1/2-x,1/2+y,-z
-x,-y,-z
x,y,-z
1/2-x,1/2+y,z
1/2+x,1/2-y,z
loop_
_atom_site_type_symbol
_atom_site_label
_atom_site_fract_x
_atom_site_fract_y
_atom_site_fract_z
Si Si1 0.580598 0.716174 0.389209
Si Si2 0.178966 0.513807 0.387544
Si Si3 0.446986 0.043727 0.798780
Si Si4 0.362700 0.299817 0.114068
Si Si5 0.620070 0.335099 0.731861
Si Si6 0.272479 0.107587 0.802062
O O1 0.557485 0.716614 0.500000
O O2 0.585016 0.461025 0.347144
O O3 0.634612 0.812824 0.390353
O O4 0.547229 0.863467 0.315036
O O5 0.197945 0.463853 0.500000
O O6 0.161716 0.284011 0.332370
O O7 0.221838 0.617199 0.319219
O O8 0.415442 0.816523 0.798376
O O9 0.500000 0.000000 0.844180
O O10 0.418130 0.222628 0.868256
O O11 0.351243 0.507105 0.189666
O O12 0.325237 0.099302 0.144595
O O13 0.355868 0.377013 0.000000
O O14 0.250199 0.857561 0.835287
#
# Coordination Sequence:
#
# PCOD8224762 Si02
#       6
#     8   8   8   8   8   8
#     4   9  18  33  60  92 126 174 222 269 336 414
#     4  10  20  38  64  97 136 179 221 272 342 415
#     4  10  22  40  64  94 132 173 222 288 355 427
#     4  11  25  45  67  94 130 178 232 294 362 419
#     4  10  18  40  64  93 132 180 224 283 343 417
#     4  12  26  45  69 102 140 177 232 288 343 416
#
# _framework density 22.157288000000001
#
# number of rings (size 3 to 8) (size 9 to 14) (size 15 to 20)
#    0.000    1.667    5.000    1.500    0.000    6.000 
#    0.000    1.667    0.000    0.000    0.000    0.000 
#    0.000    0.000    0.000    0.000    0.000    0.000 
#
# Total GULP energy -594808.326269 kJ/mol
# GULP energy per Si atom -12391.840131 kJ/mol
# Density = 2.210686 g / cm^3
# Si number density = 22.157288 Si / 1000 Ang^3
#
#
#
# Elastic Constant Matrix: (Units=GPa)
#
#
# Indices 1 2 3 4 5 6 
#
# 1 66.6172 17.7047 11.6281 0.0000 0.0000 0.0000
# 2 17.7047 107.6208 21.9606 0.0000 0.0000 0.0000
# 3 11.6281 21.9606 115.8802 0.0000 0.0000 0.0000
# 4 0.0000 0.0000 0.0000 17.1983 0.0000 0.0000
# 5 0.0000 0.0000 0.0000 0.0000 15.2792 0.0000
# 6 0.0000 0.0000 0.0000 0.0000 0.0000 15.9705
#
#
#
# Elastic Compliance Matrix: (Units=1/GPa)
#
#
# Indices 1 2 3 4 5 6 
#
# 1 0.015841 -0.002373 -0.001140 0.000000 0.000000 0.000000
# 2 -0.002373 0.010021 -0.001661 0.000000 0.000000 0.000000
# 3 -0.001140 -0.001661 0.009059 0.000000 0.000000 0.000000
# 4 0.000000 0.000000 0.000000 0.058145 0.000000 0.000000
# 5 0.000000 0.000000 0.000000 0.000000 0.065448 0.000000
# 6 0.000000 0.000000 0.000000 0.000000 0.000000 0.062615
#
#
# Mechanical properties :
#
#
# Convention : Reuss Voigt Hill
#
# Bulk Modulus (GPa) = 40.69582 43.63389 42.16486
# Shear Modulus (GPa) = 20.86209 25.61125 23.23667
#
# Velocity S-wave (km/s) = 3.07179 3.40352 3.24190
# Velocity P-wave (km/s) = 5.56667 5.93134 5.75190
#
# Compressibility (1/GPa) = 0.02457255
#
# Stress axis : x y z
#
# Youngs Moduli (GPa) = 63.12783 99.78776 110.39057
#
# Poissons Ratio (x) = 0.23684 0.12582
# Poissons Ratio (y) = 0.14983 0.18336
# Poissons Ratio (z) = 0.07195 0.16575
#
# Static dielectric constant tensor:
#      x y z
#    x 3.695900 0.000000 0.000000 
#    y 0.000000 4.081150 0.000000 
#    z 0.000000 0.000000 4.092350 
# 
# 
# High freq. dielectric constant tensor:
#      x y z
#    x 1.851220 0.000000 0.000000 
#    y 0.000000 1.876470 0.000000 
#    z 0.000000 0.000000 1.856990 
# 
# From -- ./inp_files/20046.got.cif
#   From: 2010.03.12/outbox.cif.g09.slc.cpg/sg55_11_cif.got.tgz:20046.got - 2010.04.16 15:19:21.
