data_PCOD8224387
_publ_section_title
;
Structure prediction by ZEFSAII (Michael W. Deem and Ramdas Pophale) SiO2 
 PCOD8224387
Probable space group: P B A M
;
_chemical_formula_sum "Si O2"
_cell_formula_units_Z 64
_cell_length_a 14.242788
_cell_length_b 30.043189
_cell_length_c 9.423400
_cell_angle_alpha 90.000000
_cell_angle_beta 90.000000
_cell_angle_gamma 90.000000
_cell_volume 4032.261286
_symmetry_space_group_name_H-M "P B A M"
_symmetry_group_IT_number 55
_symmetry_cell_setting 'orthorhombic'
loop_
_space_group_symop_operation_xyz
x,y,z
-x,-y,z
1/2+x,1/2-y,-z
1/2-x,1/2+y,-z
-x,-y,-z
x,y,-z
1/2-x,1/2+y,z
1/2+x,1/2-y,z
loop_
_atom_site_type_symbol
_atom_site_label
_atom_site_fract_x
_atom_site_fract_y
_atom_site_fract_z
Si Si1 0.112368 0.049058 0.332343
Si Si2 0.666074 0.371235 0.835500
Si Si3 0.180739 0.860426 0.663437
Si Si4 0.989483 0.277466 0.159404
Si Si5 0.662842 0.206649 0.334114
Si Si6 0.898269 0.048884 0.332382
Si Si7 0.226517 0.716783 0.832474
Si Si8 0.978052 0.176580 0.842360
O O1 0.124634 0.055106 0.500000
O O2 0.182188 0.083898 0.255223
O O3 0.004973 0.057574 0.282501
O O4 0.140008 0.999105 0.279860
O O5 0.737786 0.332394 0.791168
O O6 0.561311 0.355778 0.797694
O O7 0.678192 0.382862 0.000000
O O8 0.152059 0.860432 0.500000
O O9 0.284279 0.840676 0.686860
O O10 0.169031 0.910998 0.723427
O O11 0.108755 0.827180 0.737743
O O12 0.882573 0.282646 0.210677
O O13 0.019479 0.226040 0.162393
O O14 0.060276 0.301986 0.266885
O O15 0.001319 0.296845 0.000000
O O16 0.653911 0.218936 0.500000
O O17 0.718427 0.245995 0.255647
O O18 0.899158 0.046290 0.500000
O O19 0.240955 0.726801 0.000000
O O20 0.941209 0.165510 0.000000
#
# Coordination Sequence:
#
# PCOD8224387 Si02
#       8
#     8   8   8   8   8   8   8   8
#     4   9  16  28  47  67  88 122 156 185 222 276
#     4  10  19  30  44  68  96 120 151 192 233 269
#     4  10  19  31  46  67  95 127 155 188 231 274
#     4  10  20  35  51  64  89 130 167 196 225 272
#     4  11  22  31  46  72  98 122 153 197 242 273
#     4   8  15  28  45  65  91 121 156 185 218 277
#     4  10  20  35  51  66  90 128 166 192 226 278
#     4  10  18  28  46  68  91 123 159 192 223 265
#
# _framework density 15.871988
#
# number of rings (size 3 to 8) (size 9 to 14) (size 15 to 20)
#    0.000    2.250    3.750    1.125    0.000    2.000 
#    0.000    1.875    0.000    0.000    0.000    0.875 
#    0.000    7.000    0.000    0.000    0.000    0.000 
#
# Total GULP energy -793273.343330 kJ/mol
# GULP energy per Si atom -12394.895990 kJ/mol
# Density = 1.583586 g / cm^3
# Si number density = 15.871988 Si / 1000 Ang^3
#
#
#
# Elastic Constant Matrix: (Units=GPa)
#
#
# Indices 1 2 3 4 5 6 
#
# 1 56.8830 42.7635 40.1929 0.0000 0.0000 0.0000
# 2 42.7635 95.4596 33.7039 0.0000 0.0000 0.0000
# 3 40.1929 33.7039 53.1392 0.0000 0.0000 0.0000
# 4 0.0000 0.0000 0.0000 21.8305 0.0000 0.0000
# 5 0.0000 0.0000 0.0000 0.0000 22.6358 0.0000
# 6 0.0000 0.0000 0.0000 0.0000 0.0000 20.9178
#
#
#
# Elastic Compliance Matrix: (Units=1/GPa)
#
#
# Indices 1 2 3 4 5 6 
#
# 1 0.044532 -0.010382 -0.027098 0.000000 0.000000 0.000000
# 2 -0.010382 0.015919 -0.002244 0.000000 0.000000 0.000000
# 3 -0.027098 -0.002244 0.040738 0.000000 0.000000 0.000000
# 4 0.000000 0.000000 0.000000 0.045807 0.000000 0.000000
# 5 0.000000 0.000000 0.000000 0.000000 0.044178 0.000000
# 6 0.000000 0.000000 0.000000 0.000000 0.000000 0.047806
#
#
# Mechanical properties :
#
#
# Convention : Reuss Voigt Hill
#
# Bulk Modulus (GPa) = 45.99606 48.75580 47.37593
# Shear Modulus (GPa) = 15.35278 18.99825 17.17552
#
# Velocity S-wave (km/s) = 3.11350 3.46347 3.29314
# Velocity P-wave (km/s) = 6.47823 6.83952 6.66133
#
# Compressibility (1/GPa) = 0.02174099
#
# Stress axis : x y z
#
# Youngs Moduli (GPa) = 22.45593 62.81909 24.54722
#
# Poissons Ratio (x) = 0.65217 0.66517
# Poissons Ratio (y) = 0.23313 0.05509
# Poissons Ratio (z) = 0.60851 0.14098
#
# Static dielectric constant tensor:
#      x y z
#    x 2.865720 0.000000 0.000000 
#    y 0.000000 3.198640 0.000000 
#    z 0.000000 0.000000 2.935400 
# 
# 
# High freq. dielectric constant tensor:
#      x y z
#    x 1.582090 0.000000 0.000000 
#    y 0.000000 1.604280 0.000000 
#    z 0.000000 0.000000 1.601110 
# 
# From -- ./inp_files/6925.got.cif
#   From: 2010.03.12/outbox.cif.g09.slc.cpg/sg55_4_cif.got.tgz:6925.got - 2010.04.16 15:19:21.
