data_PCOD8224691
_publ_section_title
;
Structure prediction by ZEFSAII (Michael W. Deem and Ramdas Pophale) SiO2 
 PCOD8224691
Probable space group: P B A M
;
_chemical_formula_sum "Si O2"
_cell_formula_units_Z 64
_cell_length_a 12.785912
_cell_length_b 29.180860
_cell_length_c 8.864514
_cell_angle_alpha 90.000000
_cell_angle_beta 90.000000
_cell_angle_gamma 90.000000
_cell_volume 3307.384816
_symmetry_space_group_name_H-M "P B A M"
_symmetry_group_IT_number 55
_symmetry_cell_setting 'orthorhombic'
loop_
_space_group_symop_operation_xyz
x,y,z
-x,-y,z
1/2+x,1/2-y,-z
1/2-x,1/2+y,-z
-x,-y,-z
x,y,-z
1/2-x,1/2+y,z
1/2+x,1/2-y,z
loop_
_atom_site_type_symbol
_atom_site_label
_atom_site_fract_x
_atom_site_fract_y
_atom_site_fract_z
Si Si1 0.328820 0.320910 0.332166
Si Si2 0.721905 0.035765 0.178709
Si Si3 0.055791 0.206551 0.673671
Si Si4 0.126657 0.298067 0.825323
Si Si5 0.044452 0.395333 0.179011
Si Si6 0.913386 0.078052 0.328094
Si Si7 0.115498 0.113372 0.178773
Si Si8 0.173141 0.566277 0.821303
O O1 0.283510 0.310946 0.500000
O O2 0.431689 0.290984 0.302779
O O3 0.248429 0.308035 0.201620
O O4 0.356706 0.373633 0.316576
O O5 0.639303 0.073275 0.241809
O O6 0.837143 0.041719 0.248870
O O7 0.679831 0.986346 0.230234
O O8 0.733827 0.039328 0.000000
O O9 0.084316 0.197133 0.500000
O O10 0.097541 0.255258 0.724230
O O11 0.107099 0.165933 0.769845
O O12 0.060975 0.342557 0.772632
O O13 0.107697 0.286802 0.000000
O O14 0.933555 0.412125 0.246679
O O15 0.044720 0.399957 0.000000
O O16 0.932935 0.063173 0.500000
O O17 0.025288 0.080867 0.246472
O O18 0.226717 0.094458 0.237765
O O19 0.106257 0.111086 0.000000
O O20 0.168863 0.569446 0.000000
#
# Coordination Sequence:
#
# PCOD8224691 Si02
#       8
#     8   8   8   8   8   8   8   8
#     4   9  19  36  55  74 104 145 184 228 278 331
#     4  10  18  33  59  86 111 147 191 234 279 336
#     4  10  22  39  57  80 111 150 189 228 286 348
#     4  11  21  33  56  88 113 141 185 237 283 335
#     4   9  18  33  54  84 116 145 184 233 284 334
#     4  10  20  35  56  80 111 148 187 235 284 334
#     4  10  20  36  57  82 112 148 191 239 287 338
#     4   9  19  34  55  84 118 150 183 230 287 339
#
# _framework density 19.350636000000002
#
# number of rings (size 3 to 8) (size 9 to 14) (size 15 to 20)
#    0.000    2.250    1.250    2.625    0.000    5.500 
#    0.000    5.000    0.000    6.750    0.000    0.000 
#    0.000    0.000    0.000    0.000    0.000    0.000 
#
# Total GULP energy -793614.289899 kJ/mol
# GULP energy per Si atom -12400.223280 kJ/mol
# Density = 1.930659 g / cm^3
# Si number density = 19.350636 Si / 1000 Ang^3
#
#
#
# Elastic Constant Matrix: (Units=GPa)
#
#
# Indices 1 2 3 4 5 6 
#
# 1 123.2773 50.9650 34.5946 0.0000 0.0000 0.0000
# 2 50.9650 63.8519 19.3597 0.0000 0.0000 0.0000
# 3 34.5946 19.3597 55.8308 0.0000 0.0000 0.0000
# 4 0.0000 0.0000 0.0000 14.4594 0.0000 0.0000
# 5 0.0000 0.0000 0.0000 0.0000 20.8149 0.0000
# 6 0.0000 0.0000 0.0000 0.0000 0.0000 20.6503
#
#
#
# Elastic Compliance Matrix: (Units=1/GPa)
#
#
# Indices 1 2 3 4 5 6 
#
# 1 0.013287 -0.009062 -0.005091 0.000000 0.000000 0.000000
# 2 -0.009062 0.023681 -0.002597 0.000000 0.000000 0.000000
# 3 -0.005091 -0.002597 0.021966 0.000000 0.000000 0.000000
# 4 0.000000 0.000000 0.000000 0.069159 0.000000 0.000000
# 5 0.000000 0.000000 0.000000 0.000000 0.048043 0.000000
# 6 0.000000 0.000000 0.000000 0.000000 0.000000 0.048426
#
#
# Mechanical properties :
#
#
# Convention : Reuss Voigt Hill
#
# Bulk Modulus (GPa) = 39.31451 50.31098 44.81274
# Shear Modulus (GPa) = 18.75907 20.38762 19.57334
#
# Velocity S-wave (km/s) = 3.11694 3.24943 3.18387
# Velocity P-wave (km/s) = 5.77190 6.33518 6.06008
#
# Compressibility (1/GPa) = 0.02543590
#
# Stress axis : x y z
#
# Youngs Moduli (GPa) = 75.26407 42.22742 45.52476
#
# Poissons Ratio (x) = 0.38265 0.23175
# Poissons Ratio (y) = 0.68201 0.11822
# Poissons Ratio (z) = 0.38314 0.10966
#
# Static dielectric constant tensor:
#      x y z
#    x 3.810690 0.000000 0.000000 
#    y 0.000000 3.518640 0.000000 
#    z 0.000000 0.000000 3.305930 
# 
# 
# High freq. dielectric constant tensor:
#      x y z
#    x 1.760080 0.000000 0.000000 
#    y 0.000000 1.753920 0.000000 
#    z 0.000000 0.000000 1.730910 
# 
# From -- ./inp_files/4580.got.cif
#   From: 2010.03.12/outbox.cif.g09.slc.cpg/sg55_3_cif.got.tgz:4580.got - 2010.04.16 15:19:21.
