data_PCOD8224980
_publ_section_title
;
Structure prediction by ZEFSAII (Michael W. Deem and Ramdas Pophale) SiO2 
 PCOD8224980
Probable space group: P B A M
;
_chemical_formula_sum "Si O2"
_cell_formula_units_Z 64
_cell_length_a 23.954278
_cell_length_b 11.615036
_cell_length_c 12.837469
_cell_angle_alpha 90.000000
_cell_angle_beta 90.000000
_cell_angle_gamma 90.000000
_cell_volume 3571.766449
_symmetry_space_group_name_H-M "P B A M"
_symmetry_group_IT_number 55
_symmetry_cell_setting 'orthorhombic'
loop_
_space_group_symop_operation_xyz
x,y,z
-x,-y,z
1/2+x,1/2-y,-z
1/2-x,1/2+y,-z
-x,-y,-z
x,y,-z
1/2-x,1/2+y,z
1/2+x,1/2-y,z
loop_
_atom_site_type_symbol
_atom_site_label
_atom_site_fract_x
_atom_site_fract_y
_atom_site_fract_z
Si Si1 0.960182 0.745009 0.115020
Si Si2 0.134199 0.811636 0.379776
Si Si3 0.751645 0.704226 0.880263
Si Si4 0.706383 0.516630 0.269187
Si Si5 0.959724 0.106919 0.762006
Si Si6 0.309598 0.113756 0.752855
Si Si7 0.864129 0.583213 0.879284
Si Si8 0.879251 0.957732 0.884879
O O1 0.924633 0.634086 0.153397
O O2 0.007931 0.779955 0.196514
O O3 0.918414 0.849724 0.104535
O O4 0.985842 0.720205 0.000000
O O5 0.129413 0.779930 0.500000
O O6 0.177015 0.918191 0.365301
O O7 0.073412 0.850178 0.339625
O O8 0.156138 0.698385 0.320593
O O9 0.717460 0.606545 0.822509
O O10 0.729785 0.826107 0.838626
O O11 0.817678 0.683174 0.861675
O O12 0.735962 0.697851 0.000000
O O13 0.762989 0.458179 0.313111
O O14 0.664947 0.429668 0.207619
O O15 0.916213 0.068585 0.851231
O O16 0.000000 0.000000 0.731348
O O17 0.353009 0.028555 0.808797
O O18 0.864125 0.545584 0.000000
O O19 0.852575 0.981104 0.000000
#
# Coordination Sequence:
#
# PCOD8224980 Si02
#       8
#     8   8   8   8   8   8   8   8
#     4   9  16  27  46  72 102 133 161 191 231 281
#     4  10  22  38  54  72  91 118 162 210 254 292
#     4   9  16  26  43  70 104 137 163 186 219 276
#     4   9  18  30  47  72  99 127 157 192 235 284
#     4   9  18  33  53  75  98 125 161 206 247 281
#     4  10  19  32  49  70 100 133 162 194 235 286
#     4   9  17  28  45  72 104 136 164 190 229 285
#     4   9  15  25  46  76 106 133 159 187 226 281
#
# _framework density 17.918303999999999
#
# number of rings (size 3 to 8) (size 9 to 14) (size 15 to 20)
#    0.000    2.750    0.000    1.875    0.000    4.750 
#    0.000    2.500    0.000    3.000    0.000    0.000 
#    0.000    0.000    0.000    0.000    0.000    0.000 
#
# Total GULP energy -793091.588386 kJ/mol
# GULP energy per Si atom -12392.056069 kJ/mol
# Density = 1.787752 g / cm^3
# Si number density = 17.918304 Si / 1000 Ang^3
#
#
#
# Elastic Constant Matrix: (Units=GPa)
#
#
# Indices 1 2 3 4 5 6 
#
# 1 82.7249 31.9719 40.2669 0.0000 0.0000 0.0000
# 2 31.9719 63.0227 35.5902 0.0000 0.0000 0.0000
# 3 40.2669 35.5902 88.6438 0.0000 0.0000 0.0000
# 4 0.0000 0.0000 0.0000 14.9252 0.0000 0.0000
# 5 0.0000 0.0000 0.0000 0.0000 16.5323 0.0000
# 6 0.0000 0.0000 0.0000 0.0000 0.0000 30.9780
#
#
#
# Elastic Compliance Matrix: (Units=1/GPa)
#
#
# Indices 1 2 3 4 5 6 
#
# 1 0.016861 -0.005468 -0.005464 0.000000 0.000000 0.000000
# 2 -0.005468 0.022293 -0.006467 0.000000 0.000000 0.000000
# 3 -0.005464 -0.006467 0.016359 0.000000 0.000000 0.000000
# 4 0.000000 0.000000 0.000000 0.067001 0.000000 0.000000
# 5 0.000000 0.000000 0.000000 0.000000 0.060488 0.000000
# 6 0.000000 0.000000 0.000000 0.000000 0.000000 0.032281
#
#
# Mechanical properties :
#
#
# Convention : Reuss Voigt Hill
#
# Bulk Modulus (GPa) = 48.27103 50.00549 49.13826
# Shear Modulus (GPa) = 19.45630 20.92461 20.19045
#
# Velocity S-wave (km/s) = 3.29877 3.42098 3.36043
# Velocity P-wave (km/s) = 6.44261 6.60093 6.52225
#
# Compressibility (1/GPa) = 0.02071636
#
# Stress axis : x y z
#
# Youngs Moduli (GPa) = 59.30777 44.85654 61.12699
#
# Poissons Ratio (x) = 0.24529 0.33398
# Poissons Ratio (y) = 0.32431 0.39529
# Poissons Ratio (z) = 0.32404 0.29007
#
# Static dielectric constant tensor:
#      x y z
#    x 3.480190 0.000000 0.000000 
#    y 0.000000 3.337370 0.000000 
#    z 0.000000 0.000000 2.990960 
# 
# 
# High freq. dielectric constant tensor:
#      x y z
#    x 1.696710 0.000000 0.000000 
#    y 0.000000 1.689180 0.000000 
#    z 0.000000 0.000000 1.652090 
# 
# From -- ./inp_files/13587.got.cif
#   From: 2010.03.12/outbox.cif.g09.slc.cpg/sg55_7_cif.got.tgz:13587.got - 2010.04.16 15:19:21.
