data_PCOD8224099
_publ_section_title
;
Structure prediction by ZEFSAII (Michael W. Deem and Ramdas Pophale) SiO2 
 PCOD8224099
Probable space group: P C C A
;
_chemical_formula_sum "Si O2"
_cell_formula_units_Z 32
_cell_length_a 9.905544
_cell_length_b 9.248889
_cell_length_c 15.507663
_cell_angle_alpha 90.000000
_cell_angle_beta 90.000000
_cell_angle_gamma 90.000000
_cell_volume 1420.738840
_symmetry_space_group_name_H-M "P C C A"
_symmetry_group_IT_number 54
_symmetry_cell_setting 'orthorhombic'
loop_
_space_group_symop_operation_xyz
x,y,z
1/2-x,-y,z
1/2+x,-y,1/2-z
-x,y,1/2-z
-x,-y,-z
1/2+x,y,-z
1/2-x,y,1/2+z
x,-y,1/2+z
loop_
_atom_site_type_symbol
_atom_site_label
_atom_site_fract_x
_atom_site_fract_y
_atom_site_fract_z
Si Si1 0.500000 0.361652 0.250000
Si Si2 0.750000 0.500000 0.669899
Si Si3 0.566921 0.645919 0.040448
Si Si4 0.415578 0.149965 0.661304
Si Si5 0.617947 0.167217 0.380958
O O1 0.367435 0.456418 0.263954
O O2 0.506759 0.263078 0.333978
O O3 0.809300 0.619795 0.605526
O O4 0.451666 0.723596 0.095297
O O5 0.500000 0.500000 0.000000
O O6 0.632842 0.759191 0.973926
O O7 0.500000 0.159511 0.750000
O O8 0.255302 0.170119 0.676155
O O9 0.438731 0.995897 0.613979
#
# Coordination Sequence:
#
# PCOD8224099 Si02
#       5
#     4   4   8   8   8
#     4  12  26  46  72 108 152 196 250 304 364 440
#     4  12  28  44  72 112 144 204 240 312 360 438
#     4  12  25  46  73 106 150 188 243 299 371 435
#     4  11  25  47  73 106 142 193 237 302 366 435
#     4  11  25  46  72 106 145 187 244 300 365 435
#
# _framework density 22.523491
#
# number of rings (size 3 to 8) (size 9 to 14) (size 15 to 20)
#    0.000    0.500    3.750    3.750    5.250    1.000 
#    0.000    0.000    0.000    0.000    0.000    0.000 
#    0.000    0.000    0.000    0.000    0.000    0.000 
#
# Total GULP energy -396667.498495 kJ/mol
# GULP energy per Si atom -12395.859328 kJ/mol
# Density = 2.247223 g / cm^3
# Si number density = 22.523491 Si / 1000 Ang^3
#
#
#
# Elastic Constant Matrix: (Units=GPa)
#
#
# Indices 1 2 3 4 5 6 
#
# 1 108.9754 51.1017 34.1793 0.0000 0.0000 0.0000
# 2 51.1017 142.9472 69.0660 0.0000 0.0000 0.0000
# 3 34.1793 69.0660 97.9579 0.0000 0.0000 0.0000
# 4 0.0000 0.0000 0.0000 64.3055 0.0000 0.0000
# 5 0.0000 0.0000 0.0000 0.0000 43.6811 0.0000
# 6 0.0000 0.0000 0.0000 0.0000 0.0000 30.8315
#
#
#
# Elastic Compliance Matrix: (Units=1/GPa)
#
#
# Indices 1 2 3 4 5 6 
#
# 1 0.011197 -0.003208 -0.001645 0.000000 0.000000 0.000000
# 2 -0.003208 0.011529 -0.007009 0.000000 0.000000 0.000000
# 3 -0.001645 -0.007009 0.015724 0.000000 0.000000 0.000000
# 4 0.000000 0.000000 0.000000 0.015551 0.000000 0.000000
# 5 0.000000 0.000000 0.000000 0.000000 0.022893 0.000000
# 6 0.000000 0.000000 0.000000 0.000000 0.000000 0.032434
#
#
# Mechanical properties :
#
#
# Convention : Reuss Voigt Hill
#
# Bulk Modulus (GPa) = 67.90859 73.17493 70.54176
# Shear Modulus (GPa) = 36.24214 40.79919 38.52067
#
# Velocity S-wave (km/s) = 4.01569 4.26068 4.14000
# Velocity P-wave (km/s) = 7.19142 7.53414 7.36478
#
# Compressibility (1/GPa) = 0.01472568
#
# Stress axis : x y z
#
# Youngs Moduli (GPa) = 89.31310 86.73829 63.59553
#
# Poissons Ratio (x) = 0.27824 0.10461
# Poissons Ratio (y) = 0.28650 0.44576
# Poissons Ratio (z) = 0.14692 0.60797
#
# Static dielectric constant tensor:
#      x y z
#    x 4.080720 0.000000 0.000000 
#    y 0.000000 4.321500 0.000000 
#    z 0.000000 0.000000 4.117690 
# 
# 
# High freq. dielectric constant tensor:
#      x y z
#    x 1.892300 0.000000 0.000000 
#    y 0.000000 1.903550 0.000000 
#    z 0.000000 0.000000 1.890010 
# 
# From -- ./inp_files/12227.got.cif
#   From: 2010.03.12/outbox.cif.g09.slc.cpg/sg54_7_cif.got.tgz:12227.got - 2010.04.16 15:00:50.
