data_PCOD8224059
_publ_section_title
;
Structure prediction by ZEFSAII (Michael W. Deem and Ramdas Pophale) SiO2 
 PCOD8224059
Probable space group: P C C A
;
_chemical_formula_sum "Si O2"
_cell_formula_units_Z 40
_cell_length_a 8.659871
_cell_length_b 20.465261
_cell_length_c 9.861003
_cell_angle_alpha 90.000000
_cell_angle_beta 90.000000
_cell_angle_gamma 90.000000
_cell_volume 1747.631248
_symmetry_space_group_name_H-M "P C C A"
_symmetry_group_IT_number 54
_symmetry_cell_setting 'orthorhombic'
loop_
_space_group_symop_operation_xyz
x,y,z
1/2-x,-y,z
1/2+x,-y,1/2-z
-x,y,1/2-z
-x,-y,-z
1/2+x,y,-z
1/2-x,y,1/2+z
x,-y,1/2+z
loop_
_atom_site_type_symbol
_atom_site_label
_atom_site_fract_x
_atom_site_fract_y
_atom_site_fract_z
Si Si1 0.958136 0.264137 0.905980
Si Si2 0.321769 0.568463 0.254564
Si Si3 0.378624 0.058351 0.624238
Si Si4 0.431707 0.118880 0.103764
Si Si5 0.286075 0.649435 0.001160
O O1 0.982764 0.189583 0.955142
O O2 0.784402 0.283658 0.939023
O O3 0.000000 0.267321 0.750000
O O4 0.041494 0.323925 0.983689
O O5 0.250000 0.500000 0.298658
O O6 0.500000 0.555735 0.250000
O O7 0.267440 0.589708 0.105187
O O8 0.278997 0.625908 0.357582
O O9 0.500000 0.058834 0.750000
O O10 0.491669 0.062853 0.492444
O O11 0.256591 0.118690 0.616705
O O12 0.250000 0.000000 0.627006
O O13 0.500000 0.103764 0.250000
#
# Coordination Sequence:
#
# PCOD8224059 Si02
#       5
#     8   8   8   8   8
#     4  11  24  44  71 102 141 181 235 297 353 425
#     4  12  28  44  69 101 138 184 241 295 363 426
#     4  12  26  48  75 109 153 195 245 298 361 426
#     4  11  25  46  72 110 146 194 246 303 361 429
#     4  12  24  45  69 100 137 184 234 297 360 426
#
# _framework density 22.888124999999999
#
# number of rings (size 3 to 8) (size 9 to 14) (size 15 to 20)
#    0.000    0.400    4.000    4.200    2.800    4.800 
#    3.600    0.000    0.000    0.000    0.000    0.000 
#    0.000    0.000    0.000    0.000    0.000    0.000 
#
# Total GULP energy -495546.851555 kJ/mol
# GULP energy per Si atom -12388.671289 kJ/mol
# Density = 2.283603 g / cm^3
# Si number density = 22.888125 Si / 1000 Ang^3
#
#
#
# Elastic Constant Matrix: (Units=GPa)
#
#
# Indices 1 2 3 4 5 6 
#
# 1 140.7726 38.1630 51.0505 0.0000 0.0000 0.0000
# 2 38.1630 131.3734 43.3804 0.0000 0.0000 0.0000
# 3 51.0505 43.3804 114.7658 0.0000 0.0000 0.0000
# 4 0.0000 0.0000 0.0000 15.7929 0.0000 0.0000
# 5 0.0000 0.0000 0.0000 0.0000 44.2449 0.0000
# 6 0.0000 0.0000 0.0000 0.0000 0.0000 7.0447
#
#
#
# Elastic Compliance Matrix: (Units=1/GPa)
#
#
# Indices 1 2 3 4 5 6 
#
# 1 0.008698 -0.001427 -0.003330 0.000000 0.000000 0.000000
# 2 -0.001427 0.008932 -0.002741 0.000000 0.000000 0.000000
# 3 -0.003330 -0.002741 0.011231 0.000000 0.000000 0.000000
# 4 0.000000 0.000000 0.000000 0.063320 0.000000 0.000000
# 5 0.000000 0.000000 0.000000 0.000000 0.022601 0.000000
# 6 0.000000 0.000000 0.000000 0.000000 0.000000 0.141951
#
#
# Mechanical properties :
#
#
# Convention : Reuss Voigt Hill
#
# Bulk Modulus (GPa) = 72.12820 72.45552 72.29186
# Shear Modulus (GPa) = 18.09300 30.37102 24.23201
#
# Velocity S-wave (km/s) = 2.81463 3.64666 3.25732
# Velocity P-wave (km/s) = 6.49189 7.03249 6.76759
#
# Compressibility (1/GPa) = 0.01386420
#
# Stress axis : x y z
#
# Youngs Moduli (GPa) = 114.96835 111.96128 89.04222
#
# Poissons Ratio (x) = 0.15980 0.29648
# Poissons Ratio (y) = 0.16409 0.24408
# Poissons Ratio (z) = 0.38280 0.30691
#
# Static dielectric constant tensor:
#      x y z
#    x 4.597430 0.000000 0.000000 
#    y 0.000000 4.260820 0.000000 
#    z 0.000000 0.000000 3.878580 
# 
# 
# High freq. dielectric constant tensor:
#      x y z
#    x 1.921770 0.000000 0.000000 
#    y 0.000000 1.915050 0.000000 
#    z 0.000000 0.000000 1.902460 
# 
# From -- ./inp_files/2542.got.cif
#   From: 2010.03.12/outbox.cif.g09.slc.cpg/sg54_2_cif.got.tgz:2542.got - 2010.04.16 15:00:50.
