data_PCOD8224279
_publ_section_title
;
Structure prediction by ZEFSAII (Michael W. Deem and Ramdas Pophale) SiO2 
 PCOD8224279
Probable space group: P B A M
;
_chemical_formula_sum "Si O2"
_cell_formula_units_Z 56
_cell_length_a 17.880708
_cell_length_b 22.302827
_cell_length_c 8.677753
_cell_angle_alpha 90.000000
_cell_angle_beta 90.000000
_cell_angle_gamma 90.000000
_cell_volume 3460.604045
_symmetry_space_group_name_H-M "P B A M"
_symmetry_group_IT_number 55
_symmetry_cell_setting 'orthorhombic'
loop_
_space_group_symop_operation_xyz
x,y,z
-x,-y,z
1/2+x,1/2-y,-z
1/2-x,1/2+y,-z
-x,-y,-z
x,y,-z
1/2-x,1/2+y,z
1/2+x,1/2-y,z
loop_
_atom_site_type_symbol
_atom_site_label
_atom_site_fract_x
_atom_site_fract_y
_atom_site_fract_z
Si Si1 0.280019 0.679429 0.830795
Si Si2 0.616349 0.158218 0.680153
Si Si3 0.993745 0.568645 0.179746
Si Si4 0.876434 0.343115 0.182405
Si Si5 0.413394 0.282999 0.318495
Si Si6 0.066929 0.218288 0.184199
Si Si7 0.734206 0.682871 0.171229
O O1 0.209190 0.644538 0.754139
O O2 0.361798 0.679252 0.749261
O O3 0.254207 0.747869 0.838974
O O4 0.292033 0.652218 0.000000
O O5 0.612292 0.171890 0.500000
O O6 0.572216 0.097747 0.720938
O O7 0.576881 0.212344 0.770726
O O8 0.702595 0.148825 0.729960
O O9 0.073303 0.599386 0.218616
O O10 0.000000 0.500000 0.230168
O O11 0.974050 0.575511 0.000000
O O12 0.910810 0.286074 0.267581
O O13 0.873146 0.328481 0.000000
O O14 0.409915 0.287257 0.500000
O O15 0.492150 0.309413 0.257328
O O16 0.346835 0.323666 0.250426
O O17 0.063783 0.215182 0.000000
O O18 0.730964 0.654697 0.000000
#
# Coordination Sequence:
#
# PCOD8224279 Si02
#       7
#     8   8   8   8   8   8   8
#     4   7  13  24  40  59  76 105 145 178 210 254
#     4  11  20  30  44  63  87 114 147 191 234 265
#     4  10  20  32  47  65  86 119 161 196 227 269
#     4   9  16  29  45  58  81 116 152 187 224 264
#     4  11  19  26  40  65  91 114 145 181 220 262
#     4  10  17  27  42  60  86 119 151 177 213 269
#     4   9  17  30  45  60  82 115 148 176 215 269
#
# _framework density 16.182144000000001
#
# number of rings (size 3 to 8) (size 9 to 14) (size 15 to 20)
#    0.000    2.429    1.429    5.143    0.000    0.286 
#    0.000    0.714    0.000    0.000    0.000    0.000 
#    0.000    1.143    0.000   13.429    0.000    2.571 
#
# Total GULP energy -693900.650128 kJ/mol
# GULP energy per Si atom -12391.083038 kJ/mol
# Density = 1.614531 g / cm^3
# Si number density = 16.182144 Si / 1000 Ang^3
#
#
#
# Elastic Constant Matrix: (Units=GPa)
#
#
# Indices 1 2 3 4 5 6 
#
# 1 169.3100 35.2937 39.0389 0.0000 0.0000 0.0000
# 2 35.2937 39.9680 11.8050 0.0000 0.0000 0.0000
# 3 39.0389 11.8050 74.8726 0.0000 0.0000 0.0000
# 4 0.0000 0.0000 0.0000 8.8187 0.0000 0.0000
# 5 0.0000 0.0000 0.0000 0.0000 20.5615 0.0000
# 6 0.0000 0.0000 0.0000 0.0000 0.0000 14.4834
#
#
#
# Elastic Compliance Matrix: (Units=1/GPa)
#
#
# Indices 1 2 3 4 5 6 
#
# 1 0.007894 -0.006036 -0.003164 0.000000 0.000000 0.000000
# 2 -0.006036 0.030858 -0.001718 0.000000 0.000000 0.000000
# 3 -0.003164 -0.001718 0.015277 0.000000 0.000000 0.000000
# 4 0.000000 0.000000 0.000000 0.113395 0.000000 0.000000
# 5 0.000000 0.000000 0.000000 0.000000 0.048635 0.000000
# 6 0.000000 0.000000 0.000000 0.000000 0.000000 0.069044
#
#
# Mechanical properties :
#
#
# Convention : Reuss Voigt Hill
#
# Bulk Modulus (GPa) = 31.06396 50.71398 40.88897
# Shear Modulus (GPa) = 15.73955 21.97360 18.85658
#
# Velocity S-wave (km/s) = 3.12212 3.68896 3.41731
# Velocity P-wave (km/s) = 5.67758 7.03932 6.39480
#
# Compressibility (1/GPa) = 0.03219165
#
# Stress axis : x y z
#
# Youngs Moduli (GPa) = 126.67394 32.40665 65.45881
#
# Poissons Ratio (x) = 0.19562 0.20714
# Poissons Ratio (y) = 0.76466 0.11245
# Poissons Ratio (z) = 0.40084 0.05567
#
# Static dielectric constant tensor:
#      x y z
#    x 3.699280 0.000000 0.000000 
#    y 0.000000 2.517530 0.000000 
#    z 0.000000 0.000000 2.982940 
# 
# 
# High freq. dielectric constant tensor:
#      x y z
#    x 1.650120 0.000000 0.000000 
#    y 0.000000 1.540560 0.000000 
#    z 0.000000 0.000000 1.616210 
# 
# From -- ./inp_files/7890.got.cif
#   From: 2010.03.12/outbox.cif.g09.slc.cpg/sg55_4_cif.got.tgz:7890.got - 2010.04.16 15:19:21.
