data_PCOD8224447
_publ_section_title
;
Structure prediction by ZEFSAII (Michael W. Deem and Ramdas Pophale) SiO2 
 PCOD8224447
Probable space group: P B A M
;
_chemical_formula_sum "Si O2"
_cell_formula_units_Z 56
_cell_length_a 18.439994
_cell_length_b 20.857368
_cell_length_c 8.657045
_cell_angle_alpha 90.000000
_cell_angle_beta 90.000000
_cell_angle_gamma 90.000000
_cell_volume 3329.583833
_symmetry_space_group_name_H-M "P B A M"
_symmetry_group_IT_number 55
_symmetry_cell_setting 'orthorhombic'
loop_
_space_group_symop_operation_xyz
x,y,z
-x,-y,z
1/2+x,1/2-y,-z
1/2-x,1/2+y,-z
-x,-y,-z
x,y,-z
1/2-x,1/2+y,z
1/2+x,1/2-y,z
loop_
_atom_site_type_symbol
_atom_site_label
_atom_site_fract_x
_atom_site_fract_y
_atom_site_fract_z
Si Si1 0.220587 0.685543 0.670891
Si Si2 0.434274 0.754331 0.684856
Si Si3 0.857236 0.865960 0.819809
Si Si4 0.702420 0.178804 0.331292
Si Si5 0.415342 0.507462 0.321024
Si Si6 0.411441 0.248359 0.817732
Si Si7 0.345337 0.374239 0.684255
O O1 0.206305 0.656610 0.500000
O O2 0.273696 0.638575 0.765101
O O3 0.258119 0.753539 0.653920
O O4 0.144575 0.694470 0.759001
O O5 0.438620 0.756818 0.500000
O O6 0.409930 0.682997 0.731146
O O7 0.375060 0.806903 0.750194
O O8 0.509877 0.773445 0.759979
O O9 0.884567 0.937074 0.786046
O O10 0.861891 0.850826 0.000000
O O11 0.685568 0.150173 0.500000
O O12 0.761798 0.132119 0.249715
O O13 0.500000 0.500000 0.291014
O O14 0.399083 0.522784 0.500000
O O15 0.376184 0.442504 0.266580
O O16 0.395973 0.319310 0.754274
O O17 0.408987 0.250629 0.000000
O O18 0.345480 0.364610 0.500000
#
# Coordination Sequence:
#
# PCOD8224447 Si02
#       7
#     8   8   8   8   8   8   8
#     4   9  17  32  50  66  89 123 159 189 227 283
#     4  10  18  30  47  66  92 125 158 190 233 286
#     4  11  21  32  47  69  97 125 157 199 241 277
#     4   7  13  26  45  65  83 111 152 193 224 261
#     4  10  20  32  47  67  93 129 167 195 225 276
#     4  11  20  29  45  72 100 121 149 193 242 281
#     4   9  17  31  48  65  90 126 164 194 225 274
#
# _framework density 16.818919000000001
#
# number of rings (size 3 to 8) (size 9 to 14) (size 15 to 20)
#    0.000    2.429    0.000    6.000    0.000    2.000 
#    0.000    0.714    0.000    0.000    0.000    1.000 
#    0.000    8.000    0.000    0.000    0.000    0.000 
#
# Total GULP energy -694000.811860 kJ/mol
# GULP energy per Si atom -12392.871640 kJ/mol
# Density = 1.678064 g / cm^3
# Si number density = 16.818919 Si / 1000 Ang^3
#
#
#
# Elastic Constant Matrix: (Units=GPa)
#
#
# Indices 1 2 3 4 5 6 
#
# 1 134.1582 38.7007 27.9319 0.0000 0.0000 0.0000
# 2 38.7007 49.1460 14.2975 0.0000 0.0000 0.0000
# 3 27.9319 14.2975 67.1339 0.0000 0.0000 0.0000
# 4 0.0000 0.0000 0.0000 15.6871 0.0000 0.0000
# 5 0.0000 0.0000 0.0000 0.0000 20.4033 0.0000
# 6 0.0000 0.0000 0.0000 0.0000 0.0000 26.9897
#
#
#
# Elastic Compliance Matrix: (Units=1/GPa)
#
#
# Indices 1 2 3 4 5 6 
#
# 1 0.010074 -0.007157 -0.002667 0.000000 0.000000 0.000000
# 2 -0.007157 0.026776 -0.002725 0.000000 0.000000 0.000000
# 3 -0.002667 -0.002725 0.016586 0.000000 0.000000 0.000000
# 4 0.000000 0.000000 0.000000 0.063747 0.000000 0.000000
# 5 0.000000 0.000000 0.000000 0.000000 0.049012 0.000000
# 6 0.000000 0.000000 0.000000 0.000000 0.000000 0.037051
#
#
# Mechanical properties :
#
#
# Convention : Reuss Voigt Hill
#
# Bulk Modulus (GPa) = 35.28847 45.81089 40.54968
# Shear Modulus (GPa) = 21.02716 23.91658 22.47187
#
# Velocity S-wave (km/s) = 3.53966 3.77504 3.65924
# Velocity P-wave (km/s) = 6.14269 6.80427 6.48192
#
# Compressibility (1/GPa) = 0.02833786
#
# Stress axis : x y z
#
# Youngs Moduli (GPa) = 99.26846 37.34698 60.29335
#
# Poissons Ratio (x) = 0.26728 0.16081
# Poissons Ratio (y) = 0.71044 0.16429
# Poissons Ratio (z) = 0.26476 0.10176
#
# Static dielectric constant tensor:
#      x y z
#    x 3.582830 0.000000 0.000000 
#    y 0.000000 2.917290 0.000000 
#    z 0.000000 0.000000 3.070870 
# 
# 
# High freq. dielectric constant tensor:
#      x y z
#    x 1.660350 0.000000 0.000000 
#    y 0.000000 1.603220 0.000000 
#    z 0.000000 0.000000 1.641580 
# 
# From -- ./inp_files/7844.got.cif
#   From: 2010.03.12/outbox.cif.g09.slc.cpg/sg55_4_cif.got.tgz:7844.got - 2010.04.16 15:19:21.
