data_PCOD8224454
_publ_section_title
;
Structure prediction by ZEFSAII (Michael W. Deem and Ramdas Pophale) SiO2 
 PCOD8224454
Probable space group: P B A M
;
_chemical_formula_sum "Si O2"
_cell_formula_units_Z 48
_cell_length_a 18.426886
_cell_length_b 17.126789
_cell_length_c 8.393175
_cell_angle_alpha 90.000000
_cell_angle_beta 90.000000
_cell_angle_gamma 90.000000
_cell_volume 2648.830538
_symmetry_space_group_name_H-M "P B A M"
_symmetry_group_IT_number 55
_symmetry_cell_setting 'orthorhombic'
loop_
_space_group_symop_operation_xyz
x,y,z
-x,-y,z
1/2+x,1/2-y,-z
1/2-x,1/2+y,-z
-x,-y,-z
x,y,-z
1/2-x,1/2+y,z
1/2+x,1/2-y,z
loop_
_atom_site_type_symbol
_atom_site_label
_atom_site_fract_x
_atom_site_fract_y
_atom_site_fract_z
Si Si1 0.828391 0.413512 0.315499
Si Si2 0.295242 0.673796 0.817087
Si Si3 0.579262 0.223256 0.189029
Si Si4 0.708824 0.685847 0.314627
Si Si5 0.083202 0.730142 0.187191
Si Si6 0.678586 0.081714 0.811231
O O1 0.846492 0.406733 0.500000
O O2 0.742588 0.394769 0.285497
O O3 0.877977 0.352096 0.221560
O O4 0.847972 0.498771 0.252679
O O5 0.376483 0.697949 0.759374
O O6 0.248330 0.752177 0.799303
O O7 0.295086 0.646708 0.000000
O O8 0.498248 0.227289 0.258698
O O9 0.619850 0.145167 0.250935
O O10 0.577781 0.218357 0.000000
O O11 0.722212 0.703835 0.500000
O O12 0.623582 0.696714 0.273404
O O13 0.742297 0.601947 0.266018
O O14 0.081483 0.745599 0.000000
O O15 0.685685 0.079300 0.000000
#
# Coordination Sequence:
#
# PCOD8224454 Si02
#       6
#     8   8   8   8   8   8
#     4  11  21  32  46  72 102 129 159 198 241 286
#     4   9  16  31  51  70  91 125 166 201 233 278
#     4   8  17  31  51  74  95 121 163 203 234 276
#     4  10  18  30  47  71  97 124 158 199 237 280
#     4  10  18  32  51  72  97 129 161 195 234 283
#     4  10  19  34  52  71  94 128 165 200 239 285
#
# _framework density 18.121203999999999
#
# number of rings (size 3 to 8) (size 9 to 14) (size 15 to 20)
#    0.000    2.333    0.000    7.500    0.000    0.667 
#    0.000   13.333    0.000    1.000    0.000    7.000 
#    0.000    0.000    0.000    0.000    0.000    0.000 
#
# Total GULP energy -594872.207889 kJ/mol
# GULP energy per Si atom -12393.170998 kJ/mol
# Density = 1.807996 g / cm^3
# Si number density = 18.121204 Si / 1000 Ang^3
#
#
#
# Elastic Constant Matrix: (Units=GPa)
#
#
# Indices 1 2 3 4 5 6 
#
# 1 122.8361 29.0516 13.3488 0.0000 0.0000 0.0000
# 2 29.0516 18.3284 3.5473 0.0000 0.0000 0.0000
# 3 13.3488 3.5473 57.1988 0.0000 0.0000 0.0000
# 4 0.0000 0.0000 0.0000 20.4331 0.0000 0.0000
# 5 0.0000 0.0000 0.0000 0.0000 7.0731 0.0000
# 6 0.0000 0.0000 0.0000 0.0000 0.0000 20.3000
#
#
#
# Elastic Compliance Matrix: (Units=1/GPa)
#
#
# Indices 1 2 3 4 5 6 
#
# 1 0.013205 -0.020581 -0.001805 0.000000 0.000000 0.000000
# 2 -0.020581 0.087300 -0.000611 0.000000 0.000000 0.000000
# 3 -0.001805 -0.000611 0.017942 0.000000 0.000000 0.000000
# 4 0.000000 0.000000 0.000000 0.048940 0.000000 0.000000
# 5 0.000000 0.000000 0.000000 0.000000 0.141381 0.000000
# 6 0.000000 0.000000 0.000000 0.000000 0.000000 0.049261
#
#
# Mechanical properties :
#
#
# Convention : Reuss Voigt Hill
#
# Bulk Modulus (GPa) = 13.80209 32.25097 23.02653
# Shear Modulus (GPa) = 11.67750 19.72228 15.69989
#
# Velocity S-wave (km/s) = 2.54128 3.30260 2.94663
# Velocity P-wave (km/s) = 4.03037 5.69025 4.93066
#
# Compressibility (1/GPa) = 0.07245280
#
# Stress axis : x y z
#
# Youngs Moduli (GPa) = 75.73113 11.45472 55.73484
#
# Poissons Ratio (x) = 0.23575 0.10062
# Poissons Ratio (y) = 1.55860 0.03406
# Poissons Ratio (z) = 0.13672 0.00700
#
# Static dielectric constant tensor:
#      x y z
#    x 3.846430 0.000000 0.000000 
#    y 0.000000 3.306350 0.000000 
#    z 0.000000 0.000000 3.193560 
# 
# 
# High freq. dielectric constant tensor:
#      x y z
#    x 1.694690 0.000000 0.000000 
#    y 0.000000 1.673050 0.000000 
#    z 0.000000 0.000000 1.700340 
# 
# From -- ./inp_files/7556.got.cif
#   From: 2010.03.12/outbox.cif.g09.slc.cpg/sg55_4_cif.got.tgz:7556.got - 2010.04.16 15:19:21.
