data_PCOD8224203
_publ_section_title
;
Structure prediction by ZEFSAII (Michael W. Deem and Ramdas Pophale) SiO2 
 PCOD8224203
Probable space group: P C C A
;
_chemical_formula_sum "Si O2"
_cell_formula_units_Z 40
_cell_length_a 13.959735
_cell_length_b 8.390977
_cell_length_c 14.578266
_cell_angle_alpha 90.000000
_cell_angle_beta 90.000000
_cell_angle_gamma 90.000000
_cell_volume 1707.637074
_symmetry_space_group_name_H-M "P C C A"
_symmetry_group_IT_number 54
_symmetry_cell_setting 'orthorhombic'
loop_
_space_group_symop_operation_xyz
x,y,z
1/2-x,-y,z
1/2+x,-y,1/2-z
-x,y,1/2-z
-x,-y,-z
1/2+x,y,-z
1/2-x,y,1/2+z
x,-y,1/2+z
loop_
_atom_site_type_symbol
_atom_site_label
_atom_site_fract_x
_atom_site_fract_y
_atom_site_fract_z
Si Si1 0.626929 0.316619 0.621350
Si Si2 0.567663 0.342007 0.166506
Si Si3 0.236224 0.817189 0.237617
Si Si4 0.756204 0.311017 0.456549
Si Si5 0.467447 0.818253 0.011637
O O1 0.627879 0.507945 0.629133
O O2 0.666330 0.247460 0.716485
O O3 0.688741 0.245926 0.537252
O O4 0.519571 0.257317 0.600291
O O5 0.500000 0.394882 0.250000
O O6 0.644906 0.210034 0.196958
O O7 0.504231 0.270214 0.083690
O O8 0.214815 0.728546 0.142926
O O9 0.250000 0.000000 0.215980
O O10 0.750000 0.500000 0.465755
O O11 0.856183 0.218169 0.469985
O O12 0.500000 0.000000 0.000000
#
# Coordination Sequence:
#
# PCOD8224203 Si02
#       5
#     8   8   8   8   8
#     4  12  26  50  76 106 149 200 256 314 386 469
#     4  12  26  49  76 111 148 199 262 318 386 475
#     4  12  28  46  74 108 152 197 251 327 387 453
#     4  12  26  48  76 107 151 202 256 307 392 470
#     4  12  28  46  76 111 154 201 255 324 396 464
#
# _framework density 23.424181000000001
#
# number of rings (size 3 to 8) (size 9 to 14) (size 15 to 20)
#    0.000    0.000    4.000    4.800   11.200    0.000 
#    0.000    0.000    0.000    0.000    0.000    0.000 
#    0.000    0.000    0.000    0.000    0.000    0.000 
#
# Total GULP energy -496103.888371 kJ/mol
# GULP energy per Si atom -12402.597209 kJ/mol
# Density = 2.337087 g / cm^3
# Si number density = 23.424181 Si / 1000 Ang^3
#
#
#
# Elastic Constant Matrix: (Units=GPa)
#
#
# Indices 1 2 3 4 5 6 
#
# 1 97.9239 22.8146 27.1760 0.0000 0.0000 0.0000
# 2 22.8146 96.8452 33.7704 0.0000 0.0000 0.0000
# 3 27.1760 33.7704 125.5790 0.0000 0.0000 0.0000
# 4 0.0000 0.0000 0.0000 24.6668 0.0000 0.0000
# 5 0.0000 0.0000 0.0000 0.0000 41.0584 0.0000
# 6 0.0000 0.0000 0.0000 0.0000 0.0000 41.7651
#
#
#
# Elastic Compliance Matrix: (Units=1/GPa)
#
#
# Indices 1 2 3 4 5 6 
#
# 1 0.011198 -0.001978 -0.001891 0.000000 0.000000 0.000000
# 2 -0.001978 0.011744 -0.002730 0.000000 0.000000 0.000000
# 3 -0.001891 -0.002730 0.009107 0.000000 0.000000 0.000000
# 4 0.000000 0.000000 0.000000 0.040540 0.000000 0.000000
# 5 0.000000 0.000000 0.000000 0.000000 0.024356 0.000000
# 6 0.000000 0.000000 0.000000 0.000000 0.000000 0.023943
#
#
# Mechanical properties :
#
#
# Convention : Reuss Voigt Hill
#
# Bulk Modulus (GPa) = 53.05375 54.20779 53.63077
# Shear Modulus (GPa) = 35.62021 37.27053 36.44537
#
# Velocity S-wave (km/s) = 3.90379 3.99320 3.94875
# Velocity P-wave (km/s) = 6.55879 6.66730 6.61327
#
# Compressibility (1/GPa) = 0.01884881
#
# Stress axis : x y z
#
# Youngs Moduli (GPa) = 89.30312 85.15134 109.81146
#
# Poissons Ratio (x) = 0.16847 0.20768
# Poissons Ratio (y) = 0.17668 0.29978
# Poissons Ratio (z) = 0.16889 0.23246
#
# Static dielectric constant tensor:
#      x y z
#    x 4.233090 0.000000 0.000000 
#    y 0.000000 4.041990 0.000000 
#    z 0.000000 0.000000 4.628840 
# 
# 
# High freq. dielectric constant tensor:
#      x y z
#    x 1.931910 0.000000 0.000000 
#    y 0.000000 1.922900 0.000000 
#    z 0.000000 0.000000 1.947750 
# 
# From -- ./inp_files/13238.got.cif
#   From: 2010.03.12/outbox.cif.g09.slc.cpg/sg54_7_cif.got.tgz:13238.got - 2010.04.16 15:00:50.
