data_PCOD8224779
_publ_section_title
;
Structure prediction by ZEFSAII (Michael W. Deem and Ramdas Pophale) SiO2 
 PCOD8224779
Probable space group: P B A M
;
_chemical_formula_sum "Si O2"
_cell_formula_units_Z 64
_cell_length_a 20.085386
_cell_length_b 20.111587
_cell_length_c 9.266186
_cell_angle_alpha 90.000000
_cell_angle_beta 90.000000
_cell_angle_gamma 90.000000
_cell_volume 3743.066457
_symmetry_space_group_name_H-M "P B A M"
_symmetry_group_IT_number 55
_symmetry_cell_setting 'orthorhombic'
loop_
_space_group_symop_operation_xyz
x,y,z
-x,-y,z
1/2+x,1/2-y,-z
1/2-x,1/2+y,-z
-x,-y,-z
x,y,-z
1/2-x,1/2+y,z
1/2+x,1/2-y,z
loop_
_atom_site_type_symbol
_atom_site_label
_atom_site_fract_x
_atom_site_fract_y
_atom_site_fract_z
Si Si1 0.078841 0.809116 0.171784
Si Si2 0.351350 0.839782 0.669280
Si Si3 0.775600 0.178575 0.160602
Si Si4 0.295481 0.477995 0.840186
Si Si5 0.483268 0.807595 0.830569
Si Si6 0.170084 0.493636 0.668276
Si Si7 0.946993 0.445424 0.167713
Si Si8 0.440260 0.456198 0.171820
O O1 0.154663 0.791048 0.221168
O O2 0.027431 0.753713 0.226966
O O3 0.055962 0.880915 0.233744
O O4 0.079652 0.811460 0.000000
O O5 0.353918 0.826082 0.500000
O O6 0.285102 0.804499 0.732238
O O7 0.414581 0.806380 0.744249
O O8 0.351214 0.918217 0.704801
O O9 0.785862 0.100333 0.150600
O O10 0.759010 0.206298 0.000000
O O11 0.243268 0.510069 0.729698
O O12 0.370599 0.491503 0.784339
O O13 0.284433 0.508811 0.000000
O O14 0.524334 0.873622 0.795522
O O15 0.467024 0.802476 0.000000
O O16 0.170996 0.507518 0.500000
O O17 0.119749 0.544704 0.741875
O O18 0.000000 0.500000 0.218450
O O19 0.929557 0.454053 0.000000
O O20 0.500000 0.500000 0.238435
O O21 0.445317 0.453185 0.000000
#
# Coordination Sequence:
#
# PCOD8224779 Si02
#       8
#     8   8   8   8   8   8   8   8
#     4   8  15  28  47  71  94 118 151 190 232 276
#     4  10  19  29  44  69  94 119 155 194 229 271
#     4   8  14  27  47  67  88 114 149 190 227 266
#     4   8  14  25  44  69  93 118 147 183 226 271
#     4  10  19  31  48  68  93 124 156 194 236 277
#     4  10  19  29  44  65  92 122 156 197 231 267
#     4  10  19  30  45  66  91 122 160 196 232 274
#     4   8  13  24  47  77 101 117 142 187 237 279
#
# _framework density 17.098279999999999
#
# number of rings (size 3 to 8) (size 9 to 14) (size 15 to 20)
#    0.000    3.000    1.250    2.250    0.000    1.750 
#    0.000    0.625    2.750    1.125    0.000    0.000 
#    0.000    0.000    0.000    0.000    0.000    0.000 
#
# Total GULP energy -793334.159095 kJ/mol
# GULP energy per Si atom -12395.846236 kJ/mol
# Density = 1.705936 g / cm^3
# Si number density = 17.098280 Si / 1000 Ang^3
#
#
#
# Elastic Constant Matrix: (Units=GPa)
#
#
# Indices 1 2 3 4 5 6 
#
# 1 177.8672 58.8837 61.4574 0.0000 0.0000 0.0000
# 2 58.8837 62.7489 25.2441 0.0000 0.0000 0.0000
# 3 61.4574 25.2441 55.3258 0.0000 0.0000 0.0000
# 4 0.0000 0.0000 0.0000 8.6144 0.0000 0.0000
# 5 0.0000 0.0000 0.0000 0.0000 4.2964 0.0000
# 6 0.0000 0.0000 0.0000 0.0000 0.0000 26.1584
#
#
#
# Elastic Compliance Matrix: (Units=1/GPa)
#
#
# Indices 1 2 3 4 5 6 
#
# 1 0.010985 -0.006613 -0.009185 0.000000 0.000000 0.000000
# 2 -0.006613 0.023501 -0.003377 0.000000 0.000000 0.000000
# 3 -0.009185 -0.003377 0.029819 0.000000 0.000000 0.000000
# 4 0.000000 0.000000 0.000000 0.116084 0.000000 0.000000
# 5 0.000000 0.000000 0.000000 0.000000 0.232755 0.000000
# 6 0.000000 0.000000 0.000000 0.000000 0.000000 0.038229
#
#
# Mechanical properties :
#
#
# Convention : Reuss Voigt Hill
#
# Bulk Modulus (GPa) = 38.52926 65.23470 51.88198
# Shear Modulus (GPa) = 10.03261 17.83762 13.93512
#
# Velocity S-wave (km/s) = 2.42494 3.23343 2.85792
# Velocity P-wave (km/s) = 5.51574 7.22327 6.42647
#
# Compressibility (1/GPa) = 0.02595430
#
# Stress axis : x y z
#
# Youngs Moduli (GPa) = 91.03123 42.55136 33.53608
#
# Poissons Ratio (x) = 0.28141 0.30803
# Poissons Ratio (y) = 0.60202 0.11324
# Poissons Ratio (z) = 0.83614 0.14369
#
# Static dielectric constant tensor:
#      x y z
#    x 3.542670 0.000000 0.000000 
#    y 0.000000 3.010420 0.000000 
#    z 0.000000 0.000000 2.945500 
# 
# 
# High freq. dielectric constant tensor:
#      x y z
#    x 1.675220 0.000000 0.000000 
#    y 0.000000 1.618000 0.000000 
#    z 0.000000 0.000000 1.630400 
# 
# From -- ./inp_files/8208.got.cif
#   From: 2010.03.12/outbox.cif.g09.slc.cpg/sg55_5_cif.got.tgz:8208.got - 2010.04.16 15:19:21.
