data_PCOD8224677
_publ_section_title
;
Structure prediction by ZEFSAII (Michael W. Deem and Ramdas Pophale) SiO2 
 PCOD8224677
Probable space group: P B A M
;
_chemical_formula_sum "Si O2"
_cell_formula_units_Z 40
_cell_length_a 16.208296
_cell_length_b 10.128989
_cell_length_c 12.278426
_cell_angle_alpha 90.000000
_cell_angle_beta 90.000000
_cell_angle_gamma 90.000000
_cell_volume 2015.794036
_symmetry_space_group_name_H-M "P B A M"
_symmetry_group_IT_number 55
_symmetry_cell_setting 'orthorhombic'
loop_
_space_group_symop_operation_xyz
x,y,z
-x,-y,z
1/2+x,1/2-y,-z
1/2-x,1/2+y,-z
-x,-y,-z
x,y,-z
1/2-x,1/2+y,z
1/2+x,1/2-y,z
loop_
_atom_site_type_symbol
_atom_site_label
_atom_site_fract_x
_atom_site_fract_y
_atom_site_fract_z
Si Si1 0.589981 0.461251 0.377693
Si Si2 0.765156 0.956340 0.774775
Si Si3 0.053862 0.319736 0.318841
Si Si4 0.882516 0.403970 0.377405
Si Si5 0.667709 0.195041 0.125337
O O1 0.500000 0.500000 0.331902
O O2 0.603716 0.516751 0.500000
O O3 0.660034 0.516559 0.297346
O O4 0.595456 0.302878 0.379590
O O5 0.698875 0.890165 0.694280
O O6 0.793869 0.839600 0.854623
O O7 0.731043 0.078538 0.843787
O O8 0.086872 0.445934 0.382873
O O9 0.083090 0.323184 0.193038
O O10 0.954324 0.312892 0.324496
O O11 0.863643 0.355261 0.500000
O O12 0.643618 0.181734 0.000000
#
# Coordination Sequence:
#
# PCOD8224677 Si02
#       5
#     8   8   8   8   8
#     4  10  20  34  53  80 118 152 178 218 276 338
#     4  10  22  36  58  85 111 145 190 230 276 334
#     4   9  19  34  54  80 111 146 185 225 273 333
#     4  10  18  33  57  84 114 144 179 227 278 333
#     4  10  21  40  59  78 111 148 190 238 277 315
#
# _framework density 19.843295999999999
#
# number of rings (size 3 to 8) (size 9 to 14) (size 15 to 20)
#    0.000    2.200    0.000    3.600    2.800    0.000 
#    0.000   11.000    0.000    3.000    0.000    0.000 
#    0.000    0.000    0.000    0.000    0.000    0.000 
#
# Total GULP energy -496006.790358 kJ/mol
# GULP energy per Si atom -12400.169759 kJ/mol
# Density = 1.979813 g / cm^3
# Si number density = 19.843296 Si / 1000 Ang^3
#
#
#
# Elastic Constant Matrix: (Units=GPa)
#
#
# Indices 1 2 3 4 5 6 
#
# 1 83.9464 -8.7787 48.4777 0.0000 0.0000 0.0000
# 2 -8.7787 39.3382 14.4496 0.0000 0.0000 0.0000
# 3 48.4777 14.4496 140.3491 0.0000 0.0000 0.0000
# 4 0.0000 0.0000 0.0000 20.3646 0.0000 0.0000
# 5 0.0000 0.0000 0.0000 0.0000 24.3718 0.0000
# 6 0.0000 0.0000 0.0000 0.0000 0.0000 26.6170
#
#
#
# Elastic Compliance Matrix: (Units=1/GPa)
#
#
# Indices 1 2 3 4 5 6 
#
# 1 0.016079 0.005849 -0.006156 0.000000 0.000000 0.000000
# 2 0.005849 0.028548 -0.004960 0.000000 0.000000 0.000000
# 3 -0.006156 -0.004960 0.009762 0.000000 0.000000 0.000000
# 4 0.000000 0.000000 0.000000 0.049105 0.000000 0.000000
# 5 0.000000 0.000000 0.000000 0.000000 0.041031 0.000000
# 6 0.000000 0.000000 0.000000 0.000000 0.000000 0.037570
#
#
# Mechanical properties :
#
#
# Convention : Reuss Voigt Hill
#
# Bulk Modulus (GPa) = 22.80166 41.32566 32.06366
# Shear Modulus (GPa) = 24.12592 28.23635 26.18113
#
# Velocity S-wave (km/s) = 3.49065 3.77632 3.63629
# Velocity P-wave (km/s) = 5.26896 6.31548 5.81581
#
# Compressibility (1/GPa) = 0.04385646
#
# Stress axis : x y z
#
# Youngs Moduli (GPa) = 62.19250 35.02913 102.43740
#
# Poissons Ratio (x) = -0.20490 0.63061
# Poissons Ratio (y) = -0.36379 0.50804
# Poissons Ratio (z) = 0.38286 0.17373
#
# Static dielectric constant tensor:
#      x y z
#    x 3.735670 0.000000 0.000000 
#    y 0.000000 3.557350 0.000000 
#    z 0.000000 0.000000 3.392300 
# 
# 
# High freq. dielectric constant tensor:
#      x y z
#    x 1.772700 0.000000 0.000000 
#    y 0.000000 1.778240 0.000000 
#    z 0.000000 0.000000 1.757760 
# 
# From -- ./inp_files/13002.got.cif
#   From: 2010.03.12/outbox.cif.g09.slc.cpg/sg55_7_cif.got.tgz:13002.got - 2010.04.16 15:19:21.
