data_PCOD8224364
_publ_section_title
;
Structure prediction by ZEFSAII (Michael W. Deem and Ramdas Pophale) SiO2 
 PCOD8224364
Probable space group: P B A M
;
_chemical_formula_sum "Si O2"
_cell_formula_units_Z 64
_cell_length_a 18.237652
_cell_length_b 17.309434
_cell_length_c 13.492314
_cell_angle_alpha 90.000000
_cell_angle_beta 90.000000
_cell_angle_gamma 90.000000
_cell_volume 4259.300011
_symmetry_space_group_name_H-M "P B A M"
_symmetry_group_IT_number 55
_symmetry_cell_setting 'orthorhombic'
loop_
_space_group_symop_operation_xyz
x,y,z
-x,-y,z
1/2+x,1/2-y,-z
1/2-x,1/2+y,-z
-x,-y,-z
x,y,-z
1/2-x,1/2+y,z
1/2+x,1/2-y,z
loop_
_atom_site_type_symbol
_atom_site_label
_atom_site_fract_x
_atom_site_fract_y
_atom_site_fract_z
Si Si1 0.560465 0.610805 0.888066
Si Si2 0.799111 0.309123 0.610670
Si Si3 0.395558 0.561539 0.888104
Si Si4 0.088031 0.798051 0.700340
Si Si5 0.317280 0.429368 0.383629
Si Si6 0.189763 0.331822 0.391411
Si Si7 0.824227 0.903693 0.304824
Si Si8 0.429673 0.723262 0.382978
O O1 0.475330 0.596193 0.865021
O O2 0.604045 0.530821 0.873144
O O3 0.593058 0.676237 0.815305
O O4 0.571018 0.641103 0.000000
O O5 0.825830 0.335206 0.500000
O O6 0.866546 0.280236 0.678806
O O7 0.741808 0.241525 0.596748
O O8 0.758878 0.379704 0.667606
O O9 0.337811 0.601698 0.813544
O O10 0.371500 0.581993 0.000000
O O11 0.117637 0.868140 0.633158
O O12 0.004856 0.779825 0.674711
O O13 0.307285 0.440600 0.500000
O O14 0.238958 0.397698 0.337212
O O15 0.339310 0.508466 0.333803
O O16 0.168157 0.362833 0.500000
O O17 0.115412 0.299039 0.340453
O O18 0.883514 0.853990 0.364300
O O19 0.443009 0.731425 0.500000
#
# Coordination Sequence:
#
# PCOD8224364 Si02
#       8
#     8   8   8   8   8   8   8   8
#     4   9  17  30  45  64  91 120 147 183 232 276
#     4   9  18  30  41  60  96 126 143 174 230 282
#     4   9  17  30  45  64  91 120 147 183 232 276
#     4  11  18  29  45  66  87 119 153 183 228 268
#     4  10  18  27  42  64  92 117 148 183 217 268
#     4   7  14  28  40  54  82 124 150 167 208 263
#     4  11  18  29  45  66  87 119 153 183 228 268
#     4  10  18  27  42  64  92 117 148 183 217 268
#
# _framework density 15.025944000000001
#
# number of rings (size 3 to 8) (size 9 to 14) (size 15 to 20)
#    0.000    2.500    2.500    4.500    0.000    0.500 
#    0.000    1.875    0.000    0.750    0.000    4.375 
#    0.000    0.000    0.000    2.250    0.000    0.250 
#
# Total GULP energy -792923.600536 kJ/mol
# GULP energy per Si atom -12389.431258 kJ/mol
# Density = 1.499174 g / cm^3
# Si number density = 15.025944 Si / 1000 Ang^3
#
#
#
# Elastic Constant Matrix: (Units=GPa)
#
#
# Indices 1 2 3 4 5 6 
#
# 1 67.8737 27.7613 19.4479 0.0000 0.0000 0.0000
# 2 27.7613 18.2746 16.2540 0.0000 0.0000 0.0000
# 3 19.4479 16.2540 81.9344 0.0000 0.0000 0.0000
# 4 0.0000 0.0000 0.0000 18.0951 0.0000 0.0000
# 5 0.0000 0.0000 0.0000 0.0000 19.6457 0.0000
# 6 0.0000 0.0000 0.0000 0.0000 0.0000 21.3915
#
#
#
# Elastic Compliance Matrix: (Units=1/GPa)
#
#
# Indices 1 2 3 4 5 6 
#
# 1 0.039536 -0.062792 0.003072 0.000000 0.000000 0.000000
# 2 -0.062792 0.166173 -0.018061 0.000000 0.000000 0.000000
# 3 0.003072 -0.018061 0.015058 0.000000 0.000000 0.000000
# 4 0.000000 0.000000 0.000000 0.055264 0.000000 0.000000
# 5 0.000000 0.000000 0.000000 0.000000 0.050902 0.000000
# 6 0.000000 0.000000 0.000000 0.000000 0.000000 0.046748
#
#
# Mechanical properties :
#
#
# Convention : Reuss Voigt Hill
#
# Bulk Modulus (GPa) = 15.33595 32.77880 24.05738
# Shear Modulus (GPa) = 9.07480 18.80109 13.93794
#
# Velocity S-wave (km/s) = 2.46019 3.54113 3.04894
# Velocity P-wave (km/s) = 4.27768 6.21141 5.33292
#
# Compressibility (1/GPa) = 0.06520625
#
# Stress axis : x y z
#
# Youngs Moduli (GPa) = 25.29355 6.01782 66.40771
#
# Poissons Ratio (x) = 0.37787 -0.20403
# Poissons Ratio (y) = 1.58824 1.19937
# Poissons Ratio (z) = -0.07771 0.10869
#
# Static dielectric constant tensor:
#      x y z
#    x 2.985370 0.000000 0.000000 
#    y 0.000000 2.849050 0.000000 
#    z 0.000000 0.000000 2.855220 
# 
# 
# High freq. dielectric constant tensor:
#      x y z
#    x 1.559980 0.000000 0.000000 
#    y 0.000000 1.549380 0.000000 
#    z 0.000000 0.000000 1.562290 
# 
# From -- ./inp_files/15050.got.cif
#   From: 2010.03.12/outbox.cif.g09.slc.cpg/sg55_8_cif.got.tgz:15050.got - 2010.04.16 15:19:21.
