data_PCOD8224612
_publ_section_title
;
Structure prediction by ZEFSAII (Michael W. Deem and Ramdas Pophale) SiO2 
 PCOD8224612
Probable space group: P B A M
;
_chemical_formula_sum "Si O2"
_cell_formula_units_Z 48
_cell_length_a 10.350222
_cell_length_b 29.408020
_cell_length_c 8.704428
_cell_angle_alpha 90.000000
_cell_angle_beta 90.000000
_cell_angle_gamma 90.000000
_cell_volume 2649.449752
_symmetry_space_group_name_H-M "P B A M"
_symmetry_group_IT_number 55
_symmetry_cell_setting 'orthorhombic'
loop_
_space_group_symop_operation_xyz
x,y,z
-x,-y,z
1/2+x,1/2-y,-z
1/2-x,1/2+y,-z
-x,-y,-z
x,y,-z
1/2-x,1/2+y,z
1/2+x,1/2-y,z
loop_
_atom_site_type_symbol
_atom_site_label
_atom_site_fract_x
_atom_site_fract_y
_atom_site_fract_z
Si Si1 0.118810 0.531634 0.181740
Si Si2 0.483733 0.119403 0.680043
Si Si3 0.869910 0.020476 0.181376
Si Si4 0.220168 0.785225 0.180221
Si Si5 0.243103 0.886592 0.179510
Si Si6 0.510441 0.784664 0.816996
O O1 0.113084 0.580274 0.264150
O O2 0.247706 0.507355 0.243976
O O3 0.000000 0.500000 0.231733
O O4 0.119755 0.539339 0.000000
O O5 0.472172 0.126266 0.500000
O O6 0.628015 0.104816 0.724762
O O7 0.442667 0.166194 0.761406
O O8 0.858317 0.073977 0.224030
O O9 0.874806 0.014609 0.000000
O O10 0.000000 0.000000 0.256639
O O11 0.182247 0.837423 0.219139
O O12 0.110559 0.752501 0.252431
O O13 0.364535 0.774479 0.244605
O O14 0.221435 0.776937 0.000000
O O15 0.281817 0.889298 0.000000
O O16 0.509819 0.784333 0.000000
#
# Coordination Sequence:
#
# PCOD8224612 Si02
#       6
#     8   8   8   8   8   8
#     4  10  18  32  54  77 100 131 166 206 254 297
#     4  11  21  32  50  76 101 133 175 212 247 293
#     4   9  17  30  50  79 107 129 160 203 253 304
#     4   8  15  28  51  75  97 124 162 204 247 293
#     4   9  16  32  54  75 102 133 166 206 251 299
#     4   9  17  33  52  75 101 129 163 208 258 302
#
# _framework density 18.116970999999999
#
# number of rings (size 3 to 8) (size 9 to 14) (size 15 to 20)
#    0.000    2.667    1.667    2.500    0.000    0.333 
#    3.000    3.333    0.000    2.000    0.000    0.000 
#    0.000    0.000    0.000    0.000    0.000    0.000 
#
# Total GULP energy -595019.249641 kJ/mol
# GULP energy per Si atom -12396.234368 kJ/mol
# Density = 1.807574 g / cm^3
# Si number density = 18.116971 Si / 1000 Ang^3
#
#
#
# Elastic Constant Matrix: (Units=GPa)
#
#
# Indices 1 2 3 4 5 6 
#
# 1 132.7764 96.0419 14.2653 0.0000 0.0000 0.0000
# 2 96.0419 163.6751 16.1500 0.0000 0.0000 0.0000
# 3 14.2653 16.1500 23.2786 0.0000 0.0000 0.0000
# 4 0.0000 0.0000 0.0000 6.4447 0.0000 0.0000
# 5 0.0000 0.0000 0.0000 0.0000 6.0605 0.0000
# 6 0.0000 0.0000 0.0000 0.0000 0.0000 37.4998
#
#
#
# Elastic Compliance Matrix: (Units=1/GPa)
#
#
# Indices 1 2 3 4 5 6 
#
# 1 0.013269 -0.007497 -0.002930 0.000000 0.000000 0.000000
# 2 -0.007497 0.010794 -0.002895 0.000000 0.000000 0.000000
# 3 -0.002930 -0.002895 0.046762 0.000000 0.000000 0.000000
# 4 0.000000 0.000000 0.000000 0.155167 0.000000 0.000000
# 5 0.000000 0.000000 0.000000 0.000000 0.165002 0.000000
# 6 0.000000 0.000000 0.000000 0.000000 0.000000 0.026667
#
#
# Mechanical properties :
#
#
# Convention : Reuss Voigt Hill
#
# Bulk Modulus (GPa) = 22.63381 63.62718 43.13049
# Shear Modulus (GPa) = 10.89247 22.88585 16.88916
#
# Velocity S-wave (km/s) = 2.45466 3.55805 3.05655
# Velocity P-wave (km/s) = 4.53366 7.21637 6.02620
#
# Compressibility (1/GPa) = 0.04418169
#
# Stress axis : x y z
#
# Youngs Moduli (GPa) = 75.36299 92.64071 21.38493
#
# Poissons Ratio (x) = 0.69453 0.06266
# Poissons Ratio (y) = 0.56499 0.06190
# Poissons Ratio (z) = 0.22083 0.26816
#
# Static dielectric constant tensor:
#      x y z
#    x 3.590500 0.000000 0.000000 
#    y 0.000000 3.593220 0.000000 
#    z 0.000000 0.000000 2.874260 
# 
# 
# High freq. dielectric constant tensor:
#      x y z
#    x 1.687240 0.000000 0.000000 
#    y 0.000000 1.715600 0.000000 
#    z 0.000000 0.000000 1.655680 
# 
# From -- ./inp_files/2850.got.cif
#   From: 2010.03.12/outbox.cif.g09.slc.cpg/sg55_2_cif.got.tgz:2850.got - 2010.04.16 15:19:21.
