data_PCOD8224363
_publ_section_title
;
Structure prediction by ZEFSAII (Michael W. Deem and Ramdas Pophale) SiO2 
 PCOD8224363
Probable space group: P B A M
;
_chemical_formula_sum "Si O2"
_cell_formula_units_Z 56
_cell_length_a 29.033557
_cell_length_b 13.520183
_cell_length_c 9.172024
_cell_angle_alpha 90.000000
_cell_angle_beta 90.000000
_cell_angle_gamma 90.000000
_cell_volume 3600.377164
_symmetry_space_group_name_H-M "P B A M"
_symmetry_group_IT_number 55
_symmetry_cell_setting 'orthorhombic'
loop_
_space_group_symop_operation_xyz
x,y,z
-x,-y,z
1/2+x,1/2-y,-z
1/2-x,1/2+y,-z
-x,-y,-z
x,y,-z
1/2-x,1/2+y,z
1/2+x,1/2-y,z
loop_
_atom_site_type_symbol
_atom_site_label
_atom_site_fract_x
_atom_site_fract_y
_atom_site_fract_z
Si Si1 0.182874 0.231940 0.331218
Si Si2 0.504781 0.617214 0.660786
Si Si3 0.682997 0.716765 0.167795
Si Si4 0.907521 0.097182 0.169766
Si Si5 0.404554 0.607702 0.328729
Si Si6 0.227738 0.405097 0.170321
Si Si7 0.726996 0.889545 0.669633
O O1 0.183553 0.263925 0.500000
O O2 0.134112 0.186268 0.283868
O O3 0.190600 0.327952 0.232742
O O4 0.221701 0.149930 0.300127
O O5 0.500000 0.500000 0.654668
O O6 0.517061 0.658679 0.500000
O O7 0.545335 0.647201 0.771194
O O8 0.454361 0.655963 0.712177
O O9 0.633094 0.673515 0.203331
O O10 0.720886 0.633314 0.204169
O O11 0.689904 0.811827 0.269156
O O12 0.687582 0.749790 0.000000
O O13 0.895514 0.994151 0.245561
O O14 0.913388 0.076334 0.000000
O O15 0.402574 0.582703 0.500000
O O16 0.220202 0.508304 0.248540
O O17 0.218769 0.418791 0.000000
O O18 0.717390 0.905714 0.500000
#
# Coordination Sequence:
#
# PCOD8224363 Si02
#       7
#     8   8   8   8   8   8   8
#     4   9  18  31  46  65  87 113 148 182 211 249
#     4   8  15  27  41  59  85 116 145 172 211 259
#     4   9  19  32  44  62  88 118 148 175 212 258
#     4  10  18  27  42  64  89 116 146 180 213 250
#     4   9  17  29  44  62  88 119 145 175 215 256
#     4  10  19  31  46  63  88 118 144 176 216 257
#     4  10  19  30  46  66  87 113 146 183 215 247
#
# _framework density 15.553926000000001
#
# number of rings (size 3 to 8) (size 9 to 14) (size 15 to 20)
#    0.000    2.714    0.000    3.000    0.000    5.429 
#    0.000    0.000    0.000    0.000    0.000    1.000 
#    0.000    8.000    0.000    0.000    0.000    0.000 
#
# Total GULP energy -694359.188990 kJ/mol
# GULP energy per Si atom -12399.271232 kJ/mol
# Density = 1.551852 g / cm^3
# Si number density = 15.553926 Si / 1000 Ang^3
#
#
#
# Elastic Constant Matrix: (Units=GPa)
#
#
# Indices 1 2 3 4 5 6 
#
# 1 122.7092 54.1302 57.0393 0.0000 0.0000 0.0000
# 2 54.1302 96.4737 64.7707 0.0000 0.0000 0.0000
# 3 57.0393 64.7707 92.7332 0.0000 0.0000 0.0000
# 4 0.0000 0.0000 0.0000 27.0725 0.0000 0.0000
# 5 0.0000 0.0000 0.0000 0.0000 25.0548 0.0000
# 6 0.0000 0.0000 0.0000 0.0000 0.0000 18.3731
#
#
#
# Elastic Compliance Matrix: (Units=1/GPa)
#
#
# Indices 1 2 3 4 5 6 
#
# 1 0.011956 -0.003335 -0.005025 0.000000 0.000000 0.000000
# 2 -0.003335 0.020449 -0.012231 0.000000 0.000000 0.000000
# 3 -0.005025 -0.012231 0.022417 0.000000 0.000000 0.000000
# 4 0.000000 0.000000 0.000000 0.036938 0.000000 0.000000
# 5 0.000000 0.000000 0.000000 0.000000 0.039913 0.000000
# 6 0.000000 0.000000 0.000000 0.000000 0.000000 0.054427
#
#
# Mechanical properties :
#
#
# Convention : Reuss Voigt Hill
#
# Bulk Modulus (GPa) = 73.31296 73.75515 73.53405
# Shear Modulus (GPa) = 21.56765 23.16513 22.36639
#
# Velocity S-wave (km/s) = 3.72780 3.86339 3.79620
# Velocity P-wave (km/s) = 8.10960 8.21115 8.16053
#
# Compressibility (1/GPa) = 0.01364015
#
# Stress axis : x y z
#
# Youngs Moduli (GPa) = 83.63887 48.90321 44.60812
#
# Poissons Ratio (x) = 0.16309 0.22415
# Poissons Ratio (y) = 0.27893 0.54561
# Poissons Ratio (z) = 0.42027 0.59815
#
# Static dielectric constant tensor:
#      x y z
#    x 3.269620 0.000000 0.000000 
#    y 0.000000 2.689350 0.000000 
#    z 0.000000 0.000000 3.060620 
# 
# 
# High freq. dielectric constant tensor:
#      x y z
#    x 1.596100 0.000000 0.000000 
#    y 0.000000 1.563950 0.000000 
#    z 0.000000 0.000000 1.606240 
# 
# From -- ./inp_files/6885.got.cif
#   From: 2010.03.12/outbox.cif.g09.slc.cpg/sg55_4_cif.got.tgz:6885.got - 2010.04.16 15:19:21.
