data_PCOD8224521
_publ_section_title
;
Structure prediction by ZEFSAII (Michael W. Deem and Ramdas Pophale) SiO2 
 PCOD8224521
Probable space group: P B A M
;
_chemical_formula_sum "Si O2"
_cell_formula_units_Z 52
_cell_length_a 33.070516
_cell_length_b 4.942273
_cell_length_c 18.032203
_cell_angle_alpha 90.000000
_cell_angle_beta 90.000000
_cell_angle_gamma 90.000000
_cell_volume 2947.246701
_symmetry_space_group_name_H-M "P B A M"
_symmetry_group_IT_number 55
_symmetry_cell_setting 'orthorhombic'
loop_
_space_group_symop_operation_xyz
x,y,z
-x,-y,z
1/2+x,1/2-y,-z
1/2-x,1/2+y,-z
-x,-y,-z
x,y,-z
1/2-x,1/2+y,z
1/2+x,1/2-y,z
loop_
_atom_site_type_symbol
_atom_site_label
_atom_site_fract_x
_atom_site_fract_y
_atom_site_fract_z
Si Si1 0.222952 0.154751 0.417437
Si Si2 0.721653 0.359222 0.840373
Si Si3 0.525416 0.729450 0.349957
Si Si4 0.884669 0.416655 0.337418
Si Si5 0.775657 0.964886 0.000000
Si Si6 0.444724 0.402123 0.500000
Si Si7 0.161200 0.105567 0.291828
Si Si8 0.105539 0.413464 0.500000
O O1 0.203774 0.192879 0.500000
O O2 0.238909 0.851307 0.406754
O O3 0.189731 0.220189 0.356591
O O4 0.758604 0.566729 0.828164
O O5 0.684843 0.406060 0.785127
O O6 0.701741 0.390280 0.923019
O O7 0.500000 0.500000 0.301847
O O8 0.530815 0.551466 0.425171
O O9 0.500000 0.000000 0.359550
O O10 0.569829 0.812752 0.320476
O O11 0.853580 0.191175 0.311266
O O12 0.873568 0.491075 0.423257
O O13 0.876388 0.684261 0.287848
O O14 0.734487 0.783414 0.000000
O O15 0.404452 0.592947 0.500000
O O16 0.436207 0.079937 0.500000
#
# Coordination Sequence:
#
# PCOD8224521 Si02
#       8
#     8   8   8   8   4   4   8   4
#     4  10  21  35  49  64  84 119 169 210 240 272
#     4  10  19  34  55  78 103 134 166 198 243 294
#     4  11  20  34  51  67  91 122 160 208 256 310
#     4  11  24  34  48  71  94 127 167 205 258 297
#     4   8  16  30  52  80 104 126 160 196 232 296
#     4  10  18  31  50  68  82 109 155 208 257 301
#     4  12  22  34  51  70 100 129 162 209 251 292
#     4  10  20  35  46  62  92 121 159 208 251 301
#
# _framework density 17.643585000000002
#
# number of rings (size 3 to 8) (size 9 to 14) (size 15 to 20)
#    0.000    1.538    0.000    7.846    2.154    0.000 
#    0.000    0.000    0.000    0.000    0.000    0.000 
#    0.000    0.000    0.000   13.846    0.000    0.000 
#
# Total GULP energy -644239.009121 kJ/mol
# GULP energy per Si atom -12389.211714 kJ/mol
# Density = 1.760343 g / cm^3
# Si number density = 17.643585 Si / 1000 Ang^3
#
#
#
# Elastic Constant Matrix: (Units=GPa)
#
#
# Indices 1 2 3 4 5 6 
#
# 1 60.7658 18.3238 51.5274 0.0000 0.0000 0.0000
# 2 18.3238 90.6410 28.3892 0.0000 0.0000 0.0000
# 3 51.5274 28.3892 99.6972 0.0000 0.0000 0.0000
# 4 0.0000 0.0000 0.0000 1.4702 0.0000 0.0000
# 5 0.0000 0.0000 0.0000 0.0000 4.3171 0.0000
# 6 0.0000 0.0000 0.0000 0.0000 0.0000 36.5928
#
#
#
# Elastic Compliance Matrix: (Units=1/GPa)
#
#
# Indices 1 2 3 4 5 6 
#
# 1 0.029435 -0.001302 -0.014843 0.000000 0.000000 0.000000
# 2 -0.001302 0.012170 -0.002793 0.000000 0.000000 0.000000
# 3 -0.014843 -0.002793 0.018497 0.000000 0.000000 0.000000
# 4 0.000000 0.000000 0.000000 0.680186 0.000000 0.000000
# 5 0.000000 0.000000 0.000000 0.000000 0.231637 0.000000
# 6 0.000000 0.000000 0.000000 0.000000 0.000000 0.027328
#
#
# Mechanical properties :
#
#
# Convention : Reuss Voigt Hill
#
# Bulk Modulus (GPa) = 44.98791 49.73166 47.35979
# Shear Modulus (GPa) = 4.78681 18.66693 11.72687
#
# Velocity S-wave (km/s) = 1.64892 3.25622 2.58088
# Velocity P-wave (km/s) = 5.40174 6.51040 5.98181
#
# Compressibility (1/GPa) = 0.02222819
#
# Stress axis : x y z
#
# Youngs Moduli (GPa) = 33.97299 82.16651 54.06335
#
# Poissons Ratio (x) = 0.10696 0.80244
# Poissons Ratio (y) = 0.04423 0.15099
# Poissons Ratio (z) = 0.50425 0.22947
#
# Static dielectric constant tensor:
#      x y z
#    x 3.170100 0.000000 0.000000 
#    y 0.000000 3.461530 0.000000 
#    z 0.000000 0.000000 3.148610 
# 
# 
# High freq. dielectric constant tensor:
#      x y z
#    x 1.663770 0.000000 0.000000 
#    y 0.000000 1.715180 0.000000 
#    z 0.000000 0.000000 1.630850 
# 
# From -- ./inp_files/22089.got.cif
#   From: 2010.03.12/outbox.cif.g09.slc.cpg/sg55_12_cif.got.tgz:22089.got - 2010.04.16 15:19:21.
