data_PCOD8224485
_publ_section_title
;
Structure prediction by ZEFSAII (Michael W. Deem and Ramdas Pophale) SiO2 
 PCOD8224485
Probable space group: P B A M
;
_chemical_formula_sum "Si O2"
_cell_formula_units_Z 64
_cell_length_a 17.346134
_cell_length_b 22.507235
_cell_length_c 9.026262
_cell_angle_alpha 90.000000
_cell_angle_beta 90.000000
_cell_angle_gamma 90.000000
_cell_volume 3523.974668
_symmetry_space_group_name_H-M "P B A M"
_symmetry_group_IT_number 55
_symmetry_cell_setting 'orthorhombic'
loop_
_space_group_symop_operation_xyz
x,y,z
-x,-y,z
1/2+x,1/2-y,-z
1/2-x,1/2+y,-z
-x,-y,-z
x,y,-z
1/2-x,1/2+y,z
1/2+x,1/2-y,z
loop_
_atom_site_type_symbol
_atom_site_label
_atom_site_fract_x
_atom_site_fract_y
_atom_site_fract_z
Si Si1 0.167255 0.785581 0.676213
Si Si2 0.590405 0.932924 0.175092
Si Si3 0.735538 0.118133 0.174676
Si Si4 0.578782 0.065507 0.826545
Si Si5 0.292445 0.154434 0.324702
Si Si6 0.533380 0.631971 0.327360
Si Si7 0.867875 0.897056 0.323942
Si Si8 0.151906 0.968496 0.673482
O O1 0.173413 0.791340 0.500000
O O2 0.237264 0.822360 0.745429
O O3 0.177199 0.718266 0.731165
O O4 0.086171 0.813691 0.735093
O O5 0.504850 0.910282 0.224447
O O6 0.653886 0.895296 0.257871
O O7 0.598354 0.000101 0.236125
O O8 0.604048 0.926671 0.000000
O O9 0.645230 0.111968 0.216367
O O10 0.778670 0.059908 0.234313
O O11 0.749207 0.123099 0.000000
O O12 0.573923 0.055167 0.000000
O O13 0.296955 0.150154 0.500000
O O14 0.204443 0.142815 0.271136
O O15 0.524510 0.642799 0.500000
O O16 0.447340 0.630698 0.256657
O O17 0.574123 0.568843 0.295574
O O18 0.873746 0.898665 0.500000
O O19 0.859215 0.964708 0.267557
O O20 0.173220 0.966325 0.500000
#
# Coordination Sequence:
#
# PCOD8224485 Si02
#       8
#     8   8   8   8   8   8   8   8
#     4   9  19  35  49  65  95 130 165 200 236 281
#     4   9  17  33  54  71  95 131 162 192 242 296
#     4  10  18  30  50  73  96 125 162 198 235 279
#     4   8  16  31  51  75  98 124 163 201 233 291
#     4  10  20  33  47  71 101 124 157 206 248 279
#     4   8  14  27  47  67  89 124 165 193 221 278
#     4   9  16  27  47  72  95 122 156 195 238 287
#     4   9  16  27  47  74  99 122 153 193 239 288
#
# _framework density 18.161311000000001
#
# number of rings (size 3 to 8) (size 9 to 14) (size 15 to 20)
#    0.000    3.000    0.000    3.000    0.000    2.000 
#    2.250    3.125    0.000    9.000    0.000    0.000 
#    0.000    0.000    0.000    0.000    0.000    0.000 
#
# Total GULP energy -793175.903439 kJ/mol
# GULP energy per Si atom -12393.373491 kJ/mol
# Density = 1.811997 g / cm^3
# Si number density = 18.161311 Si / 1000 Ang^3
#
#
#
# Elastic Constant Matrix: (Units=GPa)
#
#
# Indices 1 2 3 4 5 6 
#
# 1 125.6241 46.5611 20.8426 0.0000 0.0000 0.0000
# 2 46.5611 88.4481 13.6413 0.0000 0.0000 0.0000
# 3 20.8426 13.6413 14.3207 0.0000 0.0000 0.0000
# 4 0.0000 0.0000 0.0000 18.1102 0.0000 0.0000
# 5 0.0000 0.0000 0.0000 0.0000 21.4675 0.0000
# 6 0.0000 0.0000 0.0000 0.0000 0.0000 18.6054
#
#
#
# Elastic Compliance Matrix: (Units=1/GPa)
#
#
# Indices 1 2 3 4 5 6 
#
# 1 0.011650 -0.004124 -0.013028 0.000000 0.000000 0.000000
# 2 -0.004124 0.014713 -0.008013 0.000000 0.000000 0.000000
# 3 -0.013028 -0.008013 0.096423 0.000000 0.000000 0.000000
# 4 0.000000 0.000000 0.000000 0.055218 0.000000 0.000000
# 5 0.000000 0.000000 0.000000 0.000000 0.046582 0.000000
# 6 0.000000 0.000000 0.000000 0.000000 0.000000 0.053748
#
#
# Mechanical properties :
#
#
# Convention : Reuss Voigt Hill
#
# Bulk Modulus (GPa) = 13.80138 43.38699 28.59419
# Shear Modulus (GPa) = 14.17176 21.45981 17.81579
#
# Velocity S-wave (km/s) = 2.79646 3.44120 3.13545
# Velocity P-wave (km/s) = 4.24768 6.30324 5.37464
#
# Compressibility (1/GPa) = 0.07245651
#
# Stress axis : x y z
#
# Youngs Moduli (GPa) = 85.83627 67.96854 10.37099
#
# Poissons Ratio (x) = 0.28027 0.13511
# Poissons Ratio (y) = 0.35395 0.08310
# Poissons Ratio (z) = 1.11825 0.54464
#
# Static dielectric constant tensor:
#      x y z
#    x 3.830320 0.000000 0.000000 
#    y 0.000000 3.366200 0.000000 
#    z 0.000000 0.000000 2.934300 
# 
# 
# High freq. dielectric constant tensor:
#      x y z
#    x 1.717370 0.000000 0.000000 
#    y 0.000000 1.693620 0.000000 
#    z 0.000000 0.000000 1.660060 
# 
# From -- ./inp_files/8201.got.cif
#   From: 2010.03.12/outbox.cif.g09.slc.cpg/sg55_5_cif.got.tgz:8201.got - 2010.04.16 15:19:21.
