data_PCOD8224342
_publ_section_title
;
Structure prediction by ZEFSAII (Michael W. Deem and Ramdas Pophale) SiO2 
 PCOD8224342
Probable space group: P B A M
;
_chemical_formula_sum "Si O2"
_cell_formula_units_Z 64
_cell_length_a 23.712628
_cell_length_b 15.409348
_cell_length_c 8.982917
_cell_angle_alpha 90.000000
_cell_angle_beta 90.000000
_cell_angle_gamma 90.000000
_cell_volume 3282.323169
_symmetry_space_group_name_H-M "P B A M"
_symmetry_group_IT_number 55
_symmetry_cell_setting 'orthorhombic'
loop_
_space_group_symop_operation_xyz
x,y,z
-x,-y,z
1/2+x,1/2-y,-z
1/2-x,1/2+y,-z
-x,-y,-z
x,y,-z
1/2-x,1/2+y,z
1/2+x,1/2-y,z
loop_
_atom_site_type_symbol
_atom_site_label
_atom_site_fract_x
_atom_site_fract_y
_atom_site_fract_z
Si Si1 0.748057 0.850266 0.822641
Si Si2 0.374531 0.099775 0.824778
Si Si3 0.364862 0.416485 0.825704
Si Si4 0.374333 0.905286 0.825132
Si Si5 0.142877 0.088049 0.324039
Si Si6 0.752861 0.654592 0.175642
Si Si7 0.447768 0.258297 0.825664
Si Si8 0.434399 0.747642 0.675816
O O1 0.687829 0.882590 0.761331
O O2 0.795286 0.909604 0.747831
O O3 0.756917 0.752483 0.764756
O O4 0.753299 0.859611 0.000000
O O5 0.419331 0.169593 0.763402
O O6 0.394370 0.002526 0.783921
O O7 0.370261 0.113099 0.000000
O O8 0.387006 0.501049 0.737777
O O9 0.302837 0.392211 0.761602
O O10 0.406190 0.337280 0.791582
O O11 0.363288 0.437966 0.000000
O O12 0.309121 0.896041 0.775000
O O13 0.414213 0.839495 0.739084
O O14 0.380255 0.886442 0.000000
O O15 0.147127 0.083798 0.500000
O O16 0.107438 0.171585 0.271054
O O17 0.746217 0.658210 0.000000
O O18 0.504444 0.275592 0.736681
O O19 0.461618 0.250640 0.000000
O O20 0.436787 0.754350 0.500000
#
# Coordination Sequence:
#
# PCOD8224342 Si02
#       8
#     8   8   8   8   8   8   8   8
#     4  10  17  33  62  89 116 146 180 226 281 339
#     4   9  18  34  60  91 118 142 177 232 288 337
#     4  10  20  37  62  90 116 144 184 234 287 340
#     4  10  19  34  59  88 114 146 185 224 275 335
#     4  11  24  39  55  81 117 155 192 230 278 333
#     4   9  16  30  58  92 117 141 176 224 281 337
#     4  10  21  39  62  86 111 143 189 240 286 337
#     4  11  25  42  56  75 111 155 195 237 281 327
#
# _framework density 19.498384000000001
#
# number of rings (size 3 to 8) (size 9 to 14) (size 15 to 20)
#    0.000    2.000    2.500    1.500    0.000    5.000 
#    0.000    9.375    0.000    0.000    0.000    0.000 
#    0.000    0.000    0.000    0.000    0.000    0.000 
#
# Total GULP energy -793691.800898 kJ/mol
# GULP energy per Si atom -12401.434389 kJ/mol
# Density = 1.945400 g / cm^3
# Si number density = 19.498384 Si / 1000 Ang^3
#
#
#
# Elastic Constant Matrix: (Units=GPa)
#
#
# Indices 1 2 3 4 5 6 
#
# 1 94.0247 32.8129 29.4860 0.0000 0.0000 0.0000
# 2 32.8129 127.4820 36.1224 0.0000 0.0000 0.0000
# 3 29.4860 36.1224 42.1335 0.0000 0.0000 0.0000
# 4 0.0000 0.0000 0.0000 17.8653 0.0000 0.0000
# 5 0.0000 0.0000 0.0000 0.0000 9.6137 0.0000
# 6 0.0000 0.0000 0.0000 0.0000 0.0000 13.2320
#
#
#
# Elastic Compliance Matrix: (Units=1/GPa)
#
#
# Indices 1 2 3 4 5 6 
#
# 1 0.013736 -0.001072 -0.008693 0.000000 0.000000 0.000000
# 2 -0.001072 0.010445 -0.008204 0.000000 0.000000 0.000000
# 3 -0.008693 -0.008204 0.036852 0.000000 0.000000 0.000000
# 4 0.000000 0.000000 0.000000 0.055975 0.000000 0.000000
# 5 0.000000 0.000000 0.000000 0.000000 0.104018 0.000000
# 6 0.000000 0.000000 0.000000 0.000000 0.000000 0.075574
#
#
# Mechanical properties :
#
#
# Convention : Reuss Voigt Hill
#
# Bulk Modulus (GPa) = 39.85249 51.16474 45.50861
# Shear Modulus (GPa) = 14.66688 19.15680 16.91184
#
# Velocity S-wave (km/s) = 2.74562 3.13786 2.94827
# Velocity P-wave (km/s) = 5.52580 6.27899 5.91439
#
# Compressibility (1/GPa) = 0.02509254
#
# Stress axis : x y z
#
# Youngs Moduli (GPa) = 72.80169 95.73984 27.13566
#
# Poissons Ratio (x) = 0.10265 0.23590
# Poissons Ratio (y) = 0.07806 0.22263
# Poissons Ratio (z) = 0.63290 0.78549
#
# Static dielectric constant tensor:
#      x y z
#    x 3.594560 0.000000 0.000000 
#    y 0.000000 3.754170 0.000000 
#    z 0.000000 0.000000 3.138620 
# 
# 
# High freq. dielectric constant tensor:
#      x y z
#    x 1.759360 0.000000 0.000000 
#    y 0.000000 1.777870 0.000000 
#    z 0.000000 0.000000 1.717750 
# 
# From -- ./inp_files/6556.got.cif
#   From: 2010.03.12/outbox.cif.g09.slc.cpg/sg55_4_cif.got.tgz:6556.got - 2010.04.16 15:19:21.
