data_PCOD8224195
_publ_section_title
;
Structure prediction by ZEFSAII (Michael W. Deem and Ramdas Pophale) SiO2 
 PCOD8224195
Probable space group: P C C A
;
_chemical_formula_sum "Si O2"
_cell_formula_units_Z 40
_cell_length_a 8.700973
_cell_length_b 19.952174
_cell_length_c 9.464301
_cell_angle_alpha 90.000000
_cell_angle_beta 90.000000
_cell_angle_gamma 90.000000
_cell_volume 1643.034144
_symmetry_space_group_name_H-M "P C C A"
_symmetry_group_IT_number 54
_symmetry_cell_setting 'orthorhombic'
loop_
_space_group_symop_operation_xyz
x,y,z
1/2-x,-y,z
1/2+x,-y,1/2-z
-x,y,1/2-z
-x,-y,-z
1/2+x,y,-z
1/2-x,y,1/2+z
x,-y,1/2+z
loop_
_atom_site_type_symbol
_atom_site_label
_atom_site_fract_x
_atom_site_fract_y
_atom_site_fract_z
Si Si1 0.716784 0.345142 0.501421
Si Si2 0.041967 0.747090 0.591497
Si Si3 0.573525 0.874242 0.598738
Si Si4 0.120153 0.941767 0.881498
Si Si5 0.172933 0.568188 0.254764
O O1 0.548122 0.319395 0.541127
O O2 0.785418 0.279213 0.425332
O O3 0.722440 0.409692 0.401394
O O4 0.799592 0.368321 0.644344
O O5 0.022878 0.812229 0.496425
O O6 0.000000 0.768560 0.750000
O O7 0.500000 0.865079 0.750000
O O8 0.759757 0.878642 0.614488
O O9 0.488938 0.938966 0.522827
O O10 0.000000 0.941924 0.750000
O O11 0.250000 0.000000 0.874366
O O12 0.250000 0.500000 0.306078
O O13 0.000000 0.547242 0.250000
#
# Coordination Sequence:
#
# PCOD8224195 Si02
#       5
#     8   8   8   8   8
#     4  12  26  46  73 106 145 195 251 313 388 461
#     4  12  27  48  75 106 149 198 252 317 380 462
#     4  12  28  47  78 119 158 205 265 326 391 461
#     4  12  27  53  82 118 163 213 261 319 386 462
#     4  12  28  46  73 108 147 193 251 316 387 466
#
# _framework density 24.345203999999999
#
# number of rings (size 3 to 8) (size 9 to 14) (size 15 to 20)
#    0.000    0.000    4.000    4.800    5.600    6.400 
#    0.000    1.000    0.000    0.000    0.000    0.000 
#    0.000    0.000    0.000    0.000    0.000    0.000 
#
# Total GULP energy -495775.478606 kJ/mol
# GULP energy per Si atom -12394.386965 kJ/mol
# Density = 2.428979 g / cm^3
# Si number density = 24.345204 Si / 1000 Ang^3
#
#
#
# Elastic Constant Matrix: (Units=GPa)
#
#
# Indices 1 2 3 4 5 6 
#
# 1 151.6379 32.8297 58.0003 0.0000 0.0000 0.0000
# 2 32.8297 113.6390 49.7090 0.0000 0.0000 0.0000
# 3 58.0003 49.7090 175.2874 0.0000 0.0000 0.0000
# 4 0.0000 0.0000 0.0000 30.9186 0.0000 0.0000
# 5 0.0000 0.0000 0.0000 0.0000 42.6224 0.0000
# 6 0.0000 0.0000 0.0000 0.0000 0.0000 42.7727
#
#
#
# Elastic Compliance Matrix: (Units=1/GPa)
#
#
# Indices 1 2 3 4 5 6 
#
# 1 0.007707 -0.001268 -0.002190 0.000000 0.000000 0.000000
# 2 -0.001268 0.010255 -0.002488 0.000000 0.000000 0.000000
# 3 -0.002190 -0.002488 0.007135 0.000000 0.000000 0.000000
# 4 0.000000 0.000000 0.000000 0.032343 0.000000 0.000000
# 5 0.000000 0.000000 0.000000 0.000000 0.023462 0.000000
# 6 0.000000 0.000000 0.000000 0.000000 0.000000 0.023379
#
#
# Mechanical properties :
#
#
# Convention : Reuss Voigt Hill
#
# Bulk Modulus (GPa) = 75.74206 80.18250 77.96228
# Shear Modulus (GPa) = 41.46733 43.26443 42.36588
#
# Velocity S-wave (km/s) = 4.13159 4.22017 4.17611
# Velocity P-wave (km/s) = 7.34434 7.53350 7.43952
#
# Compressibility (1/GPa) = 0.01320270
#
# Stress axis : x y z
#
# Youngs Moduli (GPa) = 129.75042 97.51602 140.14629
#
# Poissons Ratio (x) = 0.12369 0.30699
# Poissons Ratio (y) = 0.16457 0.34874
# Poissons Ratio (z) = 0.28422 0.24266
#
# Static dielectric constant tensor:
#      x y z
#    x 4.970970 0.000000 0.000000 
#    y 0.000000 4.369680 0.000000 
#    z 0.000000 0.000000 4.331080 
# 
# 
# High freq. dielectric constant tensor:
#      x y z
#    x 1.987960 0.000000 0.000000 
#    y 0.000000 1.976620 0.000000 
#    z 0.000000 0.000000 1.973290 
# 
# From -- ./inp_files/2540.got.cif
#   From: 2010.03.12/outbox.cif.g09.slc.cpg/sg54_2_cif.got.tgz:2540.got - 2010.04.16 15:00:50.
