data_PCOD8224410
_publ_section_title
;
Structure prediction by ZEFSAII (Michael W. Deem and Ramdas Pophale) SiO2 
 PCOD8224410
Probable space group: P B A M
;
_chemical_formula_sum "Si O2"
_cell_formula_units_Z 56
_cell_length_a 18.168053
_cell_length_b 20.847918
_cell_length_c 9.125954
_cell_angle_alpha 90.000000
_cell_angle_beta 90.000000
_cell_angle_gamma 90.000000
_cell_volume 3456.601815
_symmetry_space_group_name_H-M "P B A M"
_symmetry_group_IT_number 55
_symmetry_cell_setting 'orthorhombic'
loop_
_space_group_symop_operation_xyz
x,y,z
-x,-y,z
1/2+x,1/2-y,-z
1/2-x,1/2+y,-z
-x,-y,-z
x,y,-z
1/2-x,1/2+y,z
1/2+x,1/2-y,z
loop_
_atom_site_type_symbol
_atom_site_label
_atom_site_fract_x
_atom_site_fract_y
_atom_site_fract_z
Si Si1 0.918236 0.756392 0.670607
Si Si2 0.085614 0.747772 0.674108
Si Si3 0.149340 0.624753 0.174083
Si Si4 0.336998 0.871346 0.329072
Si Si5 0.796423 0.817273 0.838267
Si Si6 0.290394 0.315251 0.164914
Si Si7 0.414285 0.004166 0.330528
O O1 0.908437 0.763377 0.500000
O O2 0.890262 0.686459 0.722358
O O3 0.868827 0.813530 0.738321
O O4 0.002358 0.765406 0.717586
O O5 0.097297 0.743777 0.500000
O O6 0.102724 0.678684 0.742613
O O7 0.135527 0.804269 0.741605
O O8 0.236321 0.630459 0.215611
O O9 0.122536 0.555800 0.225258
O O10 0.138451 0.633858 0.000000
O O11 0.318606 0.865687 0.500000
O O12 0.259859 0.869415 0.241546
O O13 0.378289 0.936553 0.290597
O O14 0.754309 0.750205 0.836716
O O15 0.824417 0.834527 0.000000
O O16 0.310585 0.337103 0.000000
O O17 0.401341 0.022948 0.500000
O O18 0.500000 0.000000 0.294500
#
# Coordination Sequence:
#
# PCOD8224410 Si02
#       7
#     8   8   8   8   8   8   8
#     4   9  17  28  45  68  90 114 146 184 224 266
#     4  10  18  29  46  68  93 119 148 185 228 270
#     4  10  20  32  45  65  92 122 156 188 222 266
#     4   9  17  30  46  64  89 121 154 185 219 261
#     4   8  16  29  43  61  87 116 146 182 221 265
#     4   9  17  29  44  64  89 117 150 185 223 267
#     4  10  20  33  48  67  92 123 158 190 220 260
#
# _framework density 16.200882
#
# number of rings (size 3 to 8) (size 9 to 14) (size 15 to 20)
#    0.000    2.714    0.000    3.000    0.000    8.286 
#    0.000    2.857    0.000    0.000    0.000    1.000 
#    0.000    8.000    0.000    0.000    0.000    0.000 
#
# Total GULP energy -694253.230404 kJ/mol
# GULP energy per Si atom -12397.379114 kJ/mol
# Density = 1.616401 g / cm^3
# Si number density = 16.200882 Si / 1000 Ang^3
#
#
#
# Elastic Constant Matrix: (Units=GPa)
#
#
# Indices 1 2 3 4 5 6 
#
# 1 142.4794 56.2075 67.8490 0.0000 0.0000 0.0000
# 2 56.2075 60.1621 34.2080 0.0000 0.0000 0.0000
# 3 67.8490 34.2080 76.4904 0.0000 0.0000 0.0000
# 4 0.0000 0.0000 0.0000 21.8476 0.0000 0.0000
# 5 0.0000 0.0000 0.0000 0.0000 21.8151 0.0000
# 6 0.0000 0.0000 0.0000 0.0000 0.0000 26.1145
#
#
#
# Elastic Compliance Matrix: (Units=1/GPa)
#
#
# Indices 1 2 3 4 5 6 
#
# 1 0.014840 -0.008555 -0.009337 0.000000 0.000000 0.000000
# 2 -0.008555 0.027222 -0.004585 0.000000 0.000000 0.000000
# 3 -0.009337 -0.004585 0.023407 0.000000 0.000000 0.000000
# 4 0.000000 0.000000 0.000000 0.045772 0.000000 0.000000
# 5 0.000000 0.000000 0.000000 0.000000 0.045840 0.000000
# 6 0.000000 0.000000 0.000000 0.000000 0.000000 0.038293
#
#
# Mechanical properties :
#
#
# Convention : Reuss Voigt Hill
#
# Bulk Modulus (GPa) = 48.75079 66.18457 57.46768
# Shear Modulus (GPa) = 20.22921 22.01325 21.12123
#
# Velocity S-wave (km/s) = 3.53746 3.69015 3.61461
# Velocity P-wave (km/s) = 6.84409 7.68748 7.27801
#
# Compressibility (1/GPa) = 0.02051249
#
# Stress axis : x y z
#
# Youngs Moduli (GPa) = 67.38471 36.73499 42.72268
#
# Poissons Ratio (x) = 0.31428 0.39892
# Poissons Ratio (y) = 0.57650 0.19590
# Poissons Ratio (z) = 0.62920 0.16844
#
# Static dielectric constant tensor:
#      x y z
#    x 3.238910 0.000000 0.000000 
#    y 0.000000 2.810740 0.000000 
#    z 0.000000 0.000000 3.159410 
# 
# 
# High freq. dielectric constant tensor:
#      x y z
#    x 1.625230 0.000000 0.000000 
#    y 0.000000 1.582400 0.000000 
#    z 0.000000 0.000000 1.630600 
# 
# From -- ./inp_files/7826.got.cif
#   From: 2010.03.12/outbox.cif.g09.slc.cpg/sg55_4_cif.got.tgz:7826.got - 2010.04.16 15:19:21.
