data_PCOD8224058
_publ_section_title
;
Structure prediction by ZEFSAII (Michael W. Deem and Ramdas Pophale) SiO2 
 PCOD8224058
Probable space group: P C C A
;
_chemical_formula_sum "Si O2"
_cell_formula_units_Z 48
_cell_length_a 14.545972
_cell_length_b 17.444746
_cell_length_c 8.726275
_cell_angle_alpha 90.000000
_cell_angle_beta 90.000000
_cell_angle_gamma 90.000000
_cell_volume 2214.299148
_symmetry_space_group_name_H-M "P C C A"
_symmetry_group_IT_number 54
_symmetry_cell_setting 'orthorhombic'
loop_
_space_group_symop_operation_xyz
x,y,z
1/2-x,-y,z
1/2+x,-y,1/2-z
-x,y,1/2-z
-x,-y,-z
1/2+x,y,-z
1/2-x,y,1/2+z
x,-y,1/2+z
loop_
_atom_site_type_symbol
_atom_site_label
_atom_site_fract_x
_atom_site_fract_y
_atom_site_fract_z
Si Si1 0.850467 0.581889 0.381944
Si Si2 0.500000 0.304067 0.750000
Si Si3 0.000000 0.695411 0.250000
Si Si4 0.356288 0.924540 0.503351
Si Si5 0.013294 0.192475 0.000724
Si Si6 0.345450 0.581104 0.253130
Si Si7 0.838544 0.913841 0.859990
O O1 0.879136 0.499730 0.314652
O O2 0.753214 0.606074 0.310690
O O3 0.842913 0.575926 0.564007
O O4 0.925585 0.644286 0.336534
O O5 0.461321 0.250317 0.884640
O O6 0.583398 0.356406 0.809182
O O7 0.051364 0.754119 0.364769
O O8 0.440423 0.871013 0.555438
O O9 0.265044 0.895499 0.589025
O O10 0.342199 0.924627 0.321603
O O11 0.378193 0.010539 0.557691
O O12 0.099258 0.156547 0.088812
#
# Coordination Sequence:
#
# PCOD8224058 Si02
#       7
#     8   4   4   8   8   8   8
#     4  11  25  45  68 100 124 177 217 270 318 385
#     4  12  25  46  63  98 134 174 208 272 325 388
#     4  12  29  42  67  98 134 170 220 260 335 386
#     4  11  24  44  69  96 128 172 220 264 322 377
#     4  12  27  44  64  97 135 170 212 267 328 386
#     4  11  25  43  72  93 133 169 223 266 321 381
#     4  11  24  44  69  95 129 171 219 268 316 384
#
# _framework density 21.677288999999998
#
# number of rings (size 3 to 8) (size 9 to 14) (size 15 to 20)
#    0.000    0.667    3.333    5.000    9.333    4.000 
#    0.000    0.000    0.000    0.000    0.000    0.000 
#    0.000    0.000    0.000    0.000    0.000    0.000 
#
# Total GULP energy -595288.321389 kJ/mol
# GULP energy per Si atom -12401.840029 kJ/mol
# Density = 2.162795 g / cm^3
# Si number density = 21.677289 Si / 1000 Ang^3
#
#
#
# Elastic Constant Matrix: (Units=GPa)
#
#
# Indices 1 2 3 4 5 6 
#
# 1 65.5269 42.9615 13.3180 0.0000 0.0000 0.0000
# 2 42.9615 91.9415 31.3569 0.0000 0.0000 0.0000
# 3 13.3180 31.3569 127.9803 0.0000 0.0000 0.0000
# 4 0.0000 0.0000 0.0000 30.6103 0.0000 0.0000
# 5 0.0000 0.0000 0.0000 0.0000 33.0594 0.0000
# 6 0.0000 0.0000 0.0000 0.0000 0.0000 16.8557
#
#
#
# Elastic Compliance Matrix: (Units=1/GPa)
#
#
# Indices 1 2 3 4 5 6 
#
# 1 0.022008 -0.010369 0.000250 0.000000 0.000000 0.000000
# 2 -0.010369 0.016754 -0.003026 0.000000 0.000000 0.000000
# 3 0.000250 -0.003026 0.008529 0.000000 0.000000 0.000000
# 4 0.000000 0.000000 0.000000 0.032669 0.000000 0.000000
# 5 0.000000 0.000000 0.000000 0.000000 0.030249 0.000000
# 6 0.000000 0.000000 0.000000 0.000000 0.000000 0.059327
#
#
# Mechanical properties :
#
#
# Convention : Reuss Voigt Hill
#
# Bulk Modulus (GPa) = 47.61525 51.19127 49.40326
# Shear Modulus (GPa) = 24.65167 29.29254 26.97211
#
# Velocity S-wave (km/s) = 3.37592 3.67999 3.53123
# Velocity P-wave (km/s) = 6.09991 6.45933 6.28219
#
# Compressibility (1/GPa) = 0.02100167
#
# Stress axis : x y z
#
# Youngs Moduli (GPa) = 45.43704 59.68825 117.24681
#
# Poissons Ratio (x) = 0.61893 -0.02935
# Poissons Ratio (y) = 0.47115 0.35477
# Poissons Ratio (z) = -0.01138 0.18061
#
# Static dielectric constant tensor:
#      x y z
#    x 3.854290 0.000000 0.000000 
#    y 0.000000 4.150640 0.000000 
#    z 0.000000 0.000000 4.181290 
# 
# 
# High freq. dielectric constant tensor:
#      x y z
#    x 1.846320 0.000000 0.000000 
#    y 0.000000 1.866210 0.000000 
#    z 0.000000 0.000000 1.870820 
# 
# From -- ./inp_files/3617.got.cif
#   From: 2010.03.12/outbox.cif.g09.slc.cpg/sg54_2_cif.got.tgz:3617.got - 2010.04.16 15:00:50.
