data_PCOD8224676
_publ_section_title
;
Structure prediction by ZEFSAII (Michael W. Deem and Ramdas Pophale) SiO2 
 PCOD8224676
Probable space group: P B A M
;
_chemical_formula_sum "Si O2"
_cell_formula_units_Z 64
_cell_length_a 15.436279
_cell_length_b 23.982330
_cell_length_c 8.862922
_cell_angle_alpha 90.000000
_cell_angle_beta 90.000000
_cell_angle_gamma 90.000000
_cell_volume 3281.035440
_symmetry_space_group_name_H-M "P B A M"
_symmetry_group_IT_number 55
_symmetry_cell_setting 'orthorhombic'
loop_
_space_group_symop_operation_xyz
x,y,z
-x,-y,z
1/2+x,1/2-y,-z
1/2-x,1/2+y,-z
-x,-y,-z
x,y,-z
1/2-x,1/2+y,z
1/2+x,1/2-y,z
loop_
_atom_site_type_symbol
_atom_site_label
_atom_site_fract_x
_atom_site_fract_y
_atom_site_fract_z
Si Si1 0.600916 0.630700 0.321820
Si Si2 0.745543 0.054261 0.320217
Si Si3 0.750969 0.428087 0.320821
Si Si4 0.921301 0.363854 0.325282
Si Si5 0.410352 0.642578 0.678751
Si Si6 0.899532 0.628412 0.177995
Si Si7 0.844122 0.750857 0.822136
Si Si8 0.836270 0.249592 0.324866
O O1 0.608538 0.631746 0.500000
O O2 0.668613 0.585548 0.257167
O O3 0.502744 0.615341 0.274073
O O4 0.624811 0.692130 0.260796
O O5 0.741022 0.056433 0.500000
O O6 0.660110 0.082503 0.255550
O O7 0.749758 0.991125 0.260053
O O8 0.746401 0.426830 0.500000
O O9 0.837681 0.397426 0.264998
O O10 0.666368 0.396250 0.256218
O O11 0.939190 0.377773 0.500000
O O12 0.906870 0.297951 0.301292
O O13 0.002355 0.383622 0.227142
O O14 0.403147 0.649187 0.500000
O O15 0.408055 0.704197 0.748712
O O16 0.870591 0.689448 0.235230
O O17 0.890773 0.622701 0.000000
O O18 0.747691 0.765446 0.770258
O O19 0.851692 0.755196 0.000000
O O20 0.808998 0.245492 0.500000
#
# Coordination Sequence:
#
# PCOD8224676 Si02
#       8
#     8   8   8   8   8   8   8   8
#     4   9  18  31  56  88 111 140 182 223 271 326
#     4  10  20  37  59  83 112 147 188 232 277 328
#     4   9  19  35  58  86 113 143 184 233 280 324
#     4  10  20  36  58  84 112 145 183 229 282 334
#     4  10  19  36  59  84 115 146 181 226 273 334
#     4  11  24  39  55  81 113 149 189 231 279 330
#     4  11  22  35  54  82 113 146 183 226 280 332
#     4  10  18  33  57  84 111 144 184 223 276 337
#
# _framework density 19.506038
#
# number of rings (size 3 to 8) (size 9 to 14) (size 15 to 20)
#    0.000    2.000    2.500    1.500    0.000    4.000 
#    0.000    7.500    0.000    0.000    0.000    1.750 
#    0.000    0.000    0.000    0.000    0.000    0.000 
#
# Total GULP energy -793701.915639 kJ/mol
# GULP energy per Si atom -12401.592432 kJ/mol
# Density = 1.946164 g / cm^3
# Si number density = 19.506038 Si / 1000 Ang^3
#
#
#
# Elastic Constant Matrix: (Units=GPa)
#
#
# Indices 1 2 3 4 5 6 
#
# 1 134.6185 54.8239 19.8152 0.0000 0.0000 0.0000
# 2 54.8239 139.2146 21.4953 0.0000 0.0000 0.0000
# 3 19.8152 21.4953 28.0332 0.0000 0.0000 0.0000
# 4 0.0000 0.0000 0.0000 14.8265 0.0000 0.0000
# 5 0.0000 0.0000 0.0000 0.0000 9.8625 0.0000
# 6 0.0000 0.0000 0.0000 0.0000 0.0000 19.9101
#
#
#
# Elastic Compliance Matrix: (Units=1/GPa)
#
#
# Indices 1 2 3 4 5 6 
#
# 1 0.009275 -0.002995 -0.004260 0.000000 0.000000 0.000000
# 2 -0.002995 0.009115 -0.004872 0.000000 0.000000 0.000000
# 3 -0.004260 -0.004872 0.042419 0.000000 0.000000 0.000000
# 4 0.000000 0.000000 0.000000 0.067447 0.000000 0.000000
# 5 0.000000 0.000000 0.000000 0.000000 0.101394 0.000000
# 6 0.000000 0.000000 0.000000 0.000000 0.000000 0.050226
#
#
# Mechanical properties :
#
#
# Convention : Reuss Voigt Hill
#
# Bulk Modulus (GPa) = 27.35579 54.90390 41.12985
# Shear Modulus (GPa) = 15.80709 22.63528 19.22119
#
# Velocity S-wave (km/s) = 2.84979 3.41020 3.14251
# Velocity P-wave (km/s) = 4.98830 6.61167 5.85650
#
# Compressibility (1/GPa) = 0.03655533
#
# Stress axis : x y z
#
# Youngs Moduli (GPa) = 107.81574 109.71111 23.57450
#
# Poissons Ratio (x) = 0.32857 0.10042
# Poissons Ratio (y) = 0.32290 0.11486
# Poissons Ratio (z) = 0.45925 0.53453
#
# Static dielectric constant tensor:
#      x y z
#    x 3.694200 0.000000 0.000000 
#    y 0.000000 3.756600 0.000000 
#    z 0.000000 0.000000 3.140940 
# 
# 
# High freq. dielectric constant tensor:
#      x y z
#    x 1.772460 0.000000 0.000000 
#    y 0.000000 1.760810 0.000000 
#    z 0.000000 0.000000 1.719300 
# 
# From -- ./inp_files/6645.got.cif
#   From: 2010.03.12/outbox.cif.g09.slc.cpg/sg55_4_cif.got.tgz:6645.got - 2010.04.16 15:19:21.
