data_PCOD8224631
_publ_section_title
;
Structure prediction by ZEFSAII (Michael W. Deem and Ramdas Pophale) SiO2 
 PCOD8224631
Probable space group: P B A M
;
_chemical_formula_sum "Si O2"
_cell_formula_units_Z 56
_cell_length_a 19.714964
_cell_length_b 16.466472
_cell_length_c 9.192425
_cell_angle_alpha 90.000000
_cell_angle_beta 90.000000
_cell_angle_gamma 90.000000
_cell_volume 2984.191188
_symmetry_space_group_name_H-M "P B A M"
_symmetry_group_IT_number 55
_symmetry_cell_setting 'orthorhombic'
loop_
_space_group_symop_operation_xyz
x,y,z
-x,-y,z
1/2+x,1/2-y,-z
1/2-x,1/2+y,-z
-x,-y,-z
x,y,-z
1/2-x,1/2+y,z
1/2+x,1/2-y,z
loop_
_atom_site_type_symbol
_atom_site_label
_atom_site_fract_x
_atom_site_fract_y
_atom_site_fract_z
Si Si1 0.731079 0.266453 0.835448
Si Si2 0.702105 0.425299 0.670169
Si Si3 0.115267 0.355301 0.166961
Si Si4 0.880738 0.298427 0.833745
Si Si5 0.550352 0.432807 0.328902
Si Si6 0.510622 0.255580 0.327302
Si Si7 0.329959 0.024789 0.169239
O O1 0.703977 0.332794 0.723680
O O2 0.689199 0.184516 0.810001
O O3 0.810706 0.249190 0.809810
O O4 0.721261 0.300050 0.000000
O O5 0.716590 0.425797 0.500000
O O6 0.627256 0.459477 0.707080
O O7 0.758442 0.480551 0.747085
O O8 0.059045 0.314458 0.266594
O O9 0.122557 0.449279 0.213943
O O10 0.091419 0.347558 0.000000
O O11 0.869448 0.392793 0.791598
O O12 0.934490 0.259692 0.725420
O O13 0.906235 0.291286 0.000000
O O14 0.500000 0.500000 0.259103
O O15 0.538026 0.428370 0.500000
O O16 0.534386 0.343147 0.265826
O O17 0.513053 0.251674 0.500000
O O18 0.311698 0.021095 0.000000
#
# Coordination Sequence:
#
# PCOD8224631 Si02
#       7
#     8   8   8   8   8   8   8
#     4   9  18  34  57  79 104 141 183 228 276 329
#     4  10  18  32  55  79 105 139 179 225 273 325
#     4  10  20  36  59  82 108 146 187 228 279 332
#     4   9  19  36  54  76 110 147 181 222 275 332
#     4   9  19  35  53  76 110 147 178 217 276 333
#     4  11  22  36  55  81 111 145 185 229 274 330
#     4   9  20  37  56  80 109 144 184 228 276 327
#
# _framework density 18.765554000000002
#
# number of rings (size 3 to 8) (size 9 to 14) (size 15 to 20)
#    0.000    2.429    1.429    1.714    0.000    4.571 
#    0.000    2.857    0.000    6.000    0.000    0.000 
#    0.000    0.000    0.000    0.000    0.000    0.000 
#
# Total GULP energy -694387.202190 kJ/mol
# GULP energy per Si atom -12399.771468 kJ/mol
# Density = 1.872284 g / cm^3
# Si number density = 18.765554 Si / 1000 Ang^3
#
#
#
# Elastic Constant Matrix: (Units=GPa)
#
#
# Indices 1 2 3 4 5 6 
#
# 1 97.2773 23.2168 38.7678 0.0000 0.0000 0.0000
# 2 23.2168 48.5845 18.8288 0.0000 0.0000 0.0000
# 3 38.7678 18.8288 59.3831 0.0000 0.0000 0.0000
# 4 0.0000 0.0000 0.0000 22.8606 0.0000 0.0000
# 5 0.0000 0.0000 0.0000 0.0000 34.3901 0.0000
# 6 0.0000 0.0000 0.0000 0.0000 0.0000 28.5611
#
#
#
# Elastic Compliance Matrix: (Units=1/GPa)
#
#
# Indices 1 2 3 4 5 6 
#
# 1 0.014458 -0.003706 -0.008263 0.000000 0.000000 0.000000
# 2 -0.003706 0.024416 -0.005322 0.000000 0.000000 0.000000
# 3 -0.008263 -0.005322 0.023922 0.000000 0.000000 0.000000
# 4 0.000000 0.000000 0.000000 0.043743 0.000000 0.000000
# 5 0.000000 0.000000 0.000000 0.000000 0.029078 0.000000
# 6 0.000000 0.000000 0.000000 0.000000 0.000000 0.035013
#
#
# Mechanical properties :
#
#
# Convention : Reuss Voigt Hill
#
# Bulk Modulus (GPa) = 35.44548 40.76351 38.10449
# Shear Modulus (GPa) = 23.29719 25.45779 24.37749
#
# Velocity S-wave (km/s) = 3.52730 3.68723 3.60815
# Velocity P-wave (km/s) = 5.95976 6.31643 6.14068
#
# Compressibility (1/GPa) = 0.02821234
#
# Stress axis : x y z
#
# Youngs Moduli (GPa) = 69.16753 40.95607 41.80251
#
# Poissons Ratio (x) = 0.15180 0.34543
# Poissons Ratio (y) = 0.25636 0.22248
# Poissons Ratio (z) = 0.57156 0.21797
#
# Static dielectric constant tensor:
#      x y z
#    x 3.482500 0.000000 0.000000 
#    y 0.000000 3.520860 0.000000 
#    z 0.000000 0.000000 3.278680 
# 
# 
# High freq. dielectric constant tensor:
#      x y z
#    x 1.735760 0.000000 0.000000 
#    y 0.000000 1.720540 0.000000 
#    z 0.000000 0.000000 1.713270 
# 
# From -- ./inp_files/8791.got.cif
#   From: 2010.03.12/outbox.cif.g09.slc.cpg/sg55_5_cif.got.tgz:8791.got - 2010.04.16 15:19:21.
