data_PCOD8224452
_publ_section_title
;
Structure prediction by ZEFSAII (Michael W. Deem and Ramdas Pophale) SiO2 
 PCOD8224452
Probable space group: P B A M
;
_chemical_formula_sum "Si O2"
_cell_formula_units_Z 64
_cell_length_a 18.336140
_cell_length_b 20.956264
_cell_length_c 9.190661
_cell_angle_alpha 90.000000
_cell_angle_beta 90.000000
_cell_angle_gamma 90.000000
_cell_volume 3531.575737
_symmetry_space_group_name_H-M "P B A M"
_symmetry_group_IT_number 55
_symmetry_cell_setting 'orthorhombic'
loop_
_space_group_symop_operation_xyz
x,y,z
-x,-y,z
1/2+x,1/2-y,-z
1/2-x,1/2+y,-z
-x,-y,-z
x,y,-z
1/2-x,1/2+y,z
1/2+x,1/2-y,z
loop_
_atom_site_type_symbol
_atom_site_label
_atom_site_fract_x
_atom_site_fract_y
_atom_site_fract_z
Si Si1 0.730183 0.868672 0.669458
Si Si2 0.627520 0.335286 0.832496
Si Si3 0.215696 0.991929 0.667215
Si Si4 0.078920 0.519555 0.342163
Si Si5 0.575088 0.472414 0.830413
Si Si6 0.567318 0.199810 0.169127
Si Si7 0.913694 0.356553 0.171587
Si Si8 0.662947 0.102219 0.331218
O O1 0.728721 0.853114 0.500000
O O2 0.800845 0.834157 0.734165
O O3 0.659565 0.835075 0.743472
O O4 0.733017 0.945628 0.703668
O O5 0.578650 0.397110 0.796264
O O6 0.577497 0.274397 0.797507
O O7 0.652965 0.335983 0.000000
O O8 0.192552 0.997399 0.500000
O O9 0.254872 0.923643 0.698647
O O10 0.142933 0.990998 0.760851
O O11 0.115689 0.542302 0.500000
O O12 0.076569 0.570131 0.213420
O O13 0.115930 0.457220 0.277860
O O14 0.000000 0.500000 0.388524
O O15 0.500000 0.500000 0.764292
O O16 0.579130 0.487211 0.000000
O O17 0.486450 0.180765 0.226656
O O18 0.635744 0.163318 0.242248
O O19 0.571842 0.183534 0.000000
O O20 0.901944 0.347923 0.000000
O O21 0.651313 0.118248 0.500000
#
# Coordination Sequence:
#
# PCOD8224452 Si02
#       8
#     8   8   8   8   8   8   8   8
#     4  10  19  34  55  77 101 131 173 219 264 315
#     4   9  19  38  57  74 102 137 172 217 269 318
#     4   9  18  32  51  77 106 134 164 208 264 312
#     4  10  18  30  47  70 103 141 175 215 260 295
#     4   9  18  34  58  83 101 124 168 222 272 320
#     4  10  22  36  50  73 108 147 180 211 257 318
#     4  11  21  31  48  76 106 139 179 218 256 309
#     4  10  19  32  50  73 106 143 176 212 256 306
#
# _framework density 18.122222000000001
#
# number of rings (size 3 to 8) (size 9 to 14) (size 15 to 20)
#    0.000    2.250    2.500    0.750    0.000    3.000 
#    0.000    1.250    0.000    3.000    0.000    0.000 
#    0.000    0.000    0.000    0.000    0.000    0.000 
#
# Total GULP energy -793102.001192 kJ/mol
# GULP energy per Si atom -12392.218769 kJ/mol
# Density = 1.808098 g / cm^3
# Si number density = 18.122222 Si / 1000 Ang^3
#
#
#
# Elastic Constant Matrix: (Units=GPa)
#
#
# Indices 1 2 3 4 5 6 
#
# 1 125.3925 58.0258 51.9170 0.0000 0.0000 0.0000
# 2 58.0258 81.1226 35.9082 0.0000 0.0000 0.0000
# 3 51.9170 35.9082 64.0545 0.0000 0.0000 0.0000
# 4 0.0000 0.0000 0.0000 20.3363 0.0000 0.0000
# 5 0.0000 0.0000 0.0000 0.0000 27.5975 0.0000
# 6 0.0000 0.0000 0.0000 0.0000 0.0000 22.4162
#
#
#
# Elastic Compliance Matrix: (Units=1/GPa)
#
#
# Indices 1 2 3 4 5 6 
#
# 1 0.014368 -0.006813 -0.007826 0.000000 0.000000 0.000000
# 2 -0.006813 0.019626 -0.005480 0.000000 0.000000 0.000000
# 3 -0.007826 -0.005480 0.025027 0.000000 0.000000 0.000000
# 4 0.000000 0.000000 0.000000 0.049173 0.000000 0.000000
# 5 0.000000 0.000000 0.000000 0.000000 0.036235 0.000000
# 6 0.000000 0.000000 0.000000 0.000000 0.000000 0.044610
#
#
# Mechanical properties :
#
#
# Convention : Reuss Voigt Hill
#
# Bulk Modulus (GPa) = 53.24113 62.47463 57.85788
# Shear Modulus (GPa) = 21.22790 22.38458 21.80624
#
# Velocity S-wave (km/s) = 3.42625 3.51836 3.47261
# Velocity P-wave (km/s) = 6.71528 7.14521 6.93357
#
# Compressibility (1/GPa) = 0.01878247
#
# Stress axis : x y z
#
# Youngs Moduli (GPa) = 69.59904 50.95285 39.95698
#
# Poissons Ratio (x) = 0.34714 0.31271
# Poissons Ratio (y) = 0.47418 0.21897
# Poissons Ratio (z) = 0.54469 0.27922
#
# Static dielectric constant tensor:
#      x y z
#    x 3.510850 0.000000 0.000000 
#    y 0.000000 3.172200 0.000000 
#    z 0.000000 0.000000 3.242150 
# 
# 
# High freq. dielectric constant tensor:
#      x y z
#    x 1.708830 0.000000 0.000000 
#    y 0.000000 1.674240 0.000000 
#    z 0.000000 0.000000 1.699030 
# 
# From -- ./inp_files/9125.got.cif
#   From: 2010.03.12/outbox.cif.g09.slc.cpg/sg55_5_cif.got.tgz:9125.got - 2010.04.16 15:19:21.
