data_PCOD8224701
_publ_section_title
;
Structure prediction by ZEFSAII (Michael W. Deem and Ramdas Pophale) SiO2 
 PCOD8224701
Probable space group: P B A M
;
_chemical_formula_sum "Si O2"
_cell_formula_units_Z 64
_cell_length_a 22.815051
_cell_length_b 10.079462
_cell_length_c 15.778621
_cell_angle_alpha 90.000000
_cell_angle_beta 90.000000
_cell_angle_gamma 90.000000
_cell_volume 3628.505957
_symmetry_space_group_name_H-M "P B A M"
_symmetry_group_IT_number 55
_symmetry_cell_setting 'orthorhombic'
loop_
_space_group_symop_operation_xyz
x,y,z
-x,-y,z
1/2+x,1/2-y,-z
1/2-x,1/2+y,-z
-x,-y,-z
x,y,-z
1/2-x,1/2+y,z
1/2+x,1/2-y,z
loop_
_atom_site_type_symbol
_atom_site_label
_atom_site_fract_x
_atom_site_fract_y
_atom_site_fract_z
Si Si1 0.931244 0.505680 0.092113
Si Si2 0.214673 0.158703 0.402182
Si Si3 0.380723 0.875987 0.595282
Si Si4 0.066144 0.005013 0.759099
Si Si5 0.918424 0.273554 0.798379
Si Si6 0.556028 0.202750 0.238742
Si Si7 0.342580 0.159388 0.642834
Si Si8 0.622594 0.558815 0.593029
O O1 0.909457 0.356905 0.115645
O O2 0.915405 0.608848 0.166832
O O3 0.000000 0.500000 0.082142
O O4 0.903825 0.545134 0.000000
O O5 0.234625 0.157565 0.500000
O O6 0.175583 0.287179 0.381906
O O7 0.272440 0.161794 0.344200
O O8 0.179543 0.024958 0.379049
O O9 0.403982 0.839731 0.500000
O O10 0.430138 0.849533 0.666527
O O11 0.361850 0.028493 0.593145
O O12 0.087863 0.154388 0.777624
O O13 0.097596 0.883669 0.810546
O O14 0.071004 0.971510 0.659204
O O15 0.000000 0.000000 0.788408
O O16 0.873382 0.339131 0.733533
O O17 0.985536 0.290019 0.765467
O O18 0.361928 0.286800 0.588946
O O19 0.601362 0.512243 0.500000
#
# Coordination Sequence:
#
# PCOD8224701 Si02
#       8
#     8   8   8   8   8   8   8   8
#     4   9  17  32  56  79 102 128 155 198 256 307
#     4  10  20  33  47  65  95 133 174 215 246 284
#     4  11  21  32  49  71 101 139 171 211 252 287
#     4   9  18  31  48  67  97 135 160 200 246 288
#     4   9  19  33  51  73 102 130 162 207 250 300
#     4  10  18  34  51  73 106 130 168 206 245 303
#     4  11  20  32  47  68  98 130 168 213 252 287
#     4  10  19  31  45  64  93 130 174 213 243 283
#
# _framework density 17.638112
#
# number of rings (size 3 to 8) (size 9 to 14) (size 15 to 20)
#    0.000    2.125    2.500    1.875    0.000    2.250 
#    0.000    7.500    0.000    3.750    0.000    0.875 
#    0.000    0.000    0.000    0.000    0.000    0.000 
#
# Total GULP energy -793020.493142 kJ/mol
# GULP energy per Si atom -12390.945205 kJ/mol
# Density = 1.759797 g / cm^3
# Si number density = 17.638112 Si / 1000 Ang^3
#
#
#
# Elastic Constant Matrix: (Units=GPa)
#
#
# Indices 1 2 3 4 5 6 
#
# 1 35.1148 16.9940 17.1054 0.0000 0.0000 0.0000
# 2 16.9940 141.9120 48.1773 0.0000 0.0000 0.0000
# 3 17.1054 48.1773 98.2743 0.0000 0.0000 0.0000
# 4 0.0000 0.0000 0.0000 13.0644 0.0000 0.0000
# 5 0.0000 0.0000 0.0000 0.0000 0.3101 0.0000
# 6 0.0000 0.0000 0.0000 0.0000 0.0000 20.1438
#
#
#
# Elastic Compliance Matrix: (Units=1/GPa)
#
#
# Indices 1 2 3 4 5 6 
#
# 1 0.031735 -0.002309 -0.004392 0.000000 0.000000 0.000000
# 2 -0.002309 0.008622 -0.003825 0.000000 0.000000 0.000000
# 3 -0.004392 -0.003825 0.012815 0.000000 0.000000 0.000000
# 4 0.000000 0.000000 0.000000 0.076544 0.000000 0.000000
# 5 0.000000 0.000000 0.000000 0.000000 3.224689 0.000000
# 6 0.000000 0.000000 0.000000 0.000000 0.000000 0.049643
#
#
# Mechanical properties :
#
#
# Convention : Reuss Voigt Hill
#
# Bulk Modulus (GPa) = 31.13299 48.87274 40.00287
# Shear Modulus (GPa) = 1.45526 19.57196 10.51361
#
# Velocity S-wave (km/s) = 0.90932 3.33474 2.44411
# Velocity P-wave (km/s) = 4.33495 6.52657 5.54021
#
# Compressibility (1/GPa) = 0.03212026
#
# Stress axis : x y z
#
# Youngs Moduli (GPa) = 31.51107 115.98809 78.03396
#
# Poissons Ratio (x) = 0.26786 0.34269
# Poissons Ratio (y) = 0.07277 0.29845
# Poissons Ratio (z) = 0.13838 0.44361
#
# Static dielectric constant tensor:
#      x y z
#    x 2.995200 0.000000 0.000000 
#    y 0.000000 3.785240 0.000000 
#    z 0.000000 0.000000 3.254690 
# 
# 
# High freq. dielectric constant tensor:
#      x y z
#    x 1.643880 0.000000 0.000000 
#    y 0.000000 1.711050 0.000000 
#    z 0.000000 0.000000 1.648000 
# 
# From -- ./inp_files/21931.got.cif
#   From: 2010.03.12/outbox.cif.g09.slc.cpg/sg55_11_cif.got.tgz:21931.got - 2010.04.16 15:19:21.
