data_PCOD8224667
_publ_section_title
;
Structure prediction by ZEFSAII (Michael W. Deem and Ramdas Pophale) SiO2 
 PCOD8224667
Probable space group: P B A M
;
_chemical_formula_sum "Si O2"
_cell_formula_units_Z 64
_cell_length_a 19.723306
_cell_length_b 19.548389
_cell_length_c 8.908646
_cell_angle_alpha 90.000000
_cell_angle_beta 90.000000
_cell_angle_gamma 90.000000
_cell_volume 3434.807379
_symmetry_space_group_name_H-M "P B A M"
_symmetry_group_IT_number 55
_symmetry_cell_setting 'orthorhombic'
loop_
_space_group_symop_operation_xyz
x,y,z
-x,-y,z
1/2+x,1/2-y,-z
1/2-x,1/2+y,-z
-x,-y,-z
x,y,-z
1/2-x,1/2+y,z
1/2+x,1/2-y,z
loop_
_atom_site_type_symbol
_atom_site_label
_atom_site_fract_x
_atom_site_fract_y
_atom_site_fract_z
Si Si1 0.486908 0.208212 0.178117
Si Si2 0.330387 0.430403 0.671744
Si Si3 0.033563 0.430095 0.674604
Si Si4 0.590990 0.319179 0.825678
Si Si5 0.141333 0.774480 0.675122
Si Si6 0.069751 0.030894 0.178067
Si Si7 0.277755 0.757851 0.827045
Si Si8 0.817390 0.608857 0.672109
O O1 0.499769 0.132856 0.240133
O O2 0.543252 0.260392 0.245605
O O3 0.414373 0.235618 0.228965
O O4 0.489371 0.204210 0.000000
O O5 0.347490 0.446828 0.500000
O O6 0.357661 0.354994 0.714404
O O7 0.366605 0.485550 0.774738
O O8 0.249652 0.436568 0.702519
O O9 0.017342 0.420342 0.500000
O O10 0.114626 0.434453 0.703765
O O11 0.000000 0.500000 0.735381
O O12 0.576096 0.393013 0.752482
O O13 0.670069 0.303873 0.800367
O O14 0.572722 0.321886 0.000000
O O15 0.129143 0.761322 0.500000
O O16 0.213654 0.743178 0.722079
O O17 0.069234 0.033554 0.000000
O O18 0.000000 0.000000 0.242012
O O19 0.317326 0.826834 0.782762
O O20 0.254991 0.763262 0.000000
O O21 0.815189 0.635545 0.500000
#
# Coordination Sequence:
#
# PCOD8224667 Si02
#       8
#     8   8   8   8   8   8   8   8
#     4  11  21  37  60  86 113 145 186 234 283 334
#     4   9  19  35  54  79 111 145 186 233 271 321
#     4  10  21  38  59  82 113 152 188 229 284 343
#     4   9  19  34  54  81 113 144 181 229 278 330
#     4  10  21  37  56  82 114 147 185 230 279 336
#     4  10  20  35  54  77 109 147 184 222 273 335
#     4  10  18  33  56  80 108 141 183 232 279 328
#     4   9  18  35  57  79 109 145 186 227 271 331
#
# _framework density 18.632776
#
# number of rings (size 3 to 8) (size 9 to 14) (size 15 to 20)
#    0.000    2.250    1.250    2.625    0.000    4.000 
#    2.250    2.500    0.000    0.000    0.000    0.000 
#    0.000    0.000    0.000    0.000    0.000    0.000 
#
# Total GULP energy -793621.196811 kJ/mol
# GULP energy per Si atom -12400.331200 kJ/mol
# Density = 1.859037 g / cm^3
# Si number density = 18.632776 Si / 1000 Ang^3
#
#
#
# Elastic Constant Matrix: (Units=GPa)
#
#
# Indices 1 2 3 4 5 6 
#
# 1 117.3675 71.9257 25.8839 0.0000 0.0000 0.0000
# 2 71.9257 135.8521 36.4460 0.0000 0.0000 0.0000
# 3 25.8839 36.4460 39.9203 0.0000 0.0000 0.0000
# 4 0.0000 0.0000 0.0000 26.4791 0.0000 0.0000
# 5 0.0000 0.0000 0.0000 0.0000 25.8836 0.0000
# 6 0.0000 0.0000 0.0000 0.0000 0.0000 29.6811
#
#
#
# Elastic Compliance Matrix: (Units=1/GPa)
#
#
# Indices 1 2 3 4 5 6 
#
# 1 0.012846 -0.006048 -0.002808 0.000000 0.000000 0.000000
# 2 -0.006048 0.012596 -0.007578 0.000000 0.000000 0.000000
# 3 -0.002808 -0.007578 0.033789 0.000000 0.000000 0.000000
# 4 0.000000 0.000000 0.000000 0.037766 0.000000 0.000000
# 5 0.000000 0.000000 0.000000 0.000000 0.038634 0.000000
# 6 0.000000 0.000000 0.000000 0.000000 0.000000 0.033691
#
#
# Mechanical properties :
#
#
# Convention : Reuss Voigt Hill
#
# Bulk Modulus (GPa) = 37.93151 62.40569 50.16860
# Shear Modulus (GPa) = 23.69918 27.00106 25.35012
#
# Velocity S-wave (km/s) = 3.57025 3.81086 3.69251
# Velocity P-wave (km/s) = 6.11532 7.27521 6.72034
#
# Compressibility (1/GPa) = 0.02636331
#
# Stress axis : x y z
#
# Youngs Moduli (GPa) = 77.84726 79.38997 29.59526
#
# Poissons Ratio (x) = 0.48014 0.08309
# Poissons Ratio (y) = 0.47081 0.22429
# Poissons Ratio (z) = 0.21856 0.60165
#
# Static dielectric constant tensor:
#      x y z
#    x 3.549150 0.000000 0.000000 
#    y 0.000000 3.408040 0.000000 
#    z 0.000000 0.000000 3.286210 
# 
# 
# High freq. dielectric constant tensor:
#      x y z
#    x 1.736010 0.000000 0.000000 
#    y 0.000000 1.710230 0.000000 
#    z 0.000000 0.000000 1.711440 
# 
# From -- ./inp_files/8019.got.cif
#   From: 2010.03.12/outbox.cif.g09.slc.cpg/sg55_5_cif.got.tgz:8019.got - 2010.04.16 15:19:21.
