data_PCOD8224176
_publ_section_title
;
Structure prediction by ZEFSAII (Michael W. Deem and Ramdas Pophale) SiO2 
 PCOD8224176
Probable space group: P C C A
;
_chemical_formula_sum "Si O2"
_cell_formula_units_Z 52
_cell_length_a 13.953097
_cell_length_b 8.701931
_cell_length_c 19.747023
_cell_angle_alpha 90.000000
_cell_angle_beta 90.000000
_cell_angle_gamma 90.000000
_cell_volume 2397.661561
_symmetry_space_group_name_H-M "P C C A"
_symmetry_group_IT_number 54
_symmetry_cell_setting 'orthorhombic'
loop_
_space_group_symop_operation_xyz
x,y,z
1/2-x,-y,z
1/2+x,-y,1/2-z
-x,y,1/2-z
-x,-y,-z
1/2+x,y,-z
1/2-x,y,1/2+z
x,-y,1/2+z
loop_
_atom_site_type_symbol
_atom_site_label
_atom_site_fract_x
_atom_site_fract_y
_atom_site_fract_z
Si Si1 0.351012 0.738870 0.351719
Si Si2 0.500000 0.132960 0.750000
Si Si3 0.250000 0.500000 0.773780
Si Si4 0.592814 0.088065 0.971874
Si Si5 0.750000 0.000000 0.571631
Si Si6 0.647075 0.057370 0.336073
Si Si7 0.505053 0.408077 0.931210
Si Si8 0.920449 0.608418 0.306370
O O1 0.436164 0.758668 0.297304
O O2 0.259523 0.650718 0.320808
O O3 0.314944 0.899430 0.379201
O O4 0.396892 0.641649 0.413090
O O5 0.435536 0.025275 0.704561
O O6 0.156046 0.501534 0.728434
O O7 0.570408 0.256653 0.942036
O O8 0.637872 0.981285 0.914632
O O9 0.675895 0.103514 0.028448
O O10 0.500000 0.000000 0.000000
O O11 0.635458 0.239042 0.328685
O O12 0.750000 0.000000 0.308148
O O13 0.542449 0.520209 0.872338
O O14 0.500000 0.500000 0.000000
O O15 0.000000 0.647579 0.250000
#
# Coordination Sequence:
#
# PCOD8224176 Si02
#       8
#     8   4   4   8   4   8   8   8
#     4  12  27  47  74 107 146 197 245 313 371 447
#     4  12  24  48  76 102 148 190 248 306 370 426
#     4  12  28  46  74 108 150 186 250 300 374 446
#     4  12  25  48  73 104 146 196 243 302 367 448
#     4  12  28  46  76 110 150 190 254 308 370 444
#     4  12  26  45  75 108 143 190 250 303 365 443
#     4  12  27  48  74 104 149 197 244 300 383 443
#     4  12  27  48  75 109 150 197 243 312 377 446
#
# _framework density 21.687798000000001
#
# number of rings (size 3 to 8) (size 9 to 14) (size 15 to 20)
#    0.000    0.000    6.154    2.769    7.538    1.231 
#    0.000    0.000    0.000    0.000    0.000    0.000 
#    0.000    0.000    0.000    0.000    0.000    0.000 
#
# Total GULP energy -645004.930954 kJ/mol
# GULP energy per Si atom -12403.940980 kJ/mol
# Density = 2.163844 g / cm^3
# Si number density = 21.687798 Si / 1000 Ang^3
#
#
#
# Elastic Constant Matrix: (Units=GPa)
#
#
# Indices 1 2 3 4 5 6 
#
# 1 115.7687 40.2616 47.5213 0.0000 0.0000 0.0000
# 2 40.2616 133.1726 54.9750 0.0000 0.0000 0.0000
# 3 47.5213 54.9750 129.6588 0.0000 0.0000 0.0000
# 4 0.0000 0.0000 0.0000 54.0031 0.0000 0.0000
# 5 0.0000 0.0000 0.0000 0.0000 22.8874 0.0000
# 6 0.0000 0.0000 0.0000 0.0000 0.0000 43.9834
#
#
#
# Elastic Compliance Matrix: (Units=1/GPa)
#
#
# Indices 1 2 3 4 5 6 
#
# 1 0.010563 -0.001934 -0.003052 0.000000 0.000000 0.000000
# 2 -0.001934 0.009456 -0.003301 0.000000 0.000000 0.000000
# 3 -0.003052 -0.003301 0.010230 0.000000 0.000000 0.000000
# 4 0.000000 0.000000 0.000000 0.018517 0.000000 0.000000
# 5 0.000000 0.000000 0.000000 0.000000 0.043692 0.000000
# 6 0.000000 0.000000 0.000000 0.000000 0.000000 0.022736
#
#
# Mechanical properties :
#
#
# Convention : Reuss Voigt Hill
#
# Bulk Modulus (GPa) = 73.11150 73.79065 73.45108
# Shear Modulus (GPa) = 36.67668 39.89760 38.28714
#
# Velocity S-wave (km/s) = 4.11679 4.29375 4.20620
# Velocity P-wave (km/s) = 7.50875 7.66026 7.58488
#
# Compressibility (1/GPa) = 0.01367774
#
# Stress axis : x y z
#
# Youngs Moduli (GPa) = 94.66963 105.75041 97.74741
#
# Poissons Ratio (x) = 0.20450 0.29828
# Poissons Ratio (y) = 0.18307 0.32263
# Poissons Ratio (z) = 0.28889 0.34905
#
# Static dielectric constant tensor:
#      x y z
#    x 4.072000 0.000000 0.000000 
#    y 0.000000 3.984750 0.000000 
#    z 0.000000 0.000000 4.209290 
# 
# 
# High freq. dielectric constant tensor:
#      x y z
#    x 1.861600 0.000000 0.000000 
#    y 0.000000 1.860650 0.000000 
#    z 0.000000 0.000000 1.868550 
# 
# From -- ./inp_files/21569.got.cif
#   From: 2010.03.12/outbox.cif.g09.slc.cpg/sg54_11_cif.got.tgz:21569.got - 2010.04.16 15:00:50.
