data_PCOD8224455
_publ_section_title
;
Structure prediction by ZEFSAII (Michael W. Deem and Ramdas Pophale) SiO2 
 PCOD8224455
Probable space group: P B A M
;
_chemical_formula_sum "Si O2"
_cell_formula_units_Z 52
_cell_length_a 18.094694
_cell_length_b 4.867313
_cell_length_c 25.524289
_cell_angle_alpha 90.000000
_cell_angle_beta 90.000000
_cell_angle_gamma 90.000000
_cell_volume 2247.988947
_symmetry_space_group_name_H-M "P B A M"
_symmetry_group_IT_number 55
_symmetry_cell_setting 'orthorhombic'
loop_
_space_group_symop_operation_xyz
x,y,z
-x,-y,z
1/2+x,1/2-y,-z
1/2-x,1/2+y,-z
-x,-y,-z
x,y,-z
1/2-x,1/2+y,z
1/2+x,1/2-y,z
loop_
_atom_site_type_symbol
_atom_site_label
_atom_site_fract_x
_atom_site_fract_y
_atom_site_fract_z
Si Si1 0.633341 0.236672 0.282008
Si Si2 0.700423 0.226592 0.500000
Si Si3 0.797929 0.661288 0.823805
Si Si4 0.201543 0.705321 0.061169
Si Si5 0.916761 0.056856 0.134219
Si Si6 0.938690 0.228766 0.753038
Si Si7 0.299608 0.904677 0.609991
O O1 0.559211 0.047956 0.267149
O O2 0.648729 0.162349 0.341503
O O3 0.694812 0.145917 0.239485
O O4 0.627950 0.567184 0.276484
O O5 0.776105 0.044479 0.500000
O O6 0.657404 0.155236 0.554483
O O7 0.773516 0.351802 0.840868
O O8 0.873859 0.774679 0.849522
O O9 0.227656 0.397415 0.076343
O O10 0.124724 0.778763 0.088714
O O11 0.185312 0.737669 0.000000
O O12 0.922475 0.253433 0.185135
O O13 0.000000 0.000000 0.114103
O O14 0.000000 0.000000 0.740240
O O15 0.274533 0.219804 0.612310
#
# Coordination Sequence:
#
# PCOD8224455 Si02
#       7
#     8   4   8   8   8   8   8
#     4  11  20  33  53  78 105 143 185 225 272 333
#     4   8  16  28  44  66  99 136 165 208 270 328
#     4  11  21  35  54  80 114 150 186 229 284 339
#     4  10  22  42  65  88 115 149 189 234 286 340
#     4  10  22  39  60  86 117 152 192 236 281 340
#     4  10  22  37  52  76 109 143 182 226 276 329
#     4  10  18  30  47  73 105 134 170 216 268 329
#
# _framework density 23.131784
#
# number of rings (size 3 to 8) (size 9 to 14) (size 15 to 20)
#    0.000    1.846    0.000    5.077    0.000    2.769 
#    0.000    7.692    0.000    2.769    0.000    3.231 
#    0.000    0.000    0.000    0.000    0.000    0.000 
#
# Total GULP energy -644306.156000 kJ/mol
# GULP energy per Si atom -12390.503000 kJ/mol
# Density = 2.307914 g / cm^3
# Si number density = 23.131784 Si / 1000 Ang^3
#
#
#
# Elastic Constant Matrix: (Units=GPa)
#
#
# Indices 1 2 3 4 5 6 
#
# 1 70.8805 7.3775 8.9892 0.0000 0.0000 0.0000
# 2 7.3775 119.5015 12.3494 0.0000 0.0000 0.0000
# 3 8.9892 12.3494 81.9808 0.0000 0.0000 0.0000
# 4 0.0000 0.0000 0.0000 30.9254 0.0000 0.0000
# 5 0.0000 0.0000 0.0000 0.0000 22.4248 0.0000
# 6 0.0000 0.0000 0.0000 0.0000 0.0000 4.2497
#
#
#
# Elastic Compliance Matrix: (Units=1/GPa)
#
#
# Indices 1 2 3 4 5 6 
#
# 1 0.014371 -0.000736 -0.001465 0.000000 0.000000 0.000000
# 2 -0.000736 0.008538 -0.001205 0.000000 0.000000 0.000000
# 3 -0.001465 -0.001205 0.012540 0.000000 0.000000 0.000000
# 4 0.000000 0.000000 0.000000 0.032336 0.000000 0.000000
# 5 0.000000 0.000000 0.000000 0.000000 0.044594 0.000000
# 6 0.000000 0.000000 0.000000 0.000000 0.000000 0.235311
#
#
# Mechanical properties :
#
#
# Convention : Reuss Voigt Hill
#
# Bulk Modulus (GPa) = 34.92039 36.64389 35.78214
# Shear Modulus (GPa) = 13.73448 27.76308 20.74878
#
# Velocity S-wave (km/s) = 2.43934 3.46817 2.99821
# Velocity P-wave (km/s) = 4.80238 5.64919 5.24291
#
# Compressibility (1/GPa) = 0.02863656
#
# Stress axis : x y z
#
# Youngs Moduli (GPa) = 69.58639 117.12218 79.74358
#
# Poissons Ratio (x) = 0.08618 0.11682
# Poissons Ratio (y) = 0.05120 0.09613
# Poissons Ratio (z) = 0.10194 0.14119
#
# Static dielectric constant tensor:
#      x y z
#    x 4.063150 0.000000 0.000000 
#    y 0.000000 4.660250 0.000000 
#    z 0.000000 0.000000 4.483060 
# 
# 
# High freq. dielectric constant tensor:
#      x y z
#    x 1.874380 0.000000 0.000000 
#    y 0.000000 1.946160 0.000000 
#    z 0.000000 0.000000 1.919930 
# 
# From -- ./inp_files/24001.got.cif
#   From: 2010.03.12/outbox.cif.g09.slc.cpg/sg55_13_cif.got.tgz:24001.got - 2010.04.16 15:19:21.
