data_PCOD8224451
_publ_section_title
;
Structure prediction by ZEFSAII (Michael W. Deem and Ramdas Pophale) SiO2 
 PCOD8224451
Probable space group: P B A M
;
_chemical_formula_sum "Si O2"
_cell_formula_units_Z 64
_cell_length_a 19.054577
_cell_length_b 23.417095
_cell_length_c 8.578750
_cell_angle_alpha 90.000000
_cell_angle_beta 90.000000
_cell_angle_gamma 90.000000
_cell_volume 3827.862612
_symmetry_space_group_name_H-M "P B A M"
_symmetry_group_IT_number 55
_symmetry_cell_setting 'orthorhombic'
loop_
_space_group_symop_operation_xyz
x,y,z
-x,-y,z
1/2+x,1/2-y,-z
1/2-x,1/2+y,-z
-x,-y,-z
x,y,-z
1/2-x,1/2+y,z
1/2+x,1/2-y,z
loop_
_atom_site_type_symbol
_atom_site_label
_atom_site_fract_x
_atom_site_fract_y
_atom_site_fract_z
Si Si1 0.359505 0.060429 0.814592
Si Si2 0.849959 0.226102 0.817044
Si Si3 0.353812 0.932564 0.181860
Si Si4 0.006208 0.748475 0.680975
Si Si5 0.230124 0.662459 0.815686
Si Si6 0.777620 0.669429 0.681424
Si Si7 0.362504 0.727958 0.183317
Si Si8 0.997893 0.375761 0.818797
O O1 0.296649 0.101427 0.751080
O O2 0.433577 0.085908 0.757222
O O3 0.347926 0.996801 0.750266
O O4 0.360513 0.058075 0.000000
O O5 0.931125 0.220173 0.772368
O O6 0.823747 0.288472 0.760357
O O7 0.803514 0.178583 0.728755
O O8 0.839579 0.217197 0.000000
O O9 0.298292 0.895267 0.278015
O O10 0.432505 0.911644 0.211914
O O11 0.334524 0.929648 0.000000
O O12 0.021018 0.755170 0.500000
O O13 0.934745 0.781180 0.725565
O O14 0.998784 0.682335 0.723107
O O15 0.309063 0.677822 0.760493
O O16 0.228758 0.661190 0.000000
O O17 0.788804 0.681830 0.500000
O O18 0.828080 0.710849 0.780206
O O19 0.377499 0.725696 0.000000
O O20 0.988372 0.359503 0.000000
#
# Coordination Sequence:
#
# PCOD8224451 Si02
#       8
#     8   8   8   8   8   8   8   8
#     4   9  16  29  49  74  97 127 173 216 243 279
#     4  10  19  34  54  72  95 127 166 205 247 301
#     4  10  19  30  49  72  98 135 176 206 240 290
#     4  12  22  31  47  74 103 132 162 203 255 299
#     4   8  15  28  49  73  93 119 161 210 246 279
#     4  11  21  33  48  71 102 130 163 207 252 292
#     4  10  19  32  50  70  95 131 171 205 247 299
#     4  10  18  30  47  68  99 137 175 206 236 284
#
# _framework density 16.719514
#
# number of rings (size 3 to 8) (size 9 to 14) (size 15 to 20)
#    0.000    2.000    2.500    4.125    0.000    1.500 
#    0.000    0.625    0.000    1.500    0.000    0.875 
#    0.000    7.000    0.000    0.000    0.000    0.000 
#
# Total GULP energy -793577.169002 kJ/mol
# GULP energy per Si atom -12399.643266 kJ/mol
# Density = 1.668146 g / cm^3
# Si number density = 16.719514 Si / 1000 Ang^3
#
#
#
# Elastic Constant Matrix: (Units=GPa)
#
#
# Indices 1 2 3 4 5 6 
#
# 1 110.3881 52.9289 13.5305 0.0000 0.0000 0.0000
# 2 52.9289 87.9831 16.1974 0.0000 0.0000 0.0000
# 3 13.5305 16.1974 47.1380 0.0000 0.0000 0.0000
# 4 0.0000 0.0000 0.0000 7.6600 0.0000 0.0000
# 5 0.0000 0.0000 0.0000 0.0000 18.7391 0.0000
# 6 0.0000 0.0000 0.0000 0.0000 0.0000 24.8540
#
#
#
# Elastic Compliance Matrix: (Units=1/GPa)
#
#
# Indices 1 2 3 4 5 6 
#
# 1 0.012784 -0.007489 -0.001096 0.000000 0.000000 0.000000
# 2 -0.007489 0.016520 -0.003527 0.000000 0.000000 0.000000
# 3 -0.001096 -0.003527 0.022741 0.000000 0.000000 0.000000
# 4 0.000000 0.000000 0.000000 0.130549 0.000000 0.000000
# 5 0.000000 0.000000 0.000000 0.000000 0.053364 0.000000
# 6 0.000000 0.000000 0.000000 0.000000 0.000000 0.040235
#
#
# Mechanical properties :
#
#
# Convention : Reuss Voigt Hill
#
# Bulk Modulus (GPa) = 35.94406 45.64697 40.79552
# Shear Modulus (GPa) = 16.14509 21.10743 18.62626
#
# Velocity S-wave (km/s) = 3.11085 3.55694 3.34135
# Velocity P-wave (km/s) = 5.86925 6.65056 6.27209
#
# Compressibility (1/GPa) = 0.02782101
#
# Stress axis : x y z
#
# Youngs Moduli (GPa) = 78.22243 60.53172 43.97358
#
# Poissons Ratio (x) = 0.45331 0.04821
# Poissons Ratio (y) = 0.58579 0.15510
# Poissons Ratio (z) = 0.08575 0.21350
#
# Static dielectric constant tensor:
#      x y z
#    x 3.316650 0.000000 0.000000 
#    y 0.000000 3.200240 0.000000 
#    z 0.000000 0.000000 2.919730 
# 
# 
# High freq. dielectric constant tensor:
#      x y z
#    x 1.644860 0.000000 0.000000 
#    y 0.000000 1.616080 0.000000 
#    z 0.000000 0.000000 1.628210 
# 
# From -- ./inp_files/8192.got.cif
#   From: 2010.03.12/outbox.cif.g09.slc.cpg/sg55_5_cif.got.tgz:8192.got - 2010.04.16 15:19:21.
