data_PCOD8224932
_publ_section_title
;
Structure prediction by ZEFSAII (Michael W. Deem and Ramdas Pophale) SiO2 
 PCOD8224932
Probable space group: P B A M
;
_chemical_formula_sum "Si O2"
_cell_formula_units_Z 56
_cell_length_a 11.820956
_cell_length_b 23.041222
_cell_length_c 11.627589
_cell_angle_alpha 90.000000
_cell_angle_beta 90.000000
_cell_angle_gamma 90.000000
_cell_volume 3166.997945
_symmetry_space_group_name_H-M "P B A M"
_symmetry_group_IT_number 55
_symmetry_cell_setting 'orthorhombic'
loop_
_space_group_symop_operation_xyz
x,y,z
-x,-y,z
1/2+x,1/2-y,-z
1/2-x,1/2+y,-z
-x,-y,-z
x,y,-z
1/2-x,1/2+y,z
1/2+x,1/2-y,z
loop_
_atom_site_type_symbol
_atom_site_label
_atom_site_fract_x
_atom_site_fract_y
_atom_site_fract_z
Si Si1 0.853719 0.779342 0.134528
Si Si2 0.562250 0.411896 0.500000
Si Si3 0.779485 0.073526 0.740382
Si Si4 0.826795 0.956577 0.865582
Si Si5 0.985778 0.871617 0.260156
Si Si6 0.320864 0.472281 0.500000
Si Si7 0.655230 0.859209 0.134111
Si Si8 0.597511 0.148035 0.864404
O O1 0.957429 0.810590 0.199819
O O2 0.735968 0.807226 0.179676
O O3 0.852941 0.711543 0.160918
O O4 0.871649 0.792276 0.000000
O O5 0.567493 0.371138 0.611888
O O6 0.446098 0.447015 0.500000
O O7 0.666938 0.457596 0.500000
O O8 0.753552 0.049339 0.612638
O O9 0.667427 0.101775 0.791813
O O10 0.879036 0.121257 0.737763
O O11 0.816256 0.021332 0.821847
O O12 0.934140 0.926317 0.807389
O O13 0.712136 0.920959 0.836601
O O14 0.850645 0.957147 0.000000
O O15 0.529756 0.855520 0.186588
O O16 0.639802 0.849912 0.000000
O O17 0.604763 0.132935 0.000000
#
# Coordination Sequence:
#
# PCOD8224932 Si02
#       8
#     8   4   8   8   8   4   8   8
#     4   9  19  34  53  77 106 139 172 215 265 309
#     4   9  16  32  55  75 100 139 178 205 261 325
#     4  11  21  32  52  80 105 137 177 219 263 310
#     4  10  19  31  50  78 109 136 166 214 268 313
#     4  10  19  32  53  80 104 134 174 219 266 309
#     4   9  18  34  51  72 107 140 169 214 263 312
#     4   8  17  34  50  69 104 143 171 200 253 321
#     4  10  21  34  52  77 105 143 178 209 258 320
#
# _framework density 17.682361
#
# number of rings (size 3 to 8) (size 9 to 14) (size 15 to 20)
#    0.000    2.429    1.429    2.143    2.000    3.429 
#    0.000    2.857    0.000    5.143    0.000    0.000 
#    0.000    0.000    0.000    0.000    0.000    0.000 
#
# Total GULP energy -694329.414445 kJ/mol
# GULP energy per Si atom -12398.739544 kJ/mol
# Density = 1.764211 g / cm^3
# Si number density = 17.682361 Si / 1000 Ang^3
#
#
#
# Elastic Constant Matrix: (Units=GPa)
#
#
# Indices 1 2 3 4 5 6 
#
# 1 73.3969 2.0481 23.7865 0.0000 0.0000 0.0000
# 2 2.0481 37.1693 22.2840 0.0000 0.0000 0.0000
# 3 23.7865 22.2840 81.1172 0.0000 0.0000 0.0000
# 4 0.0000 0.0000 0.0000 15.1732 0.0000 0.0000
# 5 0.0000 0.0000 0.0000 0.0000 17.3862 0.0000
# 6 0.0000 0.0000 0.0000 0.0000 0.0000 18.0710
#
#
#
# Elastic Compliance Matrix: (Units=1/GPa)
#
#
# Indices 1 2 3 4 5 6 
#
# 1 0.015204 0.002197 -0.005062 0.000000 0.000000 0.000000
# 2 0.002197 0.032526 -0.009580 0.000000 0.000000 0.000000
# 3 -0.005062 -0.009580 0.016444 0.000000 0.000000 0.000000
# 4 0.000000 0.000000 0.000000 0.065906 0.000000 0.000000
# 5 0.000000 0.000000 0.000000 0.000000 0.057517 0.000000
# 6 0.000000 0.000000 0.000000 0.000000 0.000000 0.055337
#
#
# Mechanical properties :
#
#
# Convention : Reuss Voigt Hill
#
# Bulk Modulus (GPa) = 25.45522 31.99116 28.72319
# Shear Modulus (GPa) = 17.79885 19.69708 18.74797
#
# Velocity S-wave (km/s) = 3.17612 3.34119 3.25970
# Velocity P-wave (km/s) = 5.27990 5.74597 5.51786
#
# Compressibility (1/GPa) = 0.03928467
#
# Stress axis : x y z
#
# Youngs Moduli (GPa) = 65.77352 30.74460 60.81329
#
# Poissons Ratio (x) = -0.06754 0.30782
# Poissons Ratio (y) = -0.14450 0.58256
# Poissons Ratio (z) = 0.33293 0.29452
#
# Static dielectric constant tensor:
#      x y z
#    x 3.306580 0.000000 0.000000 
#    y 0.000000 3.207690 0.000000 
#    z 0.000000 0.000000 3.296620 
# 
# 
# High freq. dielectric constant tensor:
#      x y z
#    x 1.671380 0.000000 0.000000 
#    y 0.000000 1.676730 0.000000 
#    z 0.000000 0.000000 1.667970 
# 
# From -- ./inp_files/13537.got.cif
#   From: 2010.03.12/outbox.cif.g09.slc.cpg/sg55_7_cif.got.tgz:13537.got - 2010.04.16 15:19:21.
