data_PCOD8224375
_publ_section_title
;
Structure prediction by ZEFSAII (Michael W. Deem and Ramdas Pophale) SiO2 
 PCOD8224375
Probable space group: P B A M
;
_chemical_formula_sum "Si O2"
_cell_formula_units_Z 56
_cell_length_a 22.049115
_cell_length_b 17.751928
_cell_length_c 8.569799
_cell_angle_alpha 90.000000
_cell_angle_beta 90.000000
_cell_angle_gamma 90.000000
_cell_volume 3354.341893
_symmetry_space_group_name_H-M "P B A M"
_symmetry_group_IT_number 55
_symmetry_cell_setting 'orthorhombic'
loop_
_space_group_symop_operation_xyz
x,y,z
-x,-y,z
1/2+x,1/2-y,-z
1/2-x,1/2+y,-z
-x,-y,-z
x,y,-z
1/2-x,1/2+y,z
1/2+x,1/2-y,z
loop_
_atom_site_type_symbol
_atom_site_label
_atom_site_fract_x
_atom_site_fract_y
_atom_site_fract_z
Si Si1 0.848237 0.368038 0.817671
Si Si2 0.688692 0.724620 0.317601
Si Si3 0.211440 0.924560 0.817152
Si Si4 0.778860 0.919621 0.317792
Si Si5 0.569386 0.991915 0.319082
Si Si6 0.650691 0.115048 0.818570
Si Si7 0.686708 0.274843 0.820209
O O1 0.860719 0.288721 0.726751
O O2 0.785288 0.406321 0.765956
O O3 0.902758 0.424358 0.780880
O O4 0.846270 0.352014 0.000000
O O5 0.704202 0.728262 0.500000
O O6 0.670298 0.639925 0.266825
O O7 0.745790 0.746076 0.211495
O O8 0.281860 0.912075 0.774322
O O9 0.190685 0.004678 0.748350
O O10 0.199026 0.921794 0.000000
O O11 0.767181 0.926896 0.500000
O O12 0.825012 0.849939 0.282406
O O13 0.576123 0.971956 0.500000
O O14 0.602764 0.070684 0.285431
O O15 0.500000 0.000000 0.268241
O O16 0.642447 0.204501 0.780760
O O17 0.638347 0.098564 0.000000
O O18 0.680797 0.297709 0.000000
#
# Coordination Sequence:
#
# PCOD8224375 Si02
#       7
#     8   8   8   8   8   8   8
#     4  11  20  32  47  62  86 120 154 190 231 274
#     4  10  18  28  43  64  88 116 150 186 224 270
#     4  10  18  29  44  65  92 122 153 184 223 271
#     4  11  19  27  43  67  92 120 153 186 224 270
#     4  11  23  35  48  67  90 118 156 200 239 274
#     4   9  18  31  47  63  84 118 154 188 229 272
#     4   9  17  29  43  61  87 117 150 184 223 272
#
# _framework density 16.694780999999999
#
# number of rings (size 3 to 8) (size 9 to 14) (size 15 to 20)
#    0.000    1.857    1.429    7.714    0.000    4.000 
#    0.000    0.000    0.000    0.000    0.000    0.000 
#    0.000    1.143    0.000   12.000    0.000    6.571 
#
# Total GULP energy -694210.065886 kJ/mol
# GULP energy per Si atom -12396.608319 kJ/mol
# Density = 1.665678 g / cm^3
# Si number density = 16.694781 Si / 1000 Ang^3
#
#
#
# Elastic Constant Matrix: (Units=GPa)
#
#
# Indices 1 2 3 4 5 6 
#
# 1 34.8215 26.6330 16.1629 0.0000 0.0000 0.0000
# 2 26.6330 146.3695 37.1988 0.0000 0.0000 0.0000
# 3 16.1629 37.1988 76.7818 0.0000 0.0000 0.0000
# 4 0.0000 0.0000 0.0000 31.3399 0.0000 0.0000
# 5 0.0000 0.0000 0.0000 0.0000 13.9219 0.0000
# 6 0.0000 0.0000 0.0000 0.0000 0.0000 11.8962
#
#
#
# Elastic Compliance Matrix: (Units=1/GPa)
#
#
# Indices 1 2 3 4 5 6 
#
# 1 0.034886 -0.005111 -0.004868 0.000000 0.000000 0.000000
# 2 -0.005111 0.008540 -0.003062 0.000000 0.000000 0.000000
# 3 -0.004868 -0.003062 0.015532 0.000000 0.000000 0.000000
# 4 0.000000 0.000000 0.000000 0.031908 0.000000 0.000000
# 5 0.000000 0.000000 0.000000 0.000000 0.071829 0.000000
# 6 0.000000 0.000000 0.000000 0.000000 0.000000 0.084060
#
#
# Mechanical properties :
#
#
# Convention : Reuss Voigt Hill
#
# Bulk Modulus (GPa) = 30.41537 46.44025 38.42781
# Shear Modulus (GPa) = 17.61833 23.29680 20.45757
#
# Velocity S-wave (km/s) = 3.25209 3.73963 3.50435
# Velocity P-wave (km/s) = 5.68854 6.82085 6.28027
#
# Compressibility (1/GPa) = 0.03287811
#
# Stress axis : x y z
#
# Youngs Moduli (GPa) = 28.66463 117.09533 64.38382
#
# Poissons Ratio (x) = 0.59844 0.31340
# Poissons Ratio (y) = 0.14650 0.19712
# Poissons Ratio (z) = 0.13953 0.35850
#
# Static dielectric constant tensor:
#      x y z
#    x 2.588540 0.000000 0.000000 
#    y 0.000000 3.884620 0.000000 
#    z 0.000000 0.000000 3.151980 
# 
# 
# High freq. dielectric constant tensor:
#      x y z
#    x 1.554640 0.000000 0.000000 
#    y 0.000000 1.669190 0.000000 
#    z 0.000000 0.000000 1.660190 
# 
# From -- ./inp_files/9847.got.cif
#   From: 2010.03.12/outbox.cif.g09.slc.cpg/sg55_5_cif.got.tgz:9847.got - 2010.04.16 15:19:21.
