data_PCOD8224905
_publ_section_title
;
Structure prediction by ZEFSAII (Michael W. Deem and Ramdas Pophale) SiO2 
 PCOD8224905
Probable space group: P B A M
;
_chemical_formula_sum "Si O2"
_cell_formula_units_Z 64
_cell_length_a 20.290210
_cell_length_b 19.879339
_cell_length_c 9.194478
_cell_angle_alpha 90.000000
_cell_angle_beta 90.000000
_cell_angle_gamma 90.000000
_cell_volume 3708.647528
_symmetry_space_group_name_H-M "P B A M"
_symmetry_group_IT_number 55
_symmetry_cell_setting 'orthorhombic'
loop_
_space_group_symop_operation_xyz
x,y,z
-x,-y,z
1/2+x,1/2-y,-z
1/2-x,1/2+y,-z
-x,-y,-z
x,y,-z
1/2-x,1/2+y,z
1/2+x,1/2-y,z
loop_
_atom_site_type_symbol
_atom_site_label
_atom_site_fract_x
_atom_site_fract_y
_atom_site_fract_z
Si Si1 0.287563 0.318679 0.164530
Si Si2 0.419290 0.314151 0.326812
Si Si3 0.952950 0.441706 0.673636
Si Si4 0.823397 0.509549 0.669002
Si Si5 0.159602 0.335077 0.670821
Si Si6 0.985678 0.694613 0.328215
Si Si7 0.700488 0.521819 0.840188
Si Si8 0.059131 0.951706 0.829150
O O1 0.350205 0.290883 0.254784
O O2 0.219080 0.298322 0.243294
O O3 0.292288 0.398372 0.162434
O O4 0.288519 0.289685 0.000000
O O5 0.409447 0.318137 0.500000
O O6 0.475398 0.261023 0.280618
O O7 0.445200 0.384901 0.266762
O O8 0.955115 0.441814 0.500000
O O9 0.879102 0.458658 0.728042
O O10 0.000000 0.500000 0.734769
O O11 0.976544 0.370285 0.737933
O O12 0.814085 0.501256 0.500000
O O13 0.843412 0.585753 0.708600
O O14 0.753603 0.487363 0.736227
O O15 0.171676 0.323849 0.500000
O O16 0.090426 0.302746 0.724716
O O17 0.984949 0.686184 0.500000
O O18 0.625621 0.506473 0.791243
O O19 0.713948 0.492841 0.000000
O O20 0.058444 0.931794 0.000000
O O21 0.000000 0.000000 0.784834
#
# Coordination Sequence:
#
# PCOD8224905 Si02
#       8
#     8   8   8   8   8   8   8   8
#     4   9  17  30  47  67  92 123 161 201 237 283
#     4  10  19  31  49  74 100 127 158 199 247 294
#     4   9  14  24  43  69  98 128 161 194 227 272
#     4   9  15  23  43  70  93 119 157 196 225 263
#     4   9  15  26  46  72  95 120 157 202 241 275
#     4   9  17  28  45  71 102 130 158 196 245 289
#     4   8  15  27  44  66  91 117 146 188 237 281
#     4   9  18  34  55  74  92 122 160 198 246 299
#
# _framework density 17.256965999999998
#
# number of rings (size 3 to 8) (size 9 to 14) (size 15 to 20)
#    0.000    3.000    1.250    1.500    0.000    3.250 
#    0.000    1.250    2.750    2.625    0.000    0.000 
#    0.000    0.000    0.000    0.000    0.000    0.000 
#
# Total GULP energy -793221.827130 kJ/mol
# GULP energy per Si atom -12394.091049 kJ/mol
# Density = 1.721769 g / cm^3
# Si number density = 17.256966 Si / 1000 Ang^3
#
#
#
# Elastic Constant Matrix: (Units=GPa)
#
#
# Indices 1 2 3 4 5 6 
#
# 1 189.6278 57.8377 56.1508 0.0000 0.0000 0.0000
# 2 57.8377 54.4105 29.6419 0.0000 0.0000 0.0000
# 3 56.1508 29.6419 57.2226 0.0000 0.0000 0.0000
# 4 0.0000 0.0000 0.0000 8.5592 0.0000 0.0000
# 5 0.0000 0.0000 0.0000 0.0000 17.9682 0.0000
# 6 0.0000 0.0000 0.0000 0.0000 0.0000 25.3801
#
#
#
# Elastic Compliance Matrix: (Units=1/GPa)
#
#
# Indices 1 2 3 4 5 6 
#
# 1 0.008821 -0.006494 -0.005292 0.000000 0.000000 0.000000
# 2 -0.006494 0.030385 -0.009368 0.000000 0.000000 0.000000
# 3 -0.005292 -0.009368 0.027521 0.000000 0.000000 0.000000
# 4 0.000000 0.000000 0.000000 0.116834 0.000000 0.000000
# 5 0.000000 0.000000 0.000000 0.000000 0.055654 0.000000
# 6 0.000000 0.000000 0.000000 0.000000 0.000000 0.039401
#
#
# Mechanical properties :
#
#
# Convention : Reuss Voigt Hill
#
# Bulk Modulus (GPa) = 40.94955 65.39128 53.17042
# Shear Modulus (GPa) = 15.19469 20.89020 18.04245
#
# Velocity S-wave (km/s) = 2.97053 3.48305 3.23695
# Velocity P-wave (km/s) = 5.96207 7.35870 6.69689
#
# Compressibility (1/GPa) = 0.02442029
#
# Stress axis : x y z
#
# Youngs Moduli (GPa) = 113.36365 32.91119 36.33579
#
# Poissons Ratio (x) = 0.21372 0.19229
# Poissons Ratio (y) = 0.73615 0.34038
# Poissons Ratio (z) = 0.59993 0.30830
#
# Static dielectric constant tensor:
#      x y z
#    x 3.656700 0.000000 0.000000 
#    y 0.000000 2.888480 0.000000 
#    z 0.000000 0.000000 3.060750 
# 
# 
# High freq. dielectric constant tensor:
#      x y z
#    x 1.686450 0.000000 0.000000 
#    y 0.000000 1.619750 0.000000 
#    z 0.000000 0.000000 1.642100 
# 
# From -- ./inp_files/8168.got.cif
#   From: 2010.03.12/outbox.cif.g09.slc.cpg/sg55_5_cif.got.tgz:8168.got - 2010.04.16 15:19:21.
