data_PCOD8224795
_publ_section_title
;
Structure prediction by ZEFSAII (Michael W. Deem and Ramdas Pophale) SiO2 
 PCOD8224795
Probable space group: P B A M
;
_chemical_formula_sum "Si O2"
_cell_formula_units_Z 60
_cell_length_a 25.780193
_cell_length_b 10.365484
_cell_length_c 13.676152
_cell_angle_alpha 90.000000
_cell_angle_beta 90.000000
_cell_angle_gamma 90.000000
_cell_volume 3654.598477
_symmetry_space_group_name_H-M "P B A M"
_symmetry_group_IT_number 55
_symmetry_cell_setting 'orthorhombic'
loop_
_space_group_symop_operation_xyz
x,y,z
-x,-y,z
1/2+x,1/2-y,-z
1/2-x,1/2+y,-z
-x,-y,-z
x,y,-z
1/2-x,1/2+y,z
1/2+x,1/2-y,z
loop_
_atom_site_type_symbol
_atom_site_label
_atom_site_fract_x
_atom_site_fract_y
_atom_site_fract_z
Si Si1 0.594493 0.654257 0.200183
Si Si2 0.391307 0.074581 0.888711
Si Si3 0.916479 0.287355 0.392593
Si Si4 0.199295 0.919827 0.882768
Si Si5 0.000000 0.000000 0.258867
Si Si6 0.560011 0.035850 0.290026
Si Si7 0.225497 0.638574 0.112500
Si Si8 0.035515 0.215153 0.608706
O O1 0.586862 0.784010 0.137600
O O2 0.607775 0.688947 0.313570
O O3 0.640833 0.567174 0.157805
O O4 0.539260 0.581409 0.191333
O O5 0.329761 0.071197 0.872739
O O6 0.417025 0.966359 0.819850
O O7 0.406073 0.041699 0.000000
O O8 0.890693 0.268223 0.500000
O O9 0.908335 0.433997 0.356586
O O10 0.977296 0.264001 0.400172
O O11 0.224581 0.784360 0.843612
O O12 0.231637 0.042028 0.840735
O O13 0.197179 0.916799 0.000000
O O14 0.037341 0.085666 0.327763
O O15 0.569439 0.176012 0.336716
O O16 0.500000 0.000000 0.284372
O O17 0.239908 0.651652 0.000000
O O18 0.058188 0.188857 0.500000
#
# Coordination Sequence:
#
# PCOD8224795 Si02
#       8
#     8   8   8   8   4   8   8   8
#     4   9  17  29  46  66  92 122 153 185 225 280
#     4   9  17  31  48  65  90 124 155 187 230 279
#     4   8  14  25  43  65  86 112 150 189 225 266
#     4   9  16  30  49  70  90 115 150 194 238 277
#     4  10  19  30  41  62  96 128 157 188 225 280
#     4   9  16  26  42  66  92 116 150 190 223 268
#     4   8  15  28  48  68  88 112 148 195 237 271
#     4   9  16  27  43  62  89 121 149 188 232 263
#
# _framework density 16.417673000000001
#
# number of rings (size 3 to 8) (size 9 to 14) (size 15 to 20)
#    0.000    3.200    0.000    2.600    0.000    2.400 
#    2.400    1.333    0.000    0.800    0.000    9.333 
#    0.000    0.000    0.000    0.000    0.000    0.000 
#
# Total GULP energy -743563.053673 kJ/mol
# GULP energy per Si atom -12392.717561 kJ/mol
# Density = 1.638031 g / cm^3
# Si number density = 16.417673 Si / 1000 Ang^3
#
#
#
# Elastic Constant Matrix: (Units=GPa)
#
#
# Indices 1 2 3 4 5 6 
#
# 1 55.0897 34.2517 27.2792 0.0000 0.0000 0.0000
# 2 34.2517 64.5276 15.0721 0.0000 0.0000 0.0000
# 3 27.2792 15.0721 71.0784 0.0000 0.0000 0.0000
# 4 0.0000 0.0000 0.0000 18.8329 0.0000 0.0000
# 5 0.0000 0.0000 0.0000 0.0000 6.8736 0.0000
# 6 0.0000 0.0000 0.0000 0.0000 0.0000 26.3100
#
#
#
# Elastic Compliance Matrix: (Units=1/GPa)
#
#
# Indices 1 2 3 4 5 6 
#
# 1 0.031840 -0.014779 -0.009086 0.000000 0.000000 0.000000
# 2 -0.014779 0.023164 0.000760 0.000000 0.000000 0.000000
# 3 -0.009086 0.000760 0.017395 0.000000 0.000000 0.000000
# 4 0.000000 0.000000 0.000000 0.053099 0.000000 0.000000
# 5 0.000000 0.000000 0.000000 0.000000 0.145484 0.000000
# 6 0.000000 0.000000 0.000000 0.000000 0.000000 0.038008
#
#
# Mechanical properties :
#
#
# Convention : Reuss Voigt Hill
#
# Bulk Modulus (GPa) = 38.18287 38.21129 38.19708
# Shear Modulus (GPa) = 13.73893 18.00948 15.87421
#
# Velocity S-wave (km/s) = 2.89595 3.31563 3.11287
# Velocity P-wave (km/s) = 5.87280 6.16302 6.01966
#
# Compressibility (1/GPa) = 0.02618975
#
# Stress axis : x y z
#
# Youngs Moduli (GPa) = 31.40718 43.16993 57.48785
#
# Poissons Ratio (x) = 0.63799 0.52234
# Poissons Ratio (y) = 0.46415 -0.04368
# Poissons Ratio (z) = 0.28537 -0.03280
#
# Static dielectric constant tensor:
#      x y z
#    x 2.811230 0.000000 0.000000 
#    y 0.000000 3.227900 0.000000 
#    z 0.000000 0.000000 3.235790 
# 
# 
# High freq. dielectric constant tensor:
#      x y z
#    x 1.589060 0.000000 0.000000 
#    y 0.000000 1.630590 0.000000 
#    z 0.000000 0.000000 1.618580 
# 
# From -- ./inp_files/19999.got.cif
#   From: 2010.03.12/outbox.cif.g09.slc.cpg/sg55_10_cif.got.tgz:19999.got - 2010.04.16 15:19:21.
