data_PCOD8224810
_publ_section_title
;
Structure prediction by ZEFSAII (Michael W. Deem and Ramdas Pophale) SiO2 
 PCOD8224810
Probable space group: P B A M
;
_chemical_formula_sum "Si O2"
_cell_formula_units_Z 40
_cell_length_a 6.559177
_cell_length_b 18.006129
_cell_length_c 13.057911
_cell_angle_alpha 90.000000
_cell_angle_beta 90.000000
_cell_angle_gamma 90.000000
_cell_volume 1542.209635
_symmetry_space_group_name_H-M "P B A M"
_symmetry_group_IT_number 55
_symmetry_cell_setting 'orthorhombic'
loop_
_space_group_symop_operation_xyz
x,y,z
-x,-y,z
1/2+x,1/2-y,-z
1/2-x,1/2+y,-z
-x,-y,-z
x,y,-z
1/2-x,1/2+y,z
1/2+x,1/2-y,z
loop_
_atom_site_type_symbol
_atom_site_label
_atom_site_fract_x
_atom_site_fract_y
_atom_site_fract_z
Si Si1 0.680116 0.604818 0.000000
Si Si2 0.290845 0.058815 0.612787
Si Si3 0.146034 0.643555 0.804270
Si Si4 0.822404 0.103229 0.613030
Si Si5 0.101399 0.812878 0.195607
Si Si6 0.792745 0.440125 0.000000
O O1 0.731439 0.655507 0.900361
O O2 0.816612 0.529780 0.000000
O O3 0.443566 0.582153 0.000000
O O4 0.367082 0.084023 0.500000
O O5 0.419934 0.104285 0.697831
O O6 0.052565 0.075468 0.623276
O O7 0.323214 0.969526 0.626638
O O8 0.388720 0.646170 0.804211
O O9 0.051585 0.725731 0.812072
O O10 0.087385 0.593810 0.902319
O O11 0.787602 0.138729 0.500000
O O12 0.775053 0.164752 0.700969
#
# Coordination Sequence:
#
# PCOD8224810 Si02
#       6
#     4   8   8   8   8   4
#     4   9  17  30  49  69  86 111 152 192 218 249
#     4   8  14  26  45  67  88 113 150 190 219 248
#     4  10  19  30  46  68  93 118 144 179 223 266
#     4   8  14  26  45  67  88 113 150 190 219 248
#     4  10  19  30  46  68  93 118 144 179 223 266
#     4   9  17  30  49  69  86 111 152 192 218 249
#
# _framework density 25.936813000000001
#
# number of rings (size 3 to 8) (size 9 to 14) (size 15 to 20)
#    0.000    3.000    0.000    3.000    0.000    5.600 
#    0.000    0.000    0.000    6.000    0.000    2.800 
#    0.000    0.000    0.000    0.000    0.000    0.000 
#
# Total GULP energy -496008.468122 kJ/mol
# GULP energy per Si atom -12400.211703 kJ/mol
# Density = 2.587778 g / cm^3
# Si number density = 25.936813 Si / 1000 Ang^3
#
#
#
# Elastic Constant Matrix: (Units=GPa)
#
#
# Indices 1 2 3 4 5 6 
#
# 1 37.6616 12.8879 -2.8108 0.0000 0.0000 0.0000
# 2 12.8879 182.9638 132.9730 0.0000 0.0000 0.0000
# 3 -2.8108 132.9730 282.3401 0.0000 0.0000 0.0000
# 4 0.0000 0.0000 0.0000 48.1270 0.0000 0.0000
# 5 0.0000 0.0000 0.0000 0.0000 -15.4992 0.0000
# 6 0.0000 0.0000 0.0000 0.0000 0.0000 42.9404
#
#
#
# Elastic Compliance Matrix: (Units=1/GPa)
#
#
# Indices 1 2 3 4 5 6 
#
# 1 0.027812 -0.003285 0.001824 0.000000 0.000000 0.000000
# 2 -0.003285 0.008698 -0.004129 0.000000 0.000000 0.000000
# 3 0.001824 -0.004129 0.005505 0.000000 0.000000 0.000000
# 4 0.000000 0.000000 0.000000 0.020778 0.000000 0.000000
# 5 0.000000 0.000000 0.000000 0.000000 -0.064519 0.000000
# 6 0.000000 0.000000 0.000000 0.000000 0.000000 0.023288
#
#
# Mechanical properties :
#
#
# Convention : Reuss Voigt Hill
#
# Bulk Modulus (GPa) = 32.43057 87.67396 60.05226
# Shear Modulus (GPa) = 116.22479 39.10798 77.66638
#
# Velocity S-wave (km/s) = 6.70135 3.88728 5.47809
# Velocity P-wave (km/s) = 8.50930 7.35011 7.95086
#
# Compressibility (1/GPa) = 0.03083511
#
# Stress axis : x y z
#
# Youngs Moduli (GPa) = 35.95524 114.97100 181.66435
#
# Poissons Ratio (x) = 0.37763 -0.33132
# Poissons Ratio (y) = 0.11810 0.75011
# Poissons Ratio (z) = -0.06558 0.47473
#
# Static dielectric constant tensor:
#      x y z
#    x 4.614740 0.000000 0.000000 
#    y 0.000000 4.411150 0.000000 
#    z 0.000000 0.000000 5.178630 
# 
# 
# High freq. dielectric constant tensor:
#      x y z
#    x 2.082340 0.000000 0.000000 
#    y 0.000000 2.013080 0.000000 
#    z 0.000000 0.000000 2.045970 
# 
# From -- ./inp_files/17105.got.cif
#   From: 2010.03.12/outbox.cif.g09.slc.cpg/sg55_9_cif.got.tgz:17105.got - 2010.04.16 15:19:21.
