data_PCOD8224633
_publ_section_title
;
Structure prediction by ZEFSAII (Michael W. Deem and Ramdas Pophale) SiO2 
 PCOD8224633
Probable space group: P B A M
;
_chemical_formula_sum "Si O2"
_cell_formula_units_Z 48
_cell_length_a 15.194188
_cell_length_b 19.241342
_cell_length_c 8.535350
_cell_angle_alpha 90.000000
_cell_angle_beta 90.000000
_cell_angle_gamma 90.000000
_cell_volume 2495.365630
_symmetry_space_group_name_H-M "P B A M"
_symmetry_group_IT_number 55
_symmetry_cell_setting 'orthorhombic'
loop_
_space_group_symop_operation_xyz
x,y,z
-x,-y,z
1/2+x,1/2-y,-z
1/2-x,1/2+y,-z
-x,-y,-z
x,y,-z
1/2-x,1/2+y,z
1/2+x,1/2-y,z
loop_
_atom_site_type_symbol
_atom_site_label
_atom_site_fract_x
_atom_site_fract_y
_atom_site_fract_z
Si Si1 0.723303 0.573781 0.313848
Si Si2 0.874703 0.826588 0.313820
Si Si3 0.525917 0.923318 0.816260
Si Si4 0.284631 0.077195 0.314433
Si Si5 0.876708 0.670828 0.314389
Si Si6 0.972408 0.075475 0.686866
O O1 0.724392 0.574787 0.500000
O O2 0.749586 0.497204 0.255665
O O3 0.792940 0.629051 0.244987
O O4 0.625849 0.593172 0.252363
O O5 0.880249 0.825662 0.500000
O O6 0.785652 0.865049 0.261466
O O7 0.874924 0.748721 0.244698
O O8 0.959830 0.867268 0.246569
O O9 0.625528 0.905250 0.773352
O O10 0.466424 0.866352 0.732213
O O11 0.500000 0.000000 0.753732
O O12 0.510349 0.918137 0.000000
O O13 0.300721 0.077766 0.500000
O O14 0.870449 0.673443 0.500000
O O15 0.975175 0.074494 0.500000
O O16 0.000000 0.000000 0.751177
#
# Coordination Sequence:
#
# PCOD8224633 Si02
#       6
#     8   8   8   8   8   8
#     4   9  16  26  46  73 103 136 169 206 259 319
#     4   9  18  30  49  80 112 137 170 218 266 316
#     4  11  23  37  54  77 104 141 187 226 262 312
#     4  10  18  32  55  81 105 135 175 217 263 317
#     4  10  20  34  52  79 110 138 172 221 275 316
#     4   9  14  24  44  73 107 138 166 206 261 317
#
# _framework density 19.235658999999998
#
# number of rings (size 3 to 8) (size 9 to 14) (size 15 to 20)
#    0.000    2.333    3.333    0.500    0.000    2.000 
#    0.000    5.833    0.000    0.000    0.000    3.500 
#    0.000    0.000    0.000    0.000    0.000    0.000 
#
# Total GULP energy -595177.299337 kJ/mol
# GULP energy per Si atom -12399.527070 kJ/mol
# Density = 1.919188 g / cm^3
# Si number density = 19.235659 Si / 1000 Ang^3
#
#
#
# Elastic Constant Matrix: (Units=GPa)
#
#
# Indices 1 2 3 4 5 6 
#
# 1 168.5891 85.0384 -1.5736 0.0000 0.0000 0.0000
# 2 85.0384 180.3718 6.6142 0.0000 0.0000 0.0000
# 3 -1.5736 6.6142 5.9459 0.0000 0.0000 0.0000
# 4 0.0000 0.0000 0.0000 7.5273 0.0000 0.0000
# 5 0.0000 0.0000 0.0000 0.0000 3.2482 0.0000
# 6 0.0000 0.0000 0.0000 0.0000 0.0000 36.8087
#
#
#
# Elastic Compliance Matrix: (Units=1/GPa)
#
#
# Indices 1 2 3 4 5 6 
#
# 1 0.008023 -0.004025 0.006601 0.000000 0.000000 0.000000
# 2 -0.004025 0.007799 -0.009741 0.000000 0.000000 0.000000
# 3 0.006601 -0.009741 0.180765 0.000000 0.000000 0.000000
# 4 0.000000 0.000000 0.000000 0.132850 0.000000 0.000000
# 5 0.000000 0.000000 0.000000 0.000000 0.307858 0.000000
# 6 0.000000 0.000000 0.000000 0.000000 0.000000 0.027167
#
#
# Mechanical properties :
#
#
# Convention : Reuss Voigt Hill
#
# Bulk Modulus (GPa) = 5.48672 59.45162 32.46917
# Shear Modulus (GPa) = 6.76091 27.17204 16.96648
#
# Velocity S-wave (km/s) = 1.87681 3.76252 2.97313
# Velocity P-wave (km/s) = 2.74866 7.06042 5.35745
#
# Compressibility (1/GPa) = 0.18225817
#
# Stress axis : x y z
#
# Youngs Moduli (GPa) = 124.63685 128.22504 5.53203
#
# Poissons Ratio (x) = 0.51607 -0.03651
# Poissons Ratio (y) = 0.50163 0.05388
# Poissons Ratio (z) = -0.82267 1.24898
#
# Static dielectric constant tensor:
#      x y z
#    x 3.754410 0.000000 0.000000 
#    y 0.000000 3.768250 0.000000 
#    z 0.000000 0.000000 2.859060 
# 
# 
# High freq. dielectric constant tensor:
#      x y z
#    x 1.766900 0.000000 0.000000 
#    y 0.000000 1.750500 0.000000 
#    z 0.000000 0.000000 1.685930 
# 
# From -- ./inp_files/5666.got.cif
#   From: 2010.03.12/outbox.cif.g09.slc.cpg/sg55_3_cif.got.tgz:5666.got - 2010.04.16 15:19:21.
