data_PCOD8224293
_publ_section_title
;
Structure prediction by ZEFSAII (Michael W. Deem and Ramdas Pophale) SiO2 
 PCOD8224293
Probable space group: P B A M
;
_chemical_formula_sum "Si O2"
_cell_formula_units_Z 64
_cell_length_a 23.640100
_cell_length_b 19.125378
_cell_length_c 8.718616
_cell_angle_alpha 90.000000
_cell_angle_beta 90.000000
_cell_angle_gamma 90.000000
_cell_volume 3941.911656
_symmetry_space_group_name_H-M "P B A M"
_symmetry_group_IT_number 55
_symmetry_cell_setting 'orthorhombic'
loop_
_space_group_symop_operation_xyz
x,y,z
-x,-y,z
1/2+x,1/2-y,-z
1/2-x,1/2+y,-z
-x,-y,-z
x,y,-z
1/2-x,1/2+y,z
1/2+x,1/2-y,z
loop_
_atom_site_type_symbol
_atom_site_label
_atom_site_fract_x
_atom_site_fract_y
_atom_site_fract_z
Si Si1 0.437306 0.858041 0.318147
Si Si2 0.937307 0.358039 0.318147
Si Si3 0.728237 0.349165 0.178837
Si Si4 0.228235 0.849168 0.821163
Si Si5 0.762278 0.499999 0.177025
Si Si6 0.667261 0.229650 0.680724
Si Si7 0.383486 0.000001 0.318748
Si Si8 0.167260 0.729652 0.680724
O O1 0.439983 0.863960 0.500000
O O2 0.500000 0.843103 0.251184
O O3 0.395579 0.794786 0.270408
O O4 0.413943 0.931222 0.250228
O O5 0.939984 0.363959 0.500000
O O6 0.913942 0.431220 0.250228
O O7 0.895580 0.294784 0.270409
O O8 0.724488 0.431787 0.214572
O O9 0.677045 0.309676 0.266177
O O10 0.788296 0.320725 0.236304
O O11 0.722463 0.333241 0.000000
O O12 0.288295 0.820728 0.763695
O O13 0.177044 0.809679 0.733822
O O14 0.224487 0.931790 0.785430
O O15 0.222462 0.833242 0.000000
O O16 0.817819 0.500000 0.279139
O O17 0.781441 0.499998 0.000000
O O18 0.676841 0.222757 0.500000
O O19 0.388774 0.000001 0.500000
O O20 0.176840 0.722760 0.500000
#
# Coordination Sequence:
#
# PCOD8224293 Si02
#       8
#     8   8   8   8   8   8   8   8
#     4   9  17  28  44  67  93 121 153 186 221 261
#     4   9  17  28  44  67  93 121 153 186 221 261
#     4  10  19  31  46  63  89 120 149 184 228 271
#     4  10  19  31  46  63  89 120 149 184 228 271
#     4  10  20  31  45  65  91 123 152 182 226 271
#     4  10  18  29  46  68  90 115 150 188 223 262
#     4  10  17  28  46  66  90 123 157 187 212 252
#     4  10  18  29  46  68  90 115 150 188 223 262
#
# _framework density 16.235776999999999
#
# number of rings (size 3 to 8) (size 9 to 14) (size 15 to 20)
#    0.000    2.250    2.500    3.375    0.000    2.500 
#    0.000    0.000    0.000    7.500    0.000    0.875 
#    0.000    7.000    0.000    0.000    0.000    0.000 
#
# Total GULP energy -793360.821335 kJ/mol
# GULP energy per Si atom -12396.262833 kJ/mol
# Density = 1.619882 g / cm^3
# Si number density = 16.235777 Si / 1000 Ang^3
#
#
#
# Elastic Constant Matrix: (Units=GPa)
#
#
# Indices 1 2 3 4 5 6 
#
# 1 109.9036 67.3625 13.5631 0.0000 0.0000 0.0000
# 2 67.3625 127.3659 12.2586 0.0000 0.0000 0.0000
# 3 13.5631 12.2586 17.5944 0.0000 0.0000 0.0000
# 4 0.0000 0.0000 0.0000 21.0755 0.0000 0.0000
# 5 0.0000 0.0000 0.0000 0.0000 0.2340 0.0000
# 6 0.0000 0.0000 0.0000 0.0000 0.0000 24.3340
#
#
#
# Elastic Compliance Matrix: (Units=1/GPa)
#
#
# Indices 1 2 3 4 5 6 
#
# 1 0.014040 -0.006843 -0.006056 0.000000 0.000000 0.000000
# 2 -0.006843 0.011751 -0.002912 0.000000 0.000000 0.000000
# 3 -0.006056 -0.002912 0.063534 0.000000 0.000000 0.000000
# 4 0.000000 0.000000 0.000000 0.047448 0.000000 0.000000
# 5 0.000000 0.000000 0.000000 0.000000 4.273447 0.000000
# 6 0.000000 0.000000 0.000000 0.000000 0.000000 0.041095
#
#
# Mechanical properties :
#
#
# Convention : Reuss Voigt Hill
#
# Bulk Modulus (GPa) = 17.33006 49.02581 33.17794
# Shear Modulus (GPa) = 1.11058 19.90735 10.50896
#
# Velocity S-wave (km/s) = 0.82796 3.50543 2.54691
# Velocity P-wave (km/s) = 3.40752 6.82977 5.39708
#
# Compressibility (1/GPa) = 0.05770319
#
# Stress axis : x y z
#
# Youngs Moduli (GPa) = 71.22276 85.10003 15.73972
#
# Poissons Ratio (x) = 0.58234 0.09532
# Poissons Ratio (y) = 0.48738 0.04584
# Poissons Ratio (z) = 0.43130 0.24782
#
# Static dielectric constant tensor:
#      x y z
#    x 3.097490 0.000000 0.000000 
#    y 0.000000 3.364390 0.000000 
#    z 0.000000 0.000000 2.943140 
# 
# 
# High freq. dielectric constant tensor:
#      x y z
#    x 1.596960 0.000000 0.000000 
#    y 0.000000 1.624240 0.000000 
#    z 0.000000 0.000000 1.613000 
# 
# From -- ./inp_files/9889.got.cif
#   From: 2010.03.12/outbox.cif.g09.slc.cpg/sg55_5_cif.got.tgz:9889.got - 2010.04.16 15:19:21.
