data_PCOD8224820
_publ_section_title
;
Structure prediction by ZEFSAII (Michael W. Deem and Ramdas Pophale) SiO2 
 PCOD8224820
Probable space group: P B A M
;
_chemical_formula_sum "Si O2"
_cell_formula_units_Z 56
_cell_length_a 13.609057
_cell_length_b 29.282727
_cell_length_c 8.848552
_cell_angle_alpha 90.000000
_cell_angle_beta 90.000000
_cell_angle_gamma 90.000000
_cell_volume 3526.239120
_symmetry_space_group_name_H-M "P B A M"
_symmetry_group_IT_number 55
_symmetry_cell_setting 'orthorhombic'
loop_
_space_group_symop_operation_xyz
x,y,z
-x,-y,z
1/2+x,1/2-y,-z
1/2-x,1/2+y,-z
-x,-y,-z
x,y,-z
1/2-x,1/2+y,z
1/2+x,1/2-y,z
loop_
_atom_site_type_symbol
_atom_site_label
_atom_site_fract_x
_atom_site_fract_y
_atom_site_fract_z
Si Si1 0.388363 0.591245 0.177685
Si Si2 0.888368 0.091247 0.822315
Si Si3 0.712941 0.683981 0.179547
Si Si4 0.116738 0.999999 0.670863
Si Si5 0.712948 0.316020 0.179547
Si Si6 0.387571 0.768778 0.677122
Si Si7 0.887578 0.268779 0.322878
O O1 0.499997 0.599535 0.233829
O O2 0.341958 0.545683 0.250566
O O3 0.322870 0.634002 0.229043
O O4 0.386067 0.584577 0.000000
O O5 0.822878 0.134004 0.770953
O O6 0.841961 0.045685 0.749437
O O7 0.886072 0.084580 0.000000
O O8 0.820882 0.691659 0.249287
O O9 0.636669 0.720559 0.245749
O O10 0.716404 0.689650 0.000000
O O11 0.153431 0.999998 0.500000
O O12 0.000000 0.000000 0.686363
O O13 0.636675 0.279443 0.245749
O O14 0.820890 0.308343 0.249286
O O15 0.716412 0.310351 0.000000
O O16 0.364941 0.765019 0.500000
O O17 0.499996 0.781662 0.709130
O O18 0.864948 0.265021 0.500000
#
# Coordination Sequence:
#
# PCOD8224820 Si02
#       7
#     8   8   8   8   8   8   8
#     4   9  17  29  44  63  89 118 145 176 216 259
#     4   9  17  29  44  63  89 118 145 176 216 259
#     4  10  19  30  47  68  88 115 151 186 219 258
#     4   9  17  27  41  63  88 115 146 177 211 254
#     4  10  19  30  47  68  88 115 151 186 219 258
#     4  10  20  32  45  63  90 121 149 181 221 262
#     4  10  20  32  45  63  90 121 149 181 221 262
#
# _framework density 15.880941999999999
#
# number of rings (size 3 to 8) (size 9 to 14) (size 15 to 20)
#    0.000    2.429    0.000    4.714    0.000    7.429 
#    0.000    2.857    0.000    0.000    0.000    1.000 
#    0.000    8.000    0.000    0.000    0.000    0.000 
#
# Total GULP energy -694381.794979 kJ/mol
# GULP energy per Si atom -12399.674910 kJ/mol
# Density = 1.584480 g / cm^3
# Si number density = 15.880942 Si / 1000 Ang^3
#
#
#
# Elastic Constant Matrix: (Units=GPa)
#
#
# Indices 1 2 3 4 5 6 
#
# 1 92.6589 62.7480 43.1530 0.0000 0.0000 0.0000
# 2 62.7480 156.9878 54.1901 0.0000 0.0000 0.0000
# 3 43.1530 54.1901 72.2831 0.0000 0.0000 0.0000
# 4 0.0000 0.0000 0.0000 9.0324 0.0000 0.0000
# 5 0.0000 0.0000 0.0000 0.0000 22.8464 0.0000
# 6 0.0000 0.0000 0.0000 0.0000 0.0000 22.9407
#
#
#
# Elastic Compliance Matrix: (Units=1/GPa)
#
#
# Indices 1 2 3 4 5 6 
#
# 1 0.016962 -0.004431 -0.006804 0.000000 0.000000 0.000000
# 2 -0.004431 0.009751 -0.004665 0.000000 0.000000 0.000000
# 3 -0.006804 -0.004665 0.021394 0.000000 0.000000 0.000000
# 4 0.000000 0.000000 0.000000 0.110713 0.000000 0.000000
# 5 0.000000 0.000000 0.000000 0.000000 0.043771 0.000000
# 6 0.000000 0.000000 0.000000 0.000000 0.000000 0.043591
#
#
# Mechanical properties :
#
#
# Convention : Reuss Voigt Hill
#
# Bulk Modulus (GPa) = 61.32606 71.34576 66.33591
# Shear Modulus (GPa) = 17.64179 21.75314 19.69746
#
# Velocity S-wave (km/s) = 3.33660 3.70505 3.52564
# Velocity P-wave (km/s) = 7.31737 7.95777 7.64428
#
# Compressibility (1/GPa) = 0.01630628
#
# Stress axis : x y z
#
# Youngs Moduli (GPa) = 58.95627 102.55033 46.74154
#
# Poissons Ratio (x) = 0.45438 0.31805
# Poissons Ratio (y) = 0.26122 0.21806
# Poissons Ratio (z) = 0.40116 0.47843
#
# Static dielectric constant tensor:
#      x y z
#    x 2.877700 0.000000 0.000000 
#    y 0.000000 3.092610 0.000000 
#    z 0.000000 0.000000 3.102150 
# 
# 
# High freq. dielectric constant tensor:
#      x y z
#    x 1.579280 0.000000 0.000000 
#    y 0.000000 1.607200 0.000000 
#    z 0.000000 0.000000 1.624210 
# 
# From -- ./inp_files/6879.got.cif
#   From: 2010.03.12/outbox.cif.g09.slc.cpg/sg55_4_cif.got.tgz:6879.got - 2010.04.16 15:19:21.
