data_PCOD8224503
_publ_section_title
;
Structure prediction by ZEFSAII (Michael W. Deem and Ramdas Pophale) SiO2 
 PCOD8224503
Probable space group: P B A M
;
_chemical_formula_sum "Si O2"
_cell_formula_units_Z 64
_cell_length_a 22.695049
_cell_length_b 14.101039
_cell_length_c 9.245747
_cell_angle_alpha 90.000000
_cell_angle_beta 90.000000
_cell_angle_gamma 90.000000
_cell_volume 2958.858821
_symmetry_space_group_name_H-M "P B A M"
_symmetry_group_IT_number 55
_symmetry_cell_setting 'orthorhombic'
loop_
_space_group_symop_operation_xyz
x,y,z
-x,-y,z
1/2+x,1/2-y,-z
1/2-x,1/2+y,-z
-x,-y,-z
x,y,-z
1/2-x,1/2+y,z
1/2+x,1/2-y,z
loop_
_atom_site_type_symbol
_atom_site_label
_atom_site_fract_x
_atom_site_fract_y
_atom_site_fract_z
Si Si1 0.316449 0.869331 0.666261
Si Si2 0.473618 0.633227 0.162134
Si Si3 0.589385 0.641183 0.666100
Si Si4 0.174167 0.550998 0.833911
Si Si5 0.280416 0.683000 0.832913
Si Si6 0.074428 0.640952 0.335719
Si Si7 0.945413 0.692381 0.663909
Si Si8 0.138170 0.014268 0.161411
O O1 0.295645 0.873373 0.500000
O O2 0.287994 0.776044 0.736416
O O3 0.387576 0.871548 0.677552
O O4 0.294901 0.963083 0.750490
O O5 0.527596 0.610300 0.265619
O O6 0.437181 0.722347 0.223927
O O7 0.430310 0.543932 0.157585
O O8 0.496204 0.656732 0.000000
O O9 0.588685 0.611794 0.500000
O O10 0.598633 0.752681 0.688269
O O11 0.642067 0.581539 0.742720
O O12 0.213979 0.644762 0.816518
O O13 0.109687 0.572017 0.769981
O O14 0.167088 0.521210 0.000000
O O15 0.323024 0.599583 0.773490
O O16 0.295821 0.706498 0.000000
O O17 0.086256 0.608049 0.500000
O O18 0.004795 0.633461 0.298706
O O19 0.952459 0.732622 0.500000
O O20 0.161298 0.990465 0.000000
#
# Coordination Sequence:
#
# PCOD8224503 Si02
#       8
#     8   8   8   8   8   8   8   8
#     4  11  23  41  68  96 123 156 199 251 306 363
#     4  10  18  30  52  82 117 157 199 245 293 354
#     4  10  21  34  52  81 120 161 196 242 300 358
#     4  11  25  43  65  91 122 161 204 248 301 360
#     4  10  23  44  64  87 122 161 203 254 305 357
#     4   9  20  40  60  84 123 162 203 252 304 362
#     4   9  19  36  60  90 122 159 197 245 310 364
#     4  10  20  34  54  81 114 155 201 247 297 353
#
# _framework density 21.629960000000001
#
# number of rings (size 3 to 8) (size 9 to 14) (size 15 to 20)
#    0.000    2.000    1.250    2.625    0.000    8.500 
#    0.000    6.250    0.000    0.000    0.000    0.000 
#    0.000    0.000    0.000    0.000    0.000    0.000 
#
# Total GULP energy -793618.771751 kJ/mol
# GULP energy per Si atom -12400.293309 kJ/mol
# Density = 2.158073 g / cm^3
# Si number density = 21.629960 Si / 1000 Ang^3
#
#
#
# Elastic Constant Matrix: (Units=GPa)
#
#
# Indices 1 2 3 4 5 6 
#
# 1 40.8867 15.7172 22.4367 0.0000 0.0000 0.0000
# 2 15.7172 76.1037 52.6946 0.0000 0.0000 0.0000
# 3 22.4367 52.6946 125.2998 0.0000 0.0000 0.0000
# 4 0.0000 0.0000 0.0000 38.0029 0.0000 0.0000
# 5 0.0000 0.0000 0.0000 0.0000 23.9584 0.0000
# 6 0.0000 0.0000 0.0000 0.0000 0.0000 25.0990
#
#
#
# Elastic Compliance Matrix: (Units=1/GPa)
#
#
# Indices 1 2 3 4 5 6 
#
# 1 0.027672 -0.003222 -0.003600 0.000000 0.000000 0.000000
# 2 -0.003222 0.018913 -0.007377 0.000000 0.000000 0.000000
# 3 -0.003600 -0.007377 0.011728 0.000000 0.000000 0.000000
# 4 0.000000 0.000000 0.000000 0.026314 0.000000 0.000000
# 5 0.000000 0.000000 0.000000 0.000000 0.041739 0.000000
# 6 0.000000 0.000000 0.000000 0.000000 0.000000 0.039842
#
#
# Mechanical properties :
#
#
# Convention : Reuss Voigt Hill
#
# Bulk Modulus (GPa) = 33.42831 47.10969 40.26900
# Shear Modulus (GPa) = 24.44056 27.50818 25.97437
#
# Velocity S-wave (km/s) = 3.36510 3.57005 3.46909
# Velocity P-wave (km/s) = 5.53053 6.23063 5.89099
#
# Compressibility (1/GPa) = 0.02991476
#
# Stress axis : x y z
#
# Youngs Moduli (GPa) = 36.13764 52.87289 85.26719
#
# Poissons Ratio (x) = 0.17037 0.30695
# Poissons Ratio (y) = 0.11645 0.62901
# Poissons Ratio (z) = 0.13009 0.39004
#
# Static dielectric constant tensor:
#      x y z
#    x 3.723580 0.000000 0.000000 
#    y 0.000000 3.745670 0.000000 
#    z 0.000000 0.000000 3.975010 
# 
# 
# High freq. dielectric constant tensor:
#      x y z
#    x 1.840510 0.000000 0.000000 
#    y 0.000000 1.843670 0.000000 
#    z 0.000000 0.000000 1.848380 
# 
# From -- ./inp_files/9680.got.cif
#   From: 2010.03.12/outbox.cif.g09.slc.cpg/sg55_5_cif.got.tgz:9680.got - 2010.04.16 15:19:21.
