data_PCOD8224368
_publ_section_title
;
Structure prediction by ZEFSAII (Michael W. Deem and Ramdas Pophale) SiO2 
 PCOD8224368
Probable space group: P B A M
;
_chemical_formula_sum "Si O2"
_cell_formula_units_Z 64
_cell_length_a 26.289689
_cell_length_b 16.843697
_cell_length_c 9.692213
_cell_angle_alpha 90.000000
_cell_angle_beta 90.000000
_cell_angle_gamma 90.000000
_cell_volume 4291.862686
_symmetry_space_group_name_H-M "P B A M"
_symmetry_group_IT_number 55
_symmetry_cell_setting 'orthorhombic'
loop_
_space_group_symop_operation_xyz
x,y,z
-x,-y,z
1/2+x,1/2-y,-z
1/2-x,1/2+y,-z
-x,-y,-z
x,y,-z
1/2-x,1/2+y,z
1/2+x,1/2-y,z
loop_
_atom_site_type_symbol
_atom_site_label
_atom_site_fract_x
_atom_site_fract_y
_atom_site_fract_z
Si Si1 0.282841 0.491013 0.246323
Si Si2 0.440988 0.505578 0.341982
Si Si3 0.868362 0.894485 0.841397
Si Si4 0.322143 0.736590 0.654792
Si Si5 0.364348 0.372414 0.652579
Si Si6 0.723435 0.152229 0.147574
Si Si7 0.277395 0.133070 0.648042
Si Si8 0.323262 0.244670 0.153482
O O1 0.319484 0.547070 0.154987
O O2 0.317742 0.435093 0.341754
O O3 0.246119 0.436049 0.155970
O O4 0.244979 0.545315 0.333962
O O5 0.500000 0.500000 0.307238
O O6 0.431421 0.534815 0.500000
O O7 0.416286 0.565229 0.232688
O O8 0.417053 0.418280 0.321949
O O9 0.858221 0.815088 0.753782
O O10 0.881707 0.873302 0.000000
O O11 0.345437 0.747672 0.500000
O O12 0.314384 0.823077 0.727621
O O13 0.268119 0.695386 0.641588
O O14 0.362797 0.334209 0.500000
O O15 0.361455 0.302645 0.764672
O O16 0.768799 0.215124 0.144037
O O17 0.694533 0.157566 0.000000
O O18 0.305782 0.134354 0.500000
O O19 0.316969 0.160350 0.766941
O O20 0.345281 0.228710 0.000000
#
# Coordination Sequence:
#
# PCOD8224368 Si02
#       8
#     8   8   8   8   8   8   8   8
#     4   9  17  25  38  56  77 102 132 166 198 226
#     4   9  18  31  45  61  80 101 126 159 198 236
#     4  10  18  28  42  58  77 102 132 163 196 235
#     4   9  17  27  38  52  71  98 130 163 195 227
#     4   9  16  27  42  56  73  99 130 160 192 231
#     4   9  16  25  36  51  72  98 129 162 194 227
#     4   9  16  25  37  52  71  97 132 166 193 225
#     4   9  17  26  36  51  72  98 127 160 195 228
#
# _framework density 14.911941000000001
#
# number of rings (size 3 to 8) (size 9 to 14) (size 15 to 20)
#    0.000    2.875    0.000    1.875    0.000   13.250 
#    0.000    0.000    0.000    0.000    0.000    0.000 
#    0.000    0.000    0.000    1.125    0.000   18.375 
#
# Total GULP energy -792990.006786 kJ/mol
# GULP energy per Si atom -12390.468856 kJ/mol
# Density = 1.487800 g / cm^3
# Si number density = 14.911941 Si / 1000 Ang^3
#
#
#
# Elastic Constant Matrix: (Units=GPa)
#
#
# Indices 1 2 3 4 5 6 
#
# 1 48.3812 30.2746 42.5705 0.0000 0.0000 0.0000
# 2 30.2746 58.4238 37.9187 0.0000 0.0000 0.0000
# 3 42.5705 37.9187 141.4319 0.0000 0.0000 0.0000
# 4 0.0000 0.0000 0.0000 14.3967 0.0000 0.0000
# 5 0.0000 0.0000 0.0000 0.0000 13.9290 0.0000
# 6 0.0000 0.0000 0.0000 0.0000 0.0000 11.3611
#
#
#
# Elastic Compliance Matrix: (Units=1/GPa)
#
#
# Indices 1 2 3 4 5 6 
#
# 1 0.035466 -0.013862 -0.006959 0.000000 0.000000 0.000000
# 2 -0.013862 0.026140 -0.002836 0.000000 0.000000 0.000000
# 3 -0.006959 -0.002836 0.009925 0.000000 0.000000 0.000000
# 4 0.000000 0.000000 0.000000 0.069460 0.000000 0.000000
# 5 0.000000 0.000000 0.000000 0.000000 0.071792 0.000000
# 6 0.000000 0.000000 0.000000 0.000000 0.000000 0.088020
#
#
# Mechanical properties :
#
#
# Convention : Reuss Voigt Hill
#
# Bulk Modulus (GPa) = 41.29052 52.19606 46.74329
# Shear Modulus (GPa) = 14.03745 17.10223 15.56984
#
# Velocity S-wave (km/s) = 3.07148 3.39024 3.23479
# Velocity P-wave (km/s) = 6.35046 7.09956 6.73543
#
# Compressibility (1/GPa) = 0.02421864
#
# Stress axis : x y z
#
# Youngs Moduli (GPa) = 28.19583 38.25566 100.75117
#
# Poissons Ratio (x) = 0.53029 0.70111
# Poissons Ratio (y) = 0.39084 0.28572
# Poissons Ratio (z) = 0.19621 0.10849
#
# Static dielectric constant tensor:
#      x y z
#    x 2.424580 0.000000 0.000000 
#    y 0.000000 2.831010 0.000000 
#    z 0.000000 0.000000 3.209560 
# 
# 
# High freq. dielectric constant tensor:
#      x y z
#    x 1.502080 0.000000 0.000000 
#    y 0.000000 1.553170 0.000000 
#    z 0.000000 0.000000 1.590870 
# 
# From -- ./inp_files/8233.got.cif
#   From: 2010.03.12/outbox.cif.g09.slc.cpg/sg55_5_cif.got.tgz:8233.got - 2010.04.16 15:19:21.
