data_PCOD8224514
_publ_section_title
;
Structure prediction by ZEFSAII (Michael W. Deem and Ramdas Pophale) SiO2 
 PCOD8224514
Probable space group: P B A M
;
_chemical_formula_sum "Si O2"
_cell_formula_units_Z 64
_cell_length_a 14.496492
_cell_length_b 30.312685
_cell_length_c 8.710661
_cell_angle_alpha 90.000000
_cell_angle_beta 90.000000
_cell_angle_gamma 90.000000
_cell_volume 3827.704819
_symmetry_space_group_name_H-M "P B A M"
_symmetry_group_IT_number 55
_symmetry_cell_setting 'orthorhombic'
loop_
_space_group_symop_operation_xyz
x,y,z
-x,-y,z
1/2+x,1/2-y,-z
1/2-x,1/2+y,-z
-x,-y,-z
x,y,-z
1/2-x,1/2+y,z
1/2+x,1/2-y,z
loop_
_atom_site_type_symbol
_atom_site_label
_atom_site_fract_x
_atom_site_fract_y
_atom_site_fract_z
Si Si1 0.897554 0.454352 0.682144
Si Si2 0.840706 0.799860 0.318384
Si Si3 0.521977 0.724590 0.821181
Si Si4 0.901954 0.543541 0.177439
Si Si5 0.770431 0.218268 0.820823
Si Si6 0.356088 0.861653 0.824528
Si Si7 0.307344 0.133305 0.681307
Si Si8 0.015428 0.684876 0.677877
O O1 0.911097 0.452539 0.500000
O O2 0.857880 0.502044 0.732110
O O3 0.825443 0.416631 0.740541
O O4 0.996067 0.445843 0.760123
O O5 0.840643 0.796814 0.500000
O O6 0.945206 0.806120 0.259087
O O7 0.791252 0.755345 0.260060
O O8 0.787080 0.844023 0.260032
O O9 0.625048 0.717204 0.754784
O O10 0.490485 0.774092 0.784984
O O11 0.518494 0.714558 0.000000
O O12 0.835474 0.586209 0.200456
O O13 0.910007 0.530597 0.000000
O O14 0.731827 0.169095 0.788840
O O15 0.771578 0.229961 0.000000
O O16 0.436395 0.850864 0.704446
O O17 0.389386 0.853895 0.000000
O O18 0.308746 0.131792 0.500000
O O19 0.388803 0.165203 0.737500
O O20 0.018809 0.699073 0.500000
#
# Coordination Sequence:
#
# PCOD8224514 Si02
#       8
#     8   8   8   8   8   8   8   8
#     4  10  18  31  48  67  95 129 160 194 238 291
#     4  11  21  34  51  72  97 127 165 206 244 286
#     4  11  22  35  48  69 100 131 166 203 244 288
#     4  10  19  30  45  70  99 125 157 198 241 288
#     4  10  21  35  50  69  96 131 166 200 240 289
#     4  10  20  33  48  69  98 131 164 200 244 286
#     4   9  19  32  47  70  98 127 164 201 241 284
#     4  11  19  30  48  70  97 130 168 201 236 281
#
# _framework density 16.720200999999999
#
# number of rings (size 3 to 8) (size 9 to 14) (size 15 to 20)
#    0.000    1.750    3.750    2.625    0.000    1.000 
#    0.000    2.500    0.000    0.000    0.000    0.875 
#    0.000    7.000    0.000    0.000    0.000    0.000 
#
# Total GULP energy -793266.179394 kJ/mol
# GULP energy per Si atom -12394.784053 kJ/mol
# Density = 1.668215 g / cm^3
# Si number density = 16.720201 Si / 1000 Ang^3
#
#
#
# Elastic Constant Matrix: (Units=GPa)
#
#
# Indices 1 2 3 4 5 6 
#
# 1 78.0063 25.9609 19.1980 0.0000 0.0000 0.0000
# 2 25.9609 99.3957 16.5595 0.0000 0.0000 0.0000
# 3 19.1980 16.5595 42.4567 0.0000 0.0000 0.0000
# 4 0.0000 0.0000 0.0000 18.8638 0.0000 0.0000
# 5 0.0000 0.0000 0.0000 0.0000 20.8114 0.0000
# 6 0.0000 0.0000 0.0000 0.0000 0.0000 25.9991
#
#
#
# Elastic Compliance Matrix: (Units=1/GPa)
#
#
# Indices 1 2 3 4 5 6 
#
# 1 0.015231 -0.003028 -0.005706 0.000000 0.000000 0.000000
# 2 -0.003028 0.011362 -0.003062 0.000000 0.000000 0.000000
# 3 -0.005706 -0.003062 0.027328 0.000000 0.000000 0.000000
# 4 0.000000 0.000000 0.000000 0.053012 0.000000 0.000000
# 5 0.000000 0.000000 0.000000 0.000000 0.048050 0.000000
# 6 0.000000 0.000000 0.000000 0.000000 0.000000 0.038463
#
#
# Mechanical properties :
#
#
# Convention : Reuss Voigt Hill
#
# Bulk Modulus (GPa) = 32.97235 38.14394 35.55814
# Shear Modulus (GPa) = 22.01198 23.67754 22.84476
#
# Velocity S-wave (km/s) = 3.63228 3.76720 3.70036
# Velocity P-wave (km/s) = 6.11181 6.46413 6.29044
#
# Compressibility (1/GPa) = 0.03032844
#
# Stress axis : x y z
#
# Youngs Moduli (GPa) = 65.65344 88.01440 36.59221
#
# Poissons Ratio (x) = 0.26647 0.20881
# Poissons Ratio (y) = 0.19877 0.11206
# Poissons Ratio (z) = 0.37465 0.26954
#
# Static dielectric constant tensor:
#      x y z
#    x 3.230730 0.000000 0.000000 
#    y 0.000000 3.373260 0.000000 
#    z 0.000000 0.000000 3.094680 
# 
# 
# High freq. dielectric constant tensor:
#      x y z
#    x 1.615320 0.000000 0.000000 
#    y 0.000000 1.639050 0.000000 
#    z 0.000000 0.000000 1.645020 
# 
# From -- ./inp_files/6954.got.cif
#   From: 2010.03.12/outbox.cif.g09.slc.cpg/sg55_4_cif.got.tgz:6954.got - 2010.04.16 15:19:21.
