data_PCOD8224998
_publ_section_title
;
Structure prediction by ZEFSAII (Michael W. Deem and Ramdas Pophale) SiO2 
 PCOD8224998
Probable space group: P B A M
;
_chemical_formula_sum "Si O2"
_cell_formula_units_Z 56
_cell_length_a 18.985271
_cell_length_b 19.057624
_cell_length_c 9.141142
_cell_angle_alpha 90.000000
_cell_angle_beta 90.000000
_cell_angle_gamma 90.000000
_cell_volume 3307.394580
_symmetry_space_group_name_H-M "P B A M"
_symmetry_group_IT_number 55
_symmetry_cell_setting 'orthorhombic'
loop_
_space_group_symop_operation_xyz
x,y,z
-x,-y,z
1/2+x,1/2-y,-z
1/2-x,1/2+y,-z
-x,-y,-z
x,y,-z
1/2-x,1/2+y,z
1/2+x,1/2-y,z
loop_
_atom_site_type_symbol
_atom_site_label
_atom_site_fract_x
_atom_site_fract_y
_atom_site_fract_z
Si Si1 0.342103 0.762808 0.332317
Si Si2 0.510523 0.290379 0.331484
Si Si3 0.703791 0.484152 0.170341
Si Si4 0.438137 0.554722 0.668960
Si Si5 0.369574 0.273075 0.172071
Si Si6 0.767360 0.123615 0.673147
Si Si7 0.244912 0.664220 0.166818
O O1 0.325393 0.748658 0.500000
O O2 0.425684 0.764554 0.303619
O O3 0.304386 0.835071 0.283590
O O4 0.310452 0.695634 0.252925
O O5 0.485688 0.288611 0.500000
O O6 0.534392 0.368434 0.287652
O O7 0.448726 0.264017 0.227143
O O8 0.626626 0.466418 0.229439
O O9 0.739507 0.546995 0.258872
O O10 0.757163 0.418967 0.195016
O O11 0.697227 0.503752 0.000000
O O12 0.500000 0.500000 0.699326
O O13 0.413770 0.552631 0.500000
O O14 0.334586 0.338022 0.256773
O O15 0.328576 0.200984 0.212142
O O16 0.368785 0.288967 0.000000
O O17 0.778935 0.118280 0.500000
O O18 0.261400 0.681540 0.000000
#
# Coordination Sequence:
#
# PCOD8224998 Si02
#       7
#     8   8   8   8   8   8   8
#     4   9  18  33  53  74  97 131 172 210 250 300
#     4  10  19  32  50  75 105 134 167 208 253 301
#     4  11  21  33  51  75 102 133 169 209 253 301
#     4  10  20  32  48  72 105 139 166 198 248 306
#     4  10  20  34  52  75 103 134 169 208 252 302
#     4  10  20  34  52  74 101 133 171 211 252 299
#     4   9  19  34  51  73 101 132 169 211 251 299
#
# _framework density 16.931756
#
# number of rings (size 3 to 8) (size 9 to 14) (size 15 to 20)
#    0.000    2.143    1.429    2.143    0.000    4.286 
#    0.000    0.000    0.000    0.857    0.000    6.000 
#    0.000    0.000    0.000    0.000    0.000    0.000 
#
# Total GULP energy -694423.641039 kJ/mol
# GULP energy per Si atom -12400.422161 kJ/mol
# Density = 1.689322 g / cm^3
# Si number density = 16.931756 Si / 1000 Ang^3
#
#
#
# Elastic Constant Matrix: (Units=GPa)
#
#
# Indices 1 2 3 4 5 6 
#
# 1 82.1803 57.9025 42.1531 0.0000 0.0000 0.0000
# 2 57.9025 96.7873 49.4006 0.0000 0.0000 0.0000
# 3 42.1531 49.4006 77.5846 0.0000 0.0000 0.0000
# 4 0.0000 0.0000 0.0000 26.1037 0.0000 0.0000
# 5 0.0000 0.0000 0.0000 0.0000 26.8593 0.0000
# 6 0.0000 0.0000 0.0000 0.0000 0.0000 21.1399
#
#
#
# Elastic Compliance Matrix: (Units=1/GPa)
#
#
# Indices 1 2 3 4 5 6 
#
# 1 0.022467 -0.010682 -0.005405 0.000000 0.000000 0.000000
# 2 -0.010682 0.020385 -0.007176 0.000000 0.000000 0.000000
# 3 -0.005405 -0.007176 0.020395 0.000000 0.000000 0.000000
# 4 0.000000 0.000000 0.000000 0.038309 0.000000 0.000000
# 5 0.000000 0.000000 0.000000 0.000000 0.037231 0.000000
# 6 0.000000 0.000000 0.000000 0.000000 0.000000 0.047304
#
#
# Mechanical properties :
#
#
# Convention : Reuss Voigt Hill
#
# Bulk Modulus (GPa) = 59.80601 61.71828 60.76215
# Shear Modulus (GPa) = 20.99149 21.96031 21.47590
#
# Velocity S-wave (km/s) = 3.52486 3.60528 3.56530
# Velocity P-wave (km/s) = 7.20865 7.33901 7.27412
#
# Compressibility (1/GPa) = 0.01672073
#
# Stress axis : x y z
#
# Youngs Moduli (GPa) = 44.50922 49.05529 49.03124
#
# Poissons Ratio (x) = 0.52401 0.26502
# Poissons Ratio (y) = 0.47545 0.35185
# Poissons Ratio (z) = 0.24058 0.35203
#
# Static dielectric constant tensor:
#      x y z
#    x 3.157950 0.000000 0.000000 
#    y 0.000000 3.281900 0.000000 
#    z 0.000000 0.000000 3.234490 
# 
# 
# High freq. dielectric constant tensor:
#      x y z
#    x 1.641860 0.000000 0.000000 
#    y 0.000000 1.646800 0.000000 
#    z 0.000000 0.000000 1.661690 
# 
# From -- ./inp_files/7822.got.cif
#   From: 2010.03.12/outbox.cif.g09.slc.cpg/sg55_4_cif.got.tgz:7822.got - 2010.04.16 15:19:21.
