data_PCOD8224678
_publ_section_title
;
Structure prediction by ZEFSAII (Michael W. Deem and Ramdas Pophale) SiO2 
 PCOD8224678
Probable space group: P B A M
;
_chemical_formula_sum "Si O2"
_cell_formula_units_Z 48
_cell_length_a 13.262947
_cell_length_b 18.649237
_cell_length_c 9.238613
_cell_angle_alpha 90.000000
_cell_angle_beta 90.000000
_cell_angle_gamma 90.000000
_cell_volume 2285.114033
_symmetry_space_group_name_H-M "P B A M"
_symmetry_group_IT_number 55
_symmetry_cell_setting 'orthorhombic'
loop_
_space_group_symop_operation_xyz
x,y,z
-x,-y,z
1/2+x,1/2-y,-z
1/2-x,1/2+y,-z
-x,-y,-z
x,y,-z
1/2-x,1/2+y,z
1/2+x,1/2-y,z
loop_
_atom_site_type_symbol
_atom_site_label
_atom_site_fract_x
_atom_site_fract_y
_atom_site_fract_z
Si Si1 0.756922 0.605308 0.167895
Si Si2 0.409352 0.772282 0.827979
Si Si3 0.883976 0.009663 0.330974
Si Si4 0.180980 0.147138 0.665578
Si Si5 0.407154 0.161258 0.664330
Si Si6 0.607723 0.972630 0.154228
O O1 0.817219 0.675867 0.223166
O O2 0.655508 0.583052 0.254088
O O3 0.828468 0.539705 0.204351
O O4 0.729426 0.614139 0.000000
O O5 0.392202 0.692660 0.768109
O O6 0.518403 0.795819 0.768579
O O7 0.417369 0.772153 0.000000
O O8 0.872012 0.023444 0.500000
O O9 0.823005 0.936699 0.284167
O O10 0.000000 0.000000 0.286063
O O11 0.142116 0.151197 0.500000
O O12 0.290564 0.184930 0.679474
O O13 0.446034 0.167956 0.500000
O O14 0.401723 0.079053 0.710168
O O15 0.500000 0.000000 0.112318
O O16 0.650022 0.939138 0.000000
#
# Coordination Sequence:
#
# PCOD8224678 Si02
#       6
#     8   8   8   8   8   8
#     4  10  21  37  59  88 120 152 196 250 298 356
#     4  11  24  41  61  90 125 162 204 251 309 368
#     4  10  22  41  64  88 119 160 206 255 306 363
#     4  10  23  42  60  87 122 159 205 252 305 364
#     4  11  22  37  60  88 119 154 197 248 303 367
#     4  10  18  33  57  86 120 150 186 240 296 351
#
# _framework density 21.005516
#
# number of rings (size 3 to 8) (size 9 to 14) (size 15 to 20)
#    0.000    1.667    3.333    1.000    0.000    5.333 
#    0.000    5.000    0.000    0.000    0.000    0.000 
#    0.000    0.000    0.000    0.000    0.000    0.000 
#
# Total GULP energy -594774.863673 kJ/mol
# GULP energy per Si atom -12391.142993 kJ/mol
# Density = 2.095771 g / cm^3
# Si number density = 21.005516 Si / 1000 Ang^3
#
#
#
# Elastic Constant Matrix: (Units=GPa)
#
#
# Indices 1 2 3 4 5 6 
#
# 1 73.0762 9.8300 26.7537 0.0000 0.0000 0.0000
# 2 9.8300 61.6108 28.7777 0.0000 0.0000 0.0000
# 3 26.7537 28.7777 75.4225 0.0000 0.0000 0.0000
# 4 0.0000 0.0000 0.0000 29.6754 0.0000 0.0000
# 5 0.0000 0.0000 0.0000 0.0000 32.3367 0.0000
# 6 0.0000 0.0000 0.0000 0.0000 0.0000 28.0150
#
#
#
# Elastic Compliance Matrix: (Units=1/GPa)
#
#
# Indices 1 2 3 4 5 6 
#
# 1 0.015727 0.000117 -0.005624 0.000000 0.000000 0.000000
# 2 0.000117 0.019752 -0.007578 0.000000 0.000000 0.000000
# 3 -0.005624 -0.007578 0.018145 0.000000 0.000000 0.000000
# 4 0.000000 0.000000 0.000000 0.033698 0.000000 0.000000
# 5 0.000000 0.000000 0.000000 0.000000 0.030925 0.000000
# 6 0.000000 0.000000 0.000000 0.000000 0.000000 0.035695
#
#
# Mechanical properties :
#
#
# Convention : Reuss Voigt Hill
#
# Bulk Modulus (GPa) = 36.42237 37.87025 37.14631
# Shear Modulus (GPa) = 26.41839 27.65527 27.03683
#
# Velocity S-wave (km/s) = 3.55024 3.63240 3.59155
# Velocity P-wave (km/s) = 5.84659 5.97162 5.90944
#
# Compressibility (1/GPa) = 0.02745566
#
# Stress axis : x y z
#
# Youngs Moduli (GPa) = 63.58342 50.62829 55.11207
#
# Poissons Ratio (x) = -0.00594 0.30993
# Poissons Ratio (y) = -0.00747 0.41764
# Poissons Ratio (z) = 0.35757 0.38366
#
# Static dielectric constant tensor:
#      x y z
#    x 3.965170 0.000000 0.000000 
#    y 0.000000 3.671760 0.000000 
#    z 0.000000 0.000000 3.764050 
# 
# 
# High freq. dielectric constant tensor:
#      x y z
#    x 1.826430 0.000000 0.000000 
#    y 0.000000 1.807990 0.000000 
#    z 0.000000 0.000000 1.821420 
# 
# From -- ./inp_files/5662.got.cif
#   From: 2010.03.12/outbox.cif.g09.slc.cpg/sg55_3_cif.got.tgz:5662.got - 2010.04.16 15:19:21.
