data_PCOD8224297
_publ_section_title
;
Structure prediction by ZEFSAII (Michael W. Deem and Ramdas Pophale) SiO2 
 PCOD8224297
Probable space group: P B A M
;
_chemical_formula_sum "Si O2"
_cell_formula_units_Z 56
_cell_length_a 19.495868
_cell_length_b 19.594178
_cell_length_c 8.256698
_cell_angle_alpha 90.000000
_cell_angle_beta 90.000000
_cell_angle_gamma 90.000000
_cell_volume 3154.104113
_symmetry_space_group_name_H-M "P B A M"
_symmetry_group_IT_number 55
_symmetry_cell_setting 'orthorhombic'
loop_
_space_group_symop_operation_xyz
x,y,z
-x,-y,z
1/2+x,1/2-y,-z
1/2-x,1/2+y,-z
-x,-y,-z
x,y,-z
1/2-x,1/2+y,z
1/2+x,1/2-y,z
loop_
_atom_site_type_symbol
_atom_site_label
_atom_site_fract_x
_atom_site_fract_y
_atom_site_fract_z
Si Si1 0.978856 0.200789 0.807149
Si Si2 0.764022 0.870879 0.806963
Si Si3 0.158734 0.735455 0.808218
Si Si4 0.293658 0.481241 0.810633
Si Si5 0.233584 0.344534 0.807052
Si Si6 0.372672 0.738804 0.807719
Si Si7 0.441873 0.447474 0.311351
O O1 0.919522 0.253802 0.750377
O O2 0.967394 0.128155 0.726004
O O3 0.050159 0.232111 0.741036
O O4 0.979022 0.191075 0.000000
O O5 0.691976 0.836393 0.748679
O O6 0.827110 0.824480 0.743567
O O7 0.771699 0.946488 0.730455
O O8 0.766924 0.874302 0.000000
O O9 0.204241 0.797934 0.740610
O O10 0.162288 0.737038 0.000000
O O11 0.245296 0.420921 0.737206
O O12 0.373022 0.464665 0.784442
O O13 0.280390 0.486084 0.000000
O O14 0.161526 0.310633 0.749323
O O15 0.236571 0.346483 0.000000
O O16 0.373509 0.737180 0.000000
O O17 0.500000 0.500000 0.252087
O O18 0.426747 0.456111 0.500000
#
# Coordination Sequence:
#
# PCOD8224297 Si02
#       7
#     8   8   8   8   8   8   8
#     4  10  17  28  48  68  84 114 157 186 208 261
#     4   8  14  23  38  63  90 111 139 183 224 254
#     4   8  13  23  39  62  88 109 139 185 225 250
#     4  10  17  28  48  68  84 114 157 186 208 261
#     4   8  13  23  39  62  88 109 139 185 225 250
#     4   8  14  23  38  63  90 111 139 183 224 254
#     4  11  23  33  41  61  97 127 141 174 235 276
#
# _framework density 17.754646000000001
#
# number of rings (size 3 to 8) (size 9 to 14) (size 15 to 20)
#    0.000    3.000    1.429    3.000    0.000    2.286 
#    0.000    0.000    0.000    2.571    0.000    6.000 
#    0.000    0.000    0.000    2.571    0.000    2.857 
#
# Total GULP energy -693837.433495 kJ/mol
# GULP energy per Si atom -12389.954170 kJ/mol
# Density = 1.771424 g / cm^3
# Si number density = 17.754646 Si / 1000 Ang^3
#
#
#
# Elastic Constant Matrix: (Units=GPa)
#
#
# Indices 1 2 3 4 5 6 
#
# 1 146.4762 102.4080 -1.3780 0.0000 0.0000 0.0000
# 2 102.4080 150.1365 0.6803 0.0000 0.0000 0.0000
# 3 -1.3780 0.6803 5.5112 0.0000 0.0000 0.0000
# 4 0.0000 0.0000 0.0000 5.2029 0.0000 0.0000
# 5 0.0000 0.0000 0.0000 0.0000 2.8125 0.0000
# 6 0.0000 0.0000 0.0000 0.0000 0.0000 32.3237
#
#
#
# Elastic Compliance Matrix: (Units=1/GPa)
#
#
# Indices 1 2 3 4 5 6 
#
# 1 0.013157 -0.008994 0.004400 0.000000 0.000000 0.000000
# 2 -0.008994 0.012813 -0.003830 0.000000 0.000000 0.000000
# 3 0.004400 -0.003830 0.183021 0.000000 0.000000 0.000000
# 4 0.000000 0.000000 0.000000 0.192202 0.000000 0.000000
# 5 0.000000 0.000000 0.000000 0.000000 0.355559 0.000000
# 6 0.000000 0.000000 0.000000 0.000000 0.000000 0.030937
#
#
# Mechanical properties :
#
#
# Convention : Reuss Voigt Hill
#
# Bulk Modulus (GPa) = 5.20450 56.17161 30.68806
# Shear Modulus (GPa) = 5.75649 21.42871 13.59260
#
# Velocity S-wave (km/s) = 1.80258 3.47787 2.76991
# Velocity P-wave (km/s) = 2.69631 6.91620 5.24899
#
# Compressibility (1/GPa) = 0.19214134
#
# Stress axis : x y z
#
# Youngs Moduli (GPa) = 76.00783 78.04721 5.46385
#
# Poissons Ratio (x) = 0.70196 -0.02404
# Poissons Ratio (y) = 0.68361 0.02093
# Poissons Ratio (z) = -0.33441 0.29895
#
# Static dielectric constant tensor:
#      x y z
#    x 3.630440 0.000000 0.000000 
#    y 0.000000 3.725000 0.000000 
#    z 0.000000 0.000000 2.708890 
# 
# 
# High freq. dielectric constant tensor:
#      x y z
#    x 1.680480 0.000000 0.000000 
#    y 0.000000 1.684390 0.000000 
#    z 0.000000 0.000000 1.633750 
# 
# From -- ./inp_files/7877.got.cif
#   From: 2010.03.12/outbox.cif.g09.slc.cpg/sg55_4_cif.got.tgz:7877.got - 2010.04.16 15:19:21.
