data_PCOD8224643
_publ_section_title
;
Structure prediction by ZEFSAII (Michael W. Deem and Ramdas Pophale) SiO2 
 PCOD8224643
Probable space group: P B A M
;
_chemical_formula_sum "Si O2"
_cell_formula_units_Z 48
_cell_length_a 19.918554
_cell_length_b 14.770112
_cell_length_c 8.969777
_cell_angle_alpha 90.000000
_cell_angle_beta 90.000000
_cell_angle_gamma 90.000000
_cell_volume 2638.901876
_symmetry_space_group_name_H-M "P B A M"
_symmetry_group_IT_number 55
_symmetry_cell_setting 'orthorhombic'
loop_
_space_group_symop_operation_xyz
x,y,z
-x,-y,z
1/2+x,1/2-y,-z
1/2-x,1/2+y,-z
-x,-y,-z
x,y,-z
1/2-x,1/2+y,z
1/2+x,1/2-y,z
loop_
_atom_site_type_symbol
_atom_site_label
_atom_site_fract_x
_atom_site_fract_y
_atom_site_fract_z
Si Si1 0.337110 0.814305 0.674981
Si Si2 0.974176 0.729219 0.173247
Si Si3 0.558076 0.937782 0.173551
Si Si4 0.037943 0.089098 0.327175
Si Si5 0.699071 0.007937 0.176532
Si Si6 0.807772 0.888570 0.329386
O O1 0.343913 0.831157 0.500000
O O2 0.411295 0.815675 0.743847
O O3 0.292644 0.893230 0.749118
O O4 0.301457 0.718151 0.707179
O O5 0.992332 0.827754 0.234701
O O6 0.039712 0.667143 0.201410
O O7 0.955596 0.734680 0.000000
O O8 0.500000 0.000000 0.247304
O O9 0.631019 0.961303 0.240469
O O10 0.561551 0.961214 0.000000
O O11 0.023505 0.108671 0.500000
O O12 0.116781 0.078177 0.297647
O O13 0.000000 0.000000 0.270890
O O14 0.760524 0.944257 0.220418
O O15 0.698838 0.019665 0.000000
O O16 0.787610 0.907941 0.500000
#
# Coordination Sequence:
#
# PCOD8224643 Si02
#       6
#     8   8   8   8   8   8
#     4  10  20  36  57  78 107 145 183 219 270 328
#     4  10  18  32  56  81 108 139 178 225 272 321
#     4   9  17  32  52  78 112 142 169 214 275 319
#     4   9  19  38  60  79 106 144 184 226 276 330
#     4  11  21  35  57  81 109 144 183 225 270 325
#     4   9  20  38  56  77 108 143 179 224 274 323
#
# _framework density 18.189384
#
# number of rings (size 3 to 8) (size 9 to 14) (size 15 to 20)
#    0.000    2.333    1.667    2.500    0.000    3.667 
#    3.000    4.167    0.000    0.000    0.000    0.000 
#    0.000    0.000    0.000    0.000    0.000    0.000 
#
# Total GULP energy -595215.353191 kJ/mol
# GULP energy per Si atom -12400.319858 kJ/mol
# Density = 1.814798 g / cm^3
# Si number density = 18.189384 Si / 1000 Ang^3
#
#
#
# Elastic Constant Matrix: (Units=GPa)
#
#
# Indices 1 2 3 4 5 6 
#
# 1 76.3699 68.6685 35.7576 0.0000 0.0000 0.0000
# 2 68.6685 145.4388 63.8288 0.0000 0.0000 0.0000
# 3 35.7576 63.8288 82.8214 0.0000 0.0000 0.0000
# 4 0.0000 0.0000 0.0000 34.1422 0.0000 0.0000
# 5 0.0000 0.0000 0.0000 0.0000 21.7943 0.0000
# 6 0.0000 0.0000 0.0000 0.0000 0.0000 30.7008
#
#
#
# Elastic Compliance Matrix: (Units=1/GPa)
#
#
# Indices 1 2 3 4 5 6 
#
# 1 0.023056 -0.009848 -0.002365 0.000000 0.000000 0.000000
# 2 -0.009848 0.014596 -0.006997 0.000000 0.000000 0.000000
# 3 -0.002365 -0.006997 0.018488 0.000000 0.000000 0.000000
# 4 0.000000 0.000000 0.000000 0.029289 0.000000 0.000000
# 5 0.000000 0.000000 0.000000 0.000000 0.045884 0.000000
# 6 0.000000 0.000000 0.000000 0.000000 0.000000 0.032572
#
#
# Mechanical properties :
#
#
# Convention : Reuss Voigt Hill
#
# Bulk Modulus (GPa) = 56.43233 71.23776 63.83505
# Shear Modulus (GPa) = 24.01388 26.41916 25.21652
#
# Velocity S-wave (km/s) = 3.63742 3.81524 3.72739
# Velocity P-wave (km/s) = 6.98092 7.65882 7.32772
#
# Compressibility (1/GPa) = 0.01772034
#
# Stress axis : x y z
#
# Youngs Moduli (GPa) = 43.37186 68.50969 54.08995
#
# Poissons Ratio (x) = 0.67470 0.12790
# Poissons Ratio (y) = 0.42714 0.37848
# Poissons Ratio (z) = 0.10256 0.47938
#
# Static dielectric constant tensor:
#      x y z
#    x 3.238120 0.000000 0.000000 
#    y 0.000000 3.506990 0.000000 
#    z 0.000000 0.000000 3.252410 
# 
# 
# High freq. dielectric constant tensor:
#      x y z
#    x 1.686640 0.000000 0.000000 
#    y 0.000000 1.715020 0.000000 
#    z 0.000000 0.000000 1.697180 
# 
# From -- ./inp_files/8555.got.cif
#   From: 2010.03.12/outbox.cif.g09.slc.cpg/sg55_5_cif.got.tgz:8555.got - 2010.04.16 15:19:21.
