data_PCOD8224945
_publ_section_title
;
Structure prediction by ZEFSAII (Michael W. Deem and Ramdas Pophale) SiO2 
 PCOD8224945
Probable space group: P B A M
;
_chemical_formula_sum "Si O2"
_cell_formula_units_Z 56
_cell_length_a 17.385382
_cell_length_b 5.223232
_cell_length_c 30.182593
_cell_angle_alpha 90.000000
_cell_angle_beta 90.000000
_cell_angle_gamma 90.000000
_cell_volume 2740.817392
_symmetry_space_group_name_H-M "P B A M"
_symmetry_group_IT_number 55
_symmetry_cell_setting 'orthorhombic'
loop_
_space_group_symop_operation_xyz
x,y,z
-x,-y,z
1/2+x,1/2-y,-z
1/2-x,1/2+y,-z
-x,-y,-z
x,y,-z
1/2-x,1/2+y,z
1/2+x,1/2-y,z
loop_
_atom_site_type_symbol
_atom_site_label
_atom_site_fract_x
_atom_site_fract_y
_atom_site_fract_z
Si Si1 0.045640 0.749847 0.197356
Si Si2 0.301800 0.228325 0.357452
Si Si3 0.452295 0.750202 0.948500
Si Si4 0.719372 0.736933 0.181960
Si Si5 0.453629 0.249937 0.697878
Si Si6 0.714354 0.228393 0.915943
Si Si7 0.201471 0.804270 0.547207
O O1 0.128562 0.748348 0.174289
O O2 0.057667 0.749427 0.249710
O O3 0.000000 0.500000 0.181177
O O4 0.000000 0.000000 0.181294
O O5 0.240242 0.456192 0.351200
O O6 0.368561 0.251907 0.321748
O O7 0.342738 0.250968 0.406481
O O8 0.500000 0.500000 0.935742
O O9 0.376612 0.747726 0.918962
O O10 0.500000 0.000000 0.935478
O O11 0.429259 0.751564 0.000000
O O12 0.745865 0.481090 0.208534
O O13 0.763232 0.708704 0.135378
O O14 0.500000 0.500000 0.682048
O O15 0.500000 0.000000 0.681868
O O16 0.755303 0.470157 0.939695
O O17 0.155345 0.764080 0.500000
O O18 0.270756 0.598117 0.547661
#
# Coordination Sequence:
#
# PCOD8224945 Si02
#       7
#     8   8   8   8   8   8   8
#     4  10  21  38  58  78 103 140 180 214 258 320
#     4  10  19  31  51  78 101 130 175 217 257 307
#     4  10  21  38  60  85 113 147 185 221 259 311
#     4  10  21  38  56  81 112 139 175 220 267 310
#     4  10  21  36  53  75 106 139 168 210 270 320
#     4  10  21  38  56  83 115 144 178 219 268 311
#     4   8  14  25  42  66  96 127 163 209 253 297
#
# _framework density 20.431861000000001
#
# number of rings (size 3 to 8) (size 9 to 14) (size 15 to 20)
#    0.000    2.286    0.000    2.571    0.000    1.714 
#    0.000   17.143    0.000    0.857    0.000    0.000 
#    0.000    0.000    0.000    0.000    0.000    0.000 
#
# Total GULP energy -693972.956236 kJ/mol
# GULP energy per Si atom -12392.374219 kJ/mol
# Density = 2.038536 g / cm^3
# Si number density = 20.431861 Si / 1000 Ang^3
#
#
#
# Elastic Constant Matrix: (Units=GPa)
#
#
# Indices 1 2 3 4 5 6 
#
# 1 117.8348 43.5661 25.3917 0.0000 0.0000 0.0000
# 2 43.5661 161.4397 5.0669 0.0000 0.0000 0.0000
# 3 25.3917 5.0669 33.0178 0.0000 0.0000 0.0000
# 4 0.0000 0.0000 0.0000 5.8379 0.0000 0.0000
# 5 0.0000 0.0000 0.0000 0.0000 17.2261 0.0000
# 6 0.0000 0.0000 0.0000 0.0000 0.0000 35.1360
#
#
#
# Elastic Compliance Matrix: (Units=1/GPa)
#
#
# Indices 1 2 3 4 5 6 
#
# 1 0.011298 -0.002790 -0.008260 0.000000 0.000000 0.000000
# 2 -0.002790 0.006913 0.001084 0.000000 0.000000 0.000000
# 3 -0.008260 0.001084 0.036473 0.000000 0.000000 0.000000
# 4 0.000000 0.000000 0.000000 0.171294 0.000000 0.000000
# 5 0.000000 0.000000 0.000000 0.000000 0.058052 0.000000
# 6 0.000000 0.000000 0.000000 0.000000 0.000000 0.028461
#
#
# Mechanical properties :
#
#
# Convention : Reuss Voigt Hill
#
# Bulk Modulus (GPa) = 28.77481 51.14908 39.96195
# Shear Modulus (GPa) = 14.53467 27.52450 21.02958
#
# Velocity S-wave (km/s) = 2.67005 3.67432 3.21168
# Velocity P-wave (km/s) = 4.85998 6.56423 5.77532
#
# Compressibility (1/GPa) = 0.03475262
#
# Stress axis : x y z
#
# Youngs Moduli (GPa) = 88.51293 144.65454 27.41779
#
# Poissons Ratio (x) = 0.40352 0.22648
# Poissons Ratio (y) = 0.24691 -0.02973
# Poissons Ratio (z) = 0.73114 -0.15686
#
# Static dielectric constant tensor:
#      x y z
#    x 3.369620 0.000000 0.000000 
#    y 0.000000 10.831860 0.000000 
#    z 0.000000 0.000000 3.680620 
# 
# 
# High freq. dielectric constant tensor:
#      x y z
#    x 1.769030 0.000000 0.000000 
#    y 0.000000 1.836590 0.000000 
#    z 0.000000 0.000000 1.783340 
# 
# From -- ./inp_files/24056.got.cif
#   From: 2010.03.12/outbox.cif.g09.slc.cpg/sg55_13_cif.got.tgz:24056.got - 2010.04.16 15:19:21.
