data_PCOD8224018
_publ_section_title
;
Structure prediction by ZEFSAII (Michael W. Deem and Ramdas Pophale) SiO2 
 PCOD8224018
Probable space group: P C C A
;
_chemical_formula_sum "Si O2"
_cell_formula_units_Z 48
_cell_length_a 26.291167
_cell_length_b 6.334142
_cell_length_c 13.467422
_cell_angle_alpha 90.000000
_cell_angle_beta 90.000000
_cell_angle_gamma 90.000000
_cell_volume 2242.756520
_symmetry_space_group_name_H-M "P C C A"
_symmetry_group_IT_number 54
_symmetry_cell_setting 'orthorhombic'
loop_
_space_group_symop_operation_xyz
x,y,z
1/2-x,-y,z
1/2+x,-y,1/2-z
-x,y,1/2-z
-x,-y,-z
1/2+x,y,-z
1/2-x,y,1/2+z
x,-y,1/2+z
loop_
_atom_site_type_symbol
_atom_site_label
_atom_site_fract_x
_atom_site_fract_y
_atom_site_fract_z
Si Si1 0.371574 0.246484 0.852326
Si Si2 0.197084 0.124901 0.898744
Si Si3 0.463730 0.299564 0.513583
Si Si4 0.528692 0.011988 0.653337
Si Si5 0.857343 0.550998 0.971420
Si Si6 0.307771 0.551575 0.722799
O O1 0.426054 0.169548 0.812574
O O2 0.378895 0.413640 0.938836
O O3 0.336333 0.346282 0.766945
O O4 0.346317 0.046114 0.903218
O O5 0.186915 0.288574 0.989305
O O6 0.191449 0.245191 0.793553
O O7 0.250000 0.000000 0.911490
O O8 0.500000 0.500000 0.500000
O O9 0.489465 0.134272 0.585364
O O10 0.409280 0.341549 0.566097
O O11 0.452225 0.194555 0.405898
O O12 0.500000 0.927194 0.750000
O O13 0.834075 0.405603 0.883770
O O14 0.250000 0.500000 0.702167
#
# Coordination Sequence:
#
# PCOD8224018 Si02
#       6
#     8   8   8   8   8   8
#     4  11  23  45  66  95 133 170 216 270 326 387
#     4  11  24  45  67  92 135 169 213 277 324 387
#     4  11  23  44  64  99 135 166 222 274 317 405
#     4  11  24  42  69  96 128 174 219 267 333 387
#     4  11  25  43  68  96 133 174 215 268 337 387
#     4  11  25  42  66  98 127 167 223 266 319 396
#
# _framework density 21.402234
#
# number of rings (size 3 to 8) (size 9 to 14) (size 15 to 20)
#    0.000    1.000    5.000    1.000    2.333    3.333 
#    0.000    0.000    0.000    0.000    0.000    0.000 
#    0.000    0.000    0.000    0.000    0.000    0.000 
#
# Total GULP energy -595103.344866 kJ/mol
# GULP energy per Si atom -12397.986351 kJ/mol
# Density = 2.135352 g / cm^3
# Si number density = 21.402234 Si / 1000 Ang^3
#
#
#
# Elastic Constant Matrix: (Units=GPa)
#
#
# Indices 1 2 3 4 5 6 
#
# 1 142.3742 31.8956 39.4387 0.0000 0.0000 0.0000
# 2 31.8956 79.3624 11.6269 0.0000 0.0000 0.0000
# 3 39.4387 11.6269 66.4528 0.0000 0.0000 0.0000
# 4 0.0000 0.0000 0.0000 16.6313 0.0000 0.0000
# 5 0.0000 0.0000 0.0000 0.0000 35.3055 0.0000
# 6 0.0000 0.0000 0.0000 0.0000 0.0000 43.0188
#
#
#
# Elastic Compliance Matrix: (Units=1/GPa)
#
#
# Indices 1 2 3 4 5 6 
#
# 1 0.009018 -0.002915 -0.004842 0.000000 0.000000 0.000000
# 2 -0.002915 0.013874 -0.000697 0.000000 0.000000 0.000000
# 3 -0.004842 -0.000697 0.018044 0.000000 0.000000 0.000000
# 4 0.000000 0.000000 0.000000 0.060128 0.000000 0.000000
# 5 0.000000 0.000000 0.000000 0.000000 0.028324 0.000000
# 6 0.000000 0.000000 0.000000 0.000000 0.000000 0.023246
#
#
# Mechanical properties :
#
#
# Convention : Reuss Voigt Hill
#
# Bulk Modulus (GPa) = 41.61959 50.45687 46.03823
# Shear Modulus (GPa) = 28.16082 32.67301 30.41691
#
# Velocity S-wave (km/s) = 3.63132 3.91143 3.77397
# Velocity P-wave (km/s) = 6.08856 6.63519 6.36774
#
# Compressibility (1/GPa) = 0.02402714
#
# Stress axis : x y z
#
# Youngs Moduli (GPa) = 110.88860 72.07659 55.42013
#
# Poissons Ratio (x) = 0.21010 0.26835
# Poissons Ratio (y) = 0.32324 0.03866
# Poissons Ratio (z) = 0.53693 0.05027
#
# Static dielectric constant tensor:
#      x y z
#    x 5.343220 0.000000 0.000000 
#    y 0.000000 6.863160 0.000000 
#    z 0.000000 0.000000 3.978310 
# 
# 
# High freq. dielectric constant tensor:
#      x y z
#    x 1.859650 0.000000 0.000000 
#    y 0.000000 1.840420 0.000000 
#    z 0.000000 0.000000 1.831360 
# 
# From -- ./inp_files/15155.got.cif
#   From: 2010.03.12/outbox.cif.g09.slc.cpg/sg54_8_cif.got.tgz:15155.got - 2010.04.16 15:00:50.
