data_PCOD8224856
_publ_section_title
;
Structure prediction by ZEFSAII (Michael W. Deem and Ramdas Pophale) SiO2 
 PCOD8224856
Probable space group: P B A M
;
_chemical_formula_sum "Si O2"
_cell_formula_units_Z 64
_cell_length_a 14.511854
_cell_length_b 24.427628
_cell_length_c 9.113930
_cell_angle_alpha 90.000000
_cell_angle_beta 90.000000
_cell_angle_gamma 90.000000
_cell_volume 3230.798605
_symmetry_space_group_name_H-M "P B A M"
_symmetry_group_IT_number 55
_symmetry_cell_setting 'orthorhombic'
loop_
_space_group_symop_operation_xyz
x,y,z
-x,-y,z
1/2+x,1/2-y,-z
1/2-x,1/2+y,-z
-x,-y,-z
x,y,-z
1/2-x,1/2+y,z
1/2+x,1/2-y,z
loop_
_atom_site_type_symbol
_atom_site_label
_atom_site_fract_x
_atom_site_fract_y
_atom_site_fract_z
Si Si1 0.017597 0.325973 0.331219
Si Si2 0.232060 0.474137 0.171487
Si Si3 0.439386 0.640674 0.836509
Si Si4 0.244060 0.597894 0.163334
Si Si5 0.184285 0.700977 0.329491
Si Si6 0.555037 0.052583 0.329379
Si Si7 0.935880 0.048762 0.824007
Si Si8 0.849532 0.750416 0.824898
O O1 0.046672 0.318140 0.500000
O O2 0.000794 0.390600 0.298664
O O3 0.100880 0.304272 0.230315
O O4 0.924602 0.291674 0.296741
O O5 0.211471 0.537534 0.205142
O O6 0.153840 0.439902 0.252860
O O7 0.331896 0.457043 0.234518
O O8 0.227339 0.461269 0.000000
O O9 0.354818 0.597965 0.838507
O O10 0.524123 0.607252 0.763254
O O11 0.408147 0.697641 0.760423
O O12 0.468915 0.657214 0.000000
O O13 0.206923 0.639023 0.284672
O O14 0.208423 0.614741 0.000000
O O15 0.206400 0.708693 0.500000
O O16 0.245242 0.744593 0.237935
O O17 0.572562 0.042736 0.500000
O O18 0.500000 0.000000 0.263947
O O19 0.939200 0.048109 0.000000
O O20 0.000000 0.000000 0.762172
O O21 0.841924 0.750858 0.000000
#
# Coordination Sequence:
#
# PCOD8224856 Si02
#       8
#     8   8   8   8   8   8   8   8
#     4  10  22  41  62  83 111 151 194 236 288 352
#     4  10  19  30  51  84 115 146 185 233 286 337
#     4   8  14  27  47  74 107 144 181 220 266 322
#     4   9  16  28  49  79 112 144 186 233 276 327
#     4  10  20  36  60  84 107 144 192 238 285 339
#     4  10  22  41  61  80 109 150 192 236 291 352
#     4   9  14  25  48  77 112 150 182 217 272 340
#     4  10  21  37  59  86 115 144 184 239 291 341
#
# _framework density 19.809342999999998
#
# number of rings (size 3 to 8) (size 9 to 14) (size 15 to 20)
#    0.000    2.500    1.250    2.250    0.000    3.250 
#    2.250    0.000    0.000    3.375    0.000    0.000 
#    0.000    0.000    0.000    0.000    0.000    0.000 
#
# Total GULP energy -793230.406198 kJ/mol
# GULP energy per Si atom -12394.225097 kJ/mol
# Density = 1.976426 g / cm^3
# Si number density = 19.809343 Si / 1000 Ang^3
#
#
#
# Elastic Constant Matrix: (Units=GPa)
#
#
# Indices 1 2 3 4 5 6 
#
# 1 111.0325 35.0684 38.8743 0.0000 0.0000 0.0000
# 2 35.0684 70.4491 27.7388 0.0000 0.0000 0.0000
# 3 38.8743 27.7388 56.2637 0.0000 0.0000 0.0000
# 4 0.0000 0.0000 0.0000 22.9369 0.0000 0.0000
# 5 0.0000 0.0000 0.0000 0.0000 27.3941 0.0000
# 6 0.0000 0.0000 0.0000 0.0000 0.0000 32.3461
#
#
#
# Elastic Compliance Matrix: (Units=1/GPa)
#
#
# Indices 1 2 3 4 5 6 
#
# 1 0.012544 -0.003514 -0.006935 0.000000 0.000000 0.000000
# 2 -0.003514 0.018598 -0.006741 0.000000 0.000000 0.000000
# 3 -0.006935 -0.006741 0.025888 0.000000 0.000000 0.000000
# 4 0.000000 0.000000 0.000000 0.043598 0.000000 0.000000
# 5 0.000000 0.000000 0.000000 0.000000 0.036504 0.000000
# 6 0.000000 0.000000 0.000000 0.000000 0.000000 0.030916
#
#
# Mechanical properties :
#
#
# Convention : Reuss Voigt Hill
#
# Bulk Modulus (GPa) = 44.14833 49.01203 46.58018
# Shear Modulus (GPa) = 23.81195 25.60634 24.70914
#
# Velocity S-wave (km/s) = 3.47083 3.59923 3.53561
# Velocity P-wave (km/s) = 6.19655 6.48600 6.34293
#
# Compressibility (1/GPa) = 0.02265091
#
# Stress axis : x y z
#
# Youngs Moduli (GPa) = 79.71858 53.76893 38.62721
#
# Poissons Ratio (x) = 0.18893 0.26787
# Poissons Ratio (y) = 0.28011 0.26040
# Poissons Ratio (z) = 0.55283 0.36248
#
# Static dielectric constant tensor:
#      x y z
#    x 3.657280 0.000000 0.000000 
#    y 0.000000 3.527260 0.000000 
#    z 0.000000 0.000000 3.216120 
# 
# 
# High freq. dielectric constant tensor:
#      x y z
#    x 1.772780 0.000000 0.000000 
#    y 0.000000 1.762780 0.000000 
#    z 0.000000 0.000000 1.735770 
# 
# From -- ./inp_files/6529.got.cif
#   From: 2010.03.12/outbox.cif.g09.slc.cpg/sg55_4_cif.got.tgz:6529.got - 2010.04.16 15:19:21.
