data_PCOD8224169
_publ_section_title
;
Structure prediction by ZEFSAII (Michael W. Deem and Ramdas Pophale) SiO2 
 PCOD8224169
Probable space group: P C C A
;
_chemical_formula_sum "Si O2"
_cell_formula_units_Z 32
_cell_length_a 9.641097
_cell_length_b 7.004122
_cell_length_c 21.528587
_cell_angle_alpha 90.000000
_cell_angle_beta 90.000000
_cell_angle_gamma 90.000000
_cell_volume 1453.769928
_symmetry_space_group_name_H-M "P C C A"
_symmetry_group_IT_number 54
_symmetry_cell_setting 'orthorhombic'
loop_
_space_group_symop_operation_xyz
x,y,z
1/2-x,-y,z
1/2+x,-y,1/2-z
-x,y,1/2-z
-x,-y,-z
1/2+x,y,-z
1/2-x,y,1/2+z
x,-y,1/2+z
loop_
_atom_site_type_symbol
_atom_site_label
_atom_site_fract_x
_atom_site_fract_y
_atom_site_fract_z
Si Si1 0.652341 0.824133 0.397638
Si Si2 0.374556 0.628952 0.976672
Si Si3 0.594480 0.929241 0.628571
Si Si4 0.500000 0.719835 0.750000
Si Si5 0.250000 0.500000 0.193196
O O1 0.685270 0.755748 0.467177
O O2 0.676957 0.656068 0.349450
O O3 0.750000 0.000000 0.379966
O O4 0.492417 0.887311 0.393598
O O5 0.250000 0.500000 0.950641
O O6 0.426709 0.761391 0.921116
O O7 0.500000 0.500000 0.000000
O O8 0.534430 0.857347 0.693202
O O9 0.750000 0.000000 0.635540
O O10 0.633038 0.588907 0.762858
#
# Coordination Sequence:
#
# PCOD8224169 Si02
#       5
#     8   8   8   4   4
#     4  12  24  50  76 108 145 191 244 302 376 438
#     4  12  24  45  76 111 147 188 242 305 374 435
#     4  12  28  46  73 111 150 193 247 304 365 438
#     4  12  30  48  74 106 146 202 244 300 360 442
#     4  12  28  50  76 108 144 198 250 304 370 438
#
# _framework density 22.011735999999999
#
# number of rings (size 3 to 8) (size 9 to 14) (size 15 to 20)
#    0.000    0.000    3.750    6.000    8.750    0.000 
#    0.000    0.000    0.000    0.000    0.000    0.000 
#    0.000    0.000    0.000    0.000    0.000    0.000 
#
# Total GULP energy -397131.262971 kJ/mol
# GULP energy per Si atom -12410.351968 kJ/mol
# Density = 2.196164 g / cm^3
# Si number density = 22.011736 Si / 1000 Ang^3
#
#
#
# Elastic Constant Matrix: (Units=GPa)
#
#
# Indices 1 2 3 4 5 6 
#
# 1 135.3063 42.6945 15.2609 0.0000 0.0000 0.0000
# 2 42.6945 110.6732 33.1736 0.0000 0.0000 0.0000
# 3 15.2609 33.1736 114.8238 0.0000 0.0000 0.0000
# 4 0.0000 0.0000 0.0000 12.3101 0.0000 0.0000
# 5 0.0000 0.0000 0.0000 0.0000 37.3705 0.0000
# 6 0.0000 0.0000 0.0000 0.0000 0.0000 45.7124
#
#
#
# Elastic Compliance Matrix: (Units=1/GPa)
#
#
# Indices 1 2 3 4 5 6 
#
# 1 0.008419 -0.003189 -0.000198 0.000000 0.000000 0.000000
# 2 -0.003189 0.011100 -0.002783 0.000000 0.000000 0.000000
# 3 -0.000198 -0.002783 0.009539 0.000000 0.000000 0.000000
# 4 0.000000 0.000000 0.000000 0.081234 0.000000 0.000000
# 5 0.000000 0.000000 0.000000 0.000000 0.026759 0.000000
# 6 0.000000 0.000000 0.000000 0.000000 0.000000 0.021876
#
#
# Mechanical properties :
#
#
# Convention : Reuss Voigt Hill
#
# Bulk Modulus (GPa) = 59.81034 60.34013 60.07524
# Shear Modulus (GPa) = 28.27433 37.05692 32.66563
#
# Velocity S-wave (km/s) = 3.58790 4.10751 3.85646
# Velocity P-wave (km/s) = 6.66296 7.06878 6.86887
#
# Compressibility (1/GPa) = 0.01671952
#
# Stress axis : x y z
#
# Youngs Moduli (GPa) = 118.77820 90.09122 104.82921
#
# Poissons Ratio (x) = 0.28726 0.02073
# Poissons Ratio (y) = 0.37873 0.29175
# Poissons Ratio (z) = 0.02349 0.25073
#
# Static dielectric constant tensor:
#      x y z
#    x 4.211170 0.000000 0.000000 
#    y 0.000000 4.315430 0.000000 
#    z 0.000000 0.000000 4.050220 
# 
# 
# High freq. dielectric constant tensor:
#      x y z
#    x 1.886670 0.000000 0.000000 
#    y 0.000000 1.883100 0.000000 
#    z 0.000000 0.000000 1.872840 
# 
# From -- ./inp_files/20843.got.cif
#   From: 2010.03.12/outbox.cif.g09.slc.cpg/sg54_11_cif.got.tgz:20843.got - 2010.04.16 15:00:50.
