data_PCOD8224944
_publ_section_title
;
Structure prediction by ZEFSAII (Michael W. Deem and Ramdas Pophale) SiO2 
 PCOD8224944
Probable space group: P B A M
;
_chemical_formula_sum "Si O2"
_cell_formula_units_Z 64
_cell_length_a 16.476612
_cell_length_b 8.888322
_cell_length_c 18.314248
_cell_angle_alpha 90.000000
_cell_angle_beta 90.000000
_cell_angle_gamma 90.000000
_cell_volume 2682.111234
_symmetry_space_group_name_H-M "P B A M"
_symmetry_group_IT_number 55
_symmetry_cell_setting 'orthorhombic'
loop_
_space_group_symop_operation_xyz
x,y,z
-x,-y,z
1/2+x,1/2-y,-z
1/2-x,1/2+y,-z
-x,-y,-z
x,y,-z
1/2-x,1/2+y,z
1/2+x,1/2-y,z
loop_
_atom_site_type_symbol
_atom_site_label
_atom_site_fract_x
_atom_site_fract_y
_atom_site_fract_z
Si Si1 0.292130 0.250198 0.230167
Si Si2 0.130112 0.988619 0.667512
Si Si3 0.654532 0.240666 0.580763
Si Si4 0.401367 0.731108 0.771029
Si Si5 0.537950 0.757635 0.418267
Si Si6 0.618566 0.997017 0.683243
Si Si7 0.137488 0.202890 0.921323
Si Si8 0.793899 0.123264 0.919955
O O1 0.311488 0.380874 0.287534
O O2 0.196340 0.234575 0.224844
O O3 0.329082 0.094628 0.258548
O O4 0.331226 0.288974 0.150350
O O5 0.074695 0.897215 0.611418
O O6 0.186071 0.108498 0.621777
O O7 0.072568 0.086105 0.723160
O O8 0.693160 0.228074 0.500000
O O9 0.557805 0.256729 0.577688
O O10 0.677043 0.093453 0.628353
O O11 0.429498 0.717440 0.855928
O O12 0.434421 0.881678 0.731158
O O13 0.572353 0.787932 0.500000
O O14 0.560253 0.895399 0.365729
O O15 0.197119 0.346687 0.920614
O O16 0.192456 0.054185 0.909009
O O17 0.091973 0.194470 0.000000
O O18 0.829677 0.174612 0.000000
#
# Coordination Sequence:
#
# PCOD8224944 Si02
#       8
#     8   8   8   8   8   8   8   8
#     4  10  19  32  48  70 105 146 169 196 232 280
#     4  10  19  31  51  78 100 127 168 200 241 306
#     4  10  20  36  57  77  96 118 151 211 278 312
#     4  10  19  32  48  70 105 146 169 196 232 280
#     4  10  20  36  57  77  96 118 151 211 278 312
#     4  10  21  31  51  74 100 129 168 196 243 310
#     4   9  17  28  45  70 100 135 173 209 242 276
#     4   9  17  28  45  70 100 135 173 209 242 276
#
# _framework density 23.861799999999999
#
# number of rings (size 3 to 8) (size 9 to 14) (size 15 to 20)
#    0.000    2.250    1.250    2.250    5.250    2.000 
#    0.000    0.000    0.000   52.500    0.000    0.000 
#    0.000   70.000    0.000    0.000    0.000    0.000 
#
# Total GULP energy -792931.479338 kJ/mol
# GULP energy per Si atom -12389.554365 kJ/mol
# Density = 2.380749 g / cm^3
# Si number density = 23.861800 Si / 1000 Ang^3
#
#
#
# Elastic Constant Matrix: (Units=GPa)
#
#
# Indices 1 2 3 4 5 6 
#
# 1 19.6573 4.9817 7.0178 0.0000 0.0000 0.0000
# 2 4.9817 124.9993 49.9450 0.0000 0.0000 0.0000
# 3 7.0178 49.9450 218.6124 0.0000 0.0000 0.0000
# 4 0.0000 0.0000 0.0000 34.7433 0.0000 0.0000
# 5 0.0000 0.0000 0.0000 0.0000 15.5514 0.0000
# 6 0.0000 0.0000 0.0000 0.0000 0.0000 18.6608
#
#
#
# Elastic Compliance Matrix: (Units=1/GPa)
#
#
# Indices 1 2 3 4 5 6 
#
# 1 0.051729 -0.001539 -0.001309 0.000000 0.000000 0.000000
# 2 -0.001539 0.008849 -0.001972 0.000000 0.000000 0.000000
# 3 -0.001309 -0.001972 0.005067 0.000000 0.000000 0.000000
# 4 0.000000 0.000000 0.000000 0.028783 0.000000 0.000000
# 5 0.000000 0.000000 0.000000 0.000000 0.064303 0.000000
# 6 0.000000 0.000000 0.000000 0.000000 0.000000 0.053588
#
#
# Mechanical properties :
#
#
# Convention : Reuss Voigt Hill
#
# Bulk Modulus (GPa) = 17.85541 54.12865 35.99203
# Shear Modulus (GPa) = 20.77901 33.87941 27.32921
#
# Velocity S-wave (km/s) = 2.95414 3.77213 3.38792
# Velocity P-wave (km/s) = 4.37436 6.45798 5.51546
#
# Compressibility (1/GPa) = 0.05600543
#
# Stress axis : x y z
#
# Youngs Moduli (GPa) = 19.33152 113.00130 197.35740
#
# Poissons Ratio (x) = 0.17386 0.25836
# Poissons Ratio (y) = 0.02974 0.38927
# Poissons Ratio (z) = 0.02531 0.22288
#
# Static dielectric constant tensor:
#      x y z
#    x 3.421370 0.000000 0.000000 
#    y 0.000000 4.620200 0.000000 
#    z 0.000000 0.000000 5.496740 
# 
# 
# High freq. dielectric constant tensor:
#      x y z
#    x 1.867610 0.000000 0.000000 
#    y 0.000000 1.961420 0.000000 
#    z 0.000000 0.000000 1.982160 
# 
# From -- ./inp_files/22110.got.cif
#   From: 2010.03.12/outbox.cif.g09.slc.cpg/sg55_12_cif.got.tgz:22110.got - 2010.04.16 15:19:21.
