data_PCOD8224234
_publ_section_title
;
Structure prediction by ZEFSAII (Michael W. Deem and Ramdas Pophale) SiO2 
 PCOD8224234
Probable space group: P B A M
;
_chemical_formula_sum "Si O2"
_cell_formula_units_Z 56
_cell_length_a 28.861537
_cell_length_b 15.031798
_cell_length_c 9.417345
_cell_angle_alpha 90.000000
_cell_angle_beta 90.000000
_cell_angle_gamma 90.000000
_cell_volume 4085.628434
_symmetry_space_group_name_H-M "P B A M"
_symmetry_group_IT_number 55
_symmetry_cell_setting 'orthorhombic'
loop_
_space_group_symop_operation_xyz
x,y,z
-x,-y,z
1/2+x,1/2-y,-z
1/2-x,1/2+y,-z
-x,-y,-z
x,y,-z
1/2-x,1/2+y,z
1/2+x,1/2-y,z
loop_
_atom_site_type_symbol
_atom_site_label
_atom_site_fract_x
_atom_site_fract_y
_atom_site_fract_z
Si Si1 0.902250 0.060006 0.838537
Si Si2 0.571626 0.355491 0.162550
Si Si3 0.703011 0.597708 0.166241
Si Si4 0.725783 0.436997 0.657583
Si Si5 0.486369 0.397447 0.660658
Si Si6 0.651564 0.299452 0.657887
Si Si7 0.749654 0.247069 0.337642
O O1 0.850526 0.086011 0.793604
O O2 0.936689 0.114215 0.735909
O O3 0.909775 0.955178 0.823805
O O4 0.912419 0.089449 0.000000
O O5 0.524380 0.342366 0.250541
O O6 0.610582 0.289764 0.227685
O O7 0.562615 0.328465 0.000000
O O8 0.732812 0.516408 0.231064
O O9 0.720065 0.690664 0.229557
O O10 0.711831 0.597701 0.000000
O O11 0.735880 0.474884 0.500000
O O12 0.673013 0.399525 0.664254
O O13 0.759896 0.352718 0.689606
O O14 0.500000 0.500000 0.660930
O O15 0.483747 0.360502 0.500000
O O16 0.631102 0.282953 0.500000
O O17 0.694142 0.230756 0.688280
O O18 0.762240 0.222185 0.500000
#
# Coordination Sequence:
#
# PCOD8224234 Si02
#       7
#     8   8   8   8   8   8   8
#     4   9  17  26  33  49  74  98 126 157 193 232
#     4  10  16  24  38  52  72  99 124 157 199 234
#     4  11  19  26  41  61  80 105 133 166 205 241
#     4   8  16  29  42  54  74 102 134 166 194 232
#     4   9  17  25  34  49  68  93 129 163 188 220
#     4   8  15  27  40  53  71  95 129 164 189 223
#     4   8  17  30  41  56  76 102 135 167 198 233
#
# _framework density 13.706581999999999
#
# number of rings (size 3 to 8) (size 9 to 14) (size 15 to 20)
#    0.857    2.143    1.429    1.286    0.000    4.571 
#    0.000    0.000    0.000    0.000    0.000    0.000 
#    0.000    0.000    0.000    1.286    0.000   24.143 
#
# Total GULP energy -693789.201781 kJ/mol
# GULP energy per Si atom -12389.092889 kJ/mol
# Density = 1.367539 g / cm^3
# Si number density = 13.706582 Si / 1000 Ang^3
#
#
#
# Elastic Constant Matrix: (Units=GPa)
#
#
# Indices 1 2 3 4 5 6 
#
# 1 53.5968 34.1730 48.0582 0.0000 0.0000 0.0000
# 2 34.1730 27.4595 33.4613 0.0000 0.0000 0.0000
# 3 48.0582 33.4613 103.5981 0.0000 0.0000 0.0000
# 4 0.0000 0.0000 0.0000 18.7376 0.0000 0.0000
# 5 0.0000 0.0000 0.0000 0.0000 26.6909 0.0000
# 6 0.0000 0.0000 0.0000 0.0000 0.0000 14.8284
#
#
#
# Elastic Compliance Matrix: (Units=1/GPa)
#
#
# Indices 1 2 3 4 5 6 
#
# 1 0.096027 -0.107553 -0.009807 0.000000 0.000000 0.000000
# 2 -0.107553 0.180516 -0.008412 0.000000 0.000000 0.000000
# 3 -0.009807 -0.008412 0.016919 0.000000 0.000000 0.000000
# 4 0.000000 0.000000 0.000000 0.053369 0.000000 0.000000
# 5 0.000000 0.000000 0.000000 0.000000 0.037466 0.000000
# 6 0.000000 0.000000 0.000000 0.000000 0.000000 0.067438
#
#
# Mechanical properties :
#
#
# Convention : Reuss Voigt Hill
#
# Bulk Modulus (GPa) = 23.85659 46.22660 35.04160
# Shear Modulus (GPa) = 6.97104 16.64882 11.80993
#
# Velocity S-wave (km/s) = 2.25764 3.48898 2.93853
# Velocity P-wave (km/s) = 4.92330 7.07317 6.09379
#
# Compressibility (1/GPa) = 0.04191714
#
# Stress axis : x y z
#
# Youngs Moduli (GPa) = 10.41378 5.53966 59.10417
#
# Poissons Ratio (x) = 0.59581 0.57964
# Poissons Ratio (y) = 1.12003 0.49721
# Poissons Ratio (z) = 0.10213 0.04660
#
# Static dielectric constant tensor:
#      x y z
#    x 2.596330 0.000000 0.000000 
#    y 0.000000 2.243080 0.000000 
#    z 0.000000 0.000000 2.784170 
# 
# 
# High freq. dielectric constant tensor:
#      x y z
#    x 1.506340 0.000000 0.000000 
#    y 0.000000 1.461310 0.000000 
#    z 0.000000 0.000000 1.536710 
# 
# From -- ./inp_files/6888.got.cif
#   From: 2010.03.12/outbox.cif.g09.slc.cpg/sg55_4_cif.got.tgz:6888.got - 2010.04.16 15:19:21.
