data_PCOD8224458
_publ_section_title
;
Structure prediction by ZEFSAII (Michael W. Deem and Ramdas Pophale) SiO2 
 PCOD8224458
Probable space group: P B A M
;
_chemical_formula_sum "Si O2"
_cell_formula_units_Z 64
_cell_length_a 19.897018
_cell_length_b 20.140517
_cell_length_c 9.118694
_cell_angle_alpha 90.000000
_cell_angle_beta 90.000000
_cell_angle_gamma 90.000000
_cell_volume 3654.191050
_symmetry_space_group_name_H-M "P B A M"
_symmetry_group_IT_number 55
_symmetry_cell_setting 'orthorhombic'
loop_
_space_group_symop_operation_xyz
x,y,z
-x,-y,z
1/2+x,1/2-y,-z
1/2-x,1/2+y,-z
-x,-y,-z
x,y,-z
1/2-x,1/2+y,z
1/2+x,1/2-y,z
loop_
_atom_site_type_symbol
_atom_site_label
_atom_site_fract_x
_atom_site_fract_y
_atom_site_fract_z
Si Si1 0.190586 0.993512 0.827291
Si Si2 0.060038 0.049762 0.327300
Si Si3 0.456895 0.060402 0.674377
Si Si4 0.180780 0.721010 0.338481
Si Si5 0.993565 0.168396 0.172909
Si Si6 0.478142 0.204134 0.663801
Si Si7 0.159311 0.845856 0.169219
Si Si8 0.305125 0.074379 0.325456
O O1 0.127208 0.022746 0.744075
O O2 0.257219 0.026437 0.764898
O O3 0.195870 0.914880 0.794507
O O4 0.182853 0.007034 0.000000
O O5 0.070667 0.058013 0.500000
O O6 0.044654 0.120721 0.256682
O O7 0.000000 0.000000 0.288848
O O8 0.456827 0.058212 0.500000
O O9 0.492186 0.129611 0.723200
O O10 0.380052 0.055634 0.728040
O O11 0.500000 0.000000 0.742208
O O12 0.209006 0.735744 0.500000
O O13 0.101388 0.712313 0.342822
O O14 0.200229 0.785022 0.242038
O O15 0.211719 0.651105 0.281791
O O16 0.010697 0.243330 0.224105
O O17 0.917949 0.149699 0.223215
O O18 0.004292 0.161384 0.000000
O O19 0.507975 0.214918 0.500000
O O20 0.158981 0.828867 0.000000
O O21 0.296337 0.064326 0.500000
#
# Coordination Sequence:
#
# PCOD8224458 Si02
#       8
#     8   8   8   8   8   8   8   8
#     4  11  22  35  51  73 104 139 171 208 258 310
#     4  11  22  34  51  75 101 133 173 215 255 299
#     4   8  14  28  54  82 105 131 167 212 260 305
#     4   8  15  28  48  71  96 124 161 210 252 290
#     4  10  18  30  48  70 101 134 167 209 253 300
#     4   8  14  26  46  74 101 127 164 208 249 294
#     4   9  18  30  47  72  98 128 168 209 247 298
#     4   9  18  33  52  77 104 130 169 216 255 305
#
# _framework density 17.514135
#
# number of rings (size 3 to 8) (size 9 to 14) (size 15 to 20)
#    0.000    2.750    1.250    2.625    0.000    2.500 
#    0.000    1.875    2.750    1.500    0.000    0.000 
#    0.000    0.000    0.000    0.000    0.000    0.000 
#
# Total GULP energy -793311.743109 kJ/mol
# GULP energy per Si atom -12395.495986 kJ/mol
# Density = 1.747427 g / cm^3
# Si number density = 17.514135 Si / 1000 Ang^3
#
#
#
# Elastic Constant Matrix: (Units=GPa)
#
#
# Indices 1 2 3 4 5 6 
#
# 1 59.0704 49.7164 31.0060 0.0000 0.0000 0.0000
# 2 49.7164 150.6451 55.0758 0.0000 0.0000 0.0000
# 3 31.0060 55.0758 62.5977 0.0000 0.0000 0.0000
# 4 0.0000 0.0000 0.0000 25.7871 0.0000 0.0000
# 5 0.0000 0.0000 0.0000 0.0000 21.4915 0.0000
# 6 0.0000 0.0000 0.0000 0.0000 0.0000 25.4740
#
#
#
# Elastic Compliance Matrix: (Units=1/GPa)
#
#
# Indices 1 2 3 4 5 6 
#
# 1 0.025782 -0.005661 -0.007790 0.000000 0.000000 0.000000
# 2 -0.005661 0.011029 -0.006900 0.000000 0.000000 0.000000
# 3 -0.007790 -0.006900 0.025904 0.000000 0.000000 0.000000
# 4 0.000000 0.000000 0.000000 0.038779 0.000000 0.000000
# 5 0.000000 0.000000 0.000000 0.000000 0.046530 0.000000
# 6 0.000000 0.000000 0.000000 0.000000 0.000000 0.039256
#
#
# Mechanical properties :
#
#
# Convention : Reuss Voigt Hill
#
# Bulk Modulus (GPa) = 45.42475 60.43440 52.92958
# Shear Modulus (GPa) = 21.24777 23.65154 22.44966
#
# Velocity S-wave (km/s) = 3.48685 3.67880 3.58411
# Velocity P-wave (km/s) = 6.49640 7.25436 6.88582
#
# Compressibility (1/GPa) = 0.02201443
#
# Stress axis : x y z
#
# Youngs Moduli (GPa) = 38.78644 90.67172 38.60379
#
# Poissons Ratio (x) = 0.51327 0.30072
# Poissons Ratio (y) = 0.21956 0.26635
# Poissons Ratio (z) = 0.30215 0.62561
#
# Static dielectric constant tensor:
#      x y z
#    x 3.029460 0.000000 0.000000 
#    y 0.000000 3.734130 0.000000 
#    z 0.000000 0.000000 3.188790 
# 
# 
# High freq. dielectric constant tensor:
#      x y z
#    x 1.633000 0.000000 0.000000 
#    y 0.000000 1.693480 0.000000 
#    z 0.000000 0.000000 1.665980 
# 
# From -- ./inp_files/8013.got.cif
#   From: 2010.03.12/outbox.cif.g09.slc.cpg/sg55_5_cif.got.tgz:8013.got - 2010.04.16 15:19:21.
