data_PCOD8224025
_publ_section_title
;
Structure prediction by ZEFSAII (Michael W. Deem and Ramdas Pophale) SiO2 
 PCOD8224025
Probable space group: P C C A
;
_chemical_formula_sum "Si O2"
_cell_formula_units_Z 40
_cell_length_a 16.199516
_cell_length_b 11.348899
_cell_length_c 9.280372
_cell_angle_alpha 90.000000
_cell_angle_beta 90.000000
_cell_angle_gamma 90.000000
_cell_volume 1706.165497
_symmetry_space_group_name_H-M "P C C A"
_symmetry_group_IT_number 54
_symmetry_cell_setting 'orthorhombic'
loop_
_space_group_symop_operation_xyz
x,y,z
1/2-x,-y,z
1/2+x,-y,1/2-z
-x,y,1/2-z
-x,-y,-z
1/2+x,y,-z
1/2-x,y,1/2+z
x,-y,1/2+z
loop_
_atom_site_type_symbol
_atom_site_label
_atom_site_fract_x
_atom_site_fract_y
_atom_site_fract_z
Si Si1 0.676370 0.337175 0.432685
Si Si2 0.839679 0.973300 0.607875
Si Si3 0.915331 0.118710 0.834538
Si Si4 0.941076 0.470491 0.368942
Si Si5 0.165573 0.723162 0.747911
O O1 0.601217 0.250194 0.389847
O O2 0.648048 0.465066 0.377721
O O3 0.686705 0.346181 0.604807
O O4 0.759565 0.289192 0.363462
O O5 0.904490 0.966001 0.474947
O O6 0.849532 0.858687 0.710656
O O7 0.750000 0.000000 0.539058
O O8 0.850773 0.085746 0.709948
O O9 0.000000 0.101989 0.750000
O O10 0.915624 0.334524 0.330892
O O11 0.000000 0.524802 0.250000
O O12 0.000000 0.500000 0.500000
#
# Coordination Sequence:
#
# PCOD8224025 Si02
#       5
#     8   8   8   8   8
#     4  11  25  46  69 101 143 188 243 297 368 441
#     4  11  23  45  72 105 145 191 251 306 373 455
#     4  11  24  44  68 106 144 191 244 312 377 439
#     4  12  26  48  70 102 142 182 235 302 369 438
#     4  11  26  44  74 104 140 190 240 296 363 442
#
# _framework density 23.444383999999999
#
# number of rings (size 3 to 8) (size 9 to 14) (size 15 to 20)
#    0.000    0.800    4.000    2.400    5.600    2.400 
#    3.600    0.000    0.000    0.000    0.000    0.000 
#    0.000    0.000    0.000    0.000    0.000    0.000 
#
# Total GULP energy -495538.713056 kJ/mol
# GULP energy per Si atom -12388.467826 kJ/mol
# Density = 2.339102 g / cm^3
# Si number density = 23.444384 Si / 1000 Ang^3
#
#
#
# Elastic Constant Matrix: (Units=GPa)
#
#
# Indices 1 2 3 4 5 6 
#
# 1 102.3682 16.1989 60.5628 0.0000 0.0000 0.0000
# 2 16.1989 65.7166 31.5221 0.0000 0.0000 0.0000
# 3 60.5628 31.5221 144.9728 0.0000 0.0000 0.0000
# 4 0.0000 0.0000 0.0000 35.0341 0.0000 0.0000
# 5 0.0000 0.0000 0.0000 0.0000 56.8771 0.0000
# 6 0.0000 0.0000 0.0000 0.0000 0.0000 36.9059
#
#
#
# Elastic Compliance Matrix: (Units=1/GPa)
#
#
# Indices 1 2 3 4 5 6 
#
# 1 0.013002 -0.000669 -0.005286 0.000000 0.000000 0.000000
# 2 -0.000669 0.017023 -0.003422 0.000000 0.000000 0.000000
# 3 -0.005286 -0.003422 0.009850 0.000000 0.000000 0.000000
# 4 0.000000 0.000000 0.000000 0.028544 0.000000 0.000000
# 5 0.000000 0.000000 0.000000 0.000000 0.017582 0.000000
# 6 0.000000 0.000000 0.000000 0.000000 0.000000 0.027096
#
#
# Mechanical properties :
#
#
# Convention : Reuss Voigt Hill
#
# Bulk Modulus (GPa) = 47.34675 58.84726 53.09701
# Shear Modulus (GPa) = 35.99940 39.41500 37.70720
#
# Velocity S-wave (km/s) = 3.92283 4.10471 4.01480
# Velocity P-wave (km/s) = 6.38414 6.90073 6.64746
#
# Compressibility (1/GPa) = 0.02112077
#
# Stress axis : x y z
#
# Youngs Moduli (GPa) = 76.91187 58.74345 101.52164
#
# Poissons Ratio (x) = 0.03932 0.53665
# Poissons Ratio (y) = 0.05148 0.34739
# Poissons Ratio (z) = 0.40656 0.20101
#
# Static dielectric constant tensor:
#      x y z
#    x 4.123900 0.000000 0.000000 
#    y 0.000000 4.240140 0.000000 
#    z 0.000000 0.000000 4.357640 
# 
# 
# High freq. dielectric constant tensor:
#      x y z
#    x 1.925140 0.000000 0.000000 
#    y 0.000000 1.920190 0.000000 
#    z 0.000000 0.000000 1.947880 
# 
# From -- ./inp_files/3427.got.cif
#   From: 2010.03.12/outbox.cif.g09.slc.cpg/sg54_2_cif.got.tgz:3427.got - 2010.04.16 15:00:50.
