data_PCOD8224505
_publ_section_title
;
Structure prediction by ZEFSAII (Michael W. Deem and Ramdas Pophale) SiO2 
 PCOD8224505
Probable space group: P B A M
;
_chemical_formula_sum "Si O2"
_cell_formula_units_Z 56
_cell_length_a 20.365436
_cell_length_b 14.884244
_cell_length_c 9.857808
_cell_angle_alpha 90.000000
_cell_angle_beta 90.000000
_cell_angle_gamma 90.000000
_cell_volume 2988.139361
_symmetry_space_group_name_H-M "P B A M"
_symmetry_group_IT_number 55
_symmetry_cell_setting 'orthorhombic'
loop_
_space_group_symop_operation_xyz
x,y,z
-x,-y,z
1/2+x,1/2-y,-z
1/2-x,1/2+y,-z
-x,-y,-z
x,y,-z
1/2-x,1/2+y,z
1/2+x,1/2-y,z
loop_
_atom_site_type_symbol
_atom_site_label
_atom_site_fract_x
_atom_site_fract_y
_atom_site_fract_z
Si Si1 0.959604 0.231513 0.839896
Si Si2 0.606865 0.257306 0.153260
Si Si3 0.244219 0.983936 0.651076
Si Si4 0.451862 0.070637 0.845608
Si Si5 0.846607 0.568152 0.147576
Si Si6 0.272543 0.689179 0.339942
Si Si7 0.345857 0.323925 0.346488
O O1 0.950244 0.331761 0.778943
O O2 0.908056 0.173790 0.754010
O O3 0.035039 0.201336 0.812087
O O4 0.942735 0.224210 0.000000
O O5 0.600292 0.148600 0.161715
O O6 0.661816 0.286470 0.258980
O O7 0.627058 0.286307 0.000000
O O8 0.273246 0.985064 0.500000
O O9 0.291990 0.922410 0.739306
O O10 0.176630 0.928154 0.656390
O O11 0.239810 0.085867 0.703488
O O12 0.500000 0.000000 0.769662
O O13 0.379556 0.029087 0.838022
O O14 0.476994 0.083249 0.000000
O O15 0.812357 0.575210 0.000000
O O16 0.287308 0.697754 0.500000
O O17 0.211228 0.753301 0.299136
O O18 0.367055 0.298089 0.500000
#
# Coordination Sequence:
#
# PCOD8224505 Si02
#       7
#     8   8   8   8   8   8   8
#     4  10  20  34  54  80 111 146 180 219 269 325
#     4  10  20  34  54  82 112 141 179 223 268 322
#     4  10  21  37  56  78 106 140 181 226 273 322
#     4   9  15  27  48  75 107 138 168 206 259 321
#     4  10  18  30  53  81 107 138 175 217 267 324
#     4  10  21  38  59  80 106 145 187 225 271 322
#     4  10  21  37  55  79 110 141 177 226 274 320
#
# _framework density 18.740759000000001
#
# number of rings (size 3 to 8) (size 9 to 14) (size 15 to 20)
#    0.000    2.143    2.857    0.857    0.000    2.286 
#    0.000    0.714    0.000    5.143    0.000    0.000 
#    0.000    0.000    0.000    0.000    0.000    0.000 
#
# Total GULP energy -693949.630869 kJ/mol
# GULP energy per Si atom -12391.957694 kJ/mol
# Density = 1.869810 g / cm^3
# Si number density = 18.740759 Si / 1000 Ang^3
#
#
#
# Elastic Constant Matrix: (Units=GPa)
#
#
# Indices 1 2 3 4 5 6 
#
# 1 99.8313 14.0129 56.1926 0.0000 0.0000 0.0000
# 2 14.0129 55.8247 15.6285 0.0000 0.0000 0.0000
# 3 56.1926 15.6285 70.1093 0.0000 0.0000 0.0000
# 4 0.0000 0.0000 0.0000 22.5879 0.0000 0.0000
# 5 0.0000 0.0000 0.0000 0.0000 -10.2123 0.0000
# 6 0.0000 0.0000 0.0000 0.0000 0.0000 22.8178
#
#
#
# Elastic Compliance Matrix: (Units=1/GPa)
#
#
# Indices 1 2 3 4 5 6 
#
# 1 0.018265 -0.000519 -0.014523 0.000000 0.000000 0.000000
# 2 -0.000519 0.019120 -0.003846 0.000000 0.000000 0.000000
# 3 -0.014523 -0.003846 0.026761 0.000000 0.000000 0.000000
# 4 0.000000 0.000000 0.000000 0.044271 0.000000 0.000000
# 5 0.000000 0.000000 0.000000 0.000000 -0.097921 0.000000
# 6 0.000000 0.000000 0.000000 0.000000 0.000000 0.043825
#
#
# Mechanical properties :
#
#
# Convention : Reuss Voigt Hill
#
# Bulk Modulus (GPa) = 37.92332 44.15928 41.04130
# Shear Modulus (GPa) = 49.55926 16.36743 32.96334
#
# Velocity S-wave (km/s) = 5.14801 2.95847 4.19849
# Velocity P-wave (km/s) = 7.45760 5.94007 6.74167
#
# Compressibility (1/GPa) = 0.02636900
#
# Stress axis : x y z
#
# Youngs Moduli (GPa) = 54.75068 52.30050 37.36725
#
# Poissons Ratio (x) = 0.02713 0.54270
# Poissons Ratio (y) = 0.02840 0.14373
# Poissons Ratio (z) = 0.79517 0.20117
#
# Static dielectric constant tensor:
#      x y z
#    x 3.215370 0.000000 0.000000 
#    y 0.000000 3.483380 0.000000 
#    z 0.000000 0.000000 3.277530 
# 
# 
# High freq. dielectric constant tensor:
#      x y z
#    x 1.715870 0.000000 0.000000 
#    y 0.000000 1.722460 0.000000 
#    z 0.000000 0.000000 1.710320 
# 
# From -- ./inp_files/8803.got.cif
#   From: 2010.03.12/outbox.cif.g09.slc.cpg/sg55_5_cif.got.tgz:8803.got - 2010.04.16 15:19:21.
