data_PCOD8224996
_publ_section_title
;
Structure prediction by ZEFSAII (Michael W. Deem and Ramdas Pophale) SiO2 
 PCOD8224996
Probable space group: P B A M
;
_chemical_formula_sum "Si O2"
_cell_formula_units_Z 56
_cell_length_a 19.049218
_cell_length_b 19.148485
_cell_length_c 9.078944
_cell_angle_alpha 90.000000
_cell_angle_beta 90.000000
_cell_angle_gamma 90.000000
_cell_volume 3311.668889
_symmetry_space_group_name_H-M "P B A M"
_symmetry_group_IT_number 55
_symmetry_cell_setting 'orthorhombic'
loop_
_space_group_symop_operation_xyz
x,y,z
-x,-y,z
1/2+x,1/2-y,-z
1/2-x,1/2+y,-z
-x,-y,-z
x,y,-z
1/2-x,1/2+y,z
1/2+x,1/2-y,z
loop_
_atom_site_type_symbol
_atom_site_label
_atom_site_fract_x
_atom_site_fract_y
_atom_site_fract_z
Si Si1 0.744651 0.340029 0.327774
Si Si2 0.264037 0.872378 0.828311
Si Si3 0.946330 0.439028 0.828969
Si Si4 0.024070 0.705789 0.326281
Si Si5 0.714109 0.971648 0.171330
Si Si6 0.633781 0.226895 0.669894
Si Si7 0.848597 0.238454 0.826401
O O1 0.763175 0.338872 0.500000
O O2 0.739458 0.418699 0.268399
O O3 0.671635 0.300456 0.294349
O O4 0.807369 0.304587 0.237690
O O5 0.330648 0.836723 0.754203
O O6 0.191718 0.833100 0.785567
O O7 0.258949 0.952330 0.778371
O O8 0.278879 0.866878 0.000000
O O9 0.963430 0.371948 0.731816
O O10 0.868275 0.465606 0.793532
O O11 0.000000 0.500000 0.784074
O O12 0.954769 0.418842 0.000000
O O13 0.036826 0.706603 0.500000
O O14 0.075395 0.761900 0.249248
O O15 0.946819 0.732324 0.282535
O O16 0.729434 0.957890 0.000000
O O17 0.641144 0.207901 0.500000
O O18 0.856502 0.248974 0.000000
#
# Coordination Sequence:
#
# PCOD8224996 Si02
#       7
#     8   8   8   8   8   8   8
#     4  10  19  33  52  73  98 131 170 208 251 299
#     4   9  19  34  53  75 100 132 168 207 251 300
#     4  10  20  32  48  72 105 139 166 196 244 305
#     4  11  21  33  50  73 102 135 169 208 252 297
#     4  10  19  32  50  74 103 132 165 205 250 299
#     4   9  20  35  50  72 102 133 168 210 249 296
#     4  10  19  33  52  74  99 130 171 211 248 298
#
# _framework density 16.909903
#
# number of rings (size 3 to 8) (size 9 to 14) (size 15 to 20)
#    0.000    2.143    1.429    2.143    0.000    4.286 
#    0.000    0.000    0.000    0.857    0.000    6.000 
#    0.000    0.000    0.000    0.000    0.000    0.000 
#
# Total GULP energy -694507.909482 kJ/mol
# GULP energy per Si atom -12401.926955 kJ/mol
# Density = 1.687142 g / cm^3
# Si number density = 16.909903 Si / 1000 Ang^3
#
#
#
# Elastic Constant Matrix: (Units=GPa)
#
#
# Indices 1 2 3 4 5 6 
#
# 1 107.9299 62.9571 48.4028 0.0000 0.0000 0.0000
# 2 62.9571 118.8000 45.6074 0.0000 0.0000 0.0000
# 3 48.4028 45.6074 66.4026 0.0000 0.0000 0.0000
# 4 0.0000 0.0000 0.0000 24.1916 0.0000 0.0000
# 5 0.0000 0.0000 0.0000 0.0000 25.3939 0.0000
# 6 0.0000 0.0000 0.0000 0.0000 0.0000 23.7357
#
#
#
# Elastic Compliance Matrix: (Units=1/GPa)
#
#
# Indices 1 2 3 4 5 6 
#
# 1 0.015986 -0.005430 -0.007923 0.000000 0.000000 0.000000
# 2 -0.005430 0.013276 -0.005160 0.000000 0.000000 0.000000
# 3 -0.007923 -0.005160 0.024379 0.000000 0.000000 0.000000
# 4 0.000000 0.000000 0.000000 0.041337 0.000000 0.000000
# 5 0.000000 0.000000 0.000000 0.000000 0.039380 0.000000
# 6 0.000000 0.000000 0.000000 0.000000 0.000000 0.042131
#
#
# Mechanical properties :
#
#
# Convention : Reuss Voigt Hill
#
# Bulk Modulus (GPa) = 60.18861 67.45188 63.82025
# Shear Modulus (GPa) = 22.82549 23.74192 23.28371
#
# Velocity S-wave (km/s) = 3.67799 3.75110 3.71472
# Velocity P-wave (km/s) = 7.32856 7.66398 7.49814
#
# Compressibility (1/GPa) = 0.01661444
#
# Stress axis : x y z
#
# Youngs Moduli (GPa) = 62.55533 75.32313 41.01815
#
# Poissons Ratio (x) = 0.40899 0.32499
# Poissons Ratio (y) = 0.33967 0.21167
# Poissons Ratio (z) = 0.49563 0.38870
#
# Static dielectric constant tensor:
#      x y z
#    x 3.324260 0.000000 0.000000 
#    y 0.000000 3.232290 0.000000 
#    z 0.000000 0.000000 3.194540 
# 
# 
# High freq. dielectric constant tensor:
#      x y z
#    x 1.645160 0.000000 0.000000 
#    y 0.000000 1.644720 0.000000 
#    z 0.000000 0.000000 1.658430 
# 
# From -- ./inp_files/7821.got.cif
#   From: 2010.03.12/outbox.cif.g09.slc.cpg/sg55_4_cif.got.tgz:7821.got - 2010.04.16 15:19:21.
