data_PCOD8224246
_publ_section_title
;
Structure prediction by ZEFSAII (Michael W. Deem and Ramdas Pophale) SiO2 
 PCOD8224246
Probable space group: P B A M
;
_chemical_formula_sum "Si O2"
_cell_formula_units_Z 64
_cell_length_a 19.429404
_cell_length_b 23.218191
_cell_length_c 8.514951
_cell_angle_alpha 90.000000
_cell_angle_beta 90.000000
_cell_angle_gamma 90.000000
_cell_volume 3841.227341
_symmetry_space_group_name_H-M "P B A M"
_symmetry_group_IT_number 55
_symmetry_cell_setting 'orthorhombic'
loop_
_space_group_symop_operation_xyz
x,y,z
-x,-y,z
1/2+x,1/2-y,-z
1/2-x,1/2+y,-z
-x,-y,-z
x,y,-z
1/2-x,1/2+y,z
1/2+x,1/2-y,z
loop_
_atom_site_type_symbol
_atom_site_label
_atom_site_fract_x
_atom_site_fract_y
_atom_site_fract_z
Si Si1 0.004314 0.620593 0.183567
Si Si2 0.643695 0.941785 0.817290
Si Si3 0.372361 0.935860 0.315982
Si Si4 0.994339 0.253583 0.685441
Si Si5 0.638899 0.278042 0.313601
Si Si6 0.653792 0.732300 0.314085
Si Si7 0.266126 0.153079 0.315255
Si Si8 0.281602 0.832235 0.686576
O O1 0.074892 0.590707 0.238878
O O2 0.942454 0.577381 0.223839
O O3 0.994771 0.679721 0.275634
O O4 0.005945 0.633809 0.000000
O O5 0.710064 0.902716 0.780354
O O6 0.652080 0.000008 0.719470
O O7 0.640713 0.957020 0.000000
O O8 0.385928 0.927360 0.500000
O O9 0.311254 0.893343 0.255924
O O10 0.990460 0.248428 0.500000
O O11 0.060059 0.216650 0.748674
O O12 0.923287 0.228411 0.759469
O O13 0.639542 0.273640 0.500000
O O14 0.687173 0.331920 0.264325
O O15 0.669774 0.218416 0.246151
O O16 0.649038 0.729163 0.500000
O O17 0.685934 0.793507 0.265402
O O18 0.703224 0.680352 0.252330
O O19 0.271637 0.140496 0.500000
O O20 0.280768 0.829373 0.500000
#
# Coordination Sequence:
#
# PCOD8224246 Si02
#       8
#     8   8   8   8   8   8   8   8
#     4  11  22  33  43  62  96 128 152 187 227 261
#     4  11  23  35  45  62  94 126 155 193 232 264
#     4  11  21  33  51  67  86 121 164 195 222 270
#     4  10  16  27  49  72  92 122 156 182 216 273
#     4   8  14  25  45  71  95 113 143 192 229 256
#     4   8  14  24  45  71  93 115 145 185 228 270
#     4   9  16  29  48  68  89 118 154 188 224 268
#     4   8  14  26  43  68  94 113 141 191 234 259
#
# _framework density 16.661342000000001
#
# number of rings (size 3 to 8) (size 9 to 14) (size 15 to 20)
#    0.000    2.500    2.500    3.000    0.000    3.000 
#    0.000    0.625    0.000    1.500    0.000    0.875 
#    0.000    7.000    0.000    0.000    0.000    0.000 
#
# Total GULP energy -793142.950981 kJ/mol
# GULP energy per Si atom -12392.858609 kJ/mol
# Density = 1.662342 g / cm^3
# Si number density = 16.661342 Si / 1000 Ang^3
#
#
#
# Elastic Constant Matrix: (Units=GPa)
#
#
# Indices 1 2 3 4 5 6 
#
# 1 135.6259 53.2201 15.0803 0.0000 0.0000 0.0000
# 2 53.2201 70.1735 5.8811 0.0000 0.0000 0.0000
# 3 15.0803 5.8811 11.9471 0.0000 0.0000 0.0000
# 4 0.0000 0.0000 0.0000 8.6617 0.0000 0.0000
# 5 0.0000 0.0000 0.0000 0.0000 11.8507 0.0000
# 6 0.0000 0.0000 0.0000 0.0000 0.0000 25.8754
#
#
#
# Elastic Compliance Matrix: (Units=1/GPa)
#
#
# Indices 1 2 3 4 5 6 
#
# 1 0.011707 -0.007969 -0.010855 0.000000 0.000000 0.000000
# 2 -0.007969 0.020288 0.000072 0.000000 0.000000 0.000000
# 3 -0.010855 0.000072 0.097369 0.000000 0.000000 0.000000
# 4 0.000000 0.000000 0.000000 0.115451 0.000000 0.000000
# 5 0.000000 0.000000 0.000000 0.000000 0.084383 0.000000
# 6 0.000000 0.000000 0.000000 0.000000 0.000000 0.038647
#
#
# Mechanical properties :
#
#
# Convention : Reuss Voigt Hill
#
# Bulk Modulus (GPa) = 10.88608 40.67884 25.78246
# Shear Modulus (GPa) = 11.46871 18.84856 15.15864
#
# Velocity S-wave (km/s) = 2.62647 3.36709 3.01958
# Velocity P-wave (km/s) = 3.96809 6.29162 5.25977
#
# Compressibility (1/GPa) = 0.09186043
#
# Stress axis : x y z
#
# Youngs Moduli (GPa) = 85.41675 49.28960 10.27023
#
# Poissons Ratio (x) = 0.39280 0.11148
# Poissons Ratio (y) = 0.68070 -0.00074
# Poissons Ratio (z) = 0.92718 -0.00355
#
# Static dielectric constant tensor:
#      x y z
#    x 3.766000 0.000000 0.000000 
#    y 0.000000 2.980050 0.000000 
#    z 0.000000 0.000000 2.771570 
# 
# 
# High freq. dielectric constant tensor:
#      x y z
#    x 1.647660 0.000000 0.000000 
#    y 0.000000 1.610890 0.000000 
#    z 0.000000 0.000000 1.611840 
# 
# From -- ./inp_files/8197.got.cif
#   From: 2010.03.12/outbox.cif.g09.slc.cpg/sg55_5_cif.got.tgz:8197.got - 2010.04.16 15:19:21.
