data_PCOD8224616
_publ_section_title
;
Structure prediction by ZEFSAII (Michael W. Deem and Ramdas Pophale) SiO2 
 PCOD8224616
Probable space group: P B A M
;
_chemical_formula_sum "Si O2"
_cell_formula_units_Z 64
_cell_length_a 25.380764
_cell_length_b 14.661795
_cell_length_c 8.819085
_cell_angle_alpha 90.000000
_cell_angle_beta 90.000000
_cell_angle_gamma 90.000000
_cell_volume 3281.824571
_symmetry_space_group_name_H-M "P B A M"
_symmetry_group_IT_number 55
_symmetry_cell_setting 'orthorhombic'
loop_
_space_group_symop_operation_xyz
x,y,z
-x,-y,z
1/2+x,1/2-y,-z
1/2-x,1/2+y,-z
-x,-y,-z
x,y,-z
1/2-x,1/2+y,z
1/2+x,1/2-y,z
loop_
_atom_site_type_symbol
_atom_site_label
_atom_site_fract_x
_atom_site_fract_y
_atom_site_fract_z
Si Si1 0.870697 0.912837 0.820585
Si Si2 0.491482 0.897187 0.819834
Si Si3 0.721132 0.135802 0.181146
Si Si4 0.927872 0.243318 0.180085
Si Si5 0.689569 0.769943 0.819541
Si Si6 0.252048 0.559783 0.180156
Si Si7 0.610375 0.209956 0.819711
Si Si8 0.447725 0.446342 0.322254
O O1 0.896183 0.815941 0.770225
O O2 0.810377 0.914386 0.763933
O O3 0.898582 0.998003 0.742547
O O4 0.874647 0.926607 0.000000
O O5 0.539624 0.832633 0.767887
O O6 0.437478 0.851933 0.755890
O O7 0.500000 0.000000 0.754757
O O8 0.488328 0.902072 0.000000
O O9 0.769649 0.195381 0.242941
O O10 0.731893 0.035628 0.246047
O O11 0.665461 0.171610 0.245834
O O12 0.719759 0.138953 0.000000
O O13 0.868703 0.252680 0.244938
O O14 0.953386 0.152876 0.248570
O O15 0.929047 0.234132 0.000000
O O16 0.710073 0.866991 0.760091
O O17 0.687777 0.767495 0.000000
O O18 0.252669 0.557087 0.000000
O O19 0.611308 0.205144 0.000000
O O20 0.500000 0.500000 0.277431
O O21 0.440526 0.434981 0.500000
#
# Coordination Sequence:
#
# PCOD8224616 Si02
#       8
#     8   8   8   8   8   8   8   8
#     4  10  18  32  54  80 106 134 171 215 263 319
#     4   9  18  29  43  69 105 140 172 209 256 304
#     4   9  15  23  37  62  99 136 165 199 247 298
#     4  10  20  34  54  79 108 140 176 221 264 314
#     4   9  16  27  43  72 107 135 168 208 255 305
#     4   9  16  25  43  73 107 138 166 204 255 308
#     4   9  16  26  42  66 100 135 167 206 252 304
#     4  11  24  39  55  76 103 137 177 223 275 327
#
# _framework density 19.501348
#
# number of rings (size 3 to 8) (size 9 to 14) (size 15 to 20)
#    0.000    2.500    1.250    1.875    1.750    4.000 
#    0.000    0.000    0.000    1.125    0.000    0.000 
#    0.000    0.000    0.000    0.000    0.000    0.000 
#
# Total GULP energy -793433.249073 kJ/mol
# GULP energy per Si atom -12397.394517 kJ/mol
# Density = 1.945696 g / cm^3
# Si number density = 19.501348 Si / 1000 Ang^3
#
#
#
# Elastic Constant Matrix: (Units=GPa)
#
#
# Indices 1 2 3 4 5 6 
#
# 1 146.0334 73.7493 20.1269 0.0000 0.0000 0.0000
# 2 73.7493 183.1517 19.7114 0.0000 0.0000 0.0000
# 3 20.1269 19.7114 13.2441 0.0000 0.0000 0.0000
# 4 0.0000 0.0000 0.0000 2.8967 0.0000 0.0000
# 5 0.0000 0.0000 0.0000 0.0000 5.3379 0.0000
# 6 0.0000 0.0000 0.0000 0.0000 0.0000 41.5210
#
#
#
# Elastic Compliance Matrix: (Units=1/GPa)
#
#
# Indices 1 2 3 4 5 6 
#
# 1 0.009711 -0.002765 -0.010642 0.000000 0.000000 0.000000
# 2 -0.002765 0.007289 -0.006646 0.000000 0.000000 0.000000
# 3 -0.010642 -0.006646 0.101570 0.000000 0.000000 0.000000
# 4 0.000000 0.000000 0.000000 0.345218 0.000000 0.000000
# 5 0.000000 0.000000 0.000000 0.000000 0.187339 0.000000
# 6 0.000000 0.000000 0.000000 0.000000 0.000000 0.024084
#
#
# Mechanical properties :
#
#
# Convention : Reuss Voigt Hill
#
# Bulk Modulus (GPa) = 12.74490 63.28936 38.01713
# Shear Modulus (GPa) = 6.74335 25.20722 15.97528
#
# Velocity S-wave (km/s) = 1.86156 3.59916 2.86525
# Velocity P-wave (km/s) = 3.34217 7.05664 5.52116
#
# Compressibility (1/GPa) = 0.07846277
#
# Stress axis : x y z
#
# Youngs Moduli (GPa) = 102.97773 137.20186 9.84544
#
# Poissons Ratio (x) = 0.37934 0.10478
# Poissons Ratio (y) = 0.28472 0.06543
# Poissons Ratio (z) = 1.09594 0.91183
#
# Static dielectric constant tensor:
#      x y z
#    x 3.835110 0.000000 0.000000 
#    y 0.000000 3.841330 0.000000 
#    z 0.000000 0.000000 2.767440 
# 
# 
# High freq. dielectric constant tensor:
#      x y z
#    x 1.775170 0.000000 0.000000 
#    y 0.000000 1.778760 0.000000 
#    z 0.000000 0.000000 1.675440 
# 
# From -- ./inp_files/9729.got.cif
#   From: 2010.03.12/outbox.cif.g09.slc.cpg/sg55_5_cif.got.tgz:9729.got - 2010.04.16 15:19:21.
