data_PCOD8224390
_publ_section_title
;
Structure prediction by ZEFSAII (Michael W. Deem and Ramdas Pophale) SiO2 
 PCOD8224390
Probable space group: P B A M
;
_chemical_formula_sum "Si O2"
_cell_formula_units_Z 64
_cell_length_a 19.361938
_cell_length_b 20.383733
_cell_length_c 9.395839
_cell_angle_alpha 90.000000
_cell_angle_beta 90.000000
_cell_angle_gamma 90.000000
_cell_volume 3708.242385
_symmetry_space_group_name_H-M "P B A M"
_symmetry_group_IT_number 55
_symmetry_cell_setting 'orthorhombic'
loop_
_space_group_symop_operation_xyz
x,y,z
-x,-y,z
1/2+x,1/2-y,-z
1/2-x,1/2+y,-z
-x,-y,-z
x,y,-z
1/2-x,1/2+y,z
1/2+x,1/2-y,z
loop_
_atom_site_type_symbol
_atom_site_label
_atom_site_fract_x
_atom_site_fract_y
_atom_site_fract_z
Si Si1 0.662246 0.155252 0.668487
Si Si2 0.683410 0.297561 0.340503
Si Si3 0.519602 0.312894 0.658266
Si Si4 0.467578 0.566392 0.836888
Si Si5 0.206445 0.486032 0.330836
Si Si6 0.009464 0.328818 0.330565
Si Si7 0.694773 0.421458 0.165045
Si Si8 0.062030 0.544072 0.668799
O O1 0.655241 0.157037 0.500000
O O2 0.699905 0.223386 0.716225
O O3 0.705310 0.090876 0.713914
O O4 0.584548 0.150760 0.732366
O O5 0.713628 0.308576 0.500000
O O6 0.601529 0.304802 0.344906
O O7 0.716193 0.351649 0.235251
O O8 0.491570 0.327416 0.500000
O O9 0.496793 0.372779 0.757090
O O10 0.488048 0.244553 0.719625
O O11 0.500000 0.500000 0.772985
O O12 0.385918 0.565412 0.815113
O O13 0.488666 0.574134 0.000000
O O14 0.216952 0.494886 0.500000
O O15 0.268619 0.519232 0.246585
O O16 0.135852 0.519813 0.275548
O O17 0.015222 0.328278 0.500000
O O18 0.951651 0.380974 0.280578
O O19 0.716329 0.420096 0.000000
O O20 0.061470 0.537754 0.500000
O O21 0.000000 0.500000 0.731787
#
# Coordination Sequence:
#
# PCOD8224390 Si02
#       8
#     8   8   8   8   8   8   8   8
#     4   8  13  23  43  71  95 116 149 193 231 261
#     4   8  14  27  47  68  89 114 149 192 232 270
#     4   8  14  24  43  71  96 115 139 183 234 270
#     4   9  18  33  52  69  85 112 153 195 234 283
#     4  10  18  28  47  73  98 126 157 189 227 273
#     4   8  12  21  39  67  99 121 146 186 224 256
#     4  10  20  33  48  67  92 121 154 194 236 282
#     4   9  14  22  41  71 100 126 157 188 217 258
#
# _framework density 17.258851
#
# number of rings (size 3 to 8) (size 9 to 14) (size 15 to 20)
#    0.000    3.250    1.250    1.875    0.000    0.750 
#    0.000    0.625    2.750    1.875    0.000    0.000 
#    0.000    0.000    0.000    0.000    0.000    0.000 
#
# Total GULP energy -793041.466855 kJ/mol
# GULP energy per Si atom -12391.272920 kJ/mol
# Density = 1.721957 g / cm^3
# Si number density = 17.258851 Si / 1000 Ang^3
#
#
#
# Elastic Constant Matrix: (Units=GPa)
#
#
# Indices 1 2 3 4 5 6 
#
# 1 22.1510 31.3488 17.7600 0.0000 0.0000 0.0000
# 2 31.3488 180.4637 51.8261 0.0000 0.0000 0.0000
# 3 17.7600 51.8261 50.8617 0.0000 0.0000 0.0000
# 4 0.0000 0.0000 0.0000 3.5507 0.0000 0.0000
# 5 0.0000 0.0000 0.0000 0.0000 11.6593 0.0000
# 6 0.0000 0.0000 0.0000 0.0000 0.0000 26.0686
#
#
#
# Elastic Compliance Matrix: (Units=1/GPa)
#
#
# Indices 1 2 3 4 5 6 
#
# 1 0.068616 -0.007123 -0.016701 0.000000 0.000000 0.000000
# 2 -0.007123 0.008573 -0.006248 0.000000 0.000000 0.000000
# 3 -0.016701 -0.006248 0.031860 0.000000 0.000000 0.000000
# 4 0.000000 0.000000 0.000000 0.281632 0.000000 0.000000
# 5 0.000000 0.000000 0.000000 0.000000 0.085768 0.000000
# 6 0.000000 0.000000 0.000000 0.000000 0.000000 0.038360
#
#
# Mechanical properties :
#
#
# Convention : Reuss Voigt Hill
#
# Bulk Modulus (GPa) = 20.44851 50.59401 35.52126
# Shear Modulus (GPa) = 8.45657 18.42516 13.44086
#
# Velocity S-wave (km/s) = 2.21596 3.27092 2.79369
# Velocity P-wave (km/s) = 4.29199 6.60634 5.57068
#
# Compressibility (1/GPa) = 0.04890332
#
# Stress axis : x y z
#
# Youngs Moduli (GPa) = 14.57385 116.64415 31.38750
#
# Poissons Ratio (x) = 0.83087 0.52421
# Poissons Ratio (y) = 0.10381 0.19612
# Poissons Ratio (z) = 0.24340 0.72884
#
# Static dielectric constant tensor:
#      x y z
#    x 2.877350 0.000000 0.000000 
#    y 0.000000 3.796880 0.000000 
#    z 0.000000 0.000000 2.885510 
# 
# 
# High freq. dielectric constant tensor:
#      x y z
#    x 1.622580 0.000000 0.000000 
#    y 0.000000 1.689280 0.000000 
#    z 0.000000 0.000000 1.619150 
# 
# From -- ./inp_files/9190.got.cif
#   From: 2010.03.12/outbox.cif.g09.slc.cpg/sg55_5_cif.got.tgz:9190.got - 2010.04.16 15:19:21.
