data_PCOD8224215
_publ_section_title
;
Structure prediction by ZEFSAII (Michael W. Deem and Ramdas Pophale) SiO2 
 PCOD8224215
Probable space group: P C C A
;
_chemical_formula_sum "Si O2"
_cell_formula_units_Z 28
_cell_length_a 9.178670
_cell_length_b 11.260558
_cell_length_c 11.305286
_cell_angle_alpha 90.000000
_cell_angle_beta 90.000000
_cell_angle_gamma 90.000000
_cell_volume 1168.479833
_symmetry_space_group_name_H-M "P C C A"
_symmetry_group_IT_number 54
_symmetry_cell_setting 'orthorhombic'
loop_
_space_group_symop_operation_xyz
x,y,z
1/2-x,-y,z
1/2+x,-y,1/2-z
-x,y,1/2-z
-x,-y,-z
1/2+x,y,-z
1/2-x,y,1/2+z
x,-y,1/2+z
loop_
_atom_site_type_symbol
_atom_site_label
_atom_site_fract_x
_atom_site_fract_y
_atom_site_fract_z
Si Si1 0.250000 0.500000 0.591287
Si Si2 0.732545 0.300759 0.098521
Si Si3 0.500000 0.759149 0.250000
Si Si4 0.126794 0.915642 0.544678
Si Si5 0.500000 0.431601 0.250000
O O1 0.265778 0.618993 0.515528
O O2 0.394272 0.485037 0.671935
O O3 0.872471 0.314799 0.184269
O O4 0.591245 0.347594 0.164637
O O5 0.696559 0.166240 0.059282
O O6 0.575605 0.837067 0.348338
O O7 0.250000 0.000000 0.596905
O O8 0.000000 0.000000 0.500000
#
# Coordination Sequence:
#
# PCOD8224215 Si02
#       5
#     4   8   4   8   4
#     4  12  28  54  78 118 160 202 264 324 400 480
#     4  12  28  51  78 118 153 206 264 327 390 479
#     4  12  28  50  82 108 160 205 263 318 406 448
#     4  12  28  50  75 113 157 207 265 325 385 471
#     4  12  28  48  84 108 160 201 257 318 404 456
#
# _framework density 23.962758000000001
#
# number of rings (size 3 to 8) (size 9 to 14) (size 15 to 20)
#    0.000    0.000    2.857    5.143    8.000    8.000 
#    0.000    0.000    0.000    0.000    0.000    0.000 
#    0.000    0.000    0.000    0.000    0.000    0.000 
#
# Total GULP energy -347329.164863 kJ/mol
# GULP energy per Si atom -12404.613031 kJ/mol
# Density = 2.390822 g / cm^3
# Si number density = 23.962758 Si / 1000 Ang^3
#
#
#
# Elastic Constant Matrix: (Units=GPa)
#
#
# Indices 1 2 3 4 5 6 
#
# 1 190.7793 52.9484 78.7598 0.0000 0.0000 0.0000
# 2 52.9484 110.9103 45.7896 0.0000 0.0000 0.0000
# 3 78.7598 45.7896 141.1585 0.0000 0.0000 0.0000
# 4 0.0000 0.0000 0.0000 1065.9539 0.0000 0.0000
# 5 0.0000 0.0000 0.0000 0.0000 55.0601 0.0000
# 6 0.0000 0.0000 0.0000 0.0000 0.0000 58.3613
#
#
#
# Elastic Compliance Matrix: (Units=1/GPa)
#
#
# Indices 1 2 3 4 5 6 
#
# 1 0.007193 -0.002052 -0.003348 0.000000 0.000000 0.000000
# 2 -0.002052 0.010996 -0.002422 0.000000 0.000000 0.000000
# 3 -0.003348 -0.002422 0.009738 0.000000 0.000000 0.000000
# 4 0.000000 0.000000 0.000000 0.000938 0.000000 0.000000
# 5 0.000000 0.000000 0.000000 0.000000 0.018162 0.000000
# 6 0.000000 0.000000 0.000000 0.000000 0.000000 0.017135
#
#
# Mechanical properties :
#
#
# Convention : Reuss Voigt Hill
#
# Bulk Modulus (GPa) = 81.41104 88.64931 85.03018
# Shear Modulus (GPa) = 59.59500 253.56507 156.58004
#
# Velocity S-wave (km/s) = 4.99238 10.29787 8.09228
# Velocity P-wave (km/s) = 8.20241 13.35925 11.08488
#
# Compressibility (1/GPa) = 0.01228335
#
# Stress axis : x y z
#
# Youngs Moduli (GPa) = 139.01926 90.94394 102.69185
#
# Poissons Ratio (x) = 0.18660 0.34380
# Poissons Ratio (y) = 0.28525 0.24872
# Poissons Ratio (z) = 0.46542 0.22027
#
# Static dielectric constant tensor:
#      x y z
#    x 4.963040 0.000000 0.000000 
#    y 0.000000 4.142790 0.000000 
#    z 0.000000 0.000000 4.697570 
# 
# 
# High freq. dielectric constant tensor:
#      x y z
#    x 1.979020 0.000000 0.000000 
#    y 0.000000 1.964100 0.000000 
#    z 0.000000 0.000000 1.964540 
# 
# From -- ./inp_files/6661.got.cif
#   From: 2010.03.12/outbox.cif.g09.slc.cpg/sg54_4_cif.got.tgz:6661.got - 2010.04.16 15:00:50.
