data_PCOD8224958
_publ_section_title
;
Structure prediction by ZEFSAII (Michael W. Deem and Ramdas Pophale) SiO2 
 PCOD8224958
Probable space group: P B A M
;
_chemical_formula_sum "Si O2"
_cell_formula_units_Z 64
_cell_length_a 12.540095
_cell_length_b 29.146455
_cell_length_c 9.324046
_cell_angle_alpha 90.000000
_cell_angle_beta 90.000000
_cell_angle_gamma 90.000000
_cell_volume 3407.932422
_symmetry_space_group_name_H-M "P B A M"
_symmetry_group_IT_number 55
_symmetry_cell_setting 'orthorhombic'
loop_
_space_group_symop_operation_xyz
x,y,z
-x,-y,z
1/2+x,1/2-y,-z
1/2-x,1/2+y,-z
-x,-y,-z
x,y,-z
1/2-x,1/2+y,z
1/2+x,1/2-y,z
loop_
_atom_site_type_symbol
_atom_site_label
_atom_site_fract_x
_atom_site_fract_y
_atom_site_fract_z
Si Si1 0.725088 0.824583 0.337330
Si Si2 0.621648 0.500317 0.169901
Si Si3 0.777094 0.682003 0.839691
Si Si4 0.267899 0.085823 0.169888
Si Si5 0.773075 0.580142 0.831694
Si Si6 0.596217 0.757179 0.838869
Si Si7 0.903227 0.747664 0.339710
Si Si8 0.997617 0.448749 0.829762
O O1 0.689968 0.836420 0.500000
O O2 0.769184 0.869299 0.256138
O O3 0.627365 0.803058 0.248139
O O4 0.816116 0.786805 0.338801
O O5 0.500000 0.500000 0.232221
O O6 0.685987 0.454507 0.213425
O O7 0.688309 0.543763 0.234349
O O8 0.615137 0.504657 0.000000
O O9 0.734745 0.631661 0.794517
O O10 0.682201 0.717606 0.839569
O O11 0.863832 0.699356 0.726303
O O12 0.827662 0.679206 0.000000
O O13 0.388587 0.075226 0.223027
O O14 0.262927 0.095071 0.000000
O O15 0.894284 0.575259 0.771475
O O16 0.776822 0.570192 0.000000
O O17 0.497049 0.733771 0.760216
O O18 0.567721 0.772509 0.000000
O O19 0.943997 0.737781 0.500000
O O20 0.000000 0.500000 0.768235
O O21 0.995154 0.449413 0.000000
#
# Coordination Sequence:
#
# PCOD8224958 Si02
#       8
#     8   8   8   8   8   8   8   8
#     4  10  22  38  54  76 109 146 181 220 270 328
#     4   9  17  29  47  75 111 143 172 215 268 321
#     4   9  19  33  52  79 106 137 177 223 268 313
#     4  10  19  31  52  81 105 135 181 226 269 317
#     4   9  16  28  46  72 105 137 173 214 264 320
#     4  10  20  35  55  79 107 137 177 227 272 315
#     4  10  21  37  55  75 105 144 180 216 266 325
#     4   9  15  26  46  74 107 136 168 215 265 317
#
# _framework density 18.779714999999999
#
# number of rings (size 3 to 8) (size 9 to 14) (size 15 to 20)
#    0.000    2.500    1.250    1.125    1.750    3.000 
#    0.000    2.500    0.000    1.500    0.000    0.000 
#    0.000    0.000    0.000    0.000    0.000    0.000 
#
# Total GULP energy -793250.361914 kJ/mol
# GULP energy per Si atom -12394.536905 kJ/mol
# Density = 1.873697 g / cm^3
# Si number density = 18.779715 Si / 1000 Ang^3
#
#
#
# Elastic Constant Matrix: (Units=GPa)
#
#
# Indices 1 2 3 4 5 6 
#
# 1 97.5235 27.7850 30.2600 0.0000 0.0000 0.0000
# 2 27.7850 120.4031 38.2836 0.0000 0.0000 0.0000
# 3 30.2600 38.2836 88.9409 0.0000 0.0000 0.0000
# 4 0.0000 0.0000 0.0000 14.1818 0.0000 0.0000
# 5 0.0000 0.0000 0.0000 0.0000 19.5023 0.0000
# 6 0.0000 0.0000 0.0000 0.0000 0.0000 1.8265
#
#
#
# Elastic Compliance Matrix: (Units=1/GPa)
#
#
# Indices 1 2 3 4 5 6 
#
# 1 0.011746 -0.001668 -0.003278 0.000000 0.000000 0.000000
# 2 -0.001668 0.009859 -0.003676 0.000000 0.000000 0.000000
# 3 -0.003278 -0.003676 0.013941 0.000000 0.000000 0.000000
# 4 0.000000 0.000000 0.000000 0.070513 0.000000 0.000000
# 5 0.000000 0.000000 0.000000 0.000000 0.051276 0.000000
# 6 0.000000 0.000000 0.000000 0.000000 0.000000 0.547504
#
#
# Mechanical properties :
#
#
# Convention : Reuss Voigt Hill
#
# Bulk Modulus (GPa) = 54.64119 55.50274 55.07197
# Shear Modulus (GPa) = 6.86638 21.13805 14.00222
#
# Velocity S-wave (km/s) = 1.91421 3.35860 2.73354
# Velocity P-wave (km/s) = 5.83478 6.68275 6.27311
#
# Compressibility (1/GPa) = 0.01830121
#
# Stress axis : x y z
#
# Youngs Moduli (GPa) = 85.13196 101.42689 71.72990
#
# Poissons Ratio (x) = 0.16921 0.23516
# Poissons Ratio (y) = 0.14203 0.26370
# Poissons Ratio (z) = 0.27909 0.37287
#
# Static dielectric constant tensor:
#      x y z
#    x 3.592610 0.000000 0.000000 
#    y 0.000000 3.448390 0.000000 
#    z 0.000000 0.000000 3.242660 
# 
# 
# High freq. dielectric constant tensor:
#      x y z
#    x 1.730420 0.000000 0.000000 
#    y 0.000000 1.733780 0.000000 
#    z 0.000000 0.000000 1.686740 
# 
# From -- ./inp_files/4712.got.cif
#   From: 2010.03.12/outbox.cif.g09.slc.cpg/sg55_3_cif.got.tgz:4712.got - 2010.04.16 15:19:21.
