data_PCOD8224450
_publ_section_title
;
Structure prediction by ZEFSAII (Michael W. Deem and Ramdas Pophale) SiO2 
 PCOD8224450
Probable space group: P B A M
;
_chemical_formula_sum "Si O2"
_cell_formula_units_Z 56
_cell_length_a 18.338864
_cell_length_b 20.885694
_cell_length_c 8.401667
_cell_angle_alpha 90.000000
_cell_angle_beta 90.000000
_cell_angle_gamma 90.000000
_cell_volume 3218.005669
_symmetry_space_group_name_H-M "P B A M"
_symmetry_group_IT_number 55
_symmetry_cell_setting 'orthorhombic'
loop_
_space_group_symop_operation_xyz
x,y,z
-x,-y,z
1/2+x,1/2-y,-z
1/2-x,1/2+y,-z
-x,-y,-z
x,y,-z
1/2-x,1/2+y,z
1/2+x,1/2-y,z
loop_
_atom_site_type_symbol
_atom_site_label
_atom_site_fract_x
_atom_site_fract_y
_atom_site_fract_z
Si Si1 0.348521 0.868904 0.183710
Si Si2 0.788112 0.184780 0.315552
Si Si3 0.788044 0.807553 0.814206
Si Si4 0.416787 0.247853 0.184939
Si Si5 0.574937 0.254525 0.685899
Si Si6 0.838747 0.374800 0.685771
Si Si7 0.584340 0.004703 0.313698
O O1 0.262806 0.868885 0.232712
O O2 0.392531 0.816084 0.284435
O O3 0.380391 0.938404 0.214522
O O4 0.356726 0.850584 0.000000
O O5 0.796009 0.168069 0.500000
O O6 0.749564 0.252817 0.290875
O O7 0.868385 0.190510 0.237562
O O8 0.871489 0.810338 0.753943
O O9 0.739567 0.870415 0.777115
O O10 0.785545 0.790565 0.000000
O O11 0.499786 0.263858 0.222206
O O12 0.392730 0.183945 0.277277
O O13 0.405125 0.234658 0.000000
O O14 0.561873 0.264427 0.500000
O O15 0.822808 0.376565 0.500000
O O16 0.877347 0.439578 0.742532
O O17 0.595228 0.018096 0.500000
O O18 0.500000 0.000000 0.268689
#
# Coordination Sequence:
#
# PCOD8224450 Si02
#       7
#     8   8   8   8   8   8   8
#     4  11  21  33  49  70  97 128 163 202 242 281
#     4  10  18  31  49  68  93 126 161 194 236 287
#     4  10  18  30  47  68  94 123 158 199 242 283
#     4  11  20  31  48  73 101 125 156 198 244 286
#     4  11  20  32  49  70  97 127 160 196 241 291
#     4  10  19  32  49  69  96 131 166 197 235 283
#     4  10  21  35  50  69  96 131 168 201 233 278
#
# _framework density 17.402082
#
# number of rings (size 3 to 8) (size 9 to 14) (size 15 to 20)
#    0.000    1.571    0.000   11.143    0.000    2.571 
#    0.000    0.000    0.000    0.000    0.000    1.000 
#    0.000    8.000    0.000    0.000    0.000    0.000 
#
# Total GULP energy -694355.931278 kJ/mol
# GULP energy per Si atom -12399.213059 kJ/mol
# Density = 1.736247 g / cm^3
# Si number density = 17.402082 Si / 1000 Ang^3
#
#
#
# Elastic Constant Matrix: (Units=GPa)
#
#
# Indices 1 2 3 4 5 6 
#
# 1 127.2117 46.9327 18.3408 0.0000 0.0000 0.0000
# 2 46.9327 61.5381 20.5051 0.0000 0.0000 0.0000
# 3 18.3408 20.5051 68.2875 0.0000 0.0000 0.0000
# 4 0.0000 0.0000 0.0000 14.6033 0.0000 0.0000
# 5 0.0000 0.0000 0.0000 0.0000 28.3566 0.0000
# 6 0.0000 0.0000 0.0000 0.0000 0.0000 29.4953
#
#
#
# Elastic Compliance Matrix: (Units=1/GPa)
#
#
# Indices 1 2 3 4 5 6 
#
# 1 0.010953 -0.008193 -0.000482 0.000000 0.000000 0.000000
# 2 -0.008193 0.024185 -0.005062 0.000000 0.000000 0.000000
# 3 -0.000482 -0.005062 0.016293 0.000000 0.000000 0.000000
# 4 0.000000 0.000000 0.000000 0.068478 0.000000 0.000000
# 5 0.000000 0.000000 0.000000 0.000000 0.035265 0.000000
# 6 0.000000 0.000000 0.000000 0.000000 0.000000 0.033904
#
#
# Mechanical properties :
#
#
# Convention : Reuss Voigt Hill
#
# Bulk Modulus (GPa) = 41.73839 47.62161 44.68000
# Shear Modulus (GPa) = 22.26805 25.90828 24.08816
#
# Velocity S-wave (km/s) = 3.58106 3.86269 3.72454
# Velocity P-wave (km/s) = 6.41369 6.87886 6.65034
#
# Compressibility (1/GPa) = 0.02395876
#
# Stress axis : x y z
#
# Youngs Moduli (GPa) = 91.29913 41.34767 61.37516
#
# Poissons Ratio (x) = 0.33876 0.02956
# Poissons Ratio (y) = 0.74801 0.31067
# Poissons Ratio (z) = 0.04397 0.20929
#
# Static dielectric constant tensor:
#      x y z
#    x 3.677690 0.000000 0.000000 
#    y 0.000000 3.016380 0.000000 
#    z 0.000000 0.000000 3.256750 
# 
# 
# High freq. dielectric constant tensor:
#      x y z
#    x 1.682080 0.000000 0.000000 
#    y 0.000000 1.621900 0.000000 
#    z 0.000000 0.000000 1.690070 
# 
# From -- ./inp_files/7872.got.cif
#   From: 2010.03.12/outbox.cif.g09.slc.cpg/sg55_4_cif.got.tgz:7872.got - 2010.04.16 15:19:21.
