data_PCOD8224964
_publ_section_title
;
Structure prediction by ZEFSAII (Michael W. Deem and Ramdas Pophale) SiO2 
 PCOD8224964
Probable space group: P B A M
;
_chemical_formula_sum "Si O2"
_cell_formula_units_Z 56
_cell_length_a 21.166912
_cell_length_b 14.864944
_cell_length_c 8.849126
_cell_angle_alpha 90.000000
_cell_angle_beta 90.000000
_cell_angle_gamma 90.000000
_cell_volume 2784.332910
_symmetry_space_group_name_H-M "P B A M"
_symmetry_group_IT_number 55
_symmetry_cell_setting 'orthorhombic'
loop_
_space_group_symop_operation_xyz
x,y,z
-x,-y,z
1/2+x,1/2-y,-z
1/2-x,1/2+y,-z
-x,-y,-z
x,y,-z
1/2-x,1/2+y,z
1/2+x,1/2-y,z
loop_
_atom_site_type_symbol
_atom_site_label
_atom_site_fract_x
_atom_site_fract_y
_atom_site_fract_z
Si Si1 0.893565 0.249117 0.322995
Si Si2 0.967772 0.755851 0.676018
Si Si3 0.727337 0.479803 0.829173
Si Si4 0.165120 0.178571 0.320856
Si Si5 0.448265 0.923406 0.832584
Si Si6 0.864116 0.422849 0.169343
Si Si7 0.766070 0.183941 0.821369
O O1 0.881362 0.232146 0.500000
O O2 0.895095 0.356047 0.290596
O O3 0.837567 0.207885 0.224598
O O4 0.962461 0.209719 0.269727
O O5 0.966389 0.770256 0.500000
O O6 0.906153 0.805535 0.744064
O O7 0.961132 0.650703 0.708623
O O8 0.678667 0.424630 0.725510
O O9 0.789002 0.417127 0.822803
O O10 0.741856 0.580128 0.768672
O O11 0.701068 0.485777 0.000000
O O12 0.168816 0.187896 0.500000
O O13 0.213400 0.252726 0.254489
O O14 0.500000 0.000000 0.823610
O O15 0.382394 0.973605 0.795867
O O16 0.446338 0.879044 0.000000
O O17 0.888014 0.396850 0.000000
O O18 0.758247 0.194976 0.000000
#
# Coordination Sequence:
#
# PCOD8224964 Si02
#       7
#     8   8   8   8   8   8   8
#     4  11  22  37  58  85 117 157 198 239 293 350
#     4  10  23  39  55  82 122 160 196 242 297 355
#     4  10  22  39  61  87 117 155 199 249 300 351
#     4  11  23  40  62  90 122 158 199 246 298 356
#     4  10  19  31  52  83 115 151 193 236 288 350
#     4  10  19  34  55  82 116 150 189 240 294 351
#     4  11  23  41  64  90 120 156 200 249 300 355
#
# _framework density 20.112535999999999
#
# number of rings (size 3 to 8) (size 9 to 14) (size 15 to 20)
#    0.000    1.571    2.857    2.143    0.000    4.857 
#    0.000    0.714    0.000    4.286    0.000    0.000 
#    0.000    0.000    0.000    0.000    0.000    0.000 
#
# Total GULP energy -693974.455846 kJ/mol
# GULP energy per Si atom -12392.400997 kJ/mol
# Density = 2.006676 g / cm^3
# Si number density = 20.112536 Si / 1000 Ang^3
#
#
#
# Elastic Constant Matrix: (Units=GPa)
#
#
# Indices 1 2 3 4 5 6 
#
# 1 124.2271 22.1232 30.8223 0.0000 0.0000 0.0000
# 2 22.1232 63.5183 22.0870 0.0000 0.0000 0.0000
# 3 30.8223 22.0870 44.0133 0.0000 0.0000 0.0000
# 4 0.0000 0.0000 0.0000 26.5229 0.0000 0.0000
# 5 0.0000 0.0000 0.0000 0.0000 20.8531 0.0000
# 6 0.0000 0.0000 0.0000 0.0000 0.0000 26.5881
#
#
#
# Elastic Compliance Matrix: (Units=1/GPa)
#
#
# Indices 1 2 3 4 5 6 
#
# 1 0.009823 -0.001247 -0.006254 0.000000 0.000000 0.000000
# 2 -0.001247 0.019230 -0.008777 0.000000 0.000000 0.000000
# 3 -0.006254 -0.008777 0.031504 0.000000 0.000000 0.000000
# 4 0.000000 0.000000 0.000000 0.037703 0.000000 0.000000
# 5 0.000000 0.000000 0.000000 0.000000 0.047954 0.000000
# 6 0.000000 0.000000 0.000000 0.000000 0.000000 0.037611
#
#
# Mechanical properties :
#
#
# Convention : Reuss Voigt Hill
#
# Bulk Modulus (GPa) = 35.71067 42.42484 39.06776
# Shear Modulus (GPa) = 22.15189 25.24125 23.69657
#
# Velocity S-wave (km/s) = 3.32233 3.54644 3.43621
# Velocity P-wave (km/s) = 5.70185 6.15704 5.93382
#
# Compressibility (1/GPa) = 0.02800283
#
# Stress axis : x y z
#
# Youngs Moduli (GPa) = 101.79756 52.00291 31.74186
#
# Poissons Ratio (x) = 0.06484 0.19850
# Poissons Ratio (y) = 0.12694 0.27859
# Poissons Ratio (z) = 0.63660 0.45642
#
# Static dielectric constant tensor:
#      x y z
#    x 4.284030 0.000000 0.000000 
#    y 0.000000 3.692900 0.000000 
#    z 0.000000 0.000000 3.527690 
# 
# 
# High freq. dielectric constant tensor:
#      x y z
#    x 1.801810 0.000000 0.000000 
#    y 0.000000 1.765420 0.000000 
#    z 0.000000 0.000000 1.773000 
# 
# From -- ./inp_files/8677.got.cif
#   From: 2010.03.12/outbox.cif.g09.slc.cpg/sg55_5_cif.got.tgz:8677.got - 2010.04.16 15:19:21.
