data_PCOD8224694
_publ_section_title
;
Structure prediction by ZEFSAII (Michael W. Deem and Ramdas Pophale) SiO2 
 PCOD8224694
Probable space group: P B A M
;
_chemical_formula_sum "Si O2"
_cell_formula_units_Z 64
_cell_length_a 14.073577
_cell_length_b 13.653990
_cell_length_c 17.957486
_cell_angle_alpha 90.000000
_cell_angle_beta 90.000000
_cell_angle_gamma 90.000000
_cell_volume 3450.719123
_symmetry_space_group_name_H-M "P B A M"
_symmetry_group_IT_number 55
_symmetry_cell_setting 'orthorhombic'
loop_
_space_group_symop_operation_xyz
x,y,z
-x,-y,z
1/2+x,1/2-y,-z
1/2-x,1/2+y,-z
-x,-y,-z
x,y,-z
1/2-x,1/2+y,z
1/2+x,1/2-y,z
loop_
_atom_site_type_symbol
_atom_site_label
_atom_site_fract_x
_atom_site_fract_y
_atom_site_fract_z
Si Si1 0.287134 0.725639 0.414164
Si Si2 0.142842 0.190980 0.816080
Si Si3 0.074392 0.578773 0.246444
Si Si4 0.484123 0.387035 0.086882
Si Si5 0.038940 0.268944 0.323077
Si Si6 0.359343 0.345575 0.665638
Si Si7 0.723960 0.449641 0.699172
Si Si8 0.158976 0.759188 0.823929
O O1 0.296140 0.697817 0.500000
O O2 0.383105 0.780855 0.387401
O O3 0.197994 0.798095 0.402989
O O4 0.273746 0.627344 0.367551
O O5 0.086962 0.259590 0.758253
O O6 0.172095 0.092721 0.772078
O O7 0.234725 0.241761 0.854044
O O8 0.077174 0.169192 0.886442
O O9 0.168199 0.523208 0.277290
O O10 0.100036 0.656929 0.180864
O O11 0.000000 0.500000 0.213473
O O12 0.026656 0.634437 0.317389
O O13 0.500000 0.500000 0.107336
O O14 0.391973 0.342896 0.128194
O O15 0.468768 0.370323 0.000000
O O16 0.972544 0.174101 0.341968
O O17 0.337211 0.459922 0.669725
O O18 0.322359 0.293170 0.739864
#
# Coordination Sequence:
#
# PCOD8224694 Si02
#       8
#     8   8   8   8   8   8   8   8
#     4  11  23  38  53  80 117 147 188 242 293 345
#     4  10  19  35  60  85 115 149 193 235 281 336
#     4  10  18  33  59  87 112 139 191 239 278 334
#     4  11  23  38  59  90 123 155 191 237 292 343
#     4  10  19  36  57  85 108 147 193 235 283 340
#     4  11  19  37  61  82 111 150 195 235 289 337
#     4  10  21  35  57  85 110 150 192 240 283 343
#     4  10  20  38  59  89 113 151 190 238 280 336
#
# _framework density 18.546859000000001
#
# number of rings (size 3 to 8) (size 9 to 14) (size 15 to 20)
#    0.000    1.625    7.500    1.500    0.000    3.000 
#    0.000    0.625    0.000    1.875    0.000    0.000 
#    0.000    0.000    0.000    0.000    0.000    0.000 
#
# Total GULP energy -793425.323940 kJ/mol
# GULP energy per Si atom -12397.270687 kJ/mol
# Density = 1.850465 g / cm^3
# Si number density = 18.546859 Si / 1000 Ang^3
#
#
#
# Elastic Constant Matrix: (Units=GPa)
#
#
# Indices 1 2 3 4 5 6 
#
# 1 118.0997 29.8935 29.6819 0.0000 0.0000 0.0000
# 2 29.8935 76.3237 19.4830 0.0000 0.0000 0.0000
# 3 29.6819 19.4830 67.8475 0.0000 0.0000 0.0000
# 4 0.0000 0.0000 0.0000 14.4859 0.0000 0.0000
# 5 0.0000 0.0000 0.0000 0.0000 21.0281 0.0000
# 6 0.0000 0.0000 0.0000 0.0000 0.0000 28.2607
#
#
#
# Elastic Compliance Matrix: (Units=1/GPa)
#
#
# Indices 1 2 3 4 5 6 
#
# 1 0.010136 -0.003063 -0.003555 0.000000 0.000000 0.000000
# 2 -0.003063 0.015064 -0.002986 0.000000 0.000000 0.000000
# 3 -0.003555 -0.002986 0.017152 0.000000 0.000000 0.000000
# 4 0.000000 0.000000 0.000000 0.069033 0.000000 0.000000
# 5 0.000000 0.000000 0.000000 0.000000 0.047555 0.000000
# 6 0.000000 0.000000 0.000000 0.000000 0.000000 0.035385
#
#
# Mechanical properties :
#
#
# Convention : Reuss Voigt Hill
#
# Bulk Modulus (GPa) = 43.20630 46.70974 44.95802
# Shear Modulus (GPa) = 22.59931 24.96912 23.78422
#
# Velocity S-wave (km/s) = 3.49449 3.67314 3.58493
# Velocity P-wave (km/s) = 6.29510 6.57485 6.43649
#
# Compressibility (1/GPa) = 0.02314477
#
# Stress axis : x y z
#
# Youngs Moduli (GPa) = 98.65775 66.38443 58.30381
#
# Poissons Ratio (x) = 0.20330 0.20726
# Poissons Ratio (y) = 0.30214 0.17409
# Poissons Ratio (z) = 0.35072 0.19822
#
# Static dielectric constant tensor:
#      x y z
#    x 3.766730 0.000000 0.000000 
#    y 0.000000 3.437700 0.000000 
#    z 0.000000 0.000000 2.997980 
# 
# 
# High freq. dielectric constant tensor:
#      x y z
#    x 1.744150 0.000000 0.000000 
#    y 0.000000 1.714120 0.000000 
#    z 0.000000 0.000000 1.673810 
# 
# From -- ./inp_files/21681.got.cif
#   From: 2010.03.12/outbox.cif.g09.slc.cpg/sg55_11_cif.got.tgz:21681.got - 2010.04.16 15:19:21.
