data_PCOD8224474
_publ_section_title
;
Structure prediction by ZEFSAII (Michael W. Deem and Ramdas Pophale) SiO2 
 PCOD8224474
Probable space group: P B A M
;
_chemical_formula_sum "Si O2"
_cell_formula_units_Z 32
_cell_length_a 18.203885
_cell_length_b 8.333857
_cell_length_c 10.533612
_cell_angle_alpha 90.000000
_cell_angle_beta 90.000000
_cell_angle_gamma 90.000000
_cell_volume 1598.039260
_symmetry_space_group_name_H-M "P B A M"
_symmetry_group_IT_number 55
_symmetry_cell_setting 'orthorhombic'
loop_
_space_group_symop_operation_xyz
x,y,z
-x,-y,z
1/2+x,1/2-y,-z
1/2-x,1/2+y,-z
-x,-y,-z
x,y,-z
1/2-x,1/2+y,z
1/2+x,1/2-y,z
loop_
_atom_site_type_symbol
_atom_site_label
_atom_site_fract_x
_atom_site_fract_y
_atom_site_fract_z
Si Si1 0.347967 0.233314 0.238871
Si Si2 0.652271 0.869194 0.500000
Si Si3 0.812928 0.894192 0.241078
Si Si4 0.901099 0.851255 0.000000
Si Si5 0.313126 0.757965 0.500000
Si Si6 0.937536 0.225191 0.000000
O O1 0.389446 0.182237 0.370423
O O2 0.274137 0.128939 0.225508
O O3 0.327010 0.418171 0.239691
O O4 0.402577 0.191939 0.124056
O O5 0.725932 0.762241 0.500000
O O6 0.668903 0.055993 0.500000
O O7 0.854317 0.807245 0.124846
O O8 0.845383 0.822761 0.372405
O O9 0.975132 0.745290 0.000000
O O10 0.920624 0.037682 0.000000
#
# Coordination Sequence:
#
# PCOD8224474 Si02
#       6
#     8   4   8   4   4   4
#     4  10  18  31  53  77 101 128 162 204 247 292
#     4  10  18  30  49  74 103 129 161 203 245 292
#     4  10  18  31  53  77 101 128 162 204 247 292
#     4   9  19  34  51  73 100 131 168 206 242 287
#     4  10  18  30  49  74 103 129 161 203 245 292
#     4   9  19  34  51  73 100 131 168 206 242 287
#
# _framework density 20.024539999999998
#
# number of rings (size 3 to 8) (size 9 to 14) (size 15 to 20)
#    0.000    2.250    0.000    7.500    0.000    0.000 
#    0.000    5.000    0.000   19.500    0.000    0.000 
#    0.000    0.000    0.000    0.000    0.000    0.000 
#
# Total GULP energy -396707.904173 kJ/mol
# GULP energy per Si atom -12397.122005 kJ/mol
# Density = 1.997896 g / cm^3
# Si number density = 20.024540 Si / 1000 Ang^3
#
#
#
# Elastic Constant Matrix: (Units=GPa)
#
#
# Indices 1 2 3 4 5 6 
#
# 1 45.1602 -15.5429 38.5670 0.0000 0.0000 0.0000
# 2 -15.5429 38.6401 4.5049 0.0000 0.0000 0.0000
# 3 38.5670 4.5049 197.8165 0.0000 0.0000 0.0000
# 4 0.0000 0.0000 0.0000 26.9969 0.0000 0.0000
# 5 0.0000 0.0000 0.0000 0.0000 7.3789 0.0000
# 6 0.0000 0.0000 0.0000 0.0000 0.0000 7.1753
#
#
#
# Elastic Compliance Matrix: (Units=1/GPa)
#
#
# Indices 1 2 3 4 5 6 
#
# 1 0.032633 0.013905 -0.006679 0.000000 0.000000 0.000000
# 2 0.013905 0.031874 -0.003437 0.000000 0.000000 0.000000
# 3 -0.006679 -0.003437 0.006436 0.000000 0.000000 0.000000
# 4 0.000000 0.000000 0.000000 0.037041 0.000000 0.000000
# 5 0.000000 0.000000 0.000000 0.000000 0.135521 0.000000
# 6 0.000000 0.000000 0.000000 0.000000 0.000000 0.139367
#
#
# Mechanical properties :
#
#
# Convention : Reuss Voigt Hill
#
# Bulk Modulus (GPa) = 12.73536 37.40830 25.07183
# Shear Modulus (GPa) = 12.45432 25.24940 18.85186
#
# Velocity S-wave (km/s) = 2.49660 3.55480 3.07161
# Velocity P-wave (km/s) = 3.83202 5.96411 5.01273
#
# Compressibility (1/GPa) = 0.07852156
#
# Stress axis : x y z
#
# Youngs Moduli (GPa) = 30.64380 31.37356 155.38550
#
# Poissons Ratio (x) = -0.43626 1.03781
# Poissons Ratio (y) = -0.42611 0.53404
# Poissons Ratio (z) = 0.20467 0.10783
#
# Static dielectric constant tensor:
#      x y z
#    x 3.422030 0.000000 0.000000 
#    y 0.000000 3.408260 0.000000 
#    z 0.000000 0.000000 4.550230 
# 
# 
# High freq. dielectric constant tensor:
#      x y z
#    x 1.729460 0.000000 0.000000 
#    y 0.000000 1.773620 0.000000 
#    z 0.000000 0.000000 1.813560 
# 
# From -- ./inp_files/14634.got.cif
#   From: 2010.03.12/outbox.cif.g09.slc.cpg/sg55_8_cif.got.tgz:14634.got - 2010.04.16 15:19:21.
