data_PCOD8224328
_publ_section_title
;
Structure prediction by ZEFSAII (Michael W. Deem and Ramdas Pophale) SiO2 
 PCOD8224328
Probable space group: P B A M
;
_chemical_formula_sum "Si O2"
_cell_formula_units_Z 64
_cell_length_a 9.396227
_cell_length_b 21.140985
_cell_length_c 18.257853
_cell_angle_alpha 90.000000
_cell_angle_beta 90.000000
_cell_angle_gamma 90.000000
_cell_volume 3626.840230
_symmetry_space_group_name_H-M "P B A M"
_symmetry_group_IT_number 55
_symmetry_cell_setting 'orthorhombic'
loop_
_space_group_symop_operation_xyz
x,y,z
-x,-y,z
1/2+x,1/2-y,-z
1/2-x,1/2+y,-z
-x,-y,-z
x,y,-z
1/2-x,1/2+y,z
1/2+x,1/2-y,z
loop_
_atom_site_type_symbol
_atom_site_label
_atom_site_fract_x
_atom_site_fract_y
_atom_site_fract_z
Si Si1 0.872975 0.048910 0.417264
Si Si2 0.686361 0.132161 0.225856
Si Si3 0.336220 0.995137 0.708092
Si Si4 0.149929 0.174115 0.079460
Si Si5 0.927041 0.284870 0.736114
Si Si6 0.064026 0.839359 0.324814
Si Si7 0.349392 0.287045 0.876846
Si Si8 0.304804 0.621952 0.764408
O O1 0.814670 0.049081 0.500000
O O2 0.931295 0.120257 0.399886
O O3 0.746888 0.026924 0.364251
O O4 0.000000 0.000000 0.407639
O O5 0.532125 0.158309 0.246541
O O6 0.779518 0.159301 0.291540
O O7 0.745407 0.154911 0.146983
O O8 0.680925 0.056257 0.227045
O O9 0.276948 0.059030 0.742373
O O10 0.500000 0.000000 0.684315
O O11 0.248884 0.236282 0.084038
O O12 0.186830 0.127458 0.146971
O O13 0.981516 0.190416 0.074131
O O14 0.185186 0.142485 0.000000
O O15 0.968822 0.236959 0.668184
O O16 0.929307 0.238808 0.805412
O O17 0.772714 0.317227 0.727608
O O18 0.961265 0.877663 0.269461
#
# Coordination Sequence:
#
# PCOD8224328 Si02
#       8
#     8   8   8   8   8   8   8   8
#     4  10  21  37  59  86 114 144 181 222 273 333
#     4  10  18  31  53  81 108 137 183 234 269 314
#     4  11  22  36  57  86 109 151 192 232 273 328
#     4  11  21  33  53  79 115 150 183 233 295 343
#     4  10  17  31  54  80 111 139 178 233 277 316
#     4  10  18  32  56  82 107 141 180 228 271 322
#     4  10  18  33  50  78 108 142 184 229 282 336
#     4  11  20  34  55  83 111 144 192 234 275 330
#
# _framework density 17.646215999999999
#
# number of rings (size 3 to 8) (size 9 to 14) (size 15 to 20)
#    0.000    1.625    6.250    1.875    0.000    0.250 
#    0.000    0.000    0.000   10.125    0.000    0.000 
#    0.000    0.000    0.000    0.000    0.000    0.000 
#
# Total GULP energy -792927.436484 kJ/mol
# GULP energy per Si atom -12389.491195 kJ/mol
# Density = 1.760605 g / cm^3
# Si number density = 17.646216 Si / 1000 Ang^3
#
#
#
# Elastic Constant Matrix: (Units=GPa)
#
#
# Indices 1 2 3 4 5 6 
#
# 1 80.7818 20.5372 35.6469 0.0000 0.0000 0.0000
# 2 20.5372 92.6422 48.6064 0.0000 0.0000 0.0000
# 3 35.6469 48.6064 98.9674 0.0000 0.0000 0.0000
# 4 0.0000 0.0000 0.0000 19.9248 0.0000 0.0000
# 5 0.0000 0.0000 0.0000 0.0000 11.0399 0.0000
# 6 0.0000 0.0000 0.0000 0.0000 0.0000 25.8739
#
#
#
# Elastic Compliance Matrix: (Units=1/GPa)
#
#
# Indices 1 2 3 4 5 6 
#
# 1 0.014747 -0.000650 -0.004993 0.000000 0.000000 0.000000
# 2 -0.000650 0.014570 -0.006922 0.000000 0.000000 0.000000
# 3 -0.004993 -0.006922 0.015302 0.000000 0.000000 0.000000
# 4 0.000000 0.000000 0.000000 0.050189 0.000000 0.000000
# 5 0.000000 0.000000 0.000000 0.000000 0.090580 0.000000
# 6 0.000000 0.000000 0.000000 0.000000 0.000000 0.038649
#
#
# Mechanical properties :
#
#
# Convention : Reuss Voigt Hill
#
# Bulk Modulus (GPa) = 51.30572 53.55250 52.42911
# Shear Modulus (GPa) = 19.55700 22.54112 21.04906
#
# Velocity S-wave (km/s) = 3.33270 3.57794 3.45749
# Velocity P-wave (km/s) = 6.62925 6.89076 6.76127
#
# Compressibility (1/GPa) = 0.01949100
#
# Stress axis : x y z
#
# Youngs Moduli (GPa) = 67.80872 68.63474 65.35011
#
# Poissons Ratio (x) = 0.04459 0.32628
# Poissons Ratio (y) = 0.04406 0.45234
# Poissons Ratio (z) = 0.33855 0.47507
#
# Static dielectric constant tensor:
#      x y z
#    x 3.399800 0.000000 0.000000 
#    y 0.000000 3.516830 0.000000 
#    z 0.000000 0.000000 3.086110 
# 
# 
# High freq. dielectric constant tensor:
#      x y z
#    x 1.700590 0.000000 0.000000 
#    y 0.000000 1.677720 0.000000 
#    z 0.000000 0.000000 1.643100 
# 
# From -- ./inp_files/21095.got.cif
#   From: 2010.03.12/outbox.cif.g09.slc.cpg/sg55_11_cif.got.tgz:21095.got - 2010.04.16 15:19:21.
