data_PCOD8224119
_publ_section_title
;
Structure prediction by ZEFSAII (Michael W. Deem and Ramdas Pophale) SiO2 
 PCOD8224119
Probable space group: P C C A
;
_chemical_formula_sum "Si O2"
_cell_formula_units_Z 24
_cell_length_a 16.858952
_cell_length_b 4.867246
_cell_length_c 12.593727
_cell_angle_alpha 90.000000
_cell_angle_beta 90.000000
_cell_angle_gamma 90.000000
_cell_volume 1033.399259
_symmetry_space_group_name_H-M "P C C A"
_symmetry_group_IT_number 54
_symmetry_cell_setting 'orthorhombic'
loop_
_space_group_symop_operation_xyz
x,y,z
1/2-x,-y,z
1/2+x,-y,1/2-z
-x,y,1/2-z
-x,-y,-z
1/2+x,y,-z
1/2-x,y,1/2+z
x,-y,1/2+z
loop_
_atom_site_type_symbol
_atom_site_label
_atom_site_fract_x
_atom_site_fract_y
_atom_site_fract_z
Si Si1 0.342687 0.487620 0.250907
Si Si2 0.943610 0.288667 0.436025
Si Si3 0.907482 0.020706 0.133050
O O1 0.250000 0.500000 0.230470
O O2 0.383880 0.559344 0.140645
O O3 0.376937 0.188724 0.277979
O O4 0.361373 0.694111 0.348135
O O5 0.890700 0.105120 0.516364
O O6 0.000000 0.500000 0.500000
O O7 0.998038 0.086727 0.363263
#
# Coordination Sequence:
#
# PCOD8224119 Si02
#       3
#     8   8   8
#     4  12  28  48  72 111 156 191 244 314 379 428
#     4  11  26  46  80 107 143 197 256 298 361 450
#     4  11  26  47  76 107 143 196 250 303 360 450
#
# _framework density 23.224322999999998
#
# number of rings (size 3 to 8) (size 9 to 14) (size 15 to 20)
#    0.000    0.667    3.333    2.000   14.000    1.333 
#    6.000    0.000    0.000    0.000    0.000    0.000 
#    0.000    0.000    0.000    0.000    0.000    0.000 
#
# Total GULP energy -297564.673605 kJ/mol
# GULP energy per Si atom -12398.528067 kJ/mol
# Density = 2.317146 g / cm^3
# Si number density = 23.224323 Si / 1000 Ang^3
#
#
#
# Elastic Constant Matrix: (Units=GPa)
#
#
# Indices 1 2 3 4 5 6 
#
# 1 156.7855 40.1629 68.1822 0.0000 0.0000 0.0000
# 2 40.1629 89.4279 8.9492 0.0000 0.0000 0.0000
# 3 68.1822 8.9492 86.8686 0.0000 0.0000 0.0000
# 4 0.0000 0.0000 0.0000 31.4168 0.0000 0.0000
# 5 0.0000 0.0000 0.0000 0.0000 -48.3040 0.0000
# 6 0.0000 0.0000 0.0000 0.0000 0.0000 30.3064
#
#
#
# Elastic Compliance Matrix: (Units=1/GPa)
#
#
# Indices 1 2 3 4 5 6 
#
# 1 0.011006 -0.004121 -0.008214 0.000000 0.000000 0.000000
# 2 -0.004121 0.012842 0.001911 0.000000 0.000000 0.000000
# 3 -0.008214 0.001911 0.017762 0.000000 0.000000 0.000000
# 4 0.000000 0.000000 0.000000 0.031830 0.000000 0.000000
# 5 0.000000 0.000000 0.000000 0.000000 -0.020702 0.000000
# 6 0.000000 0.000000 0.000000 0.000000 0.000000 0.032996
#
#
# Mechanical properties :
#
#
# Convention : Reuss Voigt Hill
#
# Bulk Modulus (GPa) = 48.16331 63.07452 55.61891
# Shear Modulus (GPa) = 44.05282 17.06970 30.56126
#
# Velocity S-wave (km/s) = 4.36000 2.71402 3.63149
# Velocity P-wave (km/s) = 6.79186 6.08596 6.44858
#
# Compressibility (1/GPa) = 0.02076269
#
# Stress axis : x y z
#
# Youngs Moduli (GPa) = 90.86203 77.87194 56.30126
#
# Poissons Ratio (x) = 0.32089 0.46244
# Poissons Ratio (y) = 0.37442 -0.10762
# Poissons Ratio (z) = 0.74632 -0.14885
#
# Static dielectric constant tensor:
#      x y z
#    x 3.959660 0.000000 0.000000 
#    y 0.000000 4.606440 0.000000 
#    z 0.000000 0.000000 4.209230 
# 
# 
# High freq. dielectric constant tensor:
#      x y z
#    x 1.891990 0.000000 0.000000 
#    y 0.000000 1.943510 0.000000 
#    z 0.000000 0.000000 1.927840 
# 
# From -- ./inp_files/8581.got.cif
#   From: 2010.03.12/outbox.cif.g09.slc.cpg/sg54_5_cif.got.tgz:8581.got - 2010.04.16 15:00:50.
