data_PCOD8224789
_publ_section_title
;
Structure prediction by ZEFSAII (Michael W. Deem and Ramdas Pophale) SiO2 
 PCOD8224789
Probable space group: P B A M
;
_chemical_formula_sum "Si O2"
_cell_formula_units_Z 64
_cell_length_a 20.674367
_cell_length_b 17.629633
_cell_length_c 10.139904
_cell_angle_alpha 90.000000
_cell_angle_beta 90.000000
_cell_angle_gamma 90.000000
_cell_volume 3695.807447
_symmetry_space_group_name_H-M "P B A M"
_symmetry_group_IT_number 55
_symmetry_cell_setting 'orthorhombic'
loop_
_space_group_symop_operation_xyz
x,y,z
-x,-y,z
1/2+x,1/2-y,-z
1/2-x,1/2+y,-z
-x,-y,-z
x,y,-z
1/2-x,1/2+y,z
1/2+x,1/2-y,z
loop_
_atom_site_type_symbol
_atom_site_label
_atom_site_fract_x
_atom_site_fract_y
_atom_site_fract_z
Si Si1 0.004258 0.624415 0.852932
Si Si2 0.342678 0.505742 0.353695
Si Si3 0.870724 0.831870 0.657254
Si Si4 0.231725 0.714518 0.343158
Si Si5 0.395957 0.989311 0.853674
Si Si6 0.504365 0.742890 0.654057
Si Si7 0.303650 0.049338 0.353896
Si Si8 0.365101 0.341878 0.654866
O O1 0.932857 0.590019 0.833027
O O2 0.055518 0.558378 0.835974
O O3 0.019250 0.683693 0.739215
O O4 0.009642 0.660539 0.000000
O O5 0.373167 0.500359 0.500000
O O6 0.371234 0.581786 0.283866
O O7 0.266491 0.513842 0.363115
O O8 0.358777 0.426001 0.280030
O O9 0.866746 0.838673 0.500000
O O10 0.806887 0.785297 0.706876
O O11 0.936234 0.791435 0.703252
O O12 0.231293 0.717284 0.500000
O O13 0.198312 0.635520 0.298809
O O14 0.189049 0.784054 0.284224
O O15 0.341453 0.994435 0.743883
O O16 0.364906 0.991523 0.000000
O O17 0.501760 0.765206 0.500000
O O18 0.562024 0.684566 0.682820
O O19 0.335632 0.047671 0.500000
O O20 0.350739 0.346548 0.500000
#
# Coordination Sequence:
#
# PCOD8224789 Si02
#       8
#     8   8   8   8   8   8   8   8
#     4   9  19  34  47  62  90 125 153 177 222 288
#     4   8  15  27  42  64  94 125 152 179 226 284
#     4   8  15  27  41  61  92 124 151 185 230 274
#     4   8  14  25  40  60  91 124 147 179 233 282
#     4   9  18  32  48  65  89 122 152 181 224 275
#     4  10  19  29  46  72  93 113 153 204 234 252
#     4   9  16  27  46  69  90 116 151 186 222 269
#     4   9  16  25  40  65  94 120 149 189 232 269
#
# _framework density 17.316918999999999
#
# number of rings (size 3 to 8) (size 9 to 14) (size 15 to 20)
#    0.000    3.250    0.000    3.000    0.000    3.500 
#    0.000    6.250    0.000    3.750    0.000    7.875 
#    0.000    0.000    0.000    0.000    0.000    0.000 
#
# Total GULP energy -792980.656830 kJ/mol
# GULP energy per Si atom -12390.322763 kJ/mol
# Density = 1.727750 g / cm^3
# Si number density = 17.316919 Si / 1000 Ang^3
#
#
#
# Elastic Constant Matrix: (Units=GPa)
#
#
# Indices 1 2 3 4 5 6 
#
# 1 61.6783 15.9514 11.7427 0.0000 0.0000 0.0000
# 2 15.9514 58.7184 17.2480 0.0000 0.0000 0.0000
# 3 11.7427 17.2480 39.9376 0.0000 0.0000 0.0000
# 4 0.0000 0.0000 0.0000 10.6182 0.0000 0.0000
# 5 0.0000 0.0000 0.0000 0.0000 5.4558 0.0000
# 6 0.0000 0.0000 0.0000 0.0000 0.0000 20.0929
#
#
#
# Elastic Compliance Matrix: (Units=1/GPa)
#
#
# Indices 1 2 3 4 5 6 
#
# 1 0.017884 -0.003795 -0.003619 0.000000 0.000000 0.000000
# 2 -0.003795 0.020310 -0.007656 0.000000 0.000000 0.000000
# 3 -0.003619 -0.007656 0.029409 0.000000 0.000000 0.000000
# 4 0.000000 0.000000 0.000000 0.094178 0.000000 0.000000
# 5 0.000000 0.000000 0.000000 0.000000 0.183290 0.000000
# 6 0.000000 0.000000 0.000000 0.000000 0.000000 0.049769
#
#
# Mechanical properties :
#
#
# Convention : Reuss Voigt Hill
#
# Bulk Modulus (GPa) = 26.69271 27.80205 27.24738
# Shear Modulus (GPa) = 11.42942 14.92621 13.17782
#
# Velocity S-wave (km/s) = 2.57186 2.93907 2.76158
# Velocity P-wave (km/s) = 4.92616 5.25426 5.09285
#
# Compressibility (1/GPa) = 0.03746341
#
# Stress axis : x y z
#
# Youngs Moduli (GPa) = 55.91678 49.23638 34.00270
#
# Poissons Ratio (x) = 0.18686 0.12306
# Poissons Ratio (y) = 0.21221 0.26031
# Poissons Ratio (z) = 0.20238 0.37693
#
# Static dielectric constant tensor:
#      x y z
#    x 3.301980 0.000000 0.000000 
#    y 0.000000 3.511410 0.000000 
#    z 0.000000 0.000000 2.797280 
# 
# 
# High freq. dielectric constant tensor:
#      x y z
#    x 1.668840 0.000000 0.000000 
#    y 0.000000 1.671780 0.000000 
#    z 0.000000 0.000000 1.605890 
# 
# From -- ./inp_files/8941.got.cif
#   From: 2010.03.12/outbox.cif.g09.slc.cpg/sg55_5_cif.got.tgz:8941.got - 2010.04.16 15:19:21.
