data_PCOD8224488
_publ_section_title
;
Structure prediction by ZEFSAII (Michael W. Deem and Ramdas Pophale) SiO2 
 PCOD8224488
Probable space group: P B A M
;
_chemical_formula_sum "Si O2"
_cell_formula_units_Z 56
_cell_length_a 13.654205
_cell_length_b 14.892666
_cell_length_c 13.828503
_cell_angle_alpha 90.000000
_cell_angle_beta 90.000000
_cell_angle_gamma 90.000000
_cell_volume 2811.991715
_symmetry_space_group_name_H-M "P B A M"
_symmetry_group_IT_number 55
_symmetry_cell_setting 'orthorhombic'
loop_
_space_group_symop_operation_xyz
x,y,z
-x,-y,z
1/2+x,1/2-y,-z
1/2-x,1/2+y,-z
-x,-y,-z
x,y,-z
1/2-x,1/2+y,z
1/2+x,1/2-y,z
loop_
_atom_site_type_symbol
_atom_site_label
_atom_site_fract_x
_atom_site_fract_y
_atom_site_fract_z
Si Si1 0.130622 0.762251 0.215731
Si Si2 0.753505 0.944445 0.386871
Si Si3 0.908358 0.683984 0.606539
Si Si4 0.336319 0.695530 0.243387
Si Si5 0.683042 0.632820 0.605702
Si Si6 0.942210 0.420132 0.713809
Si Si7 0.488334 0.603857 0.113539
O O1 0.247372 0.751497 0.192932
O O2 0.120841 0.805306 0.322630
O O3 0.082829 0.662732 0.213926
O O4 0.080133 0.832120 0.141945
O O5 0.737053 0.923861 0.500000
O O6 0.795294 0.857046 0.335848
O O7 0.652526 0.965840 0.332933
O O8 0.829590 0.026767 0.371701
O O9 0.926539 0.727976 0.500000
O O10 0.919804 0.746004 0.702881
O O11 0.798965 0.646361 0.609747
O O12 0.989916 0.608514 0.623265
O O13 0.387582 0.636254 0.161979
O O14 0.641077 0.656221 0.500000
O O15 0.000000 0.500000 0.771639
O O16 0.500000 0.500000 0.144794
O O17 0.474373 0.612008 0.000000
#
# Coordination Sequence:
#
# PCOD8224488 Si02
#       7
#     8   8   8   8   8   8   8
#     4  10  22  39  60  88 119 156 196 248 292 354
#     4  10  19  31  51  81 119 159 197 239 279 335
#     4  10  18  30  50  78 116 156 191 227 268 326
#     4  10  21  38  59  84 116 155 192 240 292 349
#     4   9  18  32  50  78 118 158 194 232 278 333
#     4  11  20  32  54  84 119 162 203 236 278 336
#     4  11  24  44  68  91 113 145 195 251 312 373
#
# _framework density 19.914708999999998
#
# number of rings (size 3 to 8) (size 9 to 14) (size 15 to 20)
#    0.000    1.857    2.857    1.714    0.000    5.143 
#    0.000    0.000    0.000    3.429    0.000    0.000 
#    0.000    0.000    0.000    0.000    0.000    0.000 
#
# Total GULP energy -693862.471632 kJ/mol
# GULP energy per Si atom -12390.401279 kJ/mol
# Density = 1.986938 g / cm^3
# Si number density = 19.914709 Si / 1000 Ang^3
#
#
#
# Elastic Constant Matrix: (Units=GPa)
#
#
# Indices 1 2 3 4 5 6 
#
# 1 63.5036 35.4446 22.2472 0.0000 0.0000 0.0000
# 2 35.4446 105.3337 36.9590 0.0000 0.0000 0.0000
# 3 22.2472 36.9590 67.5128 0.0000 0.0000 0.0000
# 4 0.0000 0.0000 0.0000 27.5136 0.0000 0.0000
# 5 0.0000 0.0000 0.0000 0.0000 20.7962 0.0000
# 6 0.0000 0.0000 0.0000 0.0000 0.0000 32.1537
#
#
#
# Elastic Compliance Matrix: (Units=1/GPa)
#
#
# Indices 1 2 3 4 5 6 
#
# 1 0.020075 -0.005488 -0.003611 0.000000 0.000000 0.000000
# 2 -0.005488 0.013251 -0.005446 0.000000 0.000000 0.000000
# 3 -0.003611 -0.005446 0.018983 0.000000 0.000000 0.000000
# 4 0.000000 0.000000 0.000000 0.036346 0.000000 0.000000
# 5 0.000000 0.000000 0.000000 0.000000 0.048086 0.000000
# 6 0.000000 0.000000 0.000000 0.000000 0.000000 0.031101
#
#
# Mechanical properties :
#
#
# Convention : Reuss Voigt Hill
#
# Bulk Modulus (GPa) = 43.06642 47.29464 45.18053
# Shear Modulus (GPa) = 24.42941 25.53933 24.98437
#
# Velocity S-wave (km/s) = 3.50623 3.58500 3.54583
# Velocity P-wave (km/s) = 6.16960 6.39816 6.28492
#
# Compressibility (1/GPa) = 0.02321995
#
# Stress axis : x y z
#
# Youngs Moduli (GPa) = 49.81207 75.46475 52.67870
#
# Poissons Ratio (x) = 0.41418 0.19021
# Poissons Ratio (y) = 0.27339 0.28687
# Poissons Ratio (z) = 0.17986 0.41095
#
# Static dielectric constant tensor:
#      x y z
#    x 3.657480 0.000000 0.000000 
#    y 0.000000 3.877160 0.000000 
#    z 0.000000 0.000000 3.255390 
# 
# 
# High freq. dielectric constant tensor:
#      x y z
#    x 1.781480 0.000000 0.000000 
#    y 0.000000 1.789790 0.000000 
#    z 0.000000 0.000000 1.731010 
# 
# From -- ./inp_files/14229.got.cif
#   From: 2010.03.12/outbox.cif.g09.slc.cpg/sg55_8_cif.got.tgz:14229.got - 2010.04.16 15:19:21.
