data_PCOD8224877
_publ_section_title
;
Structure prediction by ZEFSAII (Michael W. Deem and Ramdas Pophale) SiO2 
 PCOD8224877
Probable space group: P B A M
;
_chemical_formula_sum "Si O2"
_cell_formula_units_Z 64
_cell_length_a 23.428064
_cell_length_b 10.126088
_cell_length_c 15.164770
_cell_angle_alpha 90.000000
_cell_angle_beta 90.000000
_cell_angle_gamma 90.000000
_cell_volume 3597.608717
_symmetry_space_group_name_H-M "P B A M"
_symmetry_group_IT_number 55
_symmetry_cell_setting 'orthorhombic'
loop_
_space_group_symop_operation_xyz
x,y,z
-x,-y,z
1/2+x,1/2-y,-z
1/2-x,1/2+y,-z
-x,-y,-z
x,y,-z
1/2-x,1/2+y,z
1/2+x,1/2-y,z
loop_
_atom_site_type_symbol
_atom_site_label
_atom_site_fract_x
_atom_site_fract_y
_atom_site_fract_z
Si Si1 0.145426 0.491002 0.102365
Si Si2 0.062291 0.735122 0.101031
Si Si3 0.293067 0.007893 0.722500
Si Si4 0.814312 0.714640 0.405335
Si Si5 0.562357 0.230556 0.101661
Si Si6 0.566053 0.497805 0.190647
Si Si7 0.662303 0.487698 0.669962
Si Si8 0.682640 0.759117 0.403751
O O1 0.105648 0.617233 0.111734
O O2 0.196767 0.510155 0.171848
O O3 0.111345 0.364183 0.140228
O O4 0.167233 0.476583 0.000000
O O5 0.000296 0.693152 0.139932
O O6 0.085933 0.862615 0.151545
O O7 0.054140 0.777649 0.000000
O O8 0.224519 0.005485 0.716116
O O9 0.322238 0.133311 0.674086
O O10 0.325353 0.883604 0.676594
O O11 0.838655 0.661580 0.500000
O O12 0.839311 0.861098 0.393299
O O13 0.747204 0.718931 0.415580
O O14 0.574399 0.384559 0.117246
O O15 0.563138 0.195757 0.000000
O O16 0.500000 0.500000 0.223256
O O17 0.609500 0.460849 0.266672
O O18 0.648716 0.624987 0.620400
O O19 0.660260 0.811198 0.500000
#
# Coordination Sequence:
#
# PCOD8224877 Si02
#       8
#     8   8   8   8   8   8   8   8
#     4  10  19  31  47  70 101 132 158 186 230 289
#     4   9  17  30  48  68  90 120 163 211 244 266
#     4  10  19  31  48  71 101 129 157 194 235 284
#     4   9  17  30  50  73  94 120 156 197 238 275
#     4   9  17  30  48  68  90 120 163 211 244 266
#     4  10  19  31  48  69  92 122 161 199 239 285
#     4  10  19  31  48  70  99 125 152 193 241 286
#     4   9  17  30  50  73  94 120 156 197 238 275
#
# _framework density 17.789594999999998
#
# number of rings (size 3 to 8) (size 9 to 14) (size 15 to 20)
#    0.000    2.500    0.000    3.000    0.000    6.000 
#    0.000    1.250    0.000   11.250    0.000    0.000 
#    0.000   10.000    0.000    0.000    0.000    0.000 
#
# Total GULP energy -792891.685863 kJ/mol
# GULP energy per Si atom -12388.932592 kJ/mol
# Density = 1.774910 g / cm^3
# Si number density = 17.789595 Si / 1000 Ang^3
#
#
#
# Elastic Constant Matrix: (Units=GPa)
#
#
# Indices 1 2 3 4 5 6 
#
# 1 40.6783 22.2267 28.5923 0.0000 0.0000 0.0000
# 2 22.2267 91.6174 29.0706 0.0000 0.0000 0.0000
# 3 28.5923 29.0706 98.1682 0.0000 0.0000 0.0000
# 4 0.0000 0.0000 0.0000 4.4819 0.0000 0.0000
# 5 0.0000 0.0000 0.0000 0.0000 -8.4279 0.0000
# 6 0.0000 0.0000 0.0000 0.0000 0.0000 12.8933
#
#
#
# Elastic Compliance Matrix: (Units=1/GPa)
#
#
# Indices 1 2 3 4 5 6 
#
# 1 0.033256 -0.005513 -0.008054 0.000000 0.000000 0.000000
# 2 -0.005513 0.012961 -0.002232 0.000000 0.000000 0.000000
# 3 -0.008054 -0.002232 0.013193 0.000000 0.000000 0.000000
# 4 0.000000 0.000000 0.000000 0.223118 0.000000 0.000000
# 5 0.000000 0.000000 0.000000 0.000000 -0.118653 0.000000
# 6 0.000000 0.000000 0.000000 0.000000 0.000000 0.077559
#
#
# Mechanical properties :
#
#
# Convention : Reuss Voigt Hill
#
# Bulk Modulus (GPa) = 35.95474 43.36034 39.65754
# Shear Modulus (GPa) = 17.71145 11.82776 14.76961
#
# Velocity S-wave (km/s) = 3.15875 2.58130 2.88451
# Velocity P-wave (km/s) = 5.79298 5.77157 5.78229
#
# Compressibility (1/GPa) = 0.02781275
#
# Stress axis : x y z
#
# Youngs Moduli (GPa) = 30.06973 77.15637 75.79553
#
# Poissons Ratio (x) = 0.42533 0.61043
# Poissons Ratio (y) = 0.16576 0.16921
# Poissons Ratio (z) = 0.24217 0.17225
#
# Static dielectric constant tensor:
#      x y z
#    x 3.046620 0.000000 0.000000 
#    y 0.000000 3.493460 0.000000 
#    z 0.000000 0.000000 3.404770 
# 
# 
# High freq. dielectric constant tensor:
#      x y z
#    x 1.647960 0.000000 0.000000 
#    y 0.000000 1.705730 0.000000 
#    z 0.000000 0.000000 1.678970 
# 
# From -- ./inp_files/17823.got.cif
#   From: 2010.03.12/outbox.cif.g09.slc.cpg/sg55_9_cif.got.tgz:17823.got - 2010.04.16 15:19:21.
