data_PCOD8224680
_publ_section_title
;
Structure prediction by ZEFSAII (Michael W. Deem and Ramdas Pophale) SiO2 
 PCOD8224680
Probable space group: P B A M
;
_chemical_formula_sum "Si O2"
_cell_formula_units_Z 64
_cell_length_a 19.639727
_cell_length_b 20.584318
_cell_length_c 9.023240
_cell_angle_alpha 90.000000
_cell_angle_beta 90.000000
_cell_angle_gamma 90.000000
_cell_volume 3647.828718
_symmetry_space_group_name_H-M "P B A M"
_symmetry_group_IT_number 55
_symmetry_cell_setting 'orthorhombic'
loop_
_space_group_symop_operation_xyz
x,y,z
-x,-y,z
1/2+x,1/2-y,-z
1/2-x,1/2+y,-z
-x,-y,-z
x,y,-z
1/2-x,1/2+y,z
1/2+x,1/2-y,z
loop_
_atom_site_type_symbol
_atom_site_label
_atom_site_fract_x
_atom_site_fract_y
_atom_site_fract_z
Si Si1 0.716575 0.698837 0.324773
Si Si2 0.199144 0.427000 0.325304
Si Si3 0.915853 0.229941 0.824453
Si Si4 0.569624 0.119157 0.825007
Si Si5 0.284566 0.055165 0.174281
Si Si6 0.706656 0.316393 0.173750
Si Si7 0.564940 0.265193 0.825604
Si Si8 0.581463 0.877440 0.174386
O O1 0.713505 0.704839 0.500000
O O2 0.760599 0.637027 0.273759
O O3 0.640685 0.687945 0.260742
O O4 0.748568 0.764197 0.259709
O O5 0.195965 0.432881 0.500000
O O6 0.122954 0.425943 0.259791
O O7 0.237430 0.490010 0.259475
O O8 0.908537 0.304122 0.768584
O O9 0.991754 0.206054 0.774099
O O10 0.904781 0.222497 0.000000
O O11 0.578194 0.192707 0.764203
O O12 0.493217 0.095020 0.784112
O O13 0.583246 0.113406 0.000000
O O14 0.230299 0.111199 0.213438
O O15 0.358832 0.076803 0.236703
O O16 0.286040 0.040929 0.000000
O O17 0.627309 0.311348 0.222563
O O18 0.716114 0.301739 0.000000
O O19 0.559998 0.256845 0.000000
O O20 0.589399 0.873826 0.000000
#
# Coordination Sequence:
#
# PCOD8224680 Si02
#       8
#     8   8   8   8   8   8   8   8
#     4  11  22  34  50  75 105 138 174 212 253 298
#     4  11  24  37  47  68 106 142 176 214 249 294
#     4   9  16  31  54  79 105 130 164 210 259 306
#     4   9  16  30  53  75 100 135 171 204 249 304
#     4  10  20  34  53  75 101 134 172 210 253 304
#     4  10  18  33  58  82 102 128 168 216 260 306
#     4   8  15  28  53  84 105 125 160 211 263 307
#     4   8  15  29  50  78 104 128 165 209 250 301
#
# _framework density 17.544684
#
# number of rings (size 3 to 8) (size 9 to 14) (size 15 to 20)
#    0.000    2.500    2.500    2.250    0.000    2.500 
#    0.000    6.250    0.000    0.750    0.000    5.250 
#    0.000    0.000    0.000    0.000    0.000    0.000 
#
# Total GULP energy -793327.639737 kJ/mol
# GULP energy per Si atom -12395.744371 kJ/mol
# Density = 1.750475 g / cm^3
# Si number density = 17.544684 Si / 1000 Ang^3
#
#
#
# Elastic Constant Matrix: (Units=GPa)
#
#
# Indices 1 2 3 4 5 6 
#
# 1 113.6514 35.7275 30.6165 0.0000 0.0000 0.0000
# 2 35.7275 66.4075 28.3843 0.0000 0.0000 0.0000
# 3 30.6165 28.3843 41.3989 0.0000 0.0000 0.0000
# 4 0.0000 0.0000 0.0000 20.8549 0.0000 0.0000
# 5 0.0000 0.0000 0.0000 0.0000 11.3831 0.0000
# 6 0.0000 0.0000 0.0000 0.0000 0.0000 22.6400
#
#
#
# Elastic Compliance Matrix: (Units=1/GPa)
#
#
# Indices 1 2 3 4 5 6 
#
# 1 0.011576 -0.003634 -0.006070 0.000000 0.000000 0.000000
# 2 -0.003634 0.022441 -0.012699 0.000000 0.000000 0.000000
# 3 -0.006070 -0.012699 0.037351 0.000000 0.000000 0.000000
# 4 0.000000 0.000000 0.000000 0.047950 0.000000 0.000000
# 5 0.000000 0.000000 0.000000 0.000000 0.087849 0.000000
# 6 0.000000 0.000000 0.000000 0.000000 0.000000 0.044170
#
#
# Mechanical properties :
#
#
# Convention : Reuss Voigt Hill
#
# Bulk Modulus (GPa) = 37.64587 45.65715 41.65151
# Shear Modulus (GPa) = 16.39353 19.42423 17.90888
#
# Velocity S-wave (km/s) = 3.06009 3.33096 3.19840
# Velocity P-wave (km/s) = 5.83003 6.39325 6.11812
#
# Compressibility (1/GPa) = 0.02656334
#
# Stress axis : x y z
#
# Youngs Moduli (GPa) = 86.38361 44.56040 26.77294
#
# Poissons Ratio (x) = 0.16192 0.16251
# Poissons Ratio (y) = 0.31389 0.34000
# Poissons Ratio (z) = 0.52434 0.56588
#
# Static dielectric constant tensor:
#      x y z
#    x 3.688950 0.000000 0.000000 
#    y 0.000000 3.135120 0.000000 
#    z 0.000000 0.000000 2.919270 
# 
# 
# High freq. dielectric constant tensor:
#      x y z
#    x 1.687560 0.000000 0.000000 
#    y 0.000000 1.654160 0.000000 
#    z 0.000000 0.000000 1.646670 
# 
# From -- ./inp_files/9118.got.cif
#   From: 2010.03.12/outbox.cif.g09.slc.cpg/sg55_5_cif.got.tgz:9118.got - 2010.04.16 15:19:21.
