data_PCOD8224849
_publ_section_title
;
Structure prediction by ZEFSAII (Michael W. Deem and Ramdas Pophale) SiO2 
 PCOD8224849
Probable space group: P B A M
;
_chemical_formula_sum "Si O2"
_cell_formula_units_Z 64
_cell_length_a 14.325203
_cell_length_b 17.781528
_cell_length_c 14.448664
_cell_angle_alpha 90.000000
_cell_angle_beta 90.000000
_cell_angle_gamma 90.000000
_cell_volume 3680.421463
_symmetry_space_group_name_H-M "P B A M"
_symmetry_group_IT_number 55
_symmetry_cell_setting 'orthorhombic'
loop_
_space_group_symop_operation_xyz
x,y,z
-x,-y,z
1/2+x,1/2-y,-z
1/2-x,1/2+y,-z
-x,-y,-z
x,y,-z
1/2-x,1/2+y,z
1/2+x,1/2-y,z
loop_
_atom_site_type_symbol
_atom_site_label
_atom_site_fract_x
_atom_site_fract_y
_atom_site_fract_z
Si Si1 0.943151 0.833725 0.105121
Si Si2 0.661505 0.162393 0.606536
Si Si3 0.846709 0.118292 0.104972
Si Si4 0.651369 0.882514 0.241863
Si Si5 0.509027 0.221564 0.744239
Si Si6 0.787180 0.951539 0.107719
Si Si7 0.106076 0.506128 0.394469
Si Si8 0.683227 0.721377 0.730146
O O1 0.938125 0.759314 0.169033
O O2 0.867314 0.893895 0.139412
O O3 0.042259 0.874931 0.111754
O O4 0.923328 0.807606 0.000000
O O5 0.651476 0.186602 0.500000
O O6 0.580728 0.204597 0.662742
O O7 0.656196 0.073268 0.618176
O O8 0.762494 0.185885 0.644242
O O9 0.796369 0.176158 0.174711
O O10 0.818774 0.034768 0.135863
O O11 0.813165 0.135948 0.000000
O O12 0.544067 0.855317 0.222677
O O13 0.689729 0.931659 0.157244
O O14 0.715717 0.807964 0.254759
O O15 0.659098 0.931655 0.334687
O O16 0.428277 0.278825 0.706739
O O17 0.767520 0.945364 0.000000
O O18 0.109189 0.534297 0.500000
O O19 0.000000 0.500000 0.359971
#
# Coordination Sequence:
#
# PCOD8224849 Si02
#       8
#     8   8   8   8   8   8   8   8
#     4   9  17  32  53  76 104 137 173 209 251 302
#     4  11  21  35  56  77 103 135 173 215 261 309
#     4   9  17  32  53  77 105 135 170 215 253 295
#     4  10  20  33  51  73 104 136 163 215 254 303
#     4   9  20  34  51  76 106 135 173 214 255 302
#     4  10  19  30  50  77 103 135 175 209 248 301
#     4  10  19  34  55  76  95 128 174 215 257 304
#     4   9  20  34  51  78 105 136 167 209 261 311
#
# _framework density 17.389313999999999
#
# number of rings (size 3 to 8) (size 9 to 14) (size 15 to 20)
#    0.750    1.625    1.250    1.875    0.000    3.500 
#    0.000    0.625    0.000    1.125    0.000    0.000 
#    0.000   14.000    0.000    0.000    0.000    0.000 
#
# Total GULP energy -793289.734691 kJ/mol
# GULP energy per Si atom -12395.152105 kJ/mol
# Density = 1.734973 g / cm^3
# Si number density = 17.389314 Si / 1000 Ang^3
#
#
#
# Elastic Constant Matrix: (Units=GPa)
#
#
# Indices 1 2 3 4 5 6 
#
# 1 59.7505 33.8969 49.2504 0.0000 0.0000 0.0000
# 2 33.8969 105.8918 78.2793 0.0000 0.0000 0.0000
# 3 49.2504 78.2793 111.5520 0.0000 0.0000 0.0000
# 4 0.0000 0.0000 0.0000 33.3519 0.0000 0.0000
# 5 0.0000 0.0000 0.0000 0.0000 28.4073 0.0000
# 6 0.0000 0.0000 0.0000 0.0000 0.0000 11.1396
#
#
#
# Elastic Compliance Matrix: (Units=1/GPa)
#
#
# Indices 1 2 3 4 5 6 
#
# 1 0.026317 0.000343 -0.011860 0.000000 0.000000 0.000000
# 2 0.000343 0.019627 -0.013924 0.000000 0.000000 0.000000
# 3 -0.011860 -0.013924 0.023972 0.000000 0.000000 0.000000
# 4 0.000000 0.000000 0.000000 0.029983 0.000000 0.000000
# 5 0.000000 0.000000 0.000000 0.000000 0.035202 0.000000
# 6 0.000000 0.000000 0.000000 0.000000 0.000000 0.089770
#
#
# Mechanical properties :
#
#
# Convention : Reuss Voigt Hill
#
# Bulk Modulus (GPa) = 52.53846 66.67193 59.60519
# Shear Modulus (GPa) = 17.72429 22.29762 20.01096
#
# Velocity S-wave (km/s) = 3.19605 3.58475 3.39597
# Velocity P-wave (km/s) = 6.62558 7.45372 7.05182
#
# Compressibility (1/GPa) = 0.01903368
#
# Stress axis : x y z
#
# Youngs Moduli (GPa) = 37.99773 50.94934 41.71606
#
# Poissons Ratio (x) = -0.01746 0.49474
# Poissons Ratio (y) = -0.01302 0.58087
# Poissons Ratio (z) = 0.45064 0.70944
#
# Static dielectric constant tensor:
#      x y z
#    x 3.082270 0.000000 0.000000 
#    y 0.000000 3.259850 0.000000 
#    z 0.000000 0.000000 3.181420 
# 
# 
# High freq. dielectric constant tensor:
#      x y z
#    x 1.659550 0.000000 0.000000 
#    y 0.000000 1.673650 0.000000 
#    z 0.000000 0.000000 1.662560 
# 
# From -- ./inp_files/14405.got.cif
#   From: 2010.03.12/outbox.cif.g09.slc.cpg/sg55_8_cif.got.tgz:14405.got - 2010.04.16 15:19:21.
