data_PCOD8224273
_publ_section_title
;
Structure prediction by ZEFSAII (Michael W. Deem and Ramdas Pophale) SiO2 
 PCOD8224273
Probable space group: P B A M
;
_chemical_formula_sum "Si O2"
_cell_formula_units_Z 64
_cell_length_a 20.773735
_cell_length_b 21.910824
_cell_length_c 9.010639
_cell_angle_alpha 90.000000
_cell_angle_beta 90.000000
_cell_angle_gamma 90.000000
_cell_volume 4101.369413
_symmetry_space_group_name_H-M "P B A M"
_symmetry_group_IT_number 55
_symmetry_cell_setting 'orthorhombic'
loop_
_space_group_symop_operation_xyz
x,y,z
-x,-y,z
1/2+x,1/2-y,-z
1/2-x,1/2+y,-z
-x,-y,-z
x,y,-z
1/2-x,1/2+y,z
1/2+x,1/2-y,z
loop_
_atom_site_type_symbol
_atom_site_label
_atom_site_fract_x
_atom_site_fract_y
_atom_site_fract_z
Si Si1 0.818776 0.432368 0.827077
Si Si2 0.932326 0.658035 0.327430
Si Si3 0.675170 0.056968 0.332562
Si Si4 0.743887 0.665974 0.670220
Si Si5 0.344328 0.752607 0.825350
Si Si6 0.436160 0.154626 0.172450
Si Si7 0.733871 0.341944 0.332601
Si Si8 0.143390 0.745319 0.664019
O O1 0.828198 0.502271 0.782699
O O2 0.883664 0.396216 0.784943
O O3 0.756971 0.404656 0.743479
O O4 0.804840 0.427323 0.000000
O O5 0.938885 0.672817 0.500000
O O6 0.883181 0.602896 0.298225
O O7 0.909633 0.720005 0.245266
O O8 0.000581 0.637247 0.262891
O O9 0.669806 0.031214 0.500000
O O10 0.742961 0.093620 0.311279
O O11 0.764218 0.684886 0.500000
O O12 0.787252 0.700501 0.789959
O O13 0.668766 0.685207 0.697022
O O14 0.327078 0.686585 0.754898
O O15 0.353352 0.744999 0.000000
O O16 0.409128 0.221623 0.218876
O O17 0.452579 0.155787 0.000000
O O18 0.712513 0.356660 0.500000
O O19 0.792112 0.294449 0.327174
O O20 0.112366 0.740949 0.500000
#
# Coordination Sequence:
#
# PCOD8224273 Si02
#       8
#     8   8   8   8   8   8   8   8
#     4  10  20  31  43  62  88 116 147 183 221 258
#     4  10  20  33  46  60  82 115 153 184 213 255
#     4   9  18  31  45  61  83 114 151 185 214 251
#     4   8  15  28  44  62  83 109 142 176 213 260
#     4  10  17  26  43  65  86 106 133 174 223 263
#     4  10  20  31  42  60  86 114 146 183 220 256
#     4   9  16  28  45  62  82 109 141 175 213 258
#     4   8  14  26  44  62  80 105 137 174 215 257
#
# _framework density 15.604545
#
# number of rings (size 3 to 8) (size 9 to 14) (size 15 to 20)
#    0.000    2.750    0.000    4.125    0.000    7.500 
#    0.000    2.500    0.000    0.000    0.000    0.000 
#    0.000    1.000    0.000   10.750    0.000    5.500 
#
# Total GULP energy -793221.809955 kJ/mol
# GULP energy per Si atom -12394.090781 kJ/mol
# Density = 1.556903 g / cm^3
# Si number density = 15.604545 Si / 1000 Ang^3
#
#
#
# Elastic Constant Matrix: (Units=GPa)
#
#
# Indices 1 2 3 4 5 6 
#
# 1 33.5457 47.7067 29.6780 0.0000 0.0000 0.0000
# 2 47.7067 73.2465 46.4997 0.0000 0.0000 0.0000
# 3 29.6780 46.4997 94.2274 0.0000 0.0000 0.0000
# 4 0.0000 0.0000 0.0000 24.5090 0.0000 0.0000
# 5 0.0000 0.0000 0.0000 0.0000 24.3401 0.0000
# 6 0.0000 0.0000 0.0000 0.0000 0.0000 14.6201
#
#
#
# Elastic Compliance Matrix: (Units=1/GPa)
#
#
# Indices 1 2 3 4 5 6 
#
# 1 0.405216 -0.266341 0.003808 0.000000 0.000000 0.000000
# 2 -0.266341 0.194942 -0.012314 0.000000 0.000000 0.000000
# 3 0.003808 -0.012314 0.015490 0.000000 0.000000 0.000000
# 4 0.000000 0.000000 0.000000 0.040801 0.000000 0.000000
# 5 0.000000 0.000000 0.000000 0.000000 0.041084 0.000000
# 6 0.000000 0.000000 0.000000 0.000000 0.000000 0.068399
#
#
# Mechanical properties :
#
#
# Convention : Reuss Voigt Hill
#
# Bulk Modulus (GPa) = 15.16214 49.86537 32.51376
# Shear Modulus (GPa) = 3.73801 17.83619 10.78710
#
# Velocity S-wave (km/s) = 1.54941 3.38451 2.63207
# Velocity P-wave (km/s) = 3.59701 6.87738 5.48802
#
# Compressibility (1/GPa) = 0.06595374
#
# Stress axis : x y z
#
# Youngs Moduli (GPa) = 2.46782 5.12973 64.55807
#
# Poissons Ratio (x) = 1.36626 -0.24582
# Poissons Ratio (y) = 0.65728 0.79494
# Poissons Ratio (z) = -0.00940 0.06317
#
# Static dielectric constant tensor:
#      x y z
#    x 2.883060 0.000000 0.000000 
#    y 0.000000 2.958530 0.000000 
#    z 0.000000 0.000000 3.019750 
# 
# 
# High freq. dielectric constant tensor:
#      x y z
#    x 1.564560 0.000000 0.000000 
#    y 0.000000 1.574470 0.000000 
#    z 0.000000 0.000000 1.610630 
# 
# From -- ./inp_files/8085.got.cif
#   From: 2010.03.12/outbox.cif.g09.slc.cpg/sg55_5_cif.got.tgz:8085.got - 2010.04.16 15:19:21.
