data_PCOD8224101
_publ_section_title
;
Structure prediction by ZEFSAII (Michael W. Deem and Ramdas Pophale) SiO2 
 PCOD8224101
Probable space group: P C C A
;
_chemical_formula_sum "Si O2"
_cell_formula_units_Z 36
_cell_length_a 4.901341
_cell_length_b 25.998010
_cell_length_c 11.776219
_cell_angle_alpha 90.000000
_cell_angle_beta 90.000000
_cell_angle_gamma 90.000000
_cell_volume 1500.586029
_symmetry_space_group_name_H-M "P C C A"
_symmetry_group_IT_number 54
_symmetry_cell_setting 'orthorhombic'
loop_
_space_group_symop_operation_xyz
x,y,z
1/2-x,-y,z
1/2+x,-y,1/2-z
-x,y,1/2-z
-x,-y,-z
1/2+x,y,-z
1/2-x,y,1/2+z
x,-y,1/2+z
loop_
_atom_site_type_symbol
_atom_site_label
_atom_site_fract_x
_atom_site_fract_y
_atom_site_fract_z
Si Si1 0.000000 0.315076 0.250000
Si Si2 0.068851 0.396072 0.069731
Si Si3 0.000000 0.919758 0.250000
Si Si4 0.500000 0.752391 0.750000
Si Si5 0.186319 0.163088 0.578403
Si Si6 0.750000 0.000000 0.086785
Si Si7 0.250000 0.500000 0.679937
O O1 0.143296 0.351843 0.158121
O O2 0.247516 0.280724 0.299072
O O3 0.119469 0.453945 0.109720
O O4 0.251272 0.388669 0.958188
O O5 0.169518 0.885342 0.162094
O O6 0.785645 0.952388 0.173922
O O7 0.377043 0.785153 0.646744
O O8 0.493195 0.160991 0.531885
O O9 0.500000 0.000000 0.000000
O O10 0.500000 0.524520 0.750000
#
# Coordination Sequence:
#
# PCOD8224101 Si02
#       7
#     4   8   4   4   8   4   4
#     4  12  26  46  68 102 140 176 226 290 352 420
#     4  12  26  44  69 100 135 180 226 278 342 414
#     4  11  26  46  71 108 147 192 248 295 354 422
#     4  11  26  44  71 100 135 178 230 291 358 426
#     4  11  25  46  73 102 137 184 239 298 355 419
#     4  12  26  44  70 104 150 198 238 292 356 420
#     4  12  24  44  72  96 138 184 226 280 340 406
#
# _framework density 23.990628999999998
#
# number of rings (size 3 to 8) (size 9 to 14) (size 15 to 20)
#    0.000    0.444    1.111    6.667    1.556   11.556 
#    0.000    0.000    0.000    0.000    0.000    0.000 
#    0.000    0.000    0.000    0.000    0.000    0.000 
#
# Total GULP energy -446388.019336 kJ/mol
# GULP energy per Si atom -12399.667204 kJ/mol
# Density = 2.393603 g / cm^3
# Si number density = 23.990629 Si / 1000 Ang^3
#
#
#
# Elastic Constant Matrix: (Units=GPa)
#
#
# Indices 1 2 3 4 5 6 
#
# 1 110.5954 34.4112 30.5795 0.0000 0.0000 0.0000
# 2 34.4112 151.0479 55.2742 0.0000 0.0000 0.0000
# 3 30.5795 55.2742 115.1994 0.0000 0.0000 0.0000
# 4 0.0000 0.0000 0.0000 288.9304 0.0000 0.0000
# 5 0.0000 0.0000 0.0000 0.0000 48.6303 0.0000
# 6 0.0000 0.0000 0.0000 0.0000 0.0000 39.8832
#
#
#
# Elastic Compliance Matrix: (Units=1/GPa)
#
#
# Indices 1 2 3 4 5 6 
#
# 1 0.010065 -0.001595 -0.001906 0.000000 0.000000 0.000000
# 2 -0.001595 0.008283 -0.003551 0.000000 0.000000 0.000000
# 3 -0.001906 -0.003551 0.010890 0.000000 0.000000 0.000000
# 4 0.000000 0.000000 0.000000 0.003461 0.000000 0.000000
# 5 0.000000 0.000000 0.000000 0.000000 0.020563 0.000000
# 6 0.000000 0.000000 0.000000 0.000000 0.000000 0.025073
#
#
# Mechanical properties :
#
#
# Convention : Reuss Voigt Hill
#
# Bulk Modulus (GPa) = 66.07756 68.59696 67.33726
# Shear Modulus (GPa) = 51.28896 92.59398 71.94147
#
# Velocity S-wave (km/s) = 4.62873 6.21930 5.48201
# Velocity P-wave (km/s) = 7.49465 8.95702 8.25827
#
# Compressibility (1/GPa) = 0.01513373
#
# Stress axis : x y z
#
# Youngs Moduli (GPa) = 99.34936 120.72460 91.82391
#
# Poissons Ratio (x) = 0.19261 0.17505
# Poissons Ratio (y) = 0.15851 0.32606
# Poissons Ratio (z) = 0.18939 0.42868
#
# Static dielectric constant tensor:
#      x y z
#    x 3.759070 0.000000 0.000000 
#    y 0.000000 4.500470 0.000000 
#    z 0.000000 0.000000 4.508730 
# 
# 
# High freq. dielectric constant tensor:
#      x y z
#    x 1.962070 0.000000 0.000000 
#    y 0.000000 1.965140 0.000000 
#    z 0.000000 0.000000 1.957250 
# 
# From -- ./inp_files/6418.got.cif
#   From: 2010.03.12/outbox.cif.g09.slc.cpg/sg54_4_cif.got.tgz:6418.got - 2010.04.16 15:00:50.
