data_PCOD8224623
_publ_section_title
;
Structure prediction by ZEFSAII (Michael W. Deem and Ramdas Pophale) SiO2 
 PCOD8224623
Probable space group: P B A M
;
_chemical_formula_sum "Si O2"
_cell_formula_units_Z 64
_cell_length_a 16.756849
_cell_length_b 22.058814
_cell_length_c 8.852842
_cell_angle_alpha 90.000000
_cell_angle_beta 90.000000
_cell_angle_gamma 90.000000
_cell_volume 3272.331012
_symmetry_space_group_name_H-M "P B A M"
_symmetry_group_IT_number 55
_symmetry_cell_setting 'orthorhombic'
loop_
_space_group_symop_operation_xyz
x,y,z
-x,-y,z
1/2+x,1/2-y,-z
1/2-x,1/2+y,-z
-x,-y,-z
x,y,-z
1/2-x,1/2+y,z
1/2+x,1/2-y,z
loop_
_atom_site_type_symbol
_atom_site_label
_atom_site_fract_x
_atom_site_fract_y
_atom_site_fract_z
Si Si1 0.457417 0.193835 0.324363
Si Si2 0.912969 0.179041 0.180994
Si Si3 0.801399 0.973266 0.179505
Si Si4 0.782654 0.101215 0.326863
Si Si5 0.802206 0.790031 0.831914
Si Si6 0.934578 0.886308 0.831717
Si Si7 0.637190 0.177243 0.328724
Si Si8 0.307984 0.119907 0.325895
O O1 0.451397 0.212071 0.500000
O O2 0.433313 0.252530 0.228234
O O3 0.545230 0.169127 0.280520
O O4 0.399611 0.136794 0.288955
O O5 0.830634 0.157889 0.256313
O O6 0.980692 0.131413 0.243417
O O7 0.907472 0.176989 0.000000
O O8 0.880657 0.938909 0.247058
O O9 0.721366 0.938558 0.232484
O O10 0.802660 0.041595 0.233220
O O11 0.802822 0.969838 0.000000
O O12 0.808313 0.091743 0.500000
O O13 0.687549 0.114795 0.315647
O O14 0.886205 0.823932 0.832312
O O15 0.818275 0.722152 0.783167
O O16 0.742057 0.820488 0.715238
O O17 0.764167 0.790513 0.000000
O O18 0.952672 0.909233 0.000000
O O19 0.641469 0.202370 0.500000
O O20 0.295362 0.103896 0.500000
#
# Coordination Sequence:
#
# PCOD8224623 Si02
#       8
#     8   8   8   8   8   8   8   8
#     4  10  21  37  57  85 116 147 185 230 281 337
#     4  11  21  36  58  86 118 149 183 228 285 339
#     4  10  21  40  61  81 109 147 195 238 278 331
#     4  11  24  40  56  80 113 151 193 235 282 335
#     4  10  18  32  54  82 113 145 183 224 277 337
#     4   8  17  33  54  81 111 144 178 222 273 326
#     4  10  21  37  56  78 111 151 188 231 281 335
#     4  10  20  35  57  83 111 144 184 231 281 333
#
# _framework density 19.557922999999999
#
# number of rings (size 3 to 8) (size 9 to 14) (size 15 to 20)
#    0.000    2.000    1.250    3.375    0.000    5.500 
#    0.000    5.000    0.000    3.750    0.000    0.000 
#    0.000    0.000    0.000    0.000    0.000    0.000 
#
# Total GULP energy -793298.116867 kJ/mol
# GULP energy per Si atom -12395.283076 kJ/mol
# Density = 1.951341 g / cm^3
# Si number density = 19.557923 Si / 1000 Ang^3
#
#
#
# Elastic Constant Matrix: (Units=GPa)
#
#
# Indices 1 2 3 4 5 6 
#
# 1 110.7584 33.2220 30.5752 0.0000 0.0000 0.0000
# 2 33.2220 52.9368 26.3326 0.0000 0.0000 0.0000
# 3 30.5752 26.3326 70.8838 0.0000 0.0000 0.0000
# 4 0.0000 0.0000 0.0000 32.5038 0.0000 0.0000
# 5 0.0000 0.0000 0.0000 0.0000 21.2182 0.0000
# 6 0.0000 0.0000 0.0000 0.0000 0.0000 21.8263
#
#
#
# Elastic Compliance Matrix: (Units=1/GPa)
#
#
# Indices 1 2 3 4 5 6 
#
# 1 0.011562 -0.005858 -0.002811 0.000000 0.000000 0.000000
# 2 -0.005858 0.026140 -0.007184 0.000000 0.000000 0.000000
# 3 -0.002811 -0.007184 0.017989 0.000000 0.000000 0.000000
# 4 0.000000 0.000000 0.000000 0.030766 0.000000 0.000000
# 5 0.000000 0.000000 0.000000 0.000000 0.047129 0.000000
# 6 0.000000 0.000000 0.000000 0.000000 0.000000 0.045816
#
#
# Mechanical properties :
#
#
# Convention : Reuss Voigt Hill
#
# Bulk Modulus (GPa) = 41.69225 46.09318 43.89271
# Shear Modulus (GPa) = 22.82036 24.73960 23.77998
#
# Velocity S-wave (km/s) = 3.41956 3.56046 3.49072
# Velocity P-wave (km/s) = 6.07905 6.36562 6.22399
#
# Compressibility (1/GPa) = 0.02398527
#
# Stress axis : x y z
#
# Youngs Moduli (GPa) = 86.49314 38.25531 55.58965
#
# Poissons Ratio (x) = 0.22408 0.15626
# Poissons Ratio (y) = 0.50664 0.39937
# Poissons Ratio (z) = 0.24313 0.27483
#
# Static dielectric constant tensor:
#      x y z
#    x 3.856920 0.000000 0.000000 
#    y 0.000000 3.336270 0.000000 
#    z 0.000000 0.000000 3.526660 
# 
# 
# High freq. dielectric constant tensor:
#      x y z
#    x 1.769100 0.000000 0.000000 
#    y 0.000000 1.742730 0.000000 
#    z 0.000000 0.000000 1.755510 
# 
# From -- ./inp_files/7939.got.cif
#   From: 2010.03.12/outbox.cif.g09.slc.cpg/sg55_4_cif.got.tgz:7939.got - 2010.04.16 15:19:21.
