data_PCOD8224900
_publ_section_title
;
Structure prediction by ZEFSAII (Michael W. Deem and Ramdas Pophale) SiO2 
 PCOD8224900
Probable space group: P B A M
;
_chemical_formula_sum "Si O2"
_cell_formula_units_Z 52
_cell_length_a 17.093931
_cell_length_b 5.038482
_cell_length_c 33.455367
_cell_angle_alpha 90.000000
_cell_angle_beta 90.000000
_cell_angle_gamma 90.000000
_cell_volume 2881.425905
_symmetry_space_group_name_H-M "P B A M"
_symmetry_group_IT_number 55
_symmetry_cell_setting 'orthorhombic'
loop_
_space_group_symop_operation_xyz
x,y,z
-x,-y,z
1/2+x,1/2-y,-z
1/2-x,1/2+y,-z
-x,-y,-z
x,y,-z
1/2-x,1/2+y,z
1/2+x,1/2-y,z
loop_
_atom_site_type_symbol
_atom_site_label
_atom_site_fract_x
_atom_site_fract_y
_atom_site_fract_z
Si Si1 0.051558 0.758067 0.191730
Si Si2 0.697913 0.678411 0.417079
Si Si3 0.199410 0.685272 0.665301
Si Si4 0.696720 0.720958 0.248450
Si Si5 0.551256 0.741955 0.099916
Si Si6 0.198040 0.692713 0.500000
Si Si7 0.300460 0.289825 0.954400
O O1 0.131438 0.728930 0.215648
O O2 0.075344 0.807209 0.145804
O O3 0.000000 0.500000 0.197372
O O4 0.000000 0.000000 0.208431
O O5 0.726081 0.374509 0.417050
O O6 0.650410 0.743212 0.375551
O O7 0.650435 0.742705 0.458561
O O8 0.223906 0.377301 0.664291
O O9 0.156340 0.746618 0.707408
O O10 0.732703 0.429326 0.243089
O O11 0.500000 0.500000 0.083180
O O12 0.628811 0.775486 0.074514
O O13 0.500000 0.000000 0.094759
O O14 0.225904 0.388358 0.500000
O O15 0.269270 0.583852 0.945625
O O16 0.329598 0.260169 0.000000
#
# Coordination Sequence:
#
# PCOD8224900 Si02
#       7
#     8   8   8   8   8   4   8
#     4  10  21  36  51  71 100 128 155 195 242 278
#     4   8  12  18  27  41  64  94 126 162 203 249
#     4   8  14  23  35  53  77 102 134 177 217 255
#     4  10  19  31  49  71  91 119 159 193 227 279
#     4  10  21  36  54  75  99 130 165 196 232 281
#     4   8  12  16  24  38  58  90 128 156 192 252
#     4  10  21  36  54  78 106 132 160 198 240 276
#
# _framework density 18.046619
#
# number of rings (size 3 to 8) (size 9 to 14) (size 15 to 20)
#    0.000    2.769    0.000    1.846    0.000    1.846 
#    0.000    0.000    0.000    0.000    0.000    0.000 
#    0.000    0.000    0.000    1.385    0.000    5.385 
#
# Total GULP energy -644213.247833 kJ/mol
# GULP energy per Si atom -12388.716304 kJ/mol
# Density = 1.800554 g / cm^3
# Si number density = 18.046619 Si / 1000 Ang^3
#
#
#
# Elastic Constant Matrix: (Units=GPa)
#
#
# Indices 1 2 3 4 5 6 
#
# 1 44.7549 1.6358 50.8249 0.0000 0.0000 0.0000
# 2 1.6358 80.1467 13.0757 0.0000 0.0000 0.0000
# 3 50.8249 13.0757 121.6566 0.0000 0.0000 0.0000
# 4 0.0000 0.0000 0.0000 29.6236 0.0000 0.0000
# 5 0.0000 0.0000 0.0000 0.0000 -5.9867 0.0000
# 6 0.0000 0.0000 0.0000 0.0000 0.0000 12.1678
#
#
#
# Elastic Compliance Matrix: (Units=1/GPa)
#
#
# Indices 1 2 3 4 5 6 
#
# 1 0.042853 0.002083 -0.018127 0.000000 0.000000 0.000000
# 2 0.002083 0.012801 -0.002246 0.000000 0.000000 0.000000
# 3 -0.018127 -0.002246 0.016034 0.000000 0.000000 0.000000
# 4 0.000000 0.000000 0.000000 0.033757 0.000000 0.000000
# 5 0.000000 0.000000 0.000000 0.000000 -0.167037 0.000000
# 6 0.000000 0.000000 0.000000 0.000000 0.000000 0.082184
#
#
# Mechanical properties :
#
#
# Convention : Reuss Voigt Hill
#
# Bulk Modulus (GPa) = 28.48334 41.95896 35.22115
# Shear Modulus (GPa) = 72.59585 19.22907 45.91246
#
# Velocity S-wave (km/s) = 6.34934 3.26777 5.04938
# Velocity P-wave (km/s) = 8.34084 6.12687 7.31807
#
# Compressibility (1/GPa) = 0.03510825
#
# Stress axis : x y z
#
# Youngs Moduli (GPa) = 23.33561 78.11869 62.36712
#
# Poissons Ratio (x) = -0.16270 1.13051
# Poissons Ratio (y) = -0.04860 0.14007
# Poissons Ratio (z) = 0.42300 0.17545
#
# Static dielectric constant tensor:
#      x y z
#    x 2.585330 0.000000 0.000000 
#    y 0.000000 3.549730 0.000000 
#    z 0.000000 0.000000 3.965950 
# 
# 
# High freq. dielectric constant tensor:
#      x y z
#    x 1.608550 0.000000 0.000000 
#    y 0.000000 1.728690 0.000000 
#    z 0.000000 0.000000 1.729310 
# 
# From -- ./inp_files/24070.got.cif
#   From: 2010.03.12/outbox.cif.g09.slc.cpg/sg55_13_cif.got.tgz:24070.got - 2010.04.16 15:19:21.
