data_PCOD8224504
_publ_section_title
;
Structure prediction by ZEFSAII (Michael W. Deem and Ramdas Pophale) SiO2 
 PCOD8224504
Probable space group: P B A M
;
_chemical_formula_sum "Si O2"
_cell_formula_units_Z 64
_cell_length_a 33.275481
_cell_length_b 11.887710
_cell_length_c 9.134676
_cell_angle_alpha 90.000000
_cell_angle_beta 90.000000
_cell_angle_gamma 90.000000
_cell_volume 3613.397101
_symmetry_space_group_name_H-M "P B A M"
_symmetry_group_IT_number 55
_symmetry_cell_setting 'orthorhombic'
loop_
_space_group_symop_operation_xyz
x,y,z
-x,-y,z
1/2+x,1/2-y,-z
1/2-x,1/2+y,-z
-x,-y,-z
x,y,-z
1/2-x,1/2+y,z
1/2+x,1/2-y,z
loop_
_atom_site_type_symbol
_atom_site_label
_atom_site_fract_x
_atom_site_fract_y
_atom_site_fract_z
Si Si1 0.188715 0.363907 0.667758
Si Si2 0.267296 0.292922 0.170652
Si Si3 0.947715 0.890840 0.169309
Si Si4 0.631374 0.335221 0.668755
Si Si5 0.109064 0.781820 0.670412
Si Si6 0.321103 0.118377 0.330274
Si Si7 0.662773 0.541028 0.828510
Si Si8 0.463300 0.350096 0.168805
O O1 0.203434 0.363807 0.500000
O O2 0.223593 0.312225 0.765531
O O3 0.148734 0.290014 0.687397
O O4 0.178023 0.489374 0.720619
O O5 0.286911 0.182668 0.240867
O O6 0.294104 0.403227 0.203626
O O7 0.263617 0.268884 0.000000
O O8 0.913461 0.835047 0.267660
O O9 0.989849 0.829043 0.205084
O O10 0.951906 0.021871 0.206253
O O11 0.936242 0.874579 0.000000
O O12 0.630153 0.372207 0.500000
O O13 0.661335 0.418807 0.755055
O O14 0.108274 0.811785 0.500000
O O15 0.134796 0.669628 0.701746
O O16 0.127614 0.885682 0.758341
O O17 0.063748 0.766869 0.731363
O O18 0.310052 0.131301 0.500000
O O19 0.654026 0.530268 0.000000
O O20 0.454664 0.323207 0.000000
#
# Coordination Sequence:
#
# PCOD8224504 Si02
#       8
#     8   8   8   8   8   8   8   8
#     4  10  23  40  56  75 104 143 179 216 265 316
#     4  10  22  37  56  81 105 132 174 225 266 308
#     4   9  18  32  50  74 109 145 173 208 260 319
#     4  11  22  34  52  79 106 138 178 218 259 311
#     4  10  18  30  53  81 104 132 174 218 258 306
#     4   9  20  39  57  75 104 141 178 216 262 316
#     4  10  20  34  51  74 107 140 168 209 264 316
#     4   9  17  30  50  77 108 142 173 207 261 318
#
# _framework density 17.711865
#
# number of rings (size 3 to 8) (size 9 to 14) (size 15 to 20)
#    0.000    2.250    1.250    2.250    1.750    4.000 
#    0.000    1.250    0.000    0.750    0.000    5.250 
#    0.000    0.000    0.000    0.000    0.000    0.000 
#
# Total GULP energy -793675.237239 kJ/mol
# GULP energy per Si atom -12401.175582 kJ/mol
# Density = 1.767155 g / cm^3
# Si number density = 17.711865 Si / 1000 Ang^3
#
#
#
# Elastic Constant Matrix: (Units=GPa)
#
#
# Indices 1 2 3 4 5 6 
#
# 1 114.4040 47.0112 55.2137 0.0000 0.0000 0.0000
# 2 47.0112 103.2209 48.7094 0.0000 0.0000 0.0000
# 3 55.2137 48.7094 89.0316 0.0000 0.0000 0.0000
# 4 0.0000 0.0000 0.0000 12.4085 0.0000 0.0000
# 5 0.0000 0.0000 0.0000 0.0000 33.8873 0.0000
# 6 0.0000 0.0000 0.0000 0.0000 0.0000 20.1862
#
#
#
# Elastic Compliance Matrix: (Units=1/GPa)
#
#
# Indices 1 2 3 4 5 6 
#
# 1 0.013076 -0.002870 -0.006539 0.000000 0.000000 0.000000
# 2 -0.002870 0.013689 -0.005710 0.000000 0.000000 0.000000
# 3 -0.006539 -0.005710 0.018411 0.000000 0.000000 0.000000
# 4 0.000000 0.000000 0.000000 0.080590 0.000000 0.000000
# 5 0.000000 0.000000 0.000000 0.000000 0.029510 0.000000
# 6 0.000000 0.000000 0.000000 0.000000 0.000000 0.049539
#
#
# Mechanical properties :
#
#
# Convention : Reuss Voigt Hill
#
# Bulk Modulus (GPa) = 66.93798 67.61389 67.27594
# Shear Modulus (GPa) = 20.83053 23.67787 22.25420
#
# Velocity S-wave (km/s) = 3.43312 3.66024 3.54850
# Velocity P-wave (km/s) = 7.32051 7.49136 7.40643
#
# Compressibility (1/GPa) = 0.01493920
#
# Stress axis : x y z
#
# Youngs Moduli (GPa) = 76.47519 73.04949 54.31448
#
# Poissons Ratio (x) = 0.20962 0.35518
# Poissons Ratio (y) = 0.21945 0.31013
# Poissons Ratio (z) = 0.50010 0.41711
#
# Static dielectric constant tensor:
#      x y z
#    x 3.369130 0.000000 0.000000 
#    y 0.000000 3.145860 0.000000 
#    z 0.000000 0.000000 3.320860 
# 
# 
# High freq. dielectric constant tensor:
#      x y z
#    x 1.689150 0.000000 0.000000 
#    y 0.000000 1.657220 0.000000 
#    z 0.000000 0.000000 1.691950 
# 
# From -- ./inp_files/10802.got.cif
#   From: 2010.03.12/outbox.cif.g09.slc.cpg/sg55_6_cif.got.tgz:10802.got - 2010.04.16 15:19:21.
