data_PCOD8224576
_publ_section_title
;
Structure prediction by ZEFSAII (Michael W. Deem and Ramdas Pophale) SiO2 
 PCOD8224576
Probable space group: P B A M
;
_chemical_formula_sum "Si O2"
_cell_formula_units_Z 64
_cell_length_a 11.705163
_cell_length_b 33.357910
_cell_length_c 9.090469
_cell_angle_alpha 90.000000
_cell_angle_beta 90.000000
_cell_angle_gamma 90.000000
_cell_volume 3549.462470
_symmetry_space_group_name_H-M "P B A M"
_symmetry_group_IT_number 55
_symmetry_cell_setting 'orthorhombic'
loop_
_space_group_symop_operation_xyz
x,y,z
-x,-y,z
1/2+x,1/2-y,-z
1/2-x,1/2+y,-z
-x,-y,-z
x,y,-z
1/2-x,1/2+y,z
1/2+x,1/2-y,z
loop_
_atom_site_type_symbol
_atom_site_label
_atom_site_fract_x
_atom_site_fract_y
_atom_site_fract_z
Si Si1 0.255252 0.109375 0.330735
Si Si2 0.047814 0.168853 0.669415
Si Si3 0.898054 0.327526 0.828951
Si Si4 0.386345 0.449831 0.828869
Si Si5 0.632052 0.190484 0.327640
Si Si6 0.679879 0.626839 0.670571
Si Si7 0.189743 0.231518 0.170522
Si Si8 0.145447 0.039743 0.171921
O O1 0.291324 0.105496 0.500000
O O2 0.138559 0.133539 0.309856
O O3 0.357625 0.131130 0.244963
O O4 0.237109 0.065321 0.263208
O O5 0.040713 0.182847 0.500000
O O6 0.081591 0.206850 0.767979
O O7 0.926869 0.152914 0.729696
O O8 0.805152 0.293038 0.803319
O O9 0.011871 0.312480 0.752303
O O10 0.920239 0.335542 0.000000
O O11 0.312522 0.416132 0.748010
O O12 0.517561 0.449361 0.775026
O O13 0.330358 0.493026 0.795401
O O14 0.382374 0.440476 0.000000
O O15 0.613664 0.197798 0.500000
O O16 0.703196 0.150143 0.297662
O O17 0.702572 0.227423 0.260073
O O18 0.660012 0.618673 0.500000
O O19 0.167444 0.240688 0.000000
O O20 0.159315 0.049356 0.000000
#
# Coordination Sequence:
#
# PCOD8224576 Si02
#       8
#     8   8   8   8   8   8   8   8
#     4  10  18  31  55  82 108 142 180 220 270 322
#     4   9  18  33  52  78 109 140 175 216 266 323
#     4  10  22  40  58  79 108 141 182 228 269 319
#     4   9  18  31  50  77 113 150 182 220 267 322
#     4  11  24  39  57  79 107 144 181 222 272 323
#     4  10  21  36  53  79 111 145 181 221 270 323
#     4  10  22  38  57  81 105 135 178 227 271 315
#     4   9  17  30  49  79 114 147 181 219 268 321
#
# _framework density 18.030899999999999
#
# number of rings (size 3 to 8) (size 9 to 14) (size 15 to 20)
#    0.000    2.250    1.250    2.250    1.750    4.000 
#    0.000    1.250    0.000    0.750    0.000    5.250 
#    0.000    0.000    0.000    0.000    0.000    0.000 
#
# Total GULP energy -793795.272963 kJ/mol
# GULP energy per Si atom -12403.051140 kJ/mol
# Density = 1.798986 g / cm^3
# Si number density = 18.030900 Si / 1000 Ang^3
#
#
#
# Elastic Constant Matrix: (Units=GPa)
#
#
# Indices 1 2 3 4 5 6 
#
# 1 64.2825 34.6797 42.4322 0.0000 0.0000 0.0000
# 2 34.6797 120.5472 66.5277 0.0000 0.0000 0.0000
# 3 42.4322 66.5277 104.0147 0.0000 0.0000 0.0000
# 4 0.0000 0.0000 0.0000 36.6654 0.0000 0.0000
# 5 0.0000 0.0000 0.0000 0.0000 26.1313 0.0000
# 6 0.0000 0.0000 0.0000 0.0000 0.0000 21.3470
#
#
#
# Elastic Compliance Matrix: (Units=1/GPa)
#
#
# Indices 1 2 3 4 5 6 
#
# 1 0.021625 -0.002091 -0.007485 0.000000 0.000000 0.000000
# 2 -0.002091 0.013023 -0.007477 0.000000 0.000000 0.000000
# 3 -0.007485 -0.007477 0.017450 0.000000 0.000000 0.000000
# 4 0.000000 0.000000 0.000000 0.027274 0.000000 0.000000
# 5 0.000000 0.000000 0.000000 0.000000 0.038268 0.000000
# 6 0.000000 0.000000 0.000000 0.000000 0.000000 0.046845
#
#
# Mechanical properties :
#
#
# Convention : Reuss Voigt Hill
#
# Bulk Modulus (GPa) = 55.57550 64.01374 59.79462
# Shear Modulus (GPa) = 24.43958 26.50904 25.47431
#
# Velocity S-wave (km/s) = 3.68561 3.83848 3.76282
# Velocity P-wave (km/s) = 7.00006 7.43132 7.21891
#
# Compressibility (1/GPa) = 0.01799354
#
# Stress axis : x y z
#
# Youngs Moduli (GPa) = 46.24355 76.78578 57.30820
#
# Poissons Ratio (x) = 0.16052 0.42893
# Poissons Ratio (y) = 0.09667 0.42848
# Poissons Ratio (z) = 0.34611 0.57412
#
# Static dielectric constant tensor:
#      x y z
#    x 3.098520 0.000000 0.000000 
#    y 0.000000 3.318660 0.000000 
#    z 0.000000 0.000000 3.346890 
# 
# 
# High freq. dielectric constant tensor:
#      x y z
#    x 1.672800 0.000000 0.000000 
#    y 0.000000 1.699690 0.000000 
#    z 0.000000 0.000000 1.703940 
# 
# From -- ./inp_files/4670.got.cif
#   From: 2010.03.12/outbox.cif.g09.slc.cpg/sg55_3_cif.got.tgz:4670.got - 2010.04.16 15:19:21.
