data_PCOD8224812
_publ_section_title
;
Structure prediction by ZEFSAII (Michael W. Deem and Ramdas Pophale) SiO2 
 PCOD8224812
Probable space group: P B A M
;
_chemical_formula_sum "Si O2"
_cell_formula_units_Z 44
_cell_length_a 5.020688
_cell_length_b 18.110136
_cell_length_c 26.918555
_cell_angle_alpha 90.000000
_cell_angle_beta 90.000000
_cell_angle_gamma 90.000000
_cell_volume 2447.578833
_symmetry_space_group_name_H-M "P B A M"
_symmetry_group_IT_number 55
_symmetry_cell_setting 'orthorhombic'
loop_
_space_group_symop_operation_xyz
x,y,z
-x,-y,z
1/2+x,1/2-y,-z
1/2-x,1/2+y,-z
-x,-y,-z
x,y,-z
1/2-x,1/2+y,z
1/2+x,1/2-y,z
loop_
_atom_site_type_symbol
_atom_site_label
_atom_site_fract_x
_atom_site_fract_y
_atom_site_fract_z
Si Si1 0.921515 0.202036 0.556938
Si Si2 0.520221 0.085031 0.703988
Si Si3 0.979650 0.915257 0.639349
Si Si4 0.080536 0.702144 0.897640
Si Si5 0.987132 0.699421 0.209687
Si Si6 0.442966 0.799458 0.000000
O O1 0.948807 0.176247 0.500000
O O2 0.630518 0.233312 0.568959
O O3 0.972352 0.130982 0.590076
O O4 0.309452 0.103456 0.660942
O O5 0.462842 0.134758 0.751505
O O6 0.809294 0.103800 0.682303
O O7 0.500000 0.000000 0.720864
O O8 0.000000 0.000000 0.622942
O O9 0.389691 0.725088 0.898941
O O10 0.018354 0.661794 0.845254
O O11 0.008005 0.655820 0.948344
O O12 0.196280 0.765819 0.216857
O O13 0.138576 0.772569 0.000000
#
# Coordination Sequence:
#
# PCOD8224812 Si02
#       6
#     8   8   8   8   8   4
#     4  10  21  36  54  77 102 125 152 189 232 275
#     4  10  21  35  49  69  97 126 156 191 232 275
#     4  10  21  36  53  72  95 125 160 192 224 271
#     4   8  14  23  36  57  84 111 143 183 224 267
#     4  10  19  30  46  69  93 119 155 194 230 273
#     4   8  12  20  34  52  79 112 139 174 226 268
#
# _framework density 17.976949999999999
#
# number of rings (size 3 to 8) (size 9 to 14) (size 15 to 20)
#    0.000    2.545    0.000    2.182    0.000    4.727 
#    0.000    0.000    0.000    6.545    0.000    0.636 
#    0.000    0.000    0.000   48.909    0.000    1.818 
#
# Total GULP energy -545300.152826 kJ/mol
# GULP energy per Si atom -12393.185291 kJ/mol
# Density = 1.793603 g / cm^3
# Si number density = 17.976950 Si / 1000 Ang^3
#
#
#
# Elastic Constant Matrix: (Units=GPa)
#
#
# Indices 1 2 3 4 5 6 
#
# 1 65.5115 8.0602 4.5591 0.0000 0.0000 0.0000
# 2 8.0602 51.1481 63.1285 0.0000 0.0000 0.0000
# 3 4.5591 63.1285 129.0795 0.0000 0.0000 0.0000
# 4 0.0000 0.0000 0.0000 2.4119 0.0000 0.0000
# 5 0.0000 0.0000 0.0000 0.0000 15.3337 0.0000
# 6 0.0000 0.0000 0.0000 0.0000 0.0000 14.0535
#
#
#
# Elastic Compliance Matrix: (Units=1/GPa)
#
#
# Indices 1 2 3 4 5 6 
#
# 1 0.015705 -0.004516 0.001654 0.000000 0.000000 0.000000
# 2 -0.004516 0.050623 -0.024598 0.000000 0.000000 0.000000
# 3 0.001654 -0.024598 0.019719 0.000000 0.000000 0.000000
# 4 0.000000 0.000000 0.000000 0.414605 0.000000 0.000000
# 5 0.000000 0.000000 0.000000 0.000000 0.065216 0.000000
# 6 0.000000 0.000000 0.000000 0.000000 0.000000 0.071157
#
#
# Mechanical properties :
#
#
# Convention : Reuss Voigt Hill
#
# Bulk Modulus (GPa) = 32.12808 44.13718 38.13263
# Shear Modulus (GPa) = 7.11925 17.69258 12.40591
#
# Velocity S-wave (km/s) = 1.99219 3.14057 2.62983
# Velocity P-wave (km/s) = 4.81688 6.14462 5.52081
#
# Compressibility (1/GPa) = 0.03112542
#
# Stress axis : x y z
#
# Youngs Moduli (GPa) = 63.67378 19.75393 50.71249
#
# Poissons Ratio (x) = 0.08922 -0.08389
# Poissons Ratio (y) = 0.28758 1.24745
# Poissons Ratio (z) = -0.10533 0.48592
#
# Static dielectric constant tensor:
#      x y z
#    x 3.591480 0.000000 0.000000 
#    y 0.000000 2.781970 0.000000 
#    z 0.000000 0.000000 3.675520 
# 
# 
# High freq. dielectric constant tensor:
#      x y z
#    x 1.723450 0.000000 0.000000 
#    y 0.000000 1.626440 0.000000 
#    z 0.000000 0.000000 1.717980 
# 
# From -- ./inp_files/23297.got.cif
#   From: 2010.03.12/outbox.cif.g09.slc.cpg/sg55_12_cif.got.tgz:23297.got - 2010.04.16 15:19:21.
