data_PCOD8224562
_publ_section_title
;
Structure prediction by ZEFSAII (Michael W. Deem and Ramdas Pophale) SiO2 
 PCOD8224562
Probable space group: P B A M
;
_chemical_formula_sum "Si O2"
_cell_formula_units_Z 64
_cell_length_a 30.277239
_cell_length_b 10.983482
_cell_length_c 9.203500
_cell_angle_alpha 90.000000
_cell_angle_beta 90.000000
_cell_angle_gamma 90.000000
_cell_volume 3060.619411
_symmetry_space_group_name_H-M "P B A M"
_symmetry_group_IT_number 55
_symmetry_cell_setting 'orthorhombic'
loop_
_space_group_symop_operation_xyz
x,y,z
-x,-y,z
1/2+x,1/2-y,-z
1/2-x,1/2+y,-z
-x,-y,-z
x,y,-z
1/2-x,1/2+y,z
1/2+x,1/2-y,z
loop_
_atom_site_type_symbol
_atom_site_label
_atom_site_fract_x
_atom_site_fract_y
_atom_site_fract_z
Si Si1 0.363827 0.619021 0.170054
Si Si2 0.775290 0.755148 0.829867
Si Si3 0.364095 0.117647 0.329663
Si Si4 0.047646 0.511176 0.663943
Si Si5 0.623390 0.614410 0.669128
Si Si6 0.440338 0.741497 0.662535
Si Si7 0.217217 0.518192 0.173548
Si Si8 0.025134 0.883730 0.330346
O O1 0.326136 0.716653 0.209672
O O2 0.351098 0.490065 0.242683
O O3 0.410664 0.664521 0.228508
O O4 0.367292 0.597689 0.000000
O O5 0.764434 0.616386 0.775165
O O6 0.745966 0.867283 0.764556
O O7 0.767345 0.760057 0.000000
O O8 0.361811 0.081994 0.500000
O O9 0.351093 0.258576 0.305405
O O10 0.414963 0.100954 0.271450
O O11 0.331661 0.032344 0.238536
O O12 0.037282 0.555884 0.500000
O O13 0.072392 0.381726 0.668408
O O14 0.000000 0.500000 0.746814
O O15 0.623239 0.579626 0.500000
O O16 0.573876 0.629560 0.736186
O O17 0.432834 0.687785 0.500000
O O18 0.492755 0.730624 0.703086
O O19 0.214291 0.519374 0.000000
O O20 0.032599 0.900547 0.500000
O O21 0.000000 0.000000 0.263520
#
# Coordination Sequence:
#
# PCOD8224562 Si02
#       8
#     8   8   8   8   8   8   8   8
#     4  11  22  35  53  81 112 141 185 239 285 330
#     4   9  21  39  62  87 110 142 187 232 274 334
#     4  10  21  36  56  86 120 147 182 236 289 333
#     4   9  17  31  54  83 111 145 191 233 271 332
#     4  10  20  35  54  78 112 152 189 228 279 334
#     4  10  18  31  54  78 105 145 186 227 280 334
#     4  10  21  41  66  87 111 148 190 230 279 343
#     4   9  15  27  48  73 102 141 192 230 260 322
#
# _framework density 20.910799999999998
#
# number of rings (size 3 to 8) (size 9 to 14) (size 15 to 20)
#    0.000    2.250    1.250    1.875    1.750    3.500 
#    0.000    3.750    0.000    3.000    0.000    0.000 
#    0.000    0.000    0.000    0.000    0.000    0.000 
#
# Total GULP energy -792969.521424 kJ/mol
# GULP energy per Si atom -12390.148772 kJ/mol
# Density = 2.086321 g / cm^3
# Si number density = 20.910800 Si / 1000 Ang^3
#
#
#
# Elastic Constant Matrix: (Units=GPa)
#
#
# Indices 1 2 3 4 5 6 
#
# 1 77.4388 38.4150 23.6352 0.0000 0.0000 0.0000
# 2 38.4150 132.9846 28.2703 0.0000 0.0000 0.0000
# 3 23.6352 28.2703 41.3914 0.0000 0.0000 0.0000
# 4 0.0000 0.0000 0.0000 20.5727 0.0000 0.0000
# 5 0.0000 0.0000 0.0000 0.0000 22.7690 0.0000
# 6 0.0000 0.0000 0.0000 0.0000 0.0000 33.4192
#
#
#
# Elastic Compliance Matrix: (Units=1/GPa)
#
#
# Indices 1 2 3 4 5 6 
#
# 1 0.016784 -0.003289 -0.007338 0.000000 0.000000 0.000000
# 2 -0.003289 0.009441 -0.004571 0.000000 0.000000 0.000000
# 3 -0.007338 -0.004571 0.031472 0.000000 0.000000 0.000000
# 4 0.000000 0.000000 0.000000 0.048608 0.000000 0.000000
# 5 0.000000 0.000000 0.000000 0.000000 0.043919 0.000000
# 6 0.000000 0.000000 0.000000 0.000000 0.000000 0.029923
#
#
# Mechanical properties :
#
#
# Convention : Reuss Voigt Hill
#
# Bulk Modulus (GPa) = 36.62636 48.05066 42.33851
# Shear Modulus (GPa) = 22.76421 26.11846 24.44133
#
# Velocity S-wave (km/s) = 3.30302 3.53801 3.42254
# Velocity P-wave (km/s) = 5.66570 6.30229 5.99245
#
# Compressibility (1/GPa) = 0.02730274
#
# Stress axis : x y z
#
# Youngs Moduli (GPa) = 59.57897 105.91821 31.77472
#
# Poissons Ratio (x) = 0.34831 0.23317
# Poissons Ratio (y) = 0.19593 0.14523
# Poissons Ratio (z) = 0.43720 0.48411
#
# Static dielectric constant tensor:
#      x y z
#    x 3.787590 0.000000 0.000000 
#    y 0.000000 4.128350 0.000000 
#    z 0.000000 0.000000 3.172260 
# 
# 
# High freq. dielectric constant tensor:
#      x y z
#    x 1.818480 0.000000 0.000000 
#    y 0.000000 1.841340 0.000000 
#    z 0.000000 0.000000 1.749690 
# 
# From -- ./inp_files/10847.got.cif
#   From: 2010.03.12/outbox.cif.g09.slc.cpg/sg55_6_cif.got.tgz:10847.got - 2010.04.16 15:19:21.
