data_PCOD8224282
_publ_section_title
;
Structure prediction by ZEFSAII (Michael W. Deem and Ramdas Pophale) SiO2 
 PCOD8224282
Probable space group: P B A M
;
_chemical_formula_sum "Si O2"
_cell_formula_units_Z 64
_cell_length_a 20.227352
_cell_length_b 22.563342
_cell_length_c 8.749515
_cell_angle_alpha 90.000000
_cell_angle_beta 90.000000
_cell_angle_gamma 90.000000
_cell_volume 3993.249431
_symmetry_space_group_name_H-M "P B A M"
_symmetry_group_IT_number 55
_symmetry_cell_setting 'orthorhombic'
loop_
_space_group_symop_operation_xyz
x,y,z
-x,-y,z
1/2+x,1/2-y,-z
1/2-x,1/2+y,-z
-x,-y,-z
x,y,-z
1/2-x,1/2+y,z
1/2+x,1/2-y,z
loop_
_atom_site_type_symbol
_atom_site_label
_atom_site_fract_x
_atom_site_fract_y
_atom_site_fract_z
Si Si1 0.225764 0.159859 0.171276
Si Si2 0.762393 0.165962 0.820597
Si Si3 0.689622 0.933518 0.679230
Si Si4 0.649620 0.243294 0.678923
Si Si5 0.434503 0.144212 0.677495
Si Si6 0.811418 0.569183 0.318679
Si Si7 0.856412 0.261414 0.169478
Si Si8 0.427328 0.854188 0.819991
O O1 0.246623 0.097649 0.246090
O O2 0.164429 0.190256 0.260625
O O3 0.287484 0.203959 0.175639
O O4 0.201886 0.147476 0.000000
O O5 0.711270 0.201416 0.715440
O O6 0.753596 0.098360 0.762696
O O7 0.836292 0.192807 0.792100
O O8 0.743743 0.172094 0.000000
O O9 0.698131 0.926798 0.500000
O O10 0.621549 0.902069 0.730757
O O11 0.687102 0.001091 0.733124
O O12 0.635634 0.245972 0.500000
O O13 0.586478 0.213169 0.762107
O O14 0.451857 0.138959 0.500000
O O15 0.408625 0.211179 0.711916
O O16 0.498422 0.128285 0.775841
O O17 0.806055 0.575587 0.500000
O O18 0.878622 0.599457 0.261206
O O19 0.887671 0.265915 0.000000
O O20 0.417122 0.858349 0.000000
#
# Coordination Sequence:
#
# PCOD8224282 Si02
#       8
#     8   8   8   8   8   8   8   8
#     4   9  16  27  44  64  85 108 137 175 218 261
#     4   9  16  27  43  63  85 108 138 176 219 262
#     4   9  19  32  45  62  86 117 150 184 217 254
#     4  10  17  27  44  63  83 107 138 175 218 262
#     4  10  19  31  45  61  83 113 149 183 217 255
#     4  10  19  31  45  62  86 116 151 185 217 253
#     4   8  15  27  42  61  83 106 134 172 217 260
#     4  11  21  32  44  60  85 115 149 184 219 257
#
# _framework density 16.027048000000001
#
# number of rings (size 3 to 8) (size 9 to 14) (size 15 to 20)
#    0.000    2.500    0.000    6.000    0.000    5.500 
#    0.000    2.500    0.000    0.000    0.000    0.000 
#    0.000    1.000    0.000   10.500    0.000    6.250 
#
# Total GULP energy -793198.307653 kJ/mol
# GULP energy per Si atom -12393.723557 kJ/mol
# Density = 1.599057 g / cm^3
# Si number density = 16.027048 Si / 1000 Ang^3
#
#
#
# Elastic Constant Matrix: (Units=GPa)
#
#
# Indices 1 2 3 4 5 6 
#
# 1 23.3714 47.8091 15.4241 0.0000 0.0000 0.0000
# 2 47.8091 109.8556 35.9874 0.0000 0.0000 0.0000
# 3 15.4241 35.9874 62.1624 0.0000 0.0000 0.0000
# 4 0.0000 0.0000 0.0000 21.9601 0.0000 0.0000
# 5 0.0000 0.0000 0.0000 0.0000 23.6021 0.0000
# 6 0.0000 0.0000 0.0000 0.0000 0.0000 17.2964
#
#
#
# Elastic Compliance Matrix: (Units=1/GPa)
#
#
# Indices 1 2 3 4 5 6 
#
# 1 0.390051 -0.170353 0.001840 0.000000 0.000000 0.000000
# 2 -0.170353 0.085634 -0.007307 0.000000 0.000000 0.000000
# 3 0.001840 -0.007307 0.019860 0.000000 0.000000 0.000000
# 4 0.000000 0.000000 0.000000 0.045537 0.000000 0.000000
# 5 0.000000 0.000000 0.000000 0.000000 0.042369 0.000000
# 6 0.000000 0.000000 0.000000 0.000000 0.000000 0.057816
#
#
# Mechanical properties :
#
#
# Convention : Reuss Voigt Hill
#
# Bulk Modulus (GPa) = 6.94898 43.75897 25.35398
# Shear Modulus (GPa) = 4.80364 18.98296 11.89330
#
# Velocity S-wave (km/s) = 1.73312 3.44529 2.72706
# Velocity P-wave (km/s) = 2.88966 6.57185 5.07638
#
# Compressibility (1/GPa) = 0.14390599
#
# Stress axis : x y z
#
# Youngs Moduli (GPa) = 2.56376 11.67759 50.35134
#
# Poissons Ratio (x) = 1.98931 -0.09263
# Poissons Ratio (y) = 0.43675 0.36790
# Poissons Ratio (z) = -0.00472 0.08532
#
# Static dielectric constant tensor:
#      x y z
#    x 2.882860 0.000000 0.000000 
#    y 0.000000 3.277250 0.000000 
#    z 0.000000 0.000000 3.101320 
# 
# 
# High freq. dielectric constant tensor:
#      x y z
#    x 1.573780 0.000000 0.000000 
#    y 0.000000 1.599790 0.000000 
#    z 0.000000 0.000000 1.630760 
# 
# From -- ./inp_files/9137.got.cif
#   From: 2010.03.12/outbox.cif.g09.slc.cpg/sg55_5_cif.got.tgz:9137.got - 2010.04.16 15:19:21.
