data_PCOD8224946
_publ_section_title
;
Structure prediction by ZEFSAII (Michael W. Deem and Ramdas Pophale) SiO2 
 PCOD8224946
Probable space group: P B A M
;
_chemical_formula_sum "Si O2"
_cell_formula_units_Z 52
_cell_length_a 24.692194
_cell_length_b 5.074237
_cell_length_c 22.316103
_cell_angle_alpha 90.000000
_cell_angle_beta 90.000000
_cell_angle_gamma 90.000000
_cell_volume 2796.074800
_symmetry_space_group_name_H-M "P B A M"
_symmetry_group_IT_number 55
_symmetry_cell_setting 'orthorhombic'
loop_
_space_group_symop_operation_xyz
x,y,z
-x,-y,z
1/2+x,1/2-y,-z
1/2-x,1/2+y,-z
-x,-y,-z
x,y,-z
1/2-x,1/2+y,z
1/2+x,1/2-y,z
loop_
_atom_site_type_symbol
_atom_site_label
_atom_site_fract_x
_atom_site_fract_y
_atom_site_fract_z
Si Si1 0.213500 0.504230 0.294969
Si Si2 0.786295 0.562873 0.500000
Si Si3 0.876583 0.447701 0.069197
Si Si4 0.283338 0.043928 0.158527
Si Si5 0.058367 0.039132 0.069155
Si Si6 0.129189 0.477940 0.394991
Si Si7 0.436900 0.482885 0.429399
O O1 0.246332 0.241616 0.311380
O O2 0.194773 0.506628 0.225868
O O3 0.157210 0.521164 0.330855
O O4 0.736696 0.358530 0.500000
O O5 0.822293 0.518008 0.441997
O O6 0.827292 0.538269 0.109937
O O7 0.923682 0.661909 0.077620
O O8 0.898356 0.169700 0.095105
O O9 0.857272 0.433597 0.000000
O O10 0.266631 0.345943 0.148127
O O11 0.052801 0.957749 0.000000
O O12 0.000000 0.000000 0.100707
O O13 0.085338 0.701327 0.409165
O O14 0.096924 0.204136 0.394645
O O15 0.500000 0.500000 0.412074
O O16 0.428530 0.526353 0.500000
#
# Coordination Sequence:
#
# PCOD8224946 Si02
#       7
#     8   4   8   8   8   8   8
#     4  10  21  38  57  78 104 142 180 211 256 325
#     4  12  22  32  49  80 111 130 160 210 262 304
#     4  10  19  31  51  78 105 134 174 220 267 311
#     4  10  21  36  54  75 104 141 180 214 255 314
#     4   9  17  30  49  74 104 135 168 208 260 320
#     4  12  21  37  57  80 108 142 173 216 266 301
#     4  11  22  38  57  81 109 141 181 215 255 315
#
# _framework density 18.5975
#
# number of rings (size 3 to 8) (size 9 to 14) (size 15 to 20)
#    0.000    1.538    1.538    4.615    0.000    3.692 
#    0.000    0.000    0.000    5.538    0.000    0.000 
#    0.000    0.000    0.000    0.000    0.000    0.000 
#
# Total GULP energy -644945.751876 kJ/mol
# GULP energy per Si atom -12402.802921 kJ/mol
# Density = 1.855517 g / cm^3
# Si number density = 18.597500 Si / 1000 Ang^3
#
#
#
# Elastic Constant Matrix: (Units=GPa)
#
#
# Indices 1 2 3 4 5 6 
#
# 1 93.0046 13.4359 49.9428 0.0000 0.0000 0.0000
# 2 13.4359 83.5703 14.9607 0.0000 0.0000 0.0000
# 3 49.9428 14.9607 68.4174 0.0000 0.0000 0.0000
# 4 0.0000 0.0000 0.0000 17.4683 0.0000 0.0000
# 5 0.0000 0.0000 0.0000 0.0000 17.7122 0.0000
# 6 0.0000 0.0000 0.0000 0.0000 0.0000 33.2358
#
#
#
# Elastic Compliance Matrix: (Units=1/GPa)
#
#
# Indices 1 2 3 4 5 6 
#
# 1 0.017709 -0.000555 -0.012806 0.000000 0.000000 0.000000
# 2 -0.000555 0.012471 -0.002322 0.000000 0.000000 0.000000
# 3 -0.012806 -0.002322 0.024472 0.000000 0.000000 0.000000
# 4 0.000000 0.000000 0.000000 0.057246 0.000000 0.000000
# 5 0.000000 0.000000 0.000000 0.000000 0.056458 0.000000
# 6 0.000000 0.000000 0.000000 0.000000 0.000000 0.030088
#
#
# Mechanical properties :
#
#
# Convention : Reuss Voigt Hill
#
# Bulk Modulus (GPa) = 42.94322 44.63011 43.78666
# Shear Modulus (GPa) = 21.04632 24.79345 22.91988
#
# Velocity S-wave (km/s) = 3.36769 3.65521 3.51439
# Velocity P-wave (km/s) = 6.18569 6.47024 6.32957
#
# Compressibility (1/GPa) = 0.02328656
#
# Stress axis : x y z
#
# Youngs Moduli (GPa) = 56.46901 80.18706 40.86350
#
# Poissons Ratio (x) = 0.04448 0.52328
# Poissons Ratio (y) = 0.03132 0.09489
# Poissons Ratio (z) = 0.72312 0.18620
#
# Static dielectric constant tensor:
#      x y z
#    x 3.366970 0.000000 0.000000 
#    y 0.000000 3.563760 0.000000 
#    z 0.000000 0.000000 3.282670 
# 
# 
# High freq. dielectric constant tensor:
#      x y z
#    x 1.720700 0.000000 0.000000 
#    y 0.000000 1.744270 0.000000 
#    z 0.000000 0.000000 1.693030 
# 
# From -- ./inp_files/23127.got.cif
#   From: 2010.03.12/outbox.cif.g09.slc.cpg/sg55_12_cif.got.tgz:23127.got - 2010.04.16 15:19:21.
