data_PCOD8224976
_publ_section_title
;
Structure prediction by ZEFSAII (Michael W. Deem and Ramdas Pophale) SiO2 
 PCOD8224976
Probable space group: P B A M
;
_chemical_formula_sum "Si O2"
_cell_formula_units_Z 64
_cell_length_a 11.920645
_cell_length_b 13.202243
_cell_length_c 17.932220
_cell_angle_alpha 90.000000
_cell_angle_beta 90.000000
_cell_angle_gamma 90.000000
_cell_volume 2822.159370
_symmetry_space_group_name_H-M "P B A M"
_symmetry_group_IT_number 55
_symmetry_cell_setting 'orthorhombic'
loop_
_space_group_symop_operation_xyz
x,y,z
-x,-y,z
1/2+x,1/2-y,-z
1/2-x,1/2+y,-z
-x,-y,-z
x,y,-z
1/2-x,1/2+y,z
1/2+x,1/2-y,z
loop_
_atom_site_type_symbol
_atom_site_label
_atom_site_fract_x
_atom_site_fract_y
_atom_site_fract_z
Si Si1 0.804089 0.893745 0.704151
Si Si2 0.208703 0.649075 0.084632
Si Si3 0.123851 0.958573 0.416948
Si Si4 0.326712 0.387635 0.913806
Si Si5 0.684897 0.046675 0.208731
Si Si6 0.941004 0.869535 0.844691
Si Si7 0.973013 0.332287 0.803895
Si Si8 0.675835 0.702501 0.301588
O O1 0.914350 0.899757 0.757928
O O2 0.779411 0.778085 0.681191
O O3 0.808383 0.958043 0.629104
O O4 0.697557 0.936246 0.752247
O O5 0.200341 0.769616 0.099133
O O6 0.332951 0.606323 0.103716
O O7 0.114272 0.605508 0.142113
O O8 0.178894 0.621253 0.000000
O O9 0.175219 0.947879 0.500000
O O10 0.130101 0.848824 0.377276
O O11 0.000000 0.000000 0.421962
O O12 0.222908 0.452463 0.878759
O O13 0.443929 0.422782 0.873472
O O14 0.335085 0.415577 0.000000
O O15 0.560208 0.084467 0.225870
O O16 0.781579 0.117089 0.245240
O O17 0.957853 0.748485 0.853572
O O18 0.922637 0.266967 0.736063
#
# Coordination Sequence:
#
# PCOD8224976 Si02
#       8
#     8   8   8   8   8   8   8   8
#     4  11  23  38  66  93 126 169 209 258 320 388
#     4  10  19  31  54  83 116 165 218 271 332 379
#     4  10  24  43  69 106 135 163 207 260 323 388
#     4  10  20  33  53  84 121 166 218 280 339 378
#     4  11  22  36  58  91 121 163 223 270 317 387
#     4  11  18  36  55  86 118 162 219 271 320 382
#     4  11  18  35  59  83 121 157 217 265 318 381
#     4  11  21  41  64  94 126 171 211 259 319 385
#
# _framework density 22.677671
#
# number of rings (size 3 to 8) (size 9 to 14) (size 15 to 20)
#    0.000    1.375    6.250    1.125    1.750    2.000 
#    0.000    1.875    0.000    0.750    0.000    2.625 
#    0.000    0.000    0.000    0.000    0.000    0.000 
#
# Total GULP energy -793587.834561 kJ/mol
# GULP energy per Si atom -12399.809915 kJ/mol
# Density = 2.262606 g / cm^3
# Si number density = 22.677671 Si / 1000 Ang^3
#
#
#
# Elastic Constant Matrix: (Units=GPa)
#
#
# Indices 1 2 3 4 5 6 
#
# 1 94.2701 29.7718 55.2228 0.0000 0.0000 0.0000
# 2 29.7718 70.3246 38.7904 0.0000 0.0000 0.0000
# 3 55.2228 38.7904 168.4629 0.0000 0.0000 0.0000
# 4 0.0000 0.0000 0.0000 75.0904 0.0000 0.0000
# 5 0.0000 0.0000 0.0000 0.0000 19.6672 0.0000
# 6 0.0000 0.0000 0.0000 0.0000 0.0000 50.5269
#
#
#
# Elastic Compliance Matrix: (Units=1/GPa)
#
#
# Indices 1 2 3 4 5 6 
#
# 1 0.014000 -0.003889 -0.003694 0.000000 0.000000 0.000000
# 2 -0.003889 0.017369 -0.002724 0.000000 0.000000 0.000000
# 3 -0.003694 -0.002724 0.007774 0.000000 0.000000 0.000000
# 4 0.000000 0.000000 0.000000 0.013317 0.000000 0.000000
# 5 0.000000 0.000000 0.000000 0.000000 0.050846 0.000000
# 6 0.000000 0.000000 0.000000 0.000000 0.000000 0.019791
#
#
# Mechanical properties :
#
#
# Convention : Reuss Voigt Hill
#
# Bulk Modulus (GPa) = 53.97210 64.51419 59.24315
# Shear Modulus (GPa) = 33.35802 43.00841 38.18322
#
# Velocity S-wave (km/s) = 3.83947 4.35962 4.10779
# Velocity P-wave (km/s) = 6.59596 7.33838 6.97705
#
# Compressibility (1/GPa) = 0.01852809
#
# Stress axis : x y z
#
# Youngs Moduli (GPa) = 71.42926 57.57337 128.63155
#
# Poissons Ratio (x) = 0.22393 0.47512
# Poissons Ratio (y) = 0.27782 0.35045
# Poissons Ratio (z) = 0.26383 0.15686
#
# Static dielectric constant tensor:
#      x y z
#    x 4.180200 0.000000 0.000000 
#    y 0.000000 4.569120 0.000000 
#    z 0.000000 0.000000 4.124380 
# 
# 
# High freq. dielectric constant tensor:
#      x y z
#    x 1.895220 0.000000 0.000000 
#    y 0.000000 1.931820 0.000000 
#    z 0.000000 0.000000 1.859090 
# 
# From -- ./inp_files/21348.got.cif
#   From: 2010.03.12/outbox.cif.g09.slc.cpg/sg55_11_cif.got.tgz:21348.got - 2010.04.16 15:19:21.
