data_PCOD8224670
_publ_section_title
;
Structure prediction by ZEFSAII (Michael W. Deem and Ramdas Pophale) SiO2 
 PCOD8224670
Probable space group: P B A M
;
_chemical_formula_sum "Si O2"
_cell_formula_units_Z 64
_cell_length_a 28.233250
_cell_length_b 12.891701
_cell_length_c 8.368925
_cell_angle_alpha 90.000000
_cell_angle_beta 90.000000
_cell_angle_gamma 90.000000
_cell_volume 3046.076274
_symmetry_space_group_name_H-M "P B A M"
_symmetry_group_IT_number 55
_symmetry_cell_setting 'orthorhombic'
loop_
_space_group_symop_operation_xyz
x,y,z
-x,-y,z
1/2+x,1/2-y,-z
1/2-x,1/2+y,-z
-x,-y,-z
x,y,-z
1/2-x,1/2+y,z
1/2+x,1/2-y,z
loop_
_atom_site_type_symbol
_atom_site_label
_atom_site_fract_x
_atom_site_fract_y
_atom_site_fract_z
Si Si1 0.970860 0.093942 0.187012
Si Si2 0.701714 0.178689 0.813229
Si Si3 0.865153 0.090340 0.191056
Si Si4 0.345488 0.027527 0.311105
Si Si5 0.046853 0.251937 0.182535
Si Si6 0.360231 0.638391 0.815402
Si Si7 0.201347 0.740718 0.684617
Si Si8 0.551320 0.030667 0.316282
O O1 0.918462 0.100540 0.254554
O O2 0.995701 0.204236 0.221441
O O3 0.967715 0.070535 0.000000
O O4 0.000000 0.000000 0.268983
O O5 0.670149 0.270301 0.733467
O O6 0.755392 0.213637 0.785975
O O7 0.687268 0.070170 0.733705
O O8 0.692108 0.164429 0.000000
O O9 0.839269 0.175359 0.294958
O O10 0.846772 0.976325 0.245739
O O11 0.859749 0.107660 0.000000
O O12 0.349691 0.032474 0.500000
O O13 0.318569 0.130783 0.247540
O O14 0.400117 0.020280 0.241962
O O15 0.084284 0.159622 0.212426
O O16 0.057517 0.346301 0.299694
O O17 0.050203 0.292134 0.000000
O O18 0.347186 0.641365 0.000000
O O19 0.216038 0.729981 0.500000
O O20 0.548704 0.998261 0.500000
O O21 0.500000 0.000000 0.234998
#
# Coordination Sequence:
#
# PCOD8224670 Si02
#       8
#     8   8   8   8   8   8   8   8
#     4   9  16  29  54  85 120 156 189 231 287 347
#     4  11  23  41  66  92 116 149 197 254 306 357
#     4  10  20  37  60  89 122 159 201 243 294 356
#     4  10  23  44  64  87 123 163 203 248 300 361
#     4  10  18  33  56  86 117 151 195 243 293 346
#     4   9  18  34  59  89 119 147 187 245 300 349
#     4  11  26  44  61  86 121 160 198 245 305 363
#     4  10  22  39  59  83 117 163 204 242 294 353
#
# _framework density 21.010636999999999
#
# number of rings (size 3 to 8) (size 9 to 14) (size 15 to 20)
#    0.000    2.000    2.500    0.750    3.500    1.250 
#    0.000    1.250    0.000    0.750    0.000    0.000 
#    0.000    0.000    0.000    0.000    0.000    0.000 
#
# Total GULP energy -793168.279481 kJ/mol
# GULP energy per Si atom -12393.254367 kJ/mol
# Density = 2.096282 g / cm^3
# Si number density = 21.010637 Si / 1000 Ang^3
#
#
#
# Elastic Constant Matrix: (Units=GPa)
#
#
# Indices 1 2 3 4 5 6 
#
# 1 128.7930 62.5095 3.7081 0.0000 0.0000 0.0000
# 2 62.5095 150.3061 7.9326 0.0000 0.0000 0.0000
# 3 3.7081 7.9326 16.1506 0.0000 0.0000 0.0000
# 4 0.0000 0.0000 0.0000 25.5028 0.0000 0.0000
# 5 0.0000 0.0000 0.0000 0.0000 13.6828 0.0000
# 6 0.0000 0.0000 0.0000 0.0000 0.0000 28.1378
#
#
#
# Elastic Compliance Matrix: (Units=1/GPa)
#
#
# Indices 1 2 3 4 5 6 
#
# 1 0.009729 -0.004033 -0.000253 0.000000 0.000000 0.000000
# 2 -0.004033 0.008502 -0.003250 0.000000 0.000000 0.000000
# 3 -0.000253 -0.003250 0.063572 0.000000 0.000000 0.000000
# 4 0.000000 0.000000 0.000000 0.039211 0.000000 0.000000
# 5 0.000000 0.000000 0.000000 0.000000 0.073084 0.000000
# 6 0.000000 0.000000 0.000000 0.000000 0.000000 0.035539
#
#
# Mechanical properties :
#
#
# Convention : Reuss Voigt Hill
#
# Bulk Modulus (GPa) = 14.98552 49.28334 32.13443
# Shear Modulus (GPa) = 18.72995 28.20465 23.46730
#
# Velocity S-wave (km/s) = 2.98896 3.66785 3.34567
# Velocity P-wave (km/s) = 4.36574 6.43776 5.50020
#
# Compressibility (1/GPa) = 0.06673108
#
# Stress axis : x y z
#
# Youngs Moduli (GPa) = 102.78581 117.62290 15.73030
#
# Poissons Ratio (x) = 0.47434 0.00398
# Poissons Ratio (y) = 0.41451 0.05112
# Poissons Ratio (z) = 0.02601 0.38226
#
# Static dielectric constant tensor:
#      x y z
#    x 4.123940 0.000000 0.000000 
#    y 0.000000 3.934130 0.000000 
#    z 0.000000 0.000000 3.290390 
# 
# 
# High freq. dielectric constant tensor:
#      x y z
#    x 1.836100 0.000000 0.000000 
#    y 0.000000 1.832120 0.000000 
#    z 0.000000 0.000000 1.776180 
# 
# From -- ./inp_files/10823.got.cif
#   From: 2010.03.12/outbox.cif.g09.slc.cpg/sg55_6_cif.got.tgz:10823.got - 2010.04.16 15:19:21.
