data_PCOD8224200
_publ_section_title
;
Structure prediction by ZEFSAII (Michael W. Deem and Ramdas Pophale) SiO2 
 PCOD8224200
Probable space group: P C C A
;
_chemical_formula_sum "Si O2"
_cell_formula_units_Z 48
_cell_length_a 19.111791
_cell_length_b 12.891940
_cell_length_c 8.282503
_cell_angle_alpha 90.000000
_cell_angle_beta 90.000000
_cell_angle_gamma 90.000000
_cell_volume 2040.709870
_symmetry_space_group_name_H-M "P C C A"
_symmetry_group_IT_number 54
_symmetry_cell_setting 'orthorhombic'
loop_
_space_group_symop_operation_xyz
x,y,z
1/2-x,-y,z
1/2+x,-y,1/2-z
-x,y,1/2-z
-x,-y,-z
1/2+x,y,-z
1/2-x,y,1/2+z
x,-y,1/2+z
loop_
_atom_site_type_symbol
_atom_site_label
_atom_site_fract_x
_atom_site_fract_y
_atom_site_fract_z
Si Si1 0.144215 0.599630 0.537353
Si Si2 0.362482 0.375296 0.917737
Si Si3 0.298204 0.906449 0.138053
Si Si4 0.992116 0.692370 0.060402
Si Si5 0.960056 0.092809 0.411108
Si Si6 0.254022 0.237362 0.396539
O O1 0.154223 0.620665 0.726630
O O2 0.163290 0.481391 0.499036
O O3 0.062588 0.607616 0.498363
O O4 0.183508 0.678344 0.412827
O O5 0.311477 0.287789 0.992286
O O6 0.439277 0.336661 0.960142
O O7 0.380486 0.936284 0.140812
O O8 0.277630 0.796245 0.222325
O O9 0.250000 0.000000 0.199564
O O10 0.277899 0.876527 0.955994
O O11 0.000000 0.680237 0.250000
O O12 0.962899 0.807449 0.025708
O O13 0.000000 0.122794 0.250000
O O14 0.000000 0.000000 0.500000
#
# Coordination Sequence:
#
# PCOD8224200 Si02
#       6
#     8   8   8   8   8   8
#     4  12  26  48  72 111 149 201 255 317 389 469
#     4  12  27  45  77 108 153 202 254 318 389 465
#     4  12  29  48  78 112 152 201 254 319 387 465
#     4  12  26  47  75 107 152 198 258 323 387 461
#     4  12  28  50  78 112 155 207 267 322 391 466
#     4  12  26  48  75 106 154 194 250 313 384 463
#
# _framework density 23.521225999999999
#
# number of rings (size 3 to 8) (size 9 to 14) (size 15 to 20)
#    0.000    0.000    3.333    5.500   11.667    1.333 
#    0.000    0.000    0.000    0.000    0.000    0.000 
#    0.000    0.000    0.000    0.000    0.000    0.000 
#
# Total GULP energy -594839.438348 kJ/mol
# GULP energy per Si atom -12392.488299 kJ/mol
# Density = 2.346769 g / cm^3
# Si number density = 23.521226 Si / 1000 Ang^3
#
#
#
# Elastic Constant Matrix: (Units=GPa)
#
#
# Indices 1 2 3 4 5 6 
#
# 1 174.8741 48.2800 27.4561 0.0000 0.0000 0.0000
# 2 48.2800 117.1920 21.8314 0.0000 0.0000 0.0000
# 3 27.4561 21.8314 71.6724 0.0000 0.0000 0.0000
# 4 0.0000 0.0000 0.0000 62.9542 0.0000 0.0000
# 5 0.0000 0.0000 0.0000 0.0000 34.3753 0.0000
# 6 0.0000 0.0000 0.0000 0.0000 0.0000 49.7497
#
#
#
# Elastic Compliance Matrix: (Units=1/GPa)
#
#
# Indices 1 2 3 4 5 6 
#
# 1 0.006669 -0.002408 -0.001821 0.000000 0.000000 0.000000
# 2 -0.002408 0.009916 -0.002098 0.000000 0.000000 0.000000
# 3 -0.001821 -0.002098 0.015289 0.000000 0.000000 0.000000
# 4 0.000000 0.000000 0.000000 0.015885 0.000000 0.000000
# 5 0.000000 0.000000 0.000000 0.000000 0.029091 0.000000
# 6 0.000000 0.000000 0.000000 0.000000 0.000000 0.020101
#
#
# Mechanical properties :
#
#
# Convention : Reuss Voigt Hill
#
# Bulk Modulus (GPa) = 52.03055 62.09704 57.06379
# Shear Modulus (GPa) = 43.09922 47.16057 45.12990
#
# Velocity S-wave (km/s) = 4.28524 4.48260 4.38504
# Velocity P-wave (km/s) = 6.83031 7.29722 7.06762
#
# Compressibility (1/GPa) = 0.01921948
#
# Stress axis : x y z
#
# Youngs Moduli (GPa) = 149.94229 100.84758 65.40618
#
# Poissons Ratio (x) = 0.24287 0.11912
# Poissons Ratio (y) = 0.36110 0.13721
# Poissons Ratio (z) = 0.27309 0.21156
#
# Static dielectric constant tensor:
#      x y z
#    x 4.500360 0.000000 0.000000 
#    y 0.000000 4.231460 0.000000 
#    z 0.000000 0.000000 4.369560 
# 
# 
# High freq. dielectric constant tensor:
#      x y z
#    x 1.947130 0.000000 0.000000 
#    y 0.000000 1.946880 0.000000 
#    z 0.000000 0.000000 1.934640 
# 
# From -- ./inp_files/4163.got.cif
#   From: 2010.03.12/outbox.cif.g09.slc.cpg/sg54_3_cif.got.tgz:4163.got - 2010.04.16 15:00:50.
