data_PCOD8224864
_publ_section_title
;
Structure prediction by ZEFSAII (Michael W. Deem and Ramdas Pophale) SiO2 
 PCOD8224864
Probable space group: P B A M
;
_chemical_formula_sum "Si O2"
_cell_formula_units_Z 64
_cell_length_a 29.619848
_cell_length_b 10.015209
_cell_length_c 13.617035
_cell_angle_alpha 90.000000
_cell_angle_beta 90.000000
_cell_angle_gamma 90.000000
_cell_volume 4039.479384
_symmetry_space_group_name_H-M "P B A M"
_symmetry_group_IT_number 55
_symmetry_cell_setting 'orthorhombic'
loop_
_space_group_symop_operation_xyz
x,y,z
-x,-y,z
1/2+x,1/2-y,-z
1/2-x,1/2+y,-z
-x,-y,-z
x,y,-z
1/2-x,1/2+y,z
1/2+x,1/2-y,z
loop_
_atom_site_type_symbol
_atom_site_label
_atom_site_fract_x
_atom_site_fract_y
_atom_site_fract_z
Si Si1 0.372851 0.654081 0.884483
Si Si2 0.628742 0.657156 0.115795
Si Si3 0.693988 0.011981 0.389205
Si Si4 0.550881 0.852544 0.883483
Si Si5 0.549714 0.150922 0.883418
Si Si6 0.696870 0.762374 0.268017
Si Si7 0.697180 0.269910 0.734467
Si Si8 0.800159 0.011981 0.392731
O O1 0.377714 0.498146 0.856442
O O2 0.416651 0.734243 0.844467
O O3 0.329204 0.725690 0.837271
O O4 0.366802 0.671737 0.000000
O O5 0.585433 0.739986 0.154965
O O6 0.672358 0.720924 0.167745
O O7 0.636233 0.675191 0.000000
O O8 0.672632 0.007776 0.500000
O O9 0.682225 0.149054 0.335153
O O10 0.746943 0.991763 0.400765
O O11 0.676453 0.896758 0.315682
O O12 0.500716 0.818395 0.843314
O O13 0.565073 0.002176 0.848438
O O14 0.550203 0.848945 0.000000
O O15 0.548964 0.154137 0.000000
O O16 0.749763 0.771028 0.241487
O O17 0.687349 0.655588 0.352144
O O18 0.679853 0.400183 0.677691
O O19 0.822234 0.998041 0.500000
#
# Coordination Sequence:
#
# PCOD8224864 Si02
#       8
#     8   8   8   8   8   8   8   8
#     4  10  20  32  45  65  96 130 161 190 220 264
#     4  10  20  32  45  65  96 130 161 190 220 264
#     4   9  18  30  47  69  88 113 153 201 243 276
#     4   8  15  29  48  68  89 115 150 192 235 273
#     4   8  15  29  48  68  89 115 150 192 235 273
#     4  10  19  31  46  66  94 126 158 192 229 273
#     4  10  19  31  46  66  94 126 158 192 229 273
#     4   9  16  30  49  65  86 117 153 195 245 282
#
# _framework density 15.843624999999999
#
# number of rings (size 3 to 8) (size 9 to 14) (size 15 to 20)
#    0.000    2.750    1.250    1.500    1.750    4.000 
#    0.000    2.500    0.000    0.000    0.000    0.000 
#    0.000    6.000    0.000    0.000    0.000    0.000 
#
# Total GULP energy -793162.875239 kJ/mol
# GULP energy per Si atom -12393.169926 kJ/mol
# Density = 1.580756 g / cm^3
# Si number density = 15.843625 Si / 1000 Ang^3
#
#
#
# Elastic Constant Matrix: (Units=GPa)
#
#
# Indices 1 2 3 4 5 6 
#
# 1 76.3121 54.5621 38.9316 0.0000 0.0000 0.0000
# 2 54.5621 95.3682 29.4281 0.0000 0.0000 0.0000
# 3 38.9316 29.4281 52.7328 0.0000 0.0000 0.0000
# 4 0.0000 0.0000 0.0000 -3.1636 0.0000 0.0000
# 5 0.0000 0.0000 0.0000 0.0000 3.2230 0.0000
# 6 0.0000 0.0000 0.0000 0.0000 0.0000 22.9964
#
#
#
# Elastic Compliance Matrix: (Units=1/GPa)
#
#
# Indices 1 2 3 4 5 6 
#
# 1 0.029488 -0.012265 -0.014926 0.000000 0.000000 0.000000
# 2 -0.012265 0.017768 -0.000861 0.000000 0.000000 0.000000
# 3 -0.014926 -0.000861 0.030463 0.000000 0.000000 0.000000
# 4 0.000000 0.000000 0.000000 -0.316093 0.000000 0.000000
# 5 0.000000 0.000000 0.000000 0.000000 0.310272 0.000000
# 6 0.000000 0.000000 0.000000 0.000000 0.000000 0.043485
#
#
# Mechanical properties :
#
#
# Convention : Reuss Voigt Hill
#
# Bulk Modulus (GPa) = 46.26099 52.25074 49.25587
# Shear Modulus (GPa) = 27.98101 11.37723 19.67912
#
# Velocity S-wave (km/s) = 4.20703 2.68264 3.52815
# Velocity P-wave (km/s) = 7.27053 6.53039 6.91038
#
# Compressibility (1/GPa) = 0.02161648
#
# Stress axis : x y z
#
# Youngs Moduli (GPa) = 33.91218 56.27998 32.82627
#
# Poissons Ratio (x) = 0.69027 0.48996
# Poissons Ratio (y) = 0.41593 0.02826
# Poissons Ratio (z) = 0.50617 0.04845
#
# Static dielectric constant tensor:
#      x y z
#    x 2.927290 0.000000 0.000000 
#    y 0.000000 3.292380 0.000000 
#    z 0.000000 0.000000 2.835710 
# 
# 
# High freq. dielectric constant tensor:
#      x y z
#    x 1.575670 0.000000 0.000000 
#    y 0.000000 1.627950 0.000000 
#    z 0.000000 0.000000 1.581660 
# 
# From -- ./inp_files/20219.got.cif
#   From: 2010.03.12/outbox.cif.g09.slc.cpg/sg55_11_cif.got.tgz:20219.got - 2010.04.16 15:19:21.
