data_PCOD8224074
_publ_section_title
;
Structure prediction by ZEFSAII (Michael W. Deem and Ramdas Pophale) SiO2 
 PCOD8224074
Probable space group: P C C A
;
_chemical_formula_sum "Si O2"
_cell_formula_units_Z 64
_cell_length_a 29.607695
_cell_length_b 11.636603
_cell_length_c 8.489052
_cell_angle_alpha 90.000000
_cell_angle_beta 90.000000
_cell_angle_gamma 90.000000
_cell_volume 2924.758489
_symmetry_space_group_name_H-M "P C C A"
_symmetry_group_IT_number 54
_symmetry_cell_setting 'orthorhombic'
loop_
_space_group_symop_operation_xyz
x,y,z
1/2-x,-y,z
1/2+x,-y,1/2-z
-x,y,1/2-z
-x,-y,-z
1/2+x,y,-z
1/2-x,y,1/2+z
x,-y,1/2+z
loop_
_atom_site_type_symbol
_atom_site_label
_atom_site_fract_x
_atom_site_fract_y
_atom_site_fract_z
Si Si1 0.875849 0.086341 0.293778
Si Si2 0.548100 0.294441 0.323172
Si Si3 0.950047 0.243445 0.186964
Si Si4 0.208827 0.297283 0.939786
Si Si5 0.092954 0.477973 0.218325
Si Si6 0.873829 0.155628 0.654636
Si Si7 0.841263 0.513532 0.540492
Si Si8 0.195540 0.262791 0.305381
O O1 0.923099 0.126998 0.221169
O O2 0.879499 0.112223 0.477702
O O3 0.834568 0.147923 0.200357
O O4 0.869595 0.950916 0.273050
O O5 0.500000 0.265011 0.250000
O O6 0.550129 0.251962 0.500267
O O7 0.554991 0.432141 0.334822
O O8 0.585398 0.235573 0.212468
O O9 0.926407 0.348694 0.281695
O O10 0.000000 0.229175 0.250000
O O11 0.204104 0.296227 0.126561
O O12 0.172285 0.227097 0.839814
O O13 0.200148 0.432408 0.901784
O O14 0.256578 0.245164 0.889779
O O15 0.108350 0.515024 0.393056
O O16 0.143717 0.489378 0.139630
O O17 0.830436 0.644373 0.586662
#
# Coordination Sequence:
#
# PCOD8224074 Si02
#       8
#     8   8   8   8   8   8   8   8
#     4  11  24  47  69  95 129 172 221 280 336 395
#     4  12  26  42  68 101 133 178 223 272 332 397
#     4  12  26  43  67 100 137 175 221 275 330 398
#     4  11  25  41  65  97 132 174 216 273 327 394
#     4  12  23  40  69  95 137 177 217 267 328 391
#     4  11  25  46  71  94 129 171 222 278 336 396
#     4  12  22  41  66  97 133 177 216 266 329 389
#     4  11  25  42  65  97 134 172 220 271 331 394
#
# _framework density 21.882148999999998
#
# number of rings (size 3 to 8) (size 9 to 14) (size 15 to 20)
#    0.000    0.500    5.000    3.000    3.500    5.000 
#    0.000    5.000    0.000    0.000    0.000    0.000 
#    0.000    0.000    0.000    0.000    0.000    0.000 
#
# Total GULP energy -793235.203073 kJ/mol
# GULP energy per Si atom -12394.300048 kJ/mol
# Density = 2.183234 g / cm^3
# Si number density = 21.882149 Si / 1000 Ang^3
#
#
#
# Elastic Constant Matrix: (Units=GPa)
#
#
# Indices 1 2 3 4 5 6 
#
# 1 144.6566 34.3201 40.2356 0.0000 0.0000 0.0000
# 2 34.3201 94.7717 24.4756 0.0000 0.0000 0.0000
# 3 40.2356 24.4756 66.7089 0.0000 0.0000 0.0000
# 4 0.0000 0.0000 0.0000 11.1079 0.0000 0.0000
# 5 0.0000 0.0000 0.0000 0.0000 41.7740 0.0000
# 6 0.0000 0.0000 0.0000 0.0000 0.0000 13.1019
#
#
#
# Elastic Compliance Matrix: (Units=1/GPa)
#
#
# Indices 1 2 3 4 5 6 
#
# 1 0.008626 -0.001966 -0.004481 0.000000 0.000000 0.000000
# 2 -0.001966 0.012104 -0.003255 0.000000 0.000000 0.000000
# 3 -0.004481 -0.003255 0.018888 0.000000 0.000000 0.000000
# 4 0.000000 0.000000 0.000000 0.090026 0.000000 0.000000
# 5 0.000000 0.000000 0.000000 0.000000 0.023938 0.000000
# 6 0.000000 0.000000 0.000000 0.000000 0.000000 0.076325
#
#
# Mechanical properties :
#
#
# Convention : Reuss Voigt Hill
#
# Bulk Modulus (GPa) = 49.47434 56.02220 52.74827
# Shear Modulus (GPa) = 19.52743 27.00382 23.26563
#
# Velocity S-wave (km/s) = 2.99053 3.51673 3.26425
# Velocity P-wave (km/s) = 5.88072 6.49209 6.19395
#
# Compressibility (1/GPa) = 0.02021250
#
# Stress axis : x y z
#
# Youngs Moduli (GPa) = 115.92992 82.61429 52.94458
#
# Poissons Ratio (x) = 0.16245 0.23726
# Poissons Ratio (y) = 0.22797 0.17234
# Poissons Ratio (z) = 0.51951 0.26892
#
# Static dielectric constant tensor:
#      x y z
#    x 4.115840 0.000000 0.000000 
#    y 0.000000 3.881530 0.000000 
#    z 0.000000 0.000000 4.082670 
# 
# 
# High freq. dielectric constant tensor:
#      x y z
#    x 1.864450 0.000000 0.000000 
#    y 0.000000 1.850170 0.000000 
#    z 0.000000 0.000000 1.881630 
# 
# From -- ./inp_files/5969.got.cif
#   From: 2010.03.12/outbox.cif.g09.slc.cpg/sg54_3_cif.got.tgz:5969.got - 2010.04.16 15:00:50.
