data_PCOD8224377
_publ_section_title
;
Structure prediction by ZEFSAII (Michael W. Deem and Ramdas Pophale) SiO2 
 PCOD8224377
Probable space group: P B A M
;
_chemical_formula_sum "Si O2"
_cell_formula_units_Z 56
_cell_length_a 20.586926
_cell_length_b 18.511158
_cell_length_c 8.861281
_cell_angle_alpha 90.000000
_cell_angle_beta 90.000000
_cell_angle_gamma 90.000000
_cell_volume 3376.926435
_symmetry_space_group_name_H-M "P B A M"
_symmetry_group_IT_number 55
_symmetry_cell_setting 'orthorhombic'
loop_
_space_group_symop_operation_xyz
x,y,z
-x,-y,z
1/2+x,1/2-y,-z
1/2-x,1/2+y,-z
-x,-y,-z
x,y,-z
1/2-x,1/2+y,z
1/2+x,1/2-y,z
loop_
_atom_site_type_symbol
_atom_site_label
_atom_site_fract_x
_atom_site_fract_y
_atom_site_fract_z
Si Si1 0.247349 0.922117 0.325696
Si Si2 0.737777 0.920138 0.674900
Si Si3 0.818344 0.289355 0.824224
Si Si4 0.301818 0.777525 0.672307
Si Si5 0.000291 0.916639 0.175563
Si Si6 0.120886 0.146659 0.670190
Si Si7 0.620296 0.660331 0.678479
O O1 0.234601 0.938684 0.500000
O O2 0.306541 0.864289 0.302076
O O3 0.180345 0.888575 0.260141
O O4 0.265547 0.999130 0.251922
O O5 0.718657 0.919590 0.500000
O O6 0.684435 0.870922 0.759523
O O7 0.810487 0.891358 0.700501
O O8 0.749425 0.252555 0.791186
O O9 0.874634 0.241129 0.746925
O O10 0.832605 0.292763 0.000000
O O11 0.275949 0.763245 0.500000
O O12 0.369341 0.733862 0.693529
O O13 0.053529 0.875266 0.271963
O O14 0.930362 0.882455 0.210333
O O15 0.015998 0.907582 0.000000
O O16 0.000000 0.000000 0.224321
O O17 0.096564 0.130399 0.500000
O O18 0.622124 0.667139 0.500000
#
# Coordination Sequence:
#
# PCOD8224377 Si02
#       7
#     8   8   8   8   8   8   8
#     4   8  14  26  47  70  89 112 145 187 225 258
#     4   9  16  28  46  68  92 118 149 182 219 263
#     4  10  18  28  43  65  92 119 147 182 226 269
#     4   8  15  29  46  65  88 116 152 188 222 263
#     4  11  23  34  44  64  94 123 152 188 227 267
#     4   9  17  29  45  64  89 122 158 189 215 258
#     4  10  19  33  50  65  86 120 159 192 223 263
#
# _framework density 16.583126
#
# number of rings (size 3 to 8) (size 9 to 14) (size 15 to 20)
#    0.000    2.714    0.000    4.714    0.000    4.571 
#    0.000    3.571    0.000    0.000    0.000    1.000 
#    0.000    8.000    0.000    0.000    0.000    0.000 
#
# Total GULP energy -693972.102392 kJ/mol
# GULP energy per Si atom -12392.358971 kJ/mol
# Density = 1.654538 g / cm^3
# Si number density = 16.583126 Si / 1000 Ang^3
#
#
#
# Elastic Constant Matrix: (Units=GPa)
#
#
# Indices 1 2 3 4 5 6 
#
# 1 50.0775 42.9421 23.2472 0.0000 0.0000 0.0000
# 2 42.9421 145.5973 35.4660 0.0000 0.0000 0.0000
# 3 23.2472 35.4660 62.4030 0.0000 0.0000 0.0000
# 4 0.0000 0.0000 0.0000 19.2191 0.0000 0.0000
# 5 0.0000 0.0000 0.0000 0.0000 18.8503 0.0000
# 6 0.0000 0.0000 0.0000 0.0000 0.0000 25.6664
#
#
#
# Elastic Compliance Matrix: (Units=1/GPa)
#
#
# Indices 1 2 3 4 5 6 
#
# 1 0.029094 -0.006895 -0.006920 0.000000 0.000000 0.000000
# 2 -0.006895 0.009606 -0.002891 0.000000 0.000000 0.000000
# 3 -0.006920 -0.002891 0.020246 0.000000 0.000000 0.000000
# 4 0.000000 0.000000 0.000000 0.052032 0.000000 0.000000
# 5 0.000000 0.000000 0.000000 0.000000 0.053050 0.000000
# 6 0.000000 0.000000 0.000000 0.000000 0.000000 0.038961
#
#
# Mechanical properties :
#
#
# Convention : Reuss Voigt Hill
#
# Bulk Modulus (GPa) = 39.16300 51.26538 45.21419
# Shear Modulus (GPa) = 20.41554 23.17533 21.79543
#
# Velocity S-wave (km/s) = 3.51251 3.74240 3.62928
# Velocity P-wave (km/s) = 6.33386 7.04666 6.69975
#
# Compressibility (1/GPa) = 0.02553430
#
# Stress axis : x y z
#
# Youngs Moduli (GPa) = 34.37113 104.10018 49.39347
#
# Poissons Ratio (x) = 0.71781 0.34178
# Poissons Ratio (y) = 0.23700 0.14278
# Poissons Ratio (z) = 0.23784 0.30093
#
# Static dielectric constant tensor:
#      x y z
#    x 2.780290 0.000000 0.000000 
#    y 0.000000 3.615630 0.000000 
#    z 0.000000 0.000000 2.932260 
# 
# 
# High freq. dielectric constant tensor:
#      x y z
#    x 1.588940 0.000000 0.000000 
#    y 0.000000 1.651440 0.000000 
#    z 0.000000 0.000000 1.626610 
# 
# From -- ./inp_files/8889.got.cif
#   From: 2010.03.12/outbox.cif.g09.slc.cpg/sg55_5_cif.got.tgz:8889.got - 2010.04.16 15:19:21.
