data_PCOD8224194
_publ_section_title
;
Structure prediction by ZEFSAII (Michael W. Deem and Ramdas Pophale) SiO2 
 PCOD8224194
Probable space group: P C C A
;
_chemical_formula_sum "Si O2"
_cell_formula_units_Z 32
_cell_length_a 9.195544
_cell_length_b 13.983888
_cell_length_c 9.522322
_cell_angle_alpha 90.000000
_cell_angle_beta 90.000000
_cell_angle_gamma 90.000000
_cell_volume 1224.470219
_symmetry_space_group_name_H-M "P C C A"
_symmetry_group_IT_number 54
_symmetry_cell_setting 'orthorhombic'
loop_
_space_group_symop_operation_xyz
x,y,z
1/2-x,-y,z
1/2+x,-y,1/2-z
-x,y,1/2-z
-x,-y,-z
1/2+x,y,-z
1/2-x,y,1/2+z
x,-y,1/2+z
loop_
_atom_site_type_symbol
_atom_site_label
_atom_site_fract_x
_atom_site_fract_y
_atom_site_fract_z
Si Si1 0.500000 0.618752 0.750000
Si Si2 0.419911 0.673283 0.039613
Si Si3 0.750000 0.500000 0.835105
Si Si4 0.654951 0.905701 0.817019
Si Si5 0.676878 0.207138 0.583419
O O1 0.508248 0.678355 0.891778
O O2 0.650307 0.561190 0.732333
O O3 0.545306 0.722523 0.137258
O O4 0.366083 0.566122 0.079115
O O5 0.281162 0.738453 0.024887
O O6 0.500000 0.928952 0.750000
O O7 0.741076 0.826642 0.723808
O O8 0.623000 0.877540 0.980116
O O9 0.750000 0.000000 0.817699
#
# Coordination Sequence:
#
# PCOD8224194 Si02
#       5
#     4   8   4   8   8
#     4  12  26  46  66 100 148 192 252 318 372 450
#     4  12  26  48  71 108 148 201 255 309 382 445
#     4  12  28  44  72 104 150 202 254 316 382 444
#     4  12  29  52  78 117 155 197 254 319 393 465
#     4  12  27  49  80 108 154 201 253 316 377 463
#
# _framework density 26.133751
#
# number of rings (size 3 to 8) (size 9 to 14) (size 15 to 20)
#    0.000    0.000    5.000    3.750    7.000    2.000 
#    0.000    0.000    0.000    0.000    0.000    0.000 
#    0.000    0.000    0.000    0.000    0.000    0.000 
#
# Total GULP energy -396556.668905 kJ/mol
# GULP energy per Si atom -12392.395903 kJ/mol
# Density = 2.607427 g / cm^3
# Si number density = 26.133751 Si / 1000 Ang^3
#
#
#
# Elastic Constant Matrix: (Units=GPa)
#
#
# Indices 1 2 3 4 5 6 
#
# 1 171.2953 51.1932 23.1613 0.0000 0.0000 0.0000
# 2 51.1932 94.3851 10.2960 0.0000 0.0000 0.0000
# 3 23.1613 10.2960 88.3752 0.0000 0.0000 0.0000
# 4 0.0000 0.0000 0.0000 228.4329 0.0000 0.0000
# 5 0.0000 0.0000 0.0000 0.0000 -82.7617 0.0000
# 6 0.0000 0.0000 0.0000 0.0000 0.0000 57.3935
#
#
#
# Elastic Compliance Matrix: (Units=1/GPa)
#
#
# Indices 1 2 3 4 5 6 
#
# 1 0.007143 -0.003718 -0.001439 0.000000 0.000000 0.000000
# 2 -0.003718 0.012666 -0.000501 0.000000 0.000000 0.000000
# 3 -0.001439 -0.000501 0.011751 0.000000 0.000000 0.000000
# 4 0.000000 0.000000 0.000000 0.004378 0.000000 0.000000
# 5 0.000000 0.000000 0.000000 0.000000 -0.012083 0.000000
# 6 0.000000 0.000000 0.000000 0.000000 0.000000 0.017424
#
#
# Mechanical properties :
#
#
# Convention : Reuss Voigt Hill
#
# Bulk Modulus (GPa) = 49.39616 58.15074 53.77345
# Shear Modulus (GPa) = 84.25638 58.57329 71.41484
#
# Velocity S-wave (km/s) = 5.68423 4.73936 5.23316
# Velocity P-wave (km/s) = 7.87546 7.22829 7.55881
#
# Compressibility (1/GPa) = 0.02024449
#
# Stress axis : x y z
#
# Youngs Moduli (GPa) = 139.98797 78.95201 85.09954
#
# Poissons Ratio (x) = 0.29351 0.12246
# Poissons Ratio (y) = 0.52041 0.04266
# Poissons Ratio (z) = 0.20145 0.03958
#
# Static dielectric constant tensor:
#      x y z
#    x 5.199620 0.000000 0.000000 
#    y 0.000000 4.851050 0.000000 
#    z 0.000000 0.000000 4.460820 
# 
# 
# High freq. dielectric constant tensor:
#      x y z
#    x 2.072750 0.000000 0.000000 
#    y 0.000000 2.037130 0.000000 
#    z 0.000000 0.000000 2.054540 
# 
# From -- ./inp_files/6757.got.cif
#   From: 2010.03.12/outbox.cif.g09.slc.cpg/sg54_4_cif.got.tgz:6757.got - 2010.04.16 15:00:50.
