data_PCOD8224100
_publ_section_title
;
Structure prediction by ZEFSAII (Michael W. Deem and Ramdas Pophale) SiO2 
 PCOD8224100
Probable space group: P C C A
;
_chemical_formula_sum "Si O2"
_cell_formula_units_Z 48
_cell_length_a 23.071907
_cell_length_b 10.964074
_cell_length_c 8.801907
_cell_angle_alpha 90.000000
_cell_angle_beta 90.000000
_cell_angle_gamma 90.000000
_cell_volume 2226.548841
_symmetry_space_group_name_H-M "P C C A"
_symmetry_group_IT_number 54
_symmetry_cell_setting 'orthorhombic'
loop_
_space_group_symop_operation_xyz
x,y,z
1/2-x,-y,z
1/2+x,-y,1/2-z
-x,y,1/2-z
-x,-y,-z
1/2+x,y,-z
1/2-x,y,1/2+z
x,-y,1/2+z
loop_
_atom_site_type_symbol
_atom_site_label
_atom_site_fract_x
_atom_site_fract_y
_atom_site_fract_z
Si Si1 0.789199 0.855297 0.945536
Si Si2 0.468777 0.392239 0.906817
Si Si3 0.443028 0.772746 0.667511
Si Si4 0.877551 0.540817 0.234292
Si Si5 0.805660 0.419747 0.471336
Si Si6 0.173778 0.080111 0.709685
O O1 0.800871 0.715379 0.905600
O O2 0.805824 0.890152 0.119166
O O3 0.720506 0.872627 0.915092
O O4 0.827140 0.934450 0.824638
O O5 0.500000 0.361479 0.750000
O O6 0.404226 0.434459 0.867569
O O7 0.500000 0.500000 0.000000
O O8 0.462666 0.264950 0.998101
O O9 0.500000 0.828448 0.750000
O O10 0.424134 0.648394 0.750922
O O11 0.389901 0.867634 0.672174
O O12 0.860439 0.486230 0.395752
O O13 0.819330 0.588977 0.150871
O O14 0.750000 0.500000 0.439359
#
# Coordination Sequence:
#
# PCOD8224100 Si02
#       6
#     8   8   8   8   8   8
#     4  11  25  46  72  97 144 177 245 289 353 424
#     4  12  21  37  62  96 138 183 234 279 365 420
#     4  12  24  43  68 100 144 185 237 295 346 431
#     4  12  22  39  64  98 140 184 221 285 370 420
#     4  12  26  40  65 107 143 176 228 300 359 421
#     4  11  25  47  73 104 132 197 234 294 352 418
#
# _framework density 21.558026999999999
#
# number of rings (size 3 to 8) (size 9 to 14) (size 15 to 20)
#    0.000    0.333    6.667    3.500    2.333    1.333 
#    0.000    0.833    0.000    2.000    0.000    0.000 
#    0.000    0.000    0.000    0.000    0.000    0.000 
#
# Total GULP energy -594919.212224 kJ/mol
# GULP energy per Si atom -12394.150255 kJ/mol
# Density = 2.150896 g / cm^3
# Si number density = 21.558027 Si / 1000 Ang^3
#
#
#
# Elastic Constant Matrix: (Units=GPa)
#
#
# Indices 1 2 3 4 5 6 
#
# 1 143.6899 59.8390 61.4554 0.0000 0.0000 0.0000
# 2 59.8390 114.3638 33.2102 0.0000 0.0000 0.0000
# 3 61.4554 33.2102 113.3783 0.0000 0.0000 0.0000
# 4 0.0000 0.0000 0.0000 22.4797 0.0000 0.0000
# 5 0.0000 0.0000 0.0000 0.0000 43.7561 0.0000
# 6 0.0000 0.0000 0.0000 0.0000 0.0000 34.8467
#
#
#
# Elastic Compliance Matrix: (Units=1/GPa)
#
#
# Indices 1 2 3 4 5 6 
#
# 1 0.010678 -0.004270 -0.004537 0.000000 0.000000 0.000000
# 2 -0.004270 0.011264 -0.000985 0.000000 0.000000 0.000000
# 3 -0.004537 -0.000985 0.011568 0.000000 0.000000 0.000000
# 4 0.000000 0.000000 0.000000 0.044485 0.000000 0.000000
# 5 0.000000 0.000000 0.000000 0.000000 0.022854 0.000000
# 6 0.000000 0.000000 0.000000 0.000000 0.000000 0.028697
#
#
# Mechanical properties :
#
#
# Convention : Reuss Voigt Hill
#
# Bulk Modulus (GPa) = 71.80753 75.60457 73.70605
# Shear Modulus (GPa) = 32.51572 34.67832 33.59702
#
# Velocity S-wave (km/s) = 3.88788 4.01509 3.95200
# Velocity P-wave (km/s) = 7.31679 7.52602 7.42214
#
# Compressibility (1/GPa) = 0.01392612
#
# Stress axis : x y z
#
# Youngs Moduli (GPa) = 93.65028 88.77791 86.44549
#
# Poissons Ratio (x) = 0.37904 0.39223
# Poissons Ratio (y) = 0.39984 0.08516
# Poissons Ratio (z) = 0.42492 0.08746
#
# Static dielectric constant tensor:
#      x y z
#    x 3.859630 0.000000 0.000000 
#    y 0.000000 3.851630 0.000000 
#    z 0.000000 0.000000 4.089480 
# 
# 
# High freq. dielectric constant tensor:
#      x y z
#    x 1.849650 0.000000 0.000000 
#    y 0.000000 1.824260 0.000000 
#    z 0.000000 0.000000 1.861120 
# 
# From -- ./inp_files/5164.got.cif
#   From: 2010.03.12/outbox.cif.g09.slc.cpg/sg54_3_cif.got.tgz:5164.got - 2010.04.16 15:00:50.
