data_PCOD8224790
_publ_section_title
;
Structure prediction by ZEFSAII (Michael W. Deem and Ramdas Pophale) SiO2 
 PCOD8224790
Probable space group: P B A M
;
_chemical_formula_sum "Si O2"
_cell_formula_units_Z 56
_cell_length_a 13.267225
_cell_length_b 18.028265
_cell_length_c 14.072266
_cell_angle_alpha 90.000000
_cell_angle_beta 90.000000
_cell_angle_gamma 90.000000
_cell_volume 3365.875620
_symmetry_space_group_name_H-M "P B A M"
_symmetry_group_IT_number 55
_symmetry_cell_setting 'orthorhombic'
loop_
_space_group_symop_operation_xyz
x,y,z
-x,-y,z
1/2+x,1/2-y,-z
1/2-x,1/2+y,-z
-x,-y,-z
x,y,-z
1/2-x,1/2+y,z
1/2+x,1/2-y,z
loop_
_atom_site_type_symbol
_atom_site_label
_atom_site_fract_x
_atom_site_fract_y
_atom_site_fract_z
Si Si1 0.369215 0.427090 0.603851
Si Si2 0.315836 0.519801 0.111712
Si Si3 0.320253 0.808675 0.110621
Si Si4 0.606944 0.407766 0.603720
Si Si5 0.898043 0.532760 0.888542
Si Si6 0.900700 0.836845 0.204276
Si Si7 0.371090 0.372957 0.799535
O O1 0.329804 0.399095 0.500000
O O2 0.488859 0.421992 0.607672
O O3 0.337569 0.513105 0.618421
O O4 0.327313 0.377518 0.690970
O O5 0.200541 0.510885 0.149104
O O6 0.356763 0.600701 0.134973
O O7 0.384174 0.456892 0.161556
O O8 0.321550 0.505480 0.000000
O O9 0.358666 0.742010 0.174347
O O10 0.204198 0.825573 0.135768
O O11 0.388619 0.880057 0.135017
O O12 0.326702 0.787506 0.000000
O O13 0.637116 0.374508 0.500000
O O14 0.637543 0.352027 0.688084
O O15 0.000000 0.500000 0.840397
O O16 0.904269 0.520133 0.000000
O O17 0.021168 0.833420 0.196574
#
# Coordination Sequence:
#
# PCOD8224790 Si02
#       7
#     8   8   8   8   8   8   8
#     4   8  13  25  48  73  94 119 152 192 242 296
#     4  10  19  29  46  72  95 120 160 200 237 291
#     4  10  22  34  44  67 100 131 167 205 237 282
#     4   8  14  26  46  73  99 120 148 192 244 298
#     4   8  16  33  51  63  85 126 168 200 227 268
#     4  11  20  31  49  72  98 127 157 197 254 296
#     4  10  19  33  48  67  98 128 158 201 247 288
#
# _framework density 16.637571999999999
#
# number of rings (size 3 to 8) (size 9 to 14) (size 15 to 20)
#    0.000    2.714    1.429    3.000    0.000    4.000 
#    0.000    2.143    0.000    0.000    0.000    0.000 
#    0.000   14.857    0.000    0.000    0.000    0.000 
#
# Total GULP energy -694040.434555 kJ/mol
# GULP energy per Si atom -12393.579188 kJ/mol
# Density = 1.659970 g / cm^3
# Si number density = 16.637572 Si / 1000 Ang^3
#
#
#
# Elastic Constant Matrix: (Units=GPa)
#
#
# Indices 1 2 3 4 5 6 
#
# 1 47.0854 30.5052 19.2648 0.0000 0.0000 0.0000
# 2 30.5052 77.5341 34.4749 0.0000 0.0000 0.0000
# 3 19.2648 34.4749 94.4611 0.0000 0.0000 0.0000
# 4 0.0000 0.0000 0.0000 26.3211 0.0000 0.0000
# 5 0.0000 0.0000 0.0000 0.0000 13.4671 0.0000
# 6 0.0000 0.0000 0.0000 0.0000 0.0000 20.1227
#
#
#
# Elastic Compliance Matrix: (Units=1/GPa)
#
#
# Indices 1 2 3 4 5 6 
#
# 1 0.028841 -0.010423 -0.002078 0.000000 0.000000 0.000000
# 2 -0.010423 0.019163 -0.004868 0.000000 0.000000 0.000000
# 3 -0.002078 -0.004868 0.012787 0.000000 0.000000 0.000000
# 4 0.000000 0.000000 0.000000 0.037992 0.000000 0.000000
# 5 0.000000 0.000000 0.000000 0.000000 0.074255 0.000000
# 6 0.000000 0.000000 0.000000 0.000000 0.000000 0.049695
#
#
# Mechanical properties :
#
#
# Convention : Reuss Voigt Hill
#
# Bulk Modulus (GPa) = 38.38410 43.06340 40.72375
# Shear Modulus (GPa) = 18.78593 20.97121 19.87857
#
# Velocity S-wave (km/s) = 3.36389 3.55417 3.46034
# Velocity P-wave (km/s) = 6.18131 6.54081 6.36360
#
# Compressibility (1/GPa) = 0.02605245
#
# Stress axis : x y z
#
# Youngs Moduli (GPa) = 34.67263 52.18358 78.20568
#
# Poissons Ratio (x) = 0.54393 0.16250
# Poissons Ratio (y) = 0.36141 0.38071
# Poissons Ratio (z) = 0.07204 0.25403
#
# Static dielectric constant tensor:
#      x y z
#    x 3.035160 0.000000 0.000000 
#    y 0.000000 2.926740 0.000000 
#    z 0.000000 0.000000 3.453440 
# 
# 
# High freq. dielectric constant tensor:
#      x y z
#    x 1.611580 0.000000 0.000000 
#    y 0.000000 1.619600 0.000000 
#    z 0.000000 0.000000 1.644410 
# 
# From -- ./inp_files/19021.got.cif
#   From: 2010.03.12/outbox.cif.g09.slc.cpg/sg55_10_cif.got.tgz:19021.got - 2010.04.16 15:19:21.
