data_PCOD8224081
_publ_section_title
;
Structure prediction by ZEFSAII (Michael W. Deem and Ramdas Pophale) SiO2 
 PCOD8224081
Probable space group: P C C A
;
_chemical_formula_sum "Si O2"
_cell_formula_units_Z 40
_cell_length_a 9.022704
_cell_length_b 7.815981
_cell_length_c 25.297717
_cell_angle_alpha 90.000000
_cell_angle_beta 90.000000
_cell_angle_gamma 90.000000
_cell_volume 1784.027461
_symmetry_space_group_name_H-M "P C C A"
_symmetry_group_IT_number 54
_symmetry_cell_setting 'orthorhombic'
loop_
_space_group_symop_operation_xyz
x,y,z
1/2-x,-y,z
1/2+x,-y,1/2-z
-x,y,1/2-z
-x,-y,-z
1/2+x,y,-z
1/2-x,y,1/2+z
x,-y,1/2+z
loop_
_atom_site_type_symbol
_atom_site_label
_atom_site_fract_x
_atom_site_fract_y
_atom_site_fract_z
Si Si1 0.773045 0.695447 0.041551
Si Si2 0.063143 0.637437 0.306732
Si Si3 0.570623 0.131658 0.461273
Si Si4 0.089044 0.025510 0.653826
Si Si5 0.372753 0.715770 0.346914
O O1 0.750000 0.500000 0.029595
O O2 0.684430 0.754636 0.093905
O O3 0.947389 0.723904 0.050984
O O4 0.716918 0.793996 0.989399
O O5 0.234448 0.701091 0.306167
O O6 0.045100 0.469196 0.344341
O O7 0.000000 0.584027 0.250000
O O8 0.966584 0.791932 0.327740
O O9 0.613760 0.031129 0.408744
O O10 0.500000 0.000000 0.500000
O O11 0.250000 0.000000 0.680674
O O12 0.979534 0.870794 0.670599
#
# Coordination Sequence:
#
# PCOD8224081 Si02
#       5
#     8   8   8   8   8
#     4  12  23  43  69 102 144 196 241 291 355 429
#     4  11  26  48  76 105 135 186 250 307 370 433
#     4  12  24  40  68 104 145 196 237 287 351 429
#     4  12  26  44  69 109 150 192 242 298 360 440
#     4  11  24  48  77 100 144 195 240 302 373 428
#
# _framework density 22.421178999999999
#
# number of rings (size 3 to 8) (size 9 to 14) (size 15 to 20)
#    0.000    0.400    6.000    3.000    0.000    6.400 
#    0.000    0.000    0.000    0.000    0.000    0.000 
#    0.000    0.000    0.000    0.000    0.000    0.000 
#
# Total GULP energy -495978.163448 kJ/mol
# GULP energy per Si atom -12399.454086 kJ/mol
# Density = 2.237015 g / cm^3
# Si number density = 22.421179 Si / 1000 Ang^3
#
#
#
# Elastic Constant Matrix: (Units=GPa)
#
#
# Indices 1 2 3 4 5 6 
#
# 1 125.5444 41.3116 22.7714 0.0000 0.0000 0.0000
# 2 41.3116 91.4888 14.6641 0.0000 0.0000 0.0000
# 3 22.7714 14.6641 74.0831 0.0000 0.0000 0.0000
# 4 0.0000 0.0000 0.0000 26.6591 0.0000 0.0000
# 5 0.0000 0.0000 0.0000 0.0000 35.3113 0.0000
# 6 0.0000 0.0000 0.0000 0.0000 0.0000 36.0341
#
#
#
# Elastic Compliance Matrix: (Units=1/GPa)
#
#
# Indices 1 2 3 4 5 6 
#
# 1 0.009685 -0.004024 -0.002180 0.000000 0.000000 0.000000
# 2 -0.004024 0.012960 -0.001329 0.000000 0.000000 0.000000
# 3 -0.002180 -0.001329 0.014432 0.000000 0.000000 0.000000
# 4 0.000000 0.000000 0.000000 0.037511 0.000000 0.000000
# 5 0.000000 0.000000 0.000000 0.000000 0.028320 0.000000
# 6 0.000000 0.000000 0.000000 0.000000 0.000000 0.027751
#
#
# Mechanical properties :
#
#
# Convention : Reuss Voigt Hill
#
# Bulk Modulus (GPa) = 45.43151 49.84562 47.63856
# Shear Modulus (GPa) = 32.66681 33.75885 33.21283
#
# Velocity S-wave (km/s) = 3.82116 3.88450 3.85296
# Velocity P-wave (km/s) = 6.30675 6.51144 6.40991
#
# Compressibility (1/GPa) = 0.02201115
#
# Stress axis : x y z
#
# Youngs Moduli (GPa) = 103.25429 77.15969 69.29268
#
# Poissons Ratio (x) = 0.31047 0.15109
# Poissons Ratio (y) = 0.41546 0.09206
# Poissons Ratio (z) = 0.22514 0.10251
#
# Static dielectric constant tensor:
#      x y z
#    x 5.272080 0.000000 0.000000 
#    y 0.000000 4.080180 0.000000 
#    z 0.000000 0.000000 1.625770 
# 
# 
# High freq. dielectric constant tensor:
#      x y z
#    x 1.888660 0.000000 0.000000 
#    y 0.000000 1.897340 0.000000 
#    z 0.000000 0.000000 1.871960 
# 
# From -- ./inp_files/23224.got.cif
#   From: 2010.03.12/outbox.cif.g09.slc.cpg/sg54_12_cif.got.tgz:23224.got - 2010.04.16 15:00:50.
