data_PCOD8224341
_publ_section_title
;
Structure prediction by ZEFSAII (Michael W. Deem and Ramdas Pophale) SiO2 
 PCOD8224341
Probable space group: P B A M
;
_chemical_formula_sum "Si O2"
_cell_formula_units_Z 48
_cell_length_a 34.678363
_cell_length_b 5.037410
_cell_length_c 14.518810
_cell_angle_alpha 90.000000
_cell_angle_beta 90.000000
_cell_angle_gamma 90.000000
_cell_volume 2536.278325
_symmetry_space_group_name_H-M "P B A M"
_symmetry_group_IT_number 55
_symmetry_cell_setting 'orthorhombic'
loop_
_space_group_symop_operation_xyz
x,y,z
-x,-y,z
1/2+x,1/2-y,-z
1/2-x,1/2+y,-z
-x,-y,-z
x,y,-z
1/2-x,1/2+y,z
1/2+x,1/2-y,z
loop_
_atom_site_type_symbol
_atom_site_label
_atom_site_fract_x
_atom_site_fract_y
_atom_site_fract_z
Si Si1 0.023943 0.248957 0.391164
Si Si2 0.121571 0.247401 0.898164
Si Si3 0.667534 0.743530 0.138606
Si Si4 0.271544 0.234053 0.000000
Si Si5 0.657275 0.794412 0.658582
Si Si6 0.721255 0.787234 0.500000
Si Si7 0.893056 0.806790 0.307688
O O1 0.028563 0.241856 0.500000
O O2 0.066059 0.261208 0.349369
O O3 0.000000 0.500000 0.356778
O O4 0.000000 0.000000 0.353946
O O5 0.133123 0.552714 0.884280
O O6 0.099358 0.163254 0.803471
O O7 0.157552 0.045899 0.902046
O O8 0.100250 0.226140 0.000000
O O9 0.677527 0.725273 0.245491
O O10 0.705559 0.850958 0.090722
O O11 0.265690 0.549609 0.000000
O O12 0.692042 0.786715 0.586127
O O13 0.623534 0.574676 0.644749
O O14 0.637464 0.081567 0.663327
O O15 0.749983 0.537159 0.500000
#
# Coordination Sequence:
#
# PCOD8224341 Si02
#       7
#     8   8   8   4   8   4   8
#     4  10  21  36  56  85 121 152 176 220 281 334
#     4  10  17  33  57  76 105 136 179 229 269 308
#     4  10  20  35  50  74 106 133 176 230 273 322
#     4  12  22  30  48  72  98 138 168 214 282 340
#     4  10  23  38  59  83 106 149 193 238 272 324
#     4  12  26  42  60  80 112 150 188 234 298 340
#     4  10  21  36  60  88 111 147 192 230 271 326
#
# _framework density 18.925370000000001
#
# number of rings (size 3 to 8) (size 9 to 14) (size 15 to 20)
#    0.000    1.667    1.667    3.000    2.333    1.333 
#    0.000    0.000    0.000    1.000    0.000    0.000 
#    0.000    0.000    0.000    0.000    0.000    0.000 
#
# Total GULP energy -594680.679735 kJ/mol
# GULP energy per Si atom -12389.180828 kJ/mol
# Density = 1.888229 g / cm^3
# Si number density = 18.925370 Si / 1000 Ang^3
#
#
#
# Elastic Constant Matrix: (Units=GPa)
#
#
# Indices 1 2 3 4 5 6 
#
# 1 85.0851 19.5224 39.3485 0.0000 0.0000 0.0000
# 2 19.5224 98.7145 24.4059 0.0000 0.0000 0.0000
# 3 39.3485 24.4059 91.2361 0.0000 0.0000 0.0000
# 4 0.0000 0.0000 0.0000 43.0402 0.0000 0.0000
# 5 0.0000 0.0000 0.0000 0.0000 36.1637 0.0000
# 6 0.0000 0.0000 0.0000 0.0000 0.0000 27.6774
#
#
#
# Elastic Compliance Matrix: (Units=1/GPa)
#
#
# Indices 1 2 3 4 5 6 
#
# 1 0.014873 -0.001451 -0.006026 0.000000 0.000000 0.000000
# 2 -0.001451 0.010989 -0.002314 0.000000 0.000000 0.000000
# 3 -0.006026 -0.002314 0.014178 0.000000 0.000000 0.000000
# 4 0.000000 0.000000 0.000000 0.023234 0.000000 0.000000
# 5 0.000000 0.000000 0.000000 0.000000 0.027652 0.000000
# 6 0.000000 0.000000 0.000000 0.000000 0.000000 0.036131
#
#
# Mechanical properties :
#
#
# Convention : Reuss Voigt Hill
#
# Bulk Modulus (GPa) = 48.88052 49.06550 48.97301
# Shear Modulus (GPa) = 32.58198 34.16019 33.37109
#
# Velocity S-wave (km/s) = 4.15372 4.25313 4.20372
# Velocity P-wave (km/s) = 6.99204 7.07820 7.03525
#
# Compressibility (1/GPa) = 0.02045805
#
# Stress axis : x y z
#
# Youngs Moduli (GPa) = 67.23680 90.99762 70.52965
#
# Poissons Ratio (x) = 0.13208 0.42502
# Poissons Ratio (y) = 0.09759 0.16318
# Poissons Ratio (z) = 0.40518 0.21054
#
# Static dielectric constant tensor:
#      x y z
#    x 3.117370 0.000000 0.000000 
#    y 0.000000 3.714080 0.000000 
#    z 0.000000 0.000000 3.287390 
# 
# 
# High freq. dielectric constant tensor:
#      x y z
#    x 1.697740 0.000000 0.000000 
#    y 0.000000 1.759990 0.000000 
#    z 0.000000 0.000000 1.746340 
# 
# From -- ./inp_files/20057.got.cif
#   From: 2010.03.12/outbox.cif.g09.slc.cpg/sg55_11_cif.got.tgz:20057.got - 2010.04.16 15:19:21.
