data_PCOD8224107
_publ_section_title
;
Structure prediction by ZEFSAII (Michael W. Deem and Ramdas Pophale) SiO2 
 PCOD8224107
Probable space group: P C C A
;
_chemical_formula_sum "Si O2"
_cell_formula_units_Z 24
_cell_length_a 7.802600
_cell_length_b 5.049383
_cell_length_c 26.654315
_cell_angle_alpha 90.000000
_cell_angle_beta 90.000000
_cell_angle_gamma 90.000000
_cell_volume 1050.135120
_symmetry_space_group_name_H-M "P C C A"
_symmetry_group_IT_number 54
_symmetry_cell_setting 'orthorhombic'
loop_
_space_group_symop_operation_xyz
x,y,z
1/2-x,-y,z
1/2+x,-y,1/2-z
-x,y,1/2-z
-x,-y,-z
1/2+x,y,-z
1/2-x,y,1/2+z
x,-y,1/2+z
loop_
_atom_site_type_symbol
_atom_site_label
_atom_site_fract_x
_atom_site_fract_y
_atom_site_fract_z
Si Si1 0.750000 0.000000 0.528530
Si Si2 0.750000 0.500000 0.459842
Si Si3 0.069142 0.646623 0.903386
Si Si4 0.632978 0.747832 0.206352
O O1 0.794890 0.249263 0.493982
O O2 0.588639 0.080283 0.564475
O O3 0.582946 0.462461 0.424880
O O4 0.250000 0.500000 0.908734
O O5 0.028687 0.701804 0.845194
O O6 0.750000 0.500000 0.221365
O O7 0.500000 0.806588 0.250000
O O8 0.750000 0.000000 0.197940
#
# Coordination Sequence:
#
# PCOD8224107 Si02
#       4
#     4   4   8   8
#     4  12  24  46  66 104 144 186 232 284 342 412
#     4  12  28  40  72 104 138 190 236 274 342 426
#     4  11  26  46  70 101 143 183 230 293 347 409
#     4  11  25  47  73 102 138 180 232 296 359 419
#
# _framework density 22.854202000000001
#
# number of rings (size 3 to 8) (size 9 to 14) (size 15 to 20)
#    0.000    0.667    3.333    3.000    7.000    0.000 
#    3.000    0.000    0.000    0.000    0.000    0.000 
#    0.000    0.000    0.000    0.000    0.000    0.000 
#
# Total GULP energy -297579.909705 kJ/mol
# GULP energy per Si atom -12399.162904 kJ/mol
# Density = 2.280219 g / cm^3
# Si number density = 22.854202 Si / 1000 Ang^3
#
#
#
# Elastic Constant Matrix: (Units=GPa)
#
#
# Indices 1 2 3 4 5 6 
#
# 1 104.6293 12.8747 66.7915 0.0000 0.0000 0.0000
# 2 12.8747 105.8961 33.1484 0.0000 0.0000 0.0000
# 3 66.7915 33.1484 186.5845 0.0000 0.0000 0.0000
# 4 0.0000 0.0000 0.0000 7.8503 0.0000 0.0000
# 5 0.0000 0.0000 0.0000 0.0000 47.5670 0.0000
# 6 0.0000 0.0000 0.0000 0.0000 0.0000 25.1778
#
#
#
# Elastic Compliance Matrix: (Units=1/GPa)
#
#
# Indices 1 2 3 4 5 6 
#
# 1 0.012390 -0.000125 -0.004413 0.000000 0.000000 0.000000
# 2 -0.000125 0.010001 -0.001732 0.000000 0.000000 0.000000
# 3 -0.004413 -0.001732 0.007247 0.000000 0.000000 0.000000
# 4 0.000000 0.000000 0.000000 0.127383 0.000000 0.000000
# 5 0.000000 0.000000 0.000000 0.000000 0.021023 0.000000
# 6 0.000000 0.000000 0.000000 0.000000 0.000000 0.039718
#
#
# Mechanical properties :
#
#
# Convention : Reuss Voigt Hill
#
# Bulk Modulus (GPa) = 58.48768 69.19321 63.84045
# Shear Modulus (GPa) = 21.18640 35.07204 28.12922
#
# Velocity S-wave (km/s) = 3.04801 3.92165 3.51210
# Velocity P-wave (km/s) = 6.16720 7.13074 6.66640
#
# Compressibility (1/GPa) = 0.01709762
#
# Stress axis : x y z
#
# Youngs Moduli (GPa) = 80.70982 99.99440 137.98930
#
# Poissons Ratio (x) = 0.01250 0.60896
# Poissons Ratio (y) = 0.01009 0.23899
# Poissons Ratio (z) = 0.35618 0.17319
#
# Static dielectric constant tensor:
#      x y z
#    x 3.862100 0.000000 0.000000 
#    y 0.000000 4.429280 0.000000 
#    z 0.000000 0.000000 4.537910 
# 
# 
# High freq. dielectric constant tensor:
#      x y z
#    x 1.888280 0.000000 0.000000 
#    y 0.000000 1.909720 0.000000 
#    z 0.000000 0.000000 1.920740 
# 
# From -- ./inp_files/23095.got.cif
#   From: 2010.03.12/outbox.cif.g09.slc.cpg/sg54_12_cif.got.tgz:23095.got - 2010.04.16 15:00:50.
