data_PCOD8224679
_publ_section_title
;
Structure prediction by ZEFSAII (Michael W. Deem and Ramdas Pophale) SiO2 
 PCOD8224679
Probable space group: P B A M
;
_chemical_formula_sum "Si O2"
_cell_formula_units_Z 56
_cell_length_a 14.603700
_cell_length_b 22.233115
_cell_length_c 8.719561
_cell_angle_alpha 90.000000
_cell_angle_beta 90.000000
_cell_angle_gamma 90.000000
_cell_volume 2831.117129
_symmetry_space_group_name_H-M "P B A M"
_symmetry_group_IT_number 55
_symmetry_cell_setting 'orthorhombic'
loop_
_space_group_symop_operation_xyz
x,y,z
-x,-y,z
1/2+x,1/2-y,-z
1/2-x,1/2+y,-z
-x,-y,-z
x,y,-z
1/2-x,1/2+y,z
1/2+x,1/2-y,z
loop_
_atom_site_type_symbol
_atom_site_label
_atom_site_fract_x
_atom_site_fract_y
_atom_site_fract_z
Si Si1 0.586595 0.692944 0.681967
Si Si2 0.109689 0.158043 0.317909
Si Si3 0.102822 0.022154 0.676120
Si Si4 0.198497 0.914107 0.178553
Si Si5 0.380375 0.943702 0.318553
Si Si6 0.192488 0.691203 0.316896
Si Si7 0.083485 0.577096 0.318550
O O1 0.587762 0.695420 0.500000
O O2 0.481239 0.692447 0.742672
O O3 0.635159 0.632118 0.731547
O O4 0.640207 0.750539 0.750227
O O5 0.106464 0.155882 0.500000
O O6 0.110430 0.089535 0.257952
O O7 0.201618 0.191986 0.260915
O O8 0.136620 0.018440 0.500000
O O9 0.168419 0.981435 0.779111
O O10 0.000000 0.000000 0.691991
O O11 0.303427 0.905619 0.230631
O O12 0.188467 0.901787 0.000000
O O13 0.364402 0.938543 0.500000
O O14 0.477640 0.915197 0.269726
O O15 0.376968 0.013185 0.262379
O O16 0.187919 0.690868 0.500000
O O17 0.143108 0.631662 0.249722
O O18 0.088849 0.577617 0.500000
#
# Coordination Sequence:
#
# PCOD8224679 Si02
#       7
#     8   8   8   8   8   8   8
#     4  10  20  35  53  75 105 142 183 219 262 316
#     4   9  17  31  53  83 111 135 171 220 272 321
#     4  10  18  33  58  81 105 137 175 223 279 330
#     4  12  24  35  50  77 112 144 180 222 269 320
#     4   9  17  32  57  83 110 139 171 215 272 326
#     4   9  17  29  52  82 109 136 175 227 269 311
#     4   8  15  30  54  86 111 132 171 226 273 313
#
# _framework density 19.780176000000001
#
# number of rings (size 3 to 8) (size 9 to 14) (size 15 to 20)
#    0.000    2.429    1.429    3.000    0.000    3.714 
#    0.000    5.714    0.000    6.857    0.000    0.000 
#    0.000    0.000    0.000    0.000    0.000    0.000 
#
# Total GULP energy -694268.934336 kJ/mol
# GULP energy per Si atom -12397.659542 kJ/mol
# Density = 1.973516 g / cm^3
# Si number density = 19.780176 Si / 1000 Ang^3
#
#
#
# Elastic Constant Matrix: (Units=GPa)
#
#
# Indices 1 2 3 4 5 6 
#
# 1 171.1727 75.2612 9.0920 0.0000 0.0000 0.0000
# 2 75.2612 106.3806 5.3981 0.0000 0.0000 0.0000
# 3 9.0920 5.3981 8.2299 0.0000 0.0000 0.0000
# 4 0.0000 0.0000 0.0000 3.2044 0.0000 0.0000
# 5 0.0000 0.0000 0.0000 0.0000 4.9176 0.0000
# 6 0.0000 0.0000 0.0000 0.0000 0.0000 34.8438
#
#
#
# Elastic Compliance Matrix: (Units=1/GPa)
#
#
# Indices 1 2 3 4 5 6 
#
# 1 0.008739 -0.005889 -0.005792 0.000000 0.000000 0.000000
# 2 -0.005889 0.013692 -0.002475 0.000000 0.000000 0.000000
# 3 -0.005792 -0.002475 0.129530 0.000000 0.000000 0.000000
# 4 0.000000 0.000000 0.000000 0.312068 0.000000 0.000000
# 5 0.000000 0.000000 0.000000 0.000000 0.203352 0.000000
# 6 0.000000 0.000000 0.000000 0.000000 0.000000 0.028700
#
#
# Mechanical properties :
#
#
# Convention : Reuss Voigt Hill
#
# Bulk Modulus (GPa) = 8.08741 51.69843 29.89292
# Shear Modulus (GPa) = 6.53077 21.66194 14.09636
#
# Velocity S-wave (km/s) = 1.81902 3.31287 2.67245
# Velocity P-wave (km/s) = 2.91707 6.38958 4.96669
#
# Compressibility (1/GPa) = 0.12364898
#
# Stress axis : x y z
#
# Youngs Moduli (GPa) = 114.43271 73.03647 7.72024
#
# Poissons Ratio (x) = 0.43008 0.04471
# Poissons Ratio (y) = 0.67384 0.01911
# Poissons Ratio (z) = 0.66276 0.18079
#
# Static dielectric constant tensor:
#      x y z
#    x 3.987780 0.000000 0.000000 
#    y 0.000000 3.763290 0.000000 
#    z 0.000000 0.000000 2.937020 
# 
# 
# High freq. dielectric constant tensor:
#      x y z
#    x 1.793330 0.000000 0.000000 
#    y 0.000000 1.765180 0.000000 
#    z 0.000000 0.000000 1.702670 
# 
# From -- ./inp_files/6160.got.cif
#   From: 2010.03.12/outbox.cif.g09.slc.cpg/sg55_4_cif.got.tgz:6160.got - 2010.04.16 15:19:21.
