data_PCOD8224933
_publ_section_title
;
Structure prediction by ZEFSAII (Michael W. Deem and Ramdas Pophale) SiO2 
 PCOD8224933
Probable space group: P B A M
;
_chemical_formula_sum "Si O2"
_cell_formula_units_Z 64
_cell_length_a 32.860835
_cell_length_b 10.561078
_cell_length_c 9.446052
_cell_angle_alpha 90.000000
_cell_angle_beta 90.000000
_cell_angle_gamma 90.000000
_cell_volume 3278.213066
_symmetry_space_group_name_H-M "P B A M"
_symmetry_group_IT_number 55
_symmetry_cell_setting 'orthorhombic'
loop_
_space_group_symop_operation_xyz
x,y,z
-x,-y,z
1/2+x,1/2-y,-z
1/2-x,1/2+y,-z
-x,-y,-z
x,y,-z
1/2-x,1/2+y,z
1/2+x,1/2-y,z
loop_
_atom_site_type_symbol
_atom_site_label
_atom_site_fract_x
_atom_site_fract_y
_atom_site_fract_z
Si Si1 0.036241 0.763351 0.339143
Si Si2 0.730479 0.477880 0.167039
Si Si3 0.937149 0.008210 0.163446
Si Si4 0.878828 0.341357 0.664249
Si Si5 0.710816 0.199261 0.831555
Si Si6 0.349423 0.385228 0.162977
Si Si7 0.947204 0.761519 0.660694
Si Si8 0.865355 0.625052 0.664278
O O1 0.042945 0.810099 0.500000
O O2 0.073087 0.669649 0.295780
O O3 0.991974 0.695536 0.324356
O O4 0.035912 0.885711 0.239197
O O5 0.765318 0.574014 0.224905
O O6 0.734780 0.329697 0.212881
O O7 0.687341 0.530101 0.222581
O O8 0.731779 0.486800 0.000000
O O9 0.946519 0.874670 0.230191
O O10 0.889629 0.033544 0.186326
O O11 0.949543 0.007045 0.000000
O O12 0.872259 0.312805 0.500000
O O13 0.851204 0.244833 0.751266
O O14 0.862601 0.478553 0.705877
O O15 0.666625 0.202446 0.758753
O O16 0.704460 0.197226 0.000000
O O17 0.342651 0.347926 0.000000
O O18 0.941211 0.811378 0.500000
O O19 0.911523 0.664714 0.700088
O O20 0.855052 0.648202 0.500000
#
# Coordination Sequence:
#
# PCOD8224933 Si02
#       8
#     8   8   8   8   8   8   8   8
#     4   9  18  33  52  75 102 138 183 224 265 321
#     4   9  19  35  58  86 111 138 179 225 264 315
#     4  10  19  31  50  78 109 138 172 223 278 324
#     4   9  19  35  54  77 106 140 180 226 272 318
#     4  10  21  38  60  85 111 142 181 223 269 324
#     4   9  18  33  54  78 106 138 177 219 266 322
#     4  10  20  33  51  73 102 142 183 221 265 322
#     4  10  22  38  54  77 109 142 178 224 275 326
#
# _framework density 19.522832000000001
#
# number of rings (size 3 to 8) (size 9 to 14) (size 15 to 20)
#    0.000    2.500    0.000    1.500    1.750    5.000 
#    0.000    4.375    0.000    0.000    0.000    5.250 
#    0.000    0.000    0.000    0.000    0.000    0.000 
#
# Total GULP energy -793344.850156 kJ/mol
# GULP energy per Si atom -12396.013284 kJ/mol
# Density = 1.947840 g / cm^3
# Si number density = 19.522832 Si / 1000 Ang^3
#
#
#
# Elastic Constant Matrix: (Units=GPa)
#
#
# Indices 1 2 3 4 5 6 
#
# 1 70.9309 46.3264 26.9378 0.0000 0.0000 0.0000
# 2 46.3264 93.7940 27.7890 0.0000 0.0000 0.0000
# 3 26.9378 27.7890 48.2813 0.0000 0.0000 0.0000
# 4 0.0000 0.0000 0.0000 24.8997 0.0000 0.0000
# 5 0.0000 0.0000 0.0000 0.0000 25.8791 0.0000
# 6 0.0000 0.0000 0.0000 0.0000 0.0000 20.4702
#
#
#
# Elastic Compliance Matrix: (Units=1/GPa)
#
#
# Indices 1 2 3 4 5 6 
#
# 1 0.022888 -0.009068 -0.007551 0.000000 0.000000 0.000000
# 2 -0.009068 0.016446 -0.004406 0.000000 0.000000 0.000000
# 3 -0.007551 -0.004406 0.027461 0.000000 0.000000 0.000000
# 4 0.000000 0.000000 0.000000 0.040161 0.000000 0.000000
# 5 0.000000 0.000000 0.000000 0.000000 0.038641 0.000000
# 6 0.000000 0.000000 0.000000 0.000000 0.000000 0.048852
#
#
# Mechanical properties :
#
#
# Convention : Reuss Voigt Hill
#
# Bulk Modulus (GPa) = 40.41261 46.12365 43.26813
# Shear Modulus (GPa) = 20.42917 21.71331 21.07124
#
# Velocity S-wave (km/s) = 3.23836 3.33859 3.28885
# Velocity P-wave (km/s) = 5.89302 6.20792 6.05252
#
# Compressibility (1/GPa) = 0.02474475
#
# Stress axis : x y z
#
# Youngs Moduli (GPa) = 43.69055 60.80553 36.41501
#
# Poissons Ratio (x) = 0.55136 0.27497
# Poissons Ratio (y) = 0.39617 0.16046
# Poissons Ratio (z) = 0.32991 0.26794
#
# Static dielectric constant tensor:
#      x y z
#    x 3.786700 0.000000 0.000000 
#    y 0.000000 3.591140 0.000000 
#    z 0.000000 0.000000 3.375880 
# 
# 
# High freq. dielectric constant tensor:
#      x y z
#    x 1.771600 0.000000 0.000000 
#    y 0.000000 1.750830 0.000000 
#    z 0.000000 0.000000 1.739430 
# 
# From -- ./inp_files/10840.got.cif
#   From: 2010.03.12/outbox.cif.g09.slc.cpg/sg55_6_cif.got.tgz:10840.got - 2010.04.16 15:19:21.
