data_PCOD8224652
_publ_section_title
;
Structure prediction by ZEFSAII (Michael W. Deem and Ramdas Pophale) SiO2 
 PCOD8224652
Probable space group: P B A M
;
_chemical_formula_sum "Si O2"
_cell_formula_units_Z 64
_cell_length_a 18.540463
_cell_length_b 13.175786
_cell_length_c 13.762707
_cell_angle_alpha 90.000000
_cell_angle_beta 90.000000
_cell_angle_gamma 90.000000
_cell_volume 3362.025258
_symmetry_space_group_name_H-M "P B A M"
_symmetry_group_IT_number 55
_symmetry_cell_setting 'orthorhombic'
loop_
_space_group_symop_operation_xyz
x,y,z
-x,-y,z
1/2+x,1/2-y,-z
1/2-x,1/2+y,-z
-x,-y,-z
x,y,-z
1/2-x,1/2+y,z
1/2+x,1/2-y,z
loop_
_atom_site_type_symbol
_atom_site_label
_atom_site_fract_x
_atom_site_fract_y
_atom_site_fract_z
Si Si1 0.066218 0.269641 0.392208
Si Si2 0.494114 0.383183 0.887188
Si Si3 0.633431 0.288339 0.199819
Si Si4 0.858461 0.523786 0.608092
Si Si5 0.647026 0.706100 0.797531
Si Si6 0.401486 0.201678 0.609375
Si Si7 0.729699 0.879601 0.111036
Si Si8 0.212829 0.416291 0.796951
O O1 0.087611 0.229790 0.500000
O O2 0.110789 0.204223 0.313344
O O3 0.081496 0.389213 0.383351
O O4 0.981704 0.256762 0.373860
O O5 0.500000 0.500000 0.854286
O O6 0.567854 0.322450 0.868191
O O7 0.431409 0.332680 0.825006
O O8 0.474263 0.375767 0.000000
O O9 0.701650 0.360971 0.181267
O O10 0.656623 0.172741 0.175121
O O11 0.823568 0.523045 0.500000
O O12 0.898450 0.418325 0.630124
O O13 0.796035 0.545223 0.686294
O O14 0.649919 0.740613 0.684960
O O15 0.666060 0.800781 0.866460
O O16 0.705091 0.617999 0.811514
O O17 0.374924 0.226000 0.500000
O O18 0.698604 0.991763 0.129146
O O19 0.754570 0.867708 0.000000
#
# Coordination Sequence:
#
# PCOD8224652 Si02
#       8
#     8   8   8   8   8   8   8   8
#     4   9  17  32  57  88 119 151 184 231 287 344
#     4  11  23  40  62  86 112 149 196 244 287 340
#     4  10  21  38  61  86 114 152 195 241 284 350
#     4   9  17  32  55  85 115 150 194 229 277 345
#     4  11  22  38  58  87 118 151 191 241 294 348
#     4  10  18  32  58  86 118 152 186 231 288 350
#     4  11  23  40  59  82 115 154 198 242 294 344
#     4  10  22  37  58  83 115 153 191 242 297 341
#
# _framework density 19.036145000000001
#
# number of rings (size 3 to 8) (size 9 to 14) (size 15 to 20)
#    0.000    1.875    2.500    1.875    0.000    6.000 
#    0.000    3.125    0.000    4.500    0.000    0.000 
#    0.000    0.000    0.000    0.000    0.000    0.000 
#
# Total GULP energy -793639.160224 kJ/mol
# GULP energy per Si atom -12400.611879 kJ/mol
# Density = 1.899282 g / cm^3
# Si number density = 19.036145 Si / 1000 Ang^3
#
#
#
# Elastic Constant Matrix: (Units=GPa)
#
#
# Indices 1 2 3 4 5 6 
#
# 1 73.6225 36.7848 22.1828 0.0000 0.0000 0.0000
# 2 36.7848 88.6987 47.2953 0.0000 0.0000 0.0000
# 3 22.1828 47.2953 100.0877 0.0000 0.0000 0.0000
# 4 0.0000 0.0000 0.0000 26.6657 0.0000 0.0000
# 5 0.0000 0.0000 0.0000 0.0000 30.6980 0.0000
# 6 0.0000 0.0000 0.0000 0.0000 0.0000 18.4312
#
#
#
# Elastic Compliance Matrix: (Units=1/GPa)
#
#
# Indices 1 2 3 4 5 6 
#
# 1 0.017159 -0.006802 -0.000589 0.000000 0.000000 0.000000
# 2 -0.006802 0.017768 -0.006889 0.000000 0.000000 0.000000
# 3 -0.000589 -0.006889 0.013377 0.000000 0.000000 0.000000
# 4 0.000000 0.000000 0.000000 0.037501 0.000000 0.000000
# 5 0.000000 0.000000 0.000000 0.000000 0.032575 0.000000
# 6 0.000000 0.000000 0.000000 0.000000 0.000000 0.054256
#
#
# Mechanical properties :
#
#
# Convention : Reuss Voigt Hill
#
# Bulk Modulus (GPa) = 50.64571 52.77050 51.70811
# Shear Modulus (GPa) = 24.06427 25.56871 24.81649
#
# Velocity S-wave (km/s) = 3.55933 3.66890 3.61453
# Velocity P-wave (km/s) = 6.59958 6.76233 6.68145
#
# Compressibility (1/GPa) = 0.01974501
#
# Stress axis : x y z
#
# Youngs Moduli (GPa) = 58.27914 56.28049 74.75614
#
# Poissons Ratio (x) = 0.38283 0.04401
# Poissons Ratio (y) = 0.39642 0.51496
# Poissons Ratio (z) = 0.03431 0.38769
#
# Static dielectric constant tensor:
#      x y z
#    x 3.284160 0.000000 0.000000 
#    y 0.000000 3.455610 0.000000 
#    z 0.000000 0.000000 3.598560 
# 
# 
# High freq. dielectric constant tensor:
#      x y z
#    x 1.729230 0.000000 0.000000 
#    y 0.000000 1.735430 0.000000 
#    z 0.000000 0.000000 1.746540 
# 
# From -- ./inp_files/18562.got.cif
#   From: 2010.03.12/outbox.cif.g09.slc.cpg/sg55_10_cif.got.tgz:18562.got - 2010.04.16 15:19:21.
