data_PCOD8224972
_publ_section_title
;
Structure prediction by ZEFSAII (Michael W. Deem and Ramdas Pophale) SiO2 
 PCOD8224972
Probable space group: P B A M
;
_chemical_formula_sum "Si O2"
_cell_formula_units_Z 48
_cell_length_a 20.043013
_cell_length_b 14.728236
_cell_length_c 8.960360
_cell_angle_alpha 90.000000
_cell_angle_beta 90.000000
_cell_angle_gamma 90.000000
_cell_volume 2645.082373
_symmetry_space_group_name_H-M "P B A M"
_symmetry_group_IT_number 55
_symmetry_cell_setting 'orthorhombic'
loop_
_space_group_symop_operation_xyz
x,y,z
-x,-y,z
1/2+x,1/2-y,-z
1/2-x,1/2+y,-z
-x,-y,-z
x,y,-z
1/2-x,1/2+y,z
1/2+x,1/2-y,z
loop_
_atom_site_type_symbol
_atom_site_label
_atom_site_fract_x
_atom_site_fract_y
_atom_site_fract_z
Si Si1 0.337378 0.799236 0.173864
Si Si2 0.976892 0.718861 0.673510
Si Si3 0.554943 0.927184 0.174417
Si Si4 0.044454 0.078912 0.326622
Si Si5 0.699431 0.999971 0.172005
Si Si6 0.809169 0.881446 0.323031
O O1 0.410660 0.812624 0.241336
O O2 0.296500 0.717890 0.251972
O O3 0.296498 0.892130 0.199117
O O4 0.345469 0.777771 0.000000
O O5 0.965978 0.698428 0.500000
O O6 0.991484 0.825034 0.701532
O O7 0.040788 0.665355 0.735955
O O8 0.627171 0.963392 0.219784
O O9 0.500000 0.000000 0.224654
O O10 0.549564 0.906508 0.000000
O O11 0.050895 0.056458 0.500000
O O12 0.119628 0.081797 0.261703
O O13 0.000000 0.000000 0.248574
O O14 0.753158 0.952183 0.276222
O O15 0.714118 0.976198 0.000000
O O16 0.809797 0.869229 0.500000
#
# Coordination Sequence:
#
# PCOD8224972 Si02
#       6
#     8   8   8   8   8   8
#     4  10  19  36  59  77 104 148 188 221 270 331
#     4  10  19  31  53  84 110 137 179 228 278 325
#     4  10  19  35  55  78 108 145 185 220 270 331
#     4   8  16  34  56  76 105 141 175 213 267 328
#     4  10  21  37  57  78 107 148 186 225 274 332
#     4  10  21  36  56  83 110 140 182 231 280 331
#
# _framework density 18.146882999999999
#
# number of rings (size 3 to 8) (size 9 to 14) (size 15 to 20)
#    0.000    2.333    1.667    2.500    0.000    2.333 
#    3.000    0.000    0.000   17.000    0.000    0.000 
#    0.000    0.000    0.000    0.000    0.000    0.000 
#
# Total GULP energy -595207.586296 kJ/mol
# GULP energy per Si atom -12400.158048 kJ/mol
# Density = 1.810558 g / cm^3
# Si number density = 18.146883 Si / 1000 Ang^3
#
#
#
# Elastic Constant Matrix: (Units=GPa)
#
#
# Indices 1 2 3 4 5 6 
#
# 1 91.2330 68.3023 39.8228 0.0000 0.0000 0.0000
# 2 68.3023 126.1139 55.5837 0.0000 0.0000 0.0000
# 3 39.8228 55.5837 77.5579 0.0000 0.0000 0.0000
# 4 0.0000 0.0000 0.0000 31.1135 0.0000 0.0000
# 5 0.0000 0.0000 0.0000 0.0000 26.3790 0.0000
# 6 0.0000 0.0000 0.0000 0.0000 0.0000 33.6748
#
#
#
# Elastic Compliance Matrix: (Units=1/GPa)
#
#
# Indices 1 2 3 4 5 6 
#
# 1 0.019062 -0.008785 -0.003492 0.000000 0.000000 0.000000
# 2 -0.008785 0.015639 -0.006697 0.000000 0.000000 0.000000
# 3 -0.003492 -0.006697 0.019486 0.000000 0.000000 0.000000
# 4 0.000000 0.000000 0.000000 0.032140 0.000000 0.000000
# 5 0.000000 0.000000 0.000000 0.000000 0.037909 0.000000
# 6 0.000000 0.000000 0.000000 0.000000 0.000000 0.029696
#
#
# Mechanical properties :
#
#
# Convention : Reuss Voigt Hill
#
# Bulk Modulus (GPa) = 61.57871 69.14694 65.36283
# Shear Modulus (GPa) = 25.34302 26.97986 26.16144
#
# Velocity S-wave (km/s) = 3.74110 3.86002 3.80103
# Velocity P-wave (km/s) = 7.25729 7.61926 7.44048
#
# Compressibility (1/GPa) = 0.01623938
#
# Stress axis : x y z
#
# Youngs Moduli (GPa) = 52.46072 63.94283 51.31837
#
# Poissons Ratio (x) = 0.56173 0.17918
# Poissons Ratio (y) = 0.46086 0.34370
# Poissons Ratio (z) = 0.18317 0.42825
#
# Static dielectric constant tensor:
#      x y z
#    x 3.283760 0.000000 0.000000 
#    y 0.000000 3.508130 0.000000 
#    z 0.000000 0.000000 3.228940 
# 
# 
# High freq. dielectric constant tensor:
#      x y z
#    x 1.686310 0.000000 0.000000 
#    y 0.000000 1.712140 0.000000 
#    z 0.000000 0.000000 1.694850 
# 
# From -- ./inp_files/5819.got.cif
#   From: 2010.03.12/outbox.cif.g09.slc.cpg/sg55_3_cif.got.tgz:5819.got - 2010.04.16 15:19:21.
