data_PCOD8224024
_publ_section_title
;
Structure prediction by ZEFSAII (Michael W. Deem and Ramdas Pophale) SiO2 
 PCOD8224024
Probable space group: P C C A
;
_chemical_formula_sum "Si O2"
_cell_formula_units_Z 40
_cell_length_a 21.844873
_cell_length_b 5.740612
_cell_length_c 13.723025
_cell_angle_alpha 90.000000
_cell_angle_beta 90.000000
_cell_angle_gamma 90.000000
_cell_volume 1720.907682
_symmetry_space_group_name_H-M "P C C A"
_symmetry_group_IT_number 54
_symmetry_cell_setting 'orthorhombic'
loop_
_space_group_symop_operation_xyz
x,y,z
1/2-x,-y,z
1/2+x,-y,1/2-z
-x,y,1/2-z
-x,-y,-z
1/2+x,y,-z
1/2-x,y,1/2+z
x,-y,1/2+z
loop_
_atom_site_type_symbol
_atom_site_label
_atom_site_fract_x
_atom_site_fract_y
_atom_site_fract_z
Si Si1 0.124479 0.114690 0.993460
Si Si2 0.080444 0.188170 0.657176
Si Si3 0.384009 0.837334 0.316741
Si Si4 0.032768 0.548698 0.399540
Si Si5 0.680973 0.421663 0.850932
O O1 0.090820 0.293883 0.922980
O O2 0.150088 0.921610 0.916671
O O3 0.176283 0.242385 0.057806
O O4 0.076584 0.996114 0.068554
O O5 0.136712 0.360179 0.632645
O O6 0.017573 0.328688 0.668689
O O7 0.090084 0.060489 0.759334
O O8 0.442782 0.679319 0.343742
O O9 0.335108 0.702853 0.250812
O O10 0.000000 0.500000 0.500000
O O11 0.750000 0.500000 0.843424
#
# Coordination Sequence:
#
# PCOD8224024 Si02
#       5
#     8   8   8   8   8
#     4  11  23  45  71 104 142 190 234 287 367 423
#     4  11  25  45  70 105 145 187 235 295 358 427
#     4  11  26  43  71 109 143 190 238 294 362 429
#     4  12  23  45  72 105 152 183 231 295 365 438
#     4  11  26  50  71 100 145 189 246 302 347 420
#
# _framework density 23.243549999999999
#
# number of rings (size 3 to 8) (size 9 to 14) (size 15 to 20)
#    0.000    0.800    4.000    1.800    0.000    8.000 
#    0.000   15.000    0.000    0.000    0.000    0.000 
#    0.000    0.000    0.000    0.000    0.000    0.000 
#
# Total GULP energy -495960.534245 kJ/mol
# GULP energy per Si atom -12399.013356 kJ/mol
# Density = 2.319065 g / cm^3
# Si number density = 23.243550 Si / 1000 Ang^3
#
#
#
# Elastic Constant Matrix: (Units=GPa)
#
#
# Indices 1 2 3 4 5 6 
#
# 1 128.9334 50.2508 65.5278 0.0000 0.0000 0.0000
# 2 50.2508 115.4490 71.1397 0.0000 0.0000 0.0000
# 3 65.5278 71.1397 155.1505 0.0000 0.0000 0.0000
# 4 0.0000 0.0000 0.0000 39.8834 0.0000 0.0000
# 5 0.0000 0.0000 0.0000 0.0000 12.1461 0.0000
# 6 0.0000 0.0000 0.0000 0.0000 0.0000 29.4954
#
#
#
# Elastic Compliance Matrix: (Units=1/GPa)
#
#
# Indices 1 2 3 4 5 6 
#
# 1 0.010381 -0.002532 -0.003223 0.000000 0.000000 0.000000
# 2 -0.002532 0.012691 -0.004749 0.000000 0.000000 0.000000
# 3 -0.003223 -0.004749 0.009984 0.000000 0.000000 0.000000
# 4 0.000000 0.000000 0.000000 0.025073 0.000000 0.000000
# 5 0.000000 0.000000 0.000000 0.000000 0.082331 0.000000
# 6 0.000000 0.000000 0.000000 0.000000 0.000000 0.033904
#
#
# Mechanical properties :
#
#
# Convention : Reuss Voigt Hill
#
# Bulk Modulus (GPa) = 83.01456 85.92993 84.47225
# Shear Modulus (GPa) = 25.07661 30.47930 27.77795
#
# Velocity S-wave (km/s) = 3.28817 3.62512 3.46075
# Velocity P-wave (km/s) = 7.08581 7.38726 7.23810
#
# Compressibility (1/GPa) = 0.01204608
#
# Stress axis : x y z
#
# Youngs Moduli (GPa) = 96.32910 78.79822 100.15585
#
# Poissons Ratio (x) = 0.19954 0.32284
# Poissons Ratio (y) = 0.24393 0.47568
# Poissons Ratio (z) = 0.31050 0.37425
#
# Static dielectric constant tensor:
#      x y z
#    x 3.598270 0.000000 0.000000 
#    y 0.000000 4.686790 0.000000 
#    z 0.000000 0.000000 4.379140 
# 
# 
# High freq. dielectric constant tensor:
#      x y z
#    x 1.872110 0.000000 0.000000 
#    y 0.000000 1.940430 0.000000 
#    z 0.000000 0.000000 1.955730 
# 
# From -- ./inp_files/14849.got.cif
#   From: 2010.03.12/outbox.cif.g09.slc.cpg/sg54_8_cif.got.tgz:14849.got - 2010.04.16 15:00:50.
