data_PCOD8224173
_publ_section_title
;
Structure prediction by ZEFSAII (Michael W. Deem and Ramdas Pophale) SiO2 
 PCOD8224173
Probable space group: P C C A
;
_chemical_formula_sum "Si O2"
_cell_formula_units_Z 20
_cell_length_a 7.152867
_cell_length_b 6.770056
_cell_length_c 17.480288
_cell_angle_alpha 90.000000
_cell_angle_beta 90.000000
_cell_angle_gamma 90.000000
_cell_volume 846.488368
_symmetry_space_group_name_H-M "P C C A"
_symmetry_group_IT_number 54
_symmetry_cell_setting 'orthorhombic'
loop_
_space_group_symop_operation_xyz
x,y,z
1/2-x,-y,z
1/2+x,-y,1/2-z
-x,y,1/2-z
-x,-y,-z
1/2+x,y,-z
1/2-x,y,1/2+z
x,-y,1/2+z
loop_
_atom_site_type_symbol
_atom_site_label
_atom_site_fract_x
_atom_site_fract_y
_atom_site_fract_z
Si Si1 0.075160 0.614804 0.425453
Si Si2 0.750000 0.500000 0.819896
Si Si3 0.750000 0.000000 0.123605
Si Si4 0.000000 0.813559 0.750000
O O1 0.250000 0.500000 0.389486
O O2 0.158784 0.837171 0.434257
O O3 0.000000 0.500000 0.500000
O O4 0.907006 0.611855 0.367354
O O5 0.824855 0.677847 0.769769
O O6 0.925430 0.062889 0.177318
#
# Coordination Sequence:
#
# PCOD8224173 Si02
#       4
#     8   4   4   4
#     4  12  26  50  73 108 153 199 250 311 371 443
#     4  12  24  48  78 104 156 194 240 314 380 436
#     4  12  26  46  76 114 144 198 252 302 378 450
#     4  12  24  46  78 114 150 192 248 304 376 454
#
# _framework density 23.627022
#
# number of rings (size 3 to 8) (size 9 to 14) (size 15 to 20)
#    0.000    0.000    6.000    4.800    0.000    1.600 
#    0.000    0.000    0.000    0.000    0.000    0.000 
#    0.000    0.000    0.000    0.000    0.000    0.000 
#
# Total GULP energy -247785.473643 kJ/mol
# GULP energy per Si atom -12389.273682 kJ/mol
# Density = 2.357325 g / cm^3
# Si number density = 23.627022 Si / 1000 Ang^3
#
#
#
# Elastic Constant Matrix: (Units=GPa)
#
#
# Indices 1 2 3 4 5 6 
#
# 1 156.4715 65.9059 37.3474 0.0000 0.0000 0.0000
# 2 65.9059 173.1665 56.3221 0.0000 0.0000 0.0000
# 3 37.3474 56.3221 88.7285 0.0000 0.0000 0.0000
# 4 0.0000 0.0000 0.0000 38.9513 0.0000 0.0000
# 5 0.0000 0.0000 0.0000 0.0000 27.6559 0.0000
# 6 0.0000 0.0000 0.0000 0.0000 0.0000 64.9563
#
#
#
# Elastic Compliance Matrix: (Units=1/GPa)
#
#
# Indices 1 2 3 4 5 6 
#
# 1 0.007825 -0.002403 -0.001768 0.000000 0.000000 0.000000
# 2 -0.002403 0.008015 -0.004076 0.000000 0.000000 0.000000
# 3 -0.001768 -0.004076 0.014602 0.000000 0.000000 0.000000
# 4 0.000000 0.000000 0.000000 0.025673 0.000000 0.000000
# 5 0.000000 0.000000 0.000000 0.000000 0.036159 0.000000
# 6 0.000000 0.000000 0.000000 0.000000 0.000000 0.015395
#
#
# Mechanical properties :
#
#
# Convention : Reuss Voigt Hill
#
# Bulk Modulus (GPa) = 71.69949 81.94635 76.82292
# Shear Modulus (GPa) = 38.81575 43.56546 41.19061
#
# Velocity S-wave (km/s) = 4.05761 4.29870 4.17990
# Velocity P-wave (km/s) = 7.23634 7.70695 7.47535
#
# Compressibility (1/GPa) = 0.01394710
#
# Stress axis : x y z
#
# Youngs Moduli (GPa) = 127.79240 124.76330 68.48289
#
# Poissons Ratio (x) = 0.29981 0.12110
# Poissons Ratio (y) = 0.30709 0.27916
# Poissons Ratio (z) = 0.22599 0.50857
#
# Static dielectric constant tensor:
#      x y z
#    x 4.477850 0.000000 0.000000 
#    y 0.000000 4.623570 0.000000 
#    z 0.000000 0.000000 4.185860 
# 
# 
# High freq. dielectric constant tensor:
#      x y z
#    x 1.965880 0.000000 0.000000 
#    y 0.000000 1.948080 0.000000 
#    z 0.000000 0.000000 1.920100 
# 
# From -- ./inp_files/16039.got.cif
#   From: 2010.03.12/outbox.cif.g09.slc.cpg/sg54_9_cif.got.tgz:16039.got - 2010.04.16 15:00:50.
