data_PCOD8224130
_publ_section_title
;
Structure prediction by ZEFSAII (Michael W. Deem and Ramdas Pophale) SiO2 
 PCOD8224130
Probable space group: P C C A
;
_chemical_formula_sum "Si O2"
_cell_formula_units_Z 40
_cell_length_a 8.467490
_cell_length_b 9.580758
_cell_length_c 22.052873
_cell_angle_alpha 90.000000
_cell_angle_beta 90.000000
_cell_angle_gamma 90.000000
_cell_volume 1789.038717
_symmetry_space_group_name_H-M "P C C A"
_symmetry_group_IT_number 54
_symmetry_cell_setting 'orthorhombic'
loop_
_space_group_symop_operation_xyz
x,y,z
1/2-x,-y,z
1/2+x,-y,1/2-z
-x,y,1/2-z
-x,-y,-z
1/2+x,y,-z
1/2-x,y,1/2+z
x,-y,1/2+z
loop_
_atom_site_type_symbol
_atom_site_label
_atom_site_fract_x
_atom_site_fract_y
_atom_site_fract_z
Si Si1 0.563742 0.487067 0.186425
Si Si2 0.434871 0.025350 0.932383
Si Si3 0.393713 0.702323 0.098813
Si Si4 0.446554 0.232106 0.127122
Si Si5 0.376651 0.601454 0.973257
O O1 0.750000 0.500000 0.183158
O O2 0.500000 0.547605 0.250000
O O3 0.474731 0.568140 0.131185
O O4 0.520664 0.321862 0.182183
O O5 0.469481 0.182903 0.910344
O O6 0.250000 0.000000 0.933434
O O7 0.514741 0.931747 0.878906
O O8 0.500000 0.000000 0.000000
O O9 0.241938 0.754079 0.135962
O O10 0.308288 0.674511 0.033811
O O11 0.539283 0.286993 0.068102
O O12 0.250000 0.500000 0.939113
O O13 0.500000 0.500000 0.000000
#
# Coordination Sequence:
#
# PCOD8224130 Si02
#       5
#     8   8   8   8   8
#     4  12  26  46  72  98 128 169 222 275 326 382
#     4  12  26  40  61  95 139 180 217 262 330 398
#     4  12  24  42  64  96 133 172 218 271 325 390
#     4  12  24  41  65  95 133 173 219 270 325 389
#     4  12  22  34  59  95 131 170 214 265 328 387
#
# _framework density 22.358377000000001
#
# number of rings (size 3 to 8) (size 9 to 14) (size 15 to 20)
#    0.000    0.000    6.000    5.400    2.800    0.000 
#    0.000    1.000    0.000    0.000    0.000    0.000 
#    0.000    0.000    0.000    0.000    0.000    0.000 
#
# Total GULP energy -495531.455629 kJ/mol
# GULP energy per Si atom -12388.286391 kJ/mol
# Density = 2.230749 g / cm^3
# Si number density = 22.358377 Si / 1000 Ang^3
#
#
#
# Elastic Constant Matrix: (Units=GPa)
#
#
# Indices 1 2 3 4 5 6 
#
# 1 156.6370 13.6835 19.2649 0.0000 0.0000 0.0000
# 2 13.6835 92.6425 12.1097 0.0000 0.0000 0.0000
# 3 19.2649 12.1097 86.1632 0.0000 0.0000 0.0000
# 4 0.0000 0.0000 0.0000 18.6557 0.0000 0.0000
# 5 0.0000 0.0000 0.0000 0.0000 25.3465 0.0000
# 6 0.0000 0.0000 0.0000 0.0000 0.0000 42.5525
#
#
#
# Elastic Compliance Matrix: (Units=1/GPa)
#
#
# Indices 1 2 3 4 5 6 
#
# 1 0.006622 -0.000799 -0.001368 0.000000 0.000000 0.000000
# 2 -0.000799 0.011093 -0.001380 0.000000 0.000000 0.000000
# 3 -0.001368 -0.001380 0.012106 0.000000 0.000000 0.000000
# 4 0.000000 0.000000 0.000000 0.053603 0.000000 0.000000
# 5 0.000000 0.000000 0.000000 0.000000 0.039453 0.000000
# 6 0.000000 0.000000 0.000000 0.000000 0.000000 0.023500
#
#
# Mechanical properties :
#
#
# Convention : Reuss Voigt Hill
#
# Bulk Modulus (GPa) = 44.00443 47.28434 45.64439
# Shear Modulus (GPa) = 31.04662 36.66991 33.85826
#
# Velocity S-wave (km/s) = 3.73042 4.05420 3.89568
# Velocity P-wave (km/s) = 6.18699 6.56580 6.37921
#
# Compressibility (1/GPa) = 0.02272499
#
# Stress axis : x y z
#
# Youngs Moduli (GPa) = 151.00493 90.14965 82.60493
#
# Poissons Ratio (x) = 0.07205 0.11303
# Poissons Ratio (y) = 0.12069 0.11402
# Poissons Ratio (z) = 0.20662 0.12443
#
# Static dielectric constant tensor:
#      x y z
#    x 4.109640 0.000000 0.000000 
#    y 0.000000 4.257150 0.000000 
#    z 0.000000 0.000000 3.553620 
# 
# 
# High freq. dielectric constant tensor:
#      x y z
#    x 1.905580 0.000000 0.000000 
#    y 0.000000 1.883370 0.000000 
#    z 0.000000 0.000000 1.846190 
# 
# From -- ./inp_files/23229.got.cif
#   From: 2010.03.12/outbox.cif.g09.slc.cpg/sg54_12_cif.got.tgz:23229.got - 2010.04.16 15:00:50.
