data_PCOD8224323
_publ_section_title
;
Structure prediction by ZEFSAII (Michael W. Deem and Ramdas Pophale) SiO2 
 PCOD8224323
Probable space group: P B A M
;
_chemical_formula_sum "Si O2"
_cell_formula_units_Z 32
_cell_length_a 5.215179
_cell_length_b 26.654550
_cell_length_c 12.708102
_cell_angle_alpha 90.000000
_cell_angle_beta 90.000000
_cell_angle_gamma 90.000000
_cell_volume 1766.531012
_symmetry_space_group_name_H-M "P B A M"
_symmetry_group_IT_number 55
_symmetry_cell_setting 'orthorhombic'
loop_
_space_group_symop_operation_xyz
x,y,z
-x,-y,z
1/2+x,1/2-y,-z
1/2-x,1/2+y,-z
-x,-y,-z
x,y,-z
1/2-x,1/2+y,z
1/2+x,1/2-y,z
loop_
_atom_site_type_symbol
_atom_site_label
_atom_site_fract_x
_atom_site_fract_y
_atom_site_fract_z
Si Si1 0.995180 0.218650 0.122288
Si Si2 0.347343 0.551765 0.380703
Si Si3 0.039916 0.890574 0.201886
Si Si4 0.453003 0.054898 0.185193
O O1 0.256868 0.246390 0.152393
O O2 0.980201 0.168733 0.191041
O O3 0.986896 0.203770 0.000000
O O4 0.500000 0.500000 0.373438
O O5 0.278387 0.566358 0.500000
O O6 0.522283 0.595161 0.326221
O O7 0.085164 0.548085 0.312266
O O8 0.309489 0.909595 0.155778
O O9 0.806535 0.918978 0.139822
O O10 0.500000 0.000000 0.134327
#
# Coordination Sequence:
#
# PCOD8224323 Si02
#       4
#     8   8   8   8
#     4  10  21  38  60  81  97 124 175 229 270 310
#     4   9  18  30  50  79 109 142 178 207 240 296
#     4  10  19  32  52  76 105 137 167 216 264 300
#     4  10  17  31  47  75 108 141 170 202 246 304
#
# _framework density 18.114598000000001
#
# number of rings (size 3 to 8) (size 9 to 14) (size 15 to 20)
#    1.500    0.750    2.500    2.250    0.000    1.500 
#    0.000    0.000    0.000    9.750    0.000    0.000 
#    0.000    0.000    0.000    0.000    0.000    0.000 
#
# Total GULP energy -396447.265490 kJ/mol
# GULP energy per Si atom -12388.977047 kJ/mol
# Density = 1.807337 g / cm^3
# Si number density = 18.114598 Si / 1000 Ang^3
#
#
#
# Elastic Constant Matrix: (Units=GPa)
#
#
# Indices 1 2 3 4 5 6 
#
# 1 108.8533 15.9540 4.3005 0.0000 0.0000 0.0000
# 2 15.9540 106.2812 33.2632 0.0000 0.0000 0.0000
# 3 4.3005 33.2632 37.4295 0.0000 0.0000 0.0000
# 4 0.0000 0.0000 0.0000 20.3025 0.0000 0.0000
# 5 0.0000 0.0000 0.0000 0.0000 2.8884 0.0000
# 6 0.0000 0.0000 0.0000 0.0000 0.0000 31.7931
#
#
#
# Elastic Compliance Matrix: (Units=1/GPa)
#
#
# Indices 1 2 3 4 5 6 
#
# 1 0.009395 -0.001486 0.000241 0.000000 0.000000 0.000000
# 2 -0.001486 0.013269 -0.011622 0.000000 0.000000 0.000000
# 3 0.000241 -0.011622 0.037017 0.000000 0.000000 0.000000
# 4 0.000000 0.000000 0.000000 0.049255 0.000000 0.000000
# 5 0.000000 0.000000 0.000000 0.000000 0.346215 0.000000
# 6 0.000000 0.000000 0.000000 0.000000 0.000000 0.031453
#
#
# Mechanical properties :
#
#
# Convention : Reuss Voigt Hill
#
# Bulk Modulus (GPa) = 29.45630 39.95550 34.70590
# Shear Modulus (GPa) = 9.54830 24.26655 16.90743
#
# Velocity S-wave (km/s) = 2.29837 3.66404 3.05841
# Velocity P-wave (km/s) = 4.83112 6.32497 5.62783
#
# Compressibility (1/GPa) = 0.03394860
#
# Stress axis : x y z
#
# Youngs Moduli (GPa) = 106.44071 75.36213 27.01452
#
# Poissons Ratio (x) = 0.11196 -0.00651
# Poissons Ratio (y) = 0.15814 0.31395
# Poissons Ratio (z) = -0.02564 0.87583
#
# Static dielectric constant tensor:
#      x y z
#    x 3.458560 0.000000 0.000000 
#    y 0.000000 3.136860 0.000000 
#    z 0.000000 0.000000 3.010790 
# 
# 
# High freq. dielectric constant tensor:
#      x y z
#    x 1.718200 0.000000 0.000000 
#    y 0.000000 1.694140 0.000000 
#    z 0.000000 0.000000 1.655740 
# 
# From -- ./inp_files/11210.got.cif
#   From: 2010.03.12/outbox.cif.g09.slc.cpg/sg55_6_cif.got.tgz:11210.got - 2010.04.16 15:19:21.
