data_PCOD8224805
_publ_section_title
;
Structure prediction by ZEFSAII (Michael W. Deem and Ramdas Pophale) SiO2 
 PCOD8224805
Probable space group: P B A M
;
_chemical_formula_sum "Si O2"
_cell_formula_units_Z 56
_cell_length_a 13.685032
_cell_length_b 28.802169
_cell_length_c 8.898597
_cell_angle_alpha 90.000000
_cell_angle_beta 90.000000
_cell_angle_gamma 90.000000
_cell_volume 3507.458575
_symmetry_space_group_name_H-M "P B A M"
_symmetry_group_IT_number 55
_symmetry_cell_setting 'orthorhombic'
loop_
_space_group_symop_operation_xyz
x,y,z
-x,-y,z
1/2+x,1/2-y,-z
1/2-x,1/2+y,-z
-x,-y,-z
x,y,-z
1/2-x,1/2+y,z
1/2+x,1/2-y,z
loop_
_atom_site_type_symbol
_atom_site_label
_atom_site_fract_x
_atom_site_fract_y
_atom_site_fract_z
Si Si1 0.393488 0.096500 0.676531
Si Si2 0.398057 0.734328 0.825758
Si Si3 0.787067 0.323068 0.828595
Si Si4 0.384610 0.995313 0.665302
Si Si5 0.897431 0.596718 0.823086
Si Si6 0.204293 0.318584 0.676913
Si Si7 0.381794 0.273608 0.826678
O O1 0.416268 0.098375 0.500000
O O2 0.313725 0.134773 0.719795
O O3 0.347480 0.046077 0.720268
O O4 0.494179 0.106365 0.762343
O O5 0.323850 0.692264 0.792409
O O6 0.371278 0.778988 0.727798
O O7 0.505968 0.716758 0.783843
O O8 0.391313 0.749501 0.000000
O O9 0.859499 0.280344 0.795789
O O10 0.797421 0.339860 0.000000
O O11 0.341863 0.983086 0.500000
O O12 0.500000 0.000000 0.653349
O O13 0.357126 0.954572 0.780762
O O14 0.822545 0.633131 0.753629
O O15 0.899130 0.602155 0.000000
O O16 0.197943 0.324356 0.500000
O O17 0.314723 0.306012 0.723779
O O18 0.359164 0.285491 0.000000
#
# Coordination Sequence:
#
# PCOD8224805 Si02
#       7
#     8   8   8   8   8   8   8
#     4  10  19  30  45  66  94 124 151 184 225 267
#     4   9  18  33  50  67  91 122 153 188 225 261
#     4   9  17  28  45  69  93 120 154 186 219 264
#     4   8  16  30  44  62  90 119 147 182 225 269
#     4  11  20  30  46  66  90 120 153 187 223 268
#     4  11  21  31  46  68  93 120 151 186 224 268
#     4   9  18  33  49  65  89 120 153 188 224 261
#
# _framework density 15.965977000000001
#
# number of rings (size 3 to 8) (size 9 to 14) (size 15 to 20)
#    0.000    2.429    0.000    5.571    0.000    7.143 
#    0.000    0.000    0.000    0.000    0.000    1.000 
#    0.000    8.000    0.000    0.000    0.000    0.000 
#
# Total GULP energy -694354.136930 kJ/mol
# GULP energy per Si atom -12399.181017 kJ/mol
# Density = 1.592964 g / cm^3
# Si number density = 15.965977 Si / 1000 Ang^3
#
#
#
# Elastic Constant Matrix: (Units=GPa)
#
#
# Indices 1 2 3 4 5 6 
#
# 1 88.1310 48.0392 41.2388 0.0000 0.0000 0.0000
# 2 48.0392 116.4674 61.8242 0.0000 0.0000 0.0000
# 3 41.2388 61.8242 106.5340 0.0000 0.0000 0.0000
# 4 0.0000 0.0000 0.0000 27.7786 0.0000 0.0000
# 5 0.0000 0.0000 0.0000 0.0000 17.0866 0.0000
# 6 0.0000 0.0000 0.0000 0.0000 0.0000 19.9040
#
#
#
# Elastic Compliance Matrix: (Units=1/GPa)
#
#
# Indices 1 2 3 4 5 6 
#
# 1 0.015395 -0.004605 -0.003287 0.000000 0.000000 0.000000
# 2 -0.004605 0.013786 -0.006218 0.000000 0.000000 0.000000
# 3 -0.003287 -0.006218 0.014267 0.000000 0.000000 0.000000
# 4 0.000000 0.000000 0.000000 0.035999 0.000000 0.000000
# 5 0.000000 0.000000 0.000000 0.000000 0.058525 0.000000
# 6 0.000000 0.000000 0.000000 0.000000 0.000000 0.050241
#
#
# Mechanical properties :
#
#
# Convention : Reuss Voigt Hill
#
# Bulk Modulus (GPa) = 65.66487 68.14853 66.90670
# Shear Modulus (GPa) = 22.57237 23.62253 23.09745
#
# Velocity S-wave (km/s) = 3.76410 3.85067 3.80763
# Velocity P-wave (km/s) = 7.75297 7.90863 7.83119
#
# Compressibility (1/GPa) = 0.01522884
#
# Stress axis : x y z
#
# Youngs Moduli (GPa) = 64.95629 72.53636 70.09032
#
# Poissons Ratio (x) = 0.33405 0.23037
# Poissons Ratio (y) = 0.29914 0.43581
# Poissons Ratio (z) = 0.21350 0.45102
#
# Static dielectric constant tensor:
#      x y z
#    x 2.882350 0.000000 0.000000 
#    y 0.000000 3.225220 0.000000 
#    z 0.000000 0.000000 3.028530 
# 
# 
# High freq. dielectric constant tensor:
#      x y z
#    x 1.583460 0.000000 0.000000 
#    y 0.000000 1.609520 0.000000 
#    z 0.000000 0.000000 1.618290 
# 
# From -- ./inp_files/6853.got.cif
#   From: 2010.03.12/outbox.cif.g09.slc.cpg/sg55_4_cif.got.tgz:6853.got - 2010.04.16 15:19:21.
