data_PCOD8224449
_publ_section_title
;
Structure prediction by ZEFSAII (Michael W. Deem and Ramdas Pophale) SiO2 
 PCOD8224449
Probable space group: P B A M
;
_chemical_formula_sum "Si O2"
_cell_formula_units_Z 64
_cell_length_a 19.202161
_cell_length_b 23.255784
_cell_length_c 9.101394
_cell_angle_alpha 90.000000
_cell_angle_beta 90.000000
_cell_angle_gamma 90.000000
_cell_volume 4064.330414
_symmetry_space_group_name_H-M "P B A M"
_symmetry_group_IT_number 55
_symmetry_cell_setting 'orthorhombic'
loop_
_space_group_symop_operation_xyz
x,y,z
-x,-y,z
1/2+x,1/2-y,-z
1/2-x,1/2+y,-z
-x,-y,-z
x,y,-z
1/2-x,1/2+y,z
1/2+x,1/2-y,z
loop_
_atom_site_type_symbol
_atom_site_label
_atom_site_fract_x
_atom_site_fract_y
_atom_site_fract_z
Si Si1 0.275524 0.168703 0.829531
Si Si2 0.998318 0.386585 0.328729
Si Si3 0.655180 0.277688 0.325877
Si Si4 0.730418 0.162542 0.671408
Si Si5 0.357026 0.267790 0.328292
Si Si6 0.491961 0.757265 0.672575
Si Si7 0.353385 0.943607 0.671523
Si Si8 0.632712 0.939695 0.170636
O O1 0.199401 0.172364 0.753566
O O2 0.329550 0.213346 0.759870
O O3 0.305418 0.105457 0.802291
O O4 0.267812 0.183283 0.000000
O O5 0.978771 0.385284 0.500000
O O6 0.004364 0.321955 0.263205
O O7 0.938427 0.420510 0.245857
O O8 0.069715 0.419699 0.300351
O O9 0.662257 0.286508 0.500000
O O10 0.686295 0.216806 0.271768
O O11 0.574939 0.278439 0.269702
O O12 0.716247 0.157673 0.500000
O O13 0.812089 0.174709 0.708600
O O14 0.702315 0.102744 0.737540
O O15 0.348786 0.252482 0.500000
O O16 0.437925 0.277976 0.286806
O O17 0.481731 0.764273 0.500000
O O18 0.341218 0.956395 0.500000
O O19 0.340365 0.001139 0.761403
O O20 0.616873 0.948006 0.000000
#
# Coordination Sequence:
#
# PCOD8224449 Si02
#       8
#     8   8   8   8   8   8   8   8
#     4  10  20  32  43  62  91 121 154 192 228 263
#     4  10  18  30  47  68  92 121 157 188 217 265
#     4   9  16  29  49  69  91 116 147 185 227 275
#     4   8  14  26  44  67  89 113 145 184 223 261
#     4   9  16  28  50  71  91 118 147 182 228 278
#     4   9  15  26  48  75  95 116 147 182 223 276
#     4  10  19  31  47  65  89 121 158 193 221 262
#     4  11  23  34  43  60  91 126 160 195 226 260
#
# _framework density 15.746751
#
# number of rings (size 3 to 8) (size 9 to 14) (size 15 to 20)
#    0.000    2.500    2.500    1.875    0.000    3.500 
#    0.000    3.750    0.000    0.000    0.000    0.875 
#    0.000    7.000    0.000    0.000    0.000    0.000 
#
# Total GULP energy -793274.942833 kJ/mol
# GULP energy per Si atom -12394.920982 kJ/mol
# Density = 1.571091 g / cm^3
# Si number density = 15.746751 Si / 1000 Ang^3
#
#
#
# Elastic Constant Matrix: (Units=GPa)
#
#
# Indices 1 2 3 4 5 6 
#
# 1 134.5346 61.9665 44.3334 0.0000 0.0000 0.0000
# 2 61.9665 87.7138 42.0096 0.0000 0.0000 0.0000
# 3 44.3334 42.0096 53.6791 0.0000 0.0000 0.0000
# 4 0.0000 0.0000 0.0000 14.1818 0.0000 0.0000
# 5 0.0000 0.0000 0.0000 0.0000 8.8541 0.0000
# 6 0.0000 0.0000 0.0000 0.0000 0.0000 23.2773
#
#
#
# Elastic Compliance Matrix: (Units=1/GPa)
#
#
# Indices 1 2 3 4 5 6 
#
# 1 0.011854 -0.005895 -0.005177 0.000000 0.000000 0.000000
# 2 -0.005895 0.021168 -0.011697 0.000000 0.000000 0.000000
# 3 -0.005177 -0.011697 0.032059 0.000000 0.000000 0.000000
# 4 0.000000 0.000000 0.000000 0.070513 0.000000 0.000000
# 5 0.000000 0.000000 0.000000 0.000000 0.112942 0.000000
# 6 0.000000 0.000000 0.000000 0.000000 0.000000 0.042960
#
#
# Mechanical properties :
#
#
# Convention : Reuss Voigt Hill
#
# Bulk Modulus (GPa) = 51.17003 63.61628 57.39315
# Shear Modulus (GPa) = 14.55401 17.77052 16.16227
#
# Velocity S-wave (km/s) = 3.04345 3.36299 3.20720
# Velocity P-wave (km/s) = 6.70196 7.45432 7.08813
#
# Compressibility (1/GPa) = 0.01954269
#
# Stress axis : x y z
#
# Youngs Moduli (GPa) = 84.35770 47.24183 31.19257
#
# Poissons Ratio (x) = 0.27850 0.16148
# Poissons Ratio (y) = 0.49731 0.36486
# Poissons Ratio (z) = 0.43670 0.55259
#
# Static dielectric constant tensor:
#      x y z
#    x 3.252060 0.000000 0.000000 
#    y 0.000000 2.947990 0.000000 
#    z 0.000000 0.000000 2.807260 
# 
# 
# High freq. dielectric constant tensor:
#      x y z
#    x 1.606900 0.000000 0.000000 
#    y 0.000000 1.579920 0.000000 
#    z 0.000000 0.000000 1.582460 
# 
# From -- ./inp_files/9120.got.cif
#   From: 2010.03.12/outbox.cif.g09.slc.cpg/sg55_5_cif.got.tgz:9120.got - 2010.04.16 15:19:21.
