data_PCOD8224406
_publ_section_title
;
Structure prediction by ZEFSAII (Michael W. Deem and Ramdas Pophale) SiO2 
 PCOD8224406
Probable space group: P B A M
;
_chemical_formula_sum "Si O2"
_cell_formula_units_Z 48
_cell_length_a 24.892649
_cell_length_b 8.498133
_cell_length_c 13.689000
_cell_angle_alpha 90.000000
_cell_angle_beta 90.000000
_cell_angle_gamma 90.000000
_cell_volume 2895.785323
_symmetry_space_group_name_H-M "P B A M"
_symmetry_group_IT_number 55
_symmetry_cell_setting 'orthorhombic'
loop_
_space_group_symop_operation_xyz
x,y,z
-x,-y,z
1/2+x,1/2-y,-z
1/2-x,1/2+y,-z
-x,-y,-z
x,y,-z
1/2-x,1/2+y,z
1/2+x,1/2-y,z
loop_
_atom_site_type_symbol
_atom_site_label
_atom_site_fract_x
_atom_site_fract_y
_atom_site_fract_z
Si Si1 0.799994 0.858220 0.114546
Si Si2 0.442411 0.921281 0.608113
Si Si3 0.187941 0.778902 0.883811
Si Si4 0.590312 0.887205 0.220246
Si Si5 0.487438 0.675557 0.746218
Si Si6 0.592549 0.203293 0.114516
O O1 0.742979 0.798870 0.154777
O O2 0.848074 0.748613 0.155029
O O3 0.810452 0.038050 0.142718
O O4 0.797179 0.836901 0.000000
O O5 0.417177 0.898073 0.500000
O O6 0.452276 0.753797 0.659828
O O7 0.500000 0.000000 0.599698
O O8 0.402487 0.031036 0.672851
O O9 0.142483 0.702469 0.816877
O O10 0.177446 0.750022 0.000000
O O11 0.541435 0.766814 0.226085
O O12 0.576581 0.026460 0.144359
O O13 0.500000 0.500000 0.712026
O O14 0.450452 0.673671 0.842621
O O15 0.590317 0.222783 0.000000
#
# Coordination Sequence:
#
# PCOD8224406 Si02
#       6
#     8   8   8   8   8   8
#     4   9  18  30  45  66  92 126 163 195 226 264
#     4   8  16  32  50  67  89 116 148 188 232 276
#     4  10  18  29  45  67  95 123 156 194 228 268
#     4  10  19  30  47  69  91 121 155 191 236 283
#     4  10  20  31  45  69  96 122 157 195 237 289
#     4  10  19  31  45  63  93 129 162 194 228 273
#
# _framework density 16.575816
#
# number of rings (size 3 to 8) (size 9 to 14) (size 15 to 20)
#    0.000    2.500    0.000    4.000    0.000    5.333 
#    0.000    0.000    0.000    0.000    0.000   10.500 
#    0.000    0.000    0.000    0.000    0.000    0.000 
#
# Total GULP energy -594943.292536 kJ/mol
# GULP energy per Si atom -12394.651928 kJ/mol
# Density = 1.653809 g / cm^3
# Si number density = 16.575816 Si / 1000 Ang^3
#
#
#
# Elastic Constant Matrix: (Units=GPa)
#
#
# Indices 1 2 3 4 5 6 
#
# 1 84.0172 54.6401 51.1170 0.0000 0.0000 0.0000
# 2 54.6401 95.0490 38.8251 0.0000 0.0000 0.0000
# 3 51.1170 38.8251 93.9919 0.0000 0.0000 0.0000
# 4 0.0000 0.0000 0.0000 14.6230 0.0000 0.0000
# 5 0.0000 0.0000 0.0000 0.0000 13.9999 0.0000
# 6 0.0000 0.0000 0.0000 0.0000 0.0000 31.0887
#
#
#
# Elastic Compliance Matrix: (Units=1/GPa)
#
#
# Indices 1 2 3 4 5 6 
#
# 1 0.023814 -0.010104 -0.008777 0.000000 0.000000 0.000000
# 2 -0.010104 0.016944 -0.001504 0.000000 0.000000 0.000000
# 3 -0.008777 -0.001504 0.016034 0.000000 0.000000 0.000000
# 4 0.000000 0.000000 0.000000 0.068385 0.000000 0.000000
# 5 0.000000 0.000000 0.000000 0.000000 0.071429 0.000000
# 6 0.000000 0.000000 0.000000 0.000000 0.000000 0.032166
#
#
# Mechanical properties :
#
#
# Convention : Reuss Voigt Hill
#
# Bulk Modulus (GPa) = 62.41912 62.46915 62.44414
# Shear Modulus (GPa) = 18.18959 20.50740 19.34850
#
# Velocity S-wave (km/s) = 3.31623 3.52118 3.42024
# Velocity P-wave (km/s) = 7.23890 7.36888 7.30418
#
# Compressibility (1/GPa) = 0.01602073
#
# Stress axis : x y z
#
# Youngs Moduli (GPa) = 41.99244 59.01879 62.36830
#
# Poissons Ratio (x) = 0.59635 0.54742
# Poissons Ratio (y) = 0.42431 0.09378
# Poissons Ratio (z) = 0.36858 0.08875
#
# Static dielectric constant tensor:
#      x y z
#    x 3.254440 0.000000 0.000000 
#    y 0.000000 3.263450 0.000000 
#    z 0.000000 0.000000 3.137800 
# 
# 
# High freq. dielectric constant tensor:
#      x y z
#    x 1.633040 0.000000 0.000000 
#    y 0.000000 1.648540 0.000000 
#    z 0.000000 0.000000 1.605840 
# 
# From -- ./inp_files/12316.got.cif
#   From: 2010.03.12/outbox.cif.g09.slc.cpg/sg55_7_cif.got.tgz:12316.got - 2010.04.16 15:19:21.
