data_PCOD8224484
_publ_section_title
;
Structure prediction by ZEFSAII (Michael W. Deem and Ramdas Pophale) SiO2 
 PCOD8224484
Probable space group: P B A M
;
_chemical_formula_sum "Si O2"
_cell_formula_units_Z 64
_cell_length_a 19.137243
_cell_length_b 23.004848
_cell_length_c 9.048701
_cell_angle_alpha 90.000000
_cell_angle_beta 90.000000
_cell_angle_gamma 90.000000
_cell_volume 3983.684882
_symmetry_space_group_name_H-M "P B A M"
_symmetry_group_IT_number 55
_symmetry_cell_setting 'orthorhombic'
loop_
_space_group_symop_operation_xyz
x,y,z
-x,-y,z
1/2+x,1/2-y,-z
1/2-x,1/2+y,-z
-x,-y,-z
x,y,-z
1/2-x,1/2+y,z
1/2+x,1/2-y,z
loop_
_atom_site_type_symbol
_atom_site_label
_atom_site_fract_x
_atom_site_fract_y
_atom_site_fract_z
Si Si1 0.001659 0.616377 0.173450
Si Si2 0.646283 0.944255 0.168860
Si Si3 0.372215 0.938366 0.324175
Si Si4 0.994933 0.261328 0.671928
Si Si5 0.639037 0.284918 0.329557
Si Si6 0.659214 0.738830 0.326525
Si Si7 0.259167 0.161123 0.170224
Si Si8 0.283942 0.832678 0.672369
O O1 0.078438 0.593163 0.211322
O O2 0.947482 0.573692 0.253275
O O3 0.994315 0.681533 0.231942
O O4 0.986409 0.616188 0.000000
O O5 0.714879 0.904722 0.192093
O O6 0.654600 0.998608 0.276837
O O7 0.640605 0.966008 0.000000
O O8 0.379485 0.935186 0.500000
O O9 0.316269 0.891395 0.258767
O O10 0.998006 0.279981 0.500000
O O11 0.056333 0.214885 0.707018
O O12 0.922133 0.229359 0.711509
O O13 0.653546 0.298912 0.500000
O O14 0.680726 0.333054 0.235325
O O15 0.666470 0.221088 0.286227
O O16 0.671575 0.747980 0.500000
O O17 0.686055 0.797009 0.250115
O O18 0.705038 0.682974 0.272010
O O19 0.257955 0.178966 0.000000
O O20 0.282633 0.843469 0.500000
#
# Coordination Sequence:
#
# PCOD8224484 Si02
#       8
#     8   8   8   8   8   8   8   8
#     4  11  21  33  46  64  97 132 159 195 235 273
#     4  10  22  36  46  63  95 129 161 200 239 273
#     4  11  21  33  49  68  92 125 167 202 229 278
#     4  10  18  30  50  73  96 125 159 192 231 285
#     4   9  17  31  48  68  96 121 151 195 236 277
#     4   9  17  30  50  70  93 123 153 190 240 285
#     4  10  19  32  47  67  94 124 158 195 235 282
#     4   8  15  29  45  66  94 118 145 193 238 268
#
# _framework density 16.065526999999999
#
# number of rings (size 3 to 8) (size 9 to 14) (size 15 to 20)
#    0.000    2.250    2.500    2.250    0.000    4.000 
#    0.000    0.625    0.000    0.000    0.000    0.875 
#    0.000    7.000    0.000    0.000    0.000    0.000 
#
# Total GULP energy -793385.774500 kJ/mol
# GULP energy per Si atom -12396.652727 kJ/mol
# Density = 1.602896 g / cm^3
# Si number density = 16.065527 Si / 1000 Ang^3
#
#
#
# Elastic Constant Matrix: (Units=GPa)
#
#
# Indices 1 2 3 4 5 6 
#
# 1 95.1227 21.6779 28.0403 0.0000 0.0000 0.0000
# 2 21.6779 44.1797 24.2589 0.0000 0.0000 0.0000
# 3 28.0403 24.2589 54.1502 0.0000 0.0000 0.0000
# 4 0.0000 0.0000 0.0000 21.3593 0.0000 0.0000
# 5 0.0000 0.0000 0.0000 0.0000 19.4386 0.0000
# 6 0.0000 0.0000 0.0000 0.0000 0.0000 22.0791
#
#
#
# Elastic Compliance Matrix: (Units=1/GPa)
#
#
# Indices 1 2 3 4 5 6 
#
# 1 0.012803 -0.003504 -0.005060 0.000000 0.000000 0.000000
# 2 -0.003504 0.030978 -0.012064 0.000000 0.000000 0.000000
# 3 -0.005060 -0.012064 0.026492 0.000000 0.000000 0.000000
# 4 0.000000 0.000000 0.000000 0.046818 0.000000 0.000000
# 5 0.000000 0.000000 0.000000 0.000000 0.051444 0.000000
# 6 0.000000 0.000000 0.000000 0.000000 0.000000 0.045292
#
#
# Mechanical properties :
#
#
# Convention : Reuss Voigt Hill
#
# Bulk Modulus (GPa) = 34.46131 37.93409 36.19770
# Shear Modulus (GPa) = 18.88548 20.54044 19.71296
#
# Velocity S-wave (km/s) = 3.43232 3.57955 3.50671
# Velocity P-wave (km/s) = 6.09957 6.38338 6.24309
#
# Compressibility (1/GPa) = 0.02901805
#
# Stress axis : x y z
#
# Youngs Moduli (GPa) = 78.10808 32.28088 37.74753
#
# Poissons Ratio (x) = 0.11310 0.19100
# Poissons Ratio (y) = 0.27366 0.45538
# Poissons Ratio (z) = 0.39523 0.38943
#
# Static dielectric constant tensor:
#      x y z
#    x 4.349060 0.000000 0.000000 
#    y 0.000000 2.931770 0.000000 
#    z 0.000000 0.000000 2.997390 
# 
# 
# High freq. dielectric constant tensor:
#      x y z
#    x 1.619530 0.000000 0.000000 
#    y 0.000000 1.586190 0.000000 
#    z 0.000000 0.000000 1.613410 
# 
# From -- ./inp_files/9110.got.cif
#   From: 2010.03.12/outbox.cif.g09.slc.cpg/sg55_5_cif.got.tgz:9110.got - 2010.04.16 15:19:21.
