data_PCOD8224606
_publ_section_title
;
Structure prediction by ZEFSAII (Michael W. Deem and Ramdas Pophale) SiO2 
 PCOD8224606
Probable space group: P B A M
;
_chemical_formula_sum "Si O2"
_cell_formula_units_Z 64
_cell_length_a 19.141791
_cell_length_b 20.831743
_cell_length_c 9.357574
_cell_angle_alpha 90.000000
_cell_angle_beta 90.000000
_cell_angle_gamma 90.000000
_cell_volume 3731.396925
_symmetry_space_group_name_H-M "P B A M"
_symmetry_group_IT_number 55
_symmetry_cell_setting 'orthorhombic'
loop_
_space_group_symop_operation_xyz
x,y,z
-x,-y,z
1/2+x,1/2-y,-z
1/2-x,1/2+y,-z
-x,-y,-z
x,y,-z
1/2-x,1/2+y,z
1/2+x,1/2-y,z
loop_
_atom_site_type_symbol
_atom_site_label
_atom_site_fract_x
_atom_site_fract_y
_atom_site_fract_z
Si Si1 0.671681 0.125852 0.164632
Si Si2 0.952295 0.938738 0.167151
Si Si3 0.462836 0.066049 0.335733
Si Si4 0.327292 0.373698 0.833566
Si Si5 0.667934 0.495998 0.667439
Si Si6 0.324781 0.000740 0.662447
Si Si7 0.028814 0.318065 0.831876
Si Si8 0.532420 0.686596 0.832448
O O1 0.749361 0.152895 0.201665
O O2 0.654657 0.060819 0.246166
O O3 0.612044 0.178098 0.202463
O O4 0.667864 0.107053 0.000000
O O5 0.991639 0.875662 0.225710
O O6 0.881103 0.943824 0.256985
O O7 0.934043 0.934049 0.000000
O O8 0.000000 0.000000 0.199662
O O9 0.479929 0.082673 0.500000
O O10 0.488122 0.123323 0.237554
O O11 0.500000 0.000000 0.290645
O O12 0.379696 0.057811 0.309602
O O13 0.344618 0.434981 0.738060
O O14 0.384793 0.319358 0.796254
O O15 0.334338 0.394093 0.000000
O O16 0.650616 0.500442 0.500000
O O17 0.747375 0.473361 0.696776
O O18 0.329530 0.976661 0.500000
O O19 0.999101 0.251745 0.765036
O O20 0.014569 0.321715 0.000000
O O21 0.520324 0.689385 0.000000
#
# Coordination Sequence:
#
# PCOD8224606 Si02
#       8
#     8   8   8   8   8   8   8   8
#     4   9  17  28  48  74  97 123 163 208 247 290
#     4  10  18  32  53  73  97 133 169 199 240 300
#     4  10  19  33  53  73  96 131 169 198 237 302
#     4   9  16  31  51  69  93 132 171 198 239 304
#     4  10  19  30  48  76 104 125 157 212 258 285
#     4   9  18  32  49  71 100 131 162 200 249 295
#     4  10  20  33  49  75 105 129 160 211 257 285
#     4   9  18  33  51  71 100 134 167 202 245 295
#
# _framework density 17.151752999999999
#
# number of rings (size 3 to 8) (size 9 to 14) (size 15 to 20)
#    0.000    2.500    2.500    0.375    0.000    1.500 
#    0.000    2.500    0.000    3.000    0.000    0.000 
#    0.000    0.000    0.000    0.000    0.000    0.000 
#
# Total GULP energy -793369.234424 kJ/mol
# GULP energy per Si atom -12396.394288 kJ/mol
# Density = 1.711272 g / cm^3
# Si number density = 17.151753 Si / 1000 Ang^3
#
#
#
# Elastic Constant Matrix: (Units=GPa)
#
#
# Indices 1 2 3 4 5 6 
#
# 1 143.6904 75.2920 42.7780 0.0000 0.0000 0.0000
# 2 75.2920 115.1436 33.9526 0.0000 0.0000 0.0000
# 3 42.7780 33.9526 43.3426 0.0000 0.0000 0.0000
# 4 0.0000 0.0000 0.0000 -1.8994 0.0000 0.0000
# 5 0.0000 0.0000 0.0000 0.0000 24.6811 0.0000
# 6 0.0000 0.0000 0.0000 0.0000 0.0000 26.0208
#
#
#
# Elastic Compliance Matrix: (Units=1/GPa)
#
#
# Indices 1 2 3 4 5 6 
#
# 1 0.012232 -0.005772 -0.007551 0.000000 0.000000 0.000000
# 2 -0.005772 0.014017 -0.005284 0.000000 0.000000 0.000000
# 3 -0.007551 -0.005284 0.034664 0.000000 0.000000 0.000000
# 4 0.000000 0.000000 0.000000 -0.526493 0.000000 0.000000
# 5 0.000000 0.000000 0.000000 0.000000 0.040517 0.000000
# 6 0.000000 0.000000 0.000000 0.000000 0.000000 0.038431
#
#
# Mechanical properties :
#
#
# Convention : Reuss Voigt Hill
#
# Bulk Modulus (GPa) = 42.19521 67.35799 54.77660
# Shear Modulus (GPa) = -14.64042 19.77077 2.56517
#
# Velocity S-wave (km/s) = -2.92478 3.39882 1.22426
# Velocity P-wave (km/s) = 3.63988 7.39998 5.83131
#
# Compressibility (1/GPa) = 0.02369937
#
# Stress axis : x y z
#
# Youngs Moduli (GPa) = 81.75450 71.34242 28.84855
#
# Poissons Ratio (x) = 0.41177 0.21784
# Poissons Ratio (y) = 0.47186 0.15243
# Poissons Ratio (z) = 0.61734 0.37695
#
# Static dielectric constant tensor:
#      x y z
#    x 3.643790 0.000000 0.000000 
#    y 0.000000 3.068890 0.000000 
#    z 0.000000 0.000000 3.092160 
# 
# 
# High freq. dielectric constant tensor:
#      x y z
#    x 1.682400 0.000000 0.000000 
#    y 0.000000 1.627300 0.000000 
#    z 0.000000 0.000000 1.648540 
# 
# From -- ./inp_files/8155.got.cif
#   From: 2010.03.12/outbox.cif.g09.slc.cpg/sg55_5_cif.got.tgz:8155.got - 2010.04.16 15:19:21.
