data_PCOD8224588
_publ_section_title
;
Structure prediction by ZEFSAII (Michael W. Deem and Ramdas Pophale) SiO2 
 PCOD8224588
Probable space group: P B A M
;
_chemical_formula_sum "Si O2"
_cell_formula_units_Z 64
_cell_length_a 30.809920
_cell_length_b 9.596097
_cell_length_c 13.287321
_cell_angle_alpha 90.000000
_cell_angle_beta 90.000000
_cell_angle_gamma 90.000000
_cell_volume 3928.462636
_symmetry_space_group_name_H-M "P B A M"
_symmetry_group_IT_number 55
_symmetry_cell_setting 'orthorhombic'
loop_
_space_group_symop_operation_xyz
x,y,z
-x,-y,z
1/2+x,1/2-y,-z
1/2-x,1/2+y,-z
-x,-y,-z
x,y,-z
1/2-x,1/2+y,z
1/2+x,1/2-y,z
loop_
_atom_site_type_symbol
_atom_site_label
_atom_site_fract_x
_atom_site_fract_y
_atom_site_fract_z
Si Si1 0.290836 0.997757 0.245885
Si Si2 0.833306 0.792981 0.735215
Si Si3 0.080555 0.161375 0.616366
Si Si4 0.832091 0.213999 0.256097
Si Si5 0.780292 0.006293 0.615084
Si Si6 0.998845 0.342846 0.618785
Si Si7 0.917032 0.162102 0.616416
Si Si8 0.202895 0.998760 0.881827
O O1 0.323254 0.125778 0.232844
O O2 0.270417 0.007279 0.358055
O O3 0.251487 0.998489 0.165252
O O4 0.320464 0.863241 0.239494
O O5 0.882000 0.798508 0.694567
O O6 0.804134 0.865667 0.649817
O O7 0.825650 0.872887 0.840277
O O8 0.093361 0.195695 0.500000
O O9 0.040230 0.253733 0.653805
O O10 0.068532 0.998570 0.625534
O O11 0.878840 0.193115 0.305401
O O12 0.797422 0.145376 0.331215
O O13 0.825003 0.137593 0.148728
O O14 0.788746 0.028096 0.500000
O O15 0.999028 0.352641 0.500000
O O16 0.955820 0.261399 0.653303
O O17 0.000000 0.500000 0.664779
O O18 0.903426 0.193828 0.500000
O O19 0.207869 0.010055 0.000000
#
# Coordination Sequence:
#
# PCOD8224588 Si02
#       8
#     8   8   8   8   8   8   8   8
#     4  10  22  32  46  73 101 130 169 210 255 299
#     4  10  20  33  49  74  99 129 171 211 248 304
#     4  10  18  32  51  71 103 142 173 204 241 287
#     4  10  20  33  49  74  99 129 171 211 248 304
#     4  10  18  32  46  62  97 138 175 205 237 287
#     4   9  19  31  47  77 107 134 170 205 242 293
#     4  10  18  32  51  71 103 142 173 204 241 287
#     4  10  20  38  58  72  96 129 166 215 264 310
#
# _framework density 16.291360000000001
#
# number of rings (size 3 to 8) (size 9 to 14) (size 15 to 20)
#    0.000    2.375    2.500    4.125    1.750    6.500 
#    0.000    0.000    0.000    0.000    0.000    1.750 
#    0.000    1.000    0.000    0.000    0.000    0.000 
#
# Total GULP energy -793133.123166 kJ/mol
# GULP energy per Si atom -12392.705049 kJ/mol
# Density = 1.625428 g / cm^3
# Si number density = 16.291360 Si / 1000 Ang^3
#
#
#
# Elastic Constant Matrix: (Units=GPa)
#
#
# Indices 1 2 3 4 5 6 
#
# 1 87.8236 54.0897 23.2719 0.0000 0.0000 0.0000
# 2 54.0897 114.8499 19.9868 0.0000 0.0000 0.0000
# 3 23.2719 19.9868 79.6866 0.0000 0.0000 0.0000
# 4 0.0000 0.0000 0.0000 7.3003 0.0000 0.0000
# 5 0.0000 0.0000 0.0000 0.0000 15.0569 0.0000
# 6 0.0000 0.0000 0.0000 0.0000 0.0000 18.9450
#
#
#
# Elastic Compliance Matrix: (Units=1/GPa)
#
#
# Indices 1 2 3 4 5 6 
#
# 1 0.016714 -0.007343 -0.003040 0.000000 0.000000 0.000000
# 2 -0.007343 0.012330 -0.000948 0.000000 0.000000 0.000000
# 3 -0.003040 -0.000948 0.013675 0.000000 0.000000 0.000000
# 4 0.000000 0.000000 0.000000 0.136981 0.000000 0.000000
# 5 0.000000 0.000000 0.000000 0.000000 0.066415 0.000000
# 6 0.000000 0.000000 0.000000 0.000000 0.000000 0.052784
#
#
# Mechanical properties :
#
#
# Convention : Reuss Voigt Hill
#
# Bulk Modulus (GPa) = 49.85553 53.00632 51.43092
# Shear Modulus (GPa) = 15.23248 20.59456 17.91352
#
# Velocity S-wave (km/s) = 3.06110 3.55933 3.31958
# Velocity P-wave (km/s) = 6.56983 7.03554 6.80667
#
# Compressibility (1/GPa) = 0.02005796
#
# Stress axis : x y z
#
# Youngs Moduli (GPa) = 59.82925 81.10179 73.12785
#
# Poissons Ratio (x) = 0.59551 0.22228
# Poissons Ratio (y) = 0.43931 0.06934
# Poissons Ratio (z) = 0.18186 0.07690
#
# Static dielectric constant tensor:
#      x y z
#    x 3.087910 0.000000 0.000000 
#    y 0.000000 3.336130 0.000000 
#    z 0.000000 0.000000 2.800980 
# 
# 
# High freq. dielectric constant tensor:
#      x y z
#    x 1.618070 0.000000 0.000000 
#    y 0.000000 1.641840 0.000000 
#    z 0.000000 0.000000 1.585400 
# 
# From -- ./inp_files/20194.got.cif
#   From: 2010.03.12/outbox.cif.g09.slc.cpg/sg55_11_cif.got.tgz:20194.got - 2010.04.16 15:19:21.
