data_PCOD8224248
_publ_section_title
;
Structure prediction by ZEFSAII (Michael W. Deem and Ramdas Pophale) SiO2 
 PCOD8224248
Probable space group: P B A M
;
_chemical_formula_sum "Si O2"
_cell_formula_units_Z 60
_cell_length_a 5.231126
_cell_length_b 13.758309
_cell_length_c 35.837098
_cell_angle_alpha 90.000000
_cell_angle_beta 90.000000
_cell_angle_gamma 90.000000
_cell_volume 2579.247833
_symmetry_space_group_name_H-M "P B A M"
_symmetry_group_IT_number 55
_symmetry_cell_setting 'orthorhombic'
loop_
_space_group_symop_operation_xyz
x,y,z
-x,-y,z
1/2+x,1/2-y,-z
1/2-x,1/2+y,-z
-x,-y,-z
x,y,-z
1/2-x,1/2+y,z
1/2+x,1/2-y,z
loop_
_atom_site_type_symbol
_atom_site_label
_atom_site_fract_x
_atom_site_fract_y
_atom_site_fract_z
Si Si1 0.620364 0.689901 0.690218
Si Si2 0.860654 0.311505 0.958870
Si Si3 0.753926 0.432787 0.500000
Si Si4 0.173687 0.811555 0.771453
Si Si5 0.342751 0.364176 0.389895
Si Si6 0.537578 0.610087 0.152515
Si Si7 0.036166 0.609886 0.882129
Si Si8 0.838966 0.355915 0.578614
O O1 0.325261 0.722498 0.687744
O O2 0.652466 0.637339 0.730536
O O3 0.687622 0.623135 0.654738
O O4 0.073190 0.227826 0.954468
O O5 0.907516 0.389239 0.926315
O O6 0.889920 0.360288 0.000000
O O7 0.500000 0.500000 0.500000
O O8 0.770962 0.359047 0.534921
O O9 0.000000 0.500000 0.500000
O O10 0.464635 0.774511 0.775441
O O11 0.108295 0.888084 0.803745
O O12 0.377236 0.252300 0.404555
O O13 0.610587 0.414677 0.400725
O O14 0.104071 0.412115 0.411723
O O15 0.500000 0.500000 0.139165
O O16 0.766421 0.661409 0.128658
O O17 0.267039 0.661040 0.141540
O O18 0.000000 0.500000 0.868391
#
# Coordination Sequence:
#
# PCOD8224248 Si02
#       8
#     8   8   4   8   8   8   8   8
#     4  10  16  30  50  83 113 129 158 211 275 321
#     4  10  21  36  54  80 110 142 176 227 288 337
#     4  12  26  42  52  72 110 156 186 210 256 318
#     4  10  21  32  53  83 112 143 178 224 274 334
#     4  10  17  32  57  89 101 123 168 224 284 299
#     4  10  21  37  53  76 111 147 185 224 275 328
#     4  10  21  36  56  77 103 145 189 231 269 323
#     4  10  20  33  57  79 105 136 169 221 263 315
#
# _framework density 23.262598000000001
#
# number of rings (size 3 to 8) (size 9 to 14) (size 15 to 20)
#    0.000    1.867    2.667    2.400    0.000    5.600 
#    0.000    0.000    0.000    7.200    0.000    0.000 
#    0.000    0.000    0.000    0.000    0.000    0.000 
#
# Total GULP energy -743317.015389 kJ/mol
# GULP energy per Si atom -12388.616923 kJ/mol
# Density = 2.320965 g / cm^3
# Si number density = 23.262598 Si / 1000 Ang^3
#
#
#
# Elastic Constant Matrix: (Units=GPa)
#
#
# Indices 1 2 3 4 5 6 
#
# 1 189.7120 0.4473 39.6958 0.0000 0.0000 0.0000
# 2 0.4473 11.9317 -2.0278 0.0000 0.0000 0.0000
# 3 39.6958 -2.0278 177.7798 0.0000 0.0000 0.0000
# 4 0.0000 0.0000 0.0000 14.2550 0.0000 0.0000
# 5 0.0000 0.0000 0.0000 0.0000 41.4480 0.0000
# 6 0.0000 0.0000 0.0000 0.0000 0.0000 8.3711
#
#
#
# Elastic Compliance Matrix: (Units=1/GPa)
#
#
# Indices 1 2 3 4 5 6 
#
# 1 0.005532 -0.000418 -0.001240 0.000000 0.000000 0.000000
# 2 -0.000418 0.084005 0.001052 0.000000 0.000000 0.000000
# 3 -0.001240 0.001052 0.005914 0.000000 0.000000 0.000000
# 4 0.000000 0.000000 0.000000 0.070151 0.000000 0.000000
# 5 0.000000 0.000000 0.000000 0.000000 0.024127 0.000000
# 6 0.000000 0.000000 0.000000 0.000000 0.000000 0.119459
#
#
# Mechanical properties :
#
#
# Convention : Reuss Voigt Hill
#
# Bulk Modulus (GPa) = 10.61151 50.62822 30.61987
# Shear Modulus (GPa) = 14.62792 35.56869 25.09831
#
# Velocity S-wave (km/s) = 2.51034 3.91450 3.28824
# Velocity P-wave (km/s) = 3.60194 6.49939 5.25433
#
# Compressibility (1/GPa) = 0.09423730
#
# Stress axis : x y z
#
# Youngs Moduli (GPa) = 180.78043 11.90408 169.09661
#
# Poissons Ratio (x) = 0.00498 0.20966
# Poissons Ratio (y) = 0.07558 -0.17781
# Poissons Ratio (z) = 0.22415 -0.01252
#
# Static dielectric constant tensor:
#      x y z
#    x 5.334180 0.000000 0.000000 
#    y 0.000000 3.353930 0.000000 
#    z 0.000000 0.000000 4.526130 
# 
# 
# High freq. dielectric constant tensor:
#      x y z
#    x 1.962720 0.000000 0.000000 
#    y 0.000000 1.853080 0.000000 
#    z 0.000000 0.000000 1.934470 
# 
# From -- ./inp_files/24113.got.cif
#   From: 2010.03.12/outbox.cif.g09.slc.cpg/sg55_13_cif.got.tgz:24113.got - 2010.04.16 15:19:21.
