data_PCOD8224143
_publ_section_title
;
Structure prediction by ZEFSAII (Michael W. Deem and Ramdas Pophale) SiO2 
 PCOD8224143
Probable space group: P C C A
;
_chemical_formula_sum "Si O2"
_cell_formula_units_Z 60
_cell_length_a 16.764480
_cell_length_b 9.314801
_cell_length_c 17.157670
_cell_angle_alpha 90.000000
_cell_angle_beta 90.000000
_cell_angle_gamma 90.000000
_cell_volume 2679.303916
_symmetry_space_group_name_H-M "P C C A"
_symmetry_group_IT_number 54
_symmetry_cell_setting 'orthorhombic'
loop_
_space_group_symop_operation_xyz
x,y,z
1/2-x,-y,z
1/2+x,-y,1/2-z
-x,y,1/2-z
-x,-y,-z
1/2+x,y,-z
1/2-x,y,1/2+z
x,-y,1/2+z
loop_
_atom_site_type_symbol
_atom_site_label
_atom_site_fract_x
_atom_site_fract_y
_atom_site_fract_z
Si Si1 0.657146 0.691728 0.723687
Si Si2 0.250000 0.500000 0.021986
Si Si3 0.870830 0.674931 0.557137
Si Si4 0.961367 0.584769 0.100761
Si Si5 0.582046 0.968848 0.782633
Si Si6 0.129668 0.472073 0.154337
Si Si7 0.037803 0.872853 0.049360
Si Si8 0.164675 0.765186 0.775842
O O1 0.614521 0.591444 0.659804
O O2 0.595711 0.818838 0.739818
O O3 0.675446 0.600115 0.801308
O O4 0.743512 0.748017 0.699242
O O5 0.176067 0.442920 0.073855
O O6 0.281075 0.373030 0.965437
O O7 0.931664 0.539536 0.540588
O O8 0.890540 0.804354 0.499304
O O9 0.882849 0.731889 0.644776
O O10 0.039806 0.526718 0.143043
O O11 0.973915 0.744732 0.065785
O O12 0.500000 0.034907 0.750000
O O13 0.577062 0.943733 0.874732
O O14 0.652696 0.074615 0.756853
O O15 0.129949 0.331226 0.206723
O O16 0.000000 0.000000 0.000000
#
# Coordination Sequence:
#
# PCOD8224143 Si02
#       8
#     8   4   8   8   8   8   8   8
#     4  12  22  47  73 107 141 192 253 304 363 443
#     4  12  24  44  72 106 162 182 236 316 390 446
#     4  12  27  46  74 114 148 190 245 323 387 447
#     4  12  25  46  78 106 144 195 250 309 376 451
#     4  12  25  47  74 100 145 199 250 304 366 462
#     4  12  24  45  75 110 138 194 251 302 367 458
#     4  12  27  47  70 106 151 195 253 309 383 459
#     4  12  28  43  76 110 145 191 256 313 367 443
#
# _framework density 22.393875999999999
#
# number of rings (size 3 to 8) (size 9 to 14) (size 15 to 20)
#    0.000    0.000    6.667    2.800    3.733    0.000 
#    0.000    0.000    0.000    0.000    0.000    0.000 
#    0.000    0.000    0.000    0.000    0.000    0.000 
#
# Total GULP energy -744090.910566 kJ/mol
# GULP energy per Si atom -12401.515176 kJ/mol
# Density = 2.234291 g / cm^3
# Si number density = 22.393876 Si / 1000 Ang^3
#
#
#
# Elastic Constant Matrix: (Units=GPa)
#
#
# Indices 1 2 3 4 5 6 
#
# 1 93.4349 34.1028 24.6231 0.0000 0.0000 0.0000
# 2 34.1028 112.6964 53.2616 0.0000 0.0000 0.0000
# 3 24.6231 53.2616 110.9061 0.0000 0.0000 0.0000
# 4 0.0000 0.0000 0.0000 38.6542 0.0000 0.0000
# 5 0.0000 0.0000 0.0000 0.0000 36.2685 0.0000
# 6 0.0000 0.0000 0.0000 0.0000 0.0000 39.8474
#
#
#
# Elastic Compliance Matrix: (Units=1/GPa)
#
#
# Indices 1 2 3 4 5 6 
#
# 1 0.012155 -0.003108 -0.001206 0.000000 0.000000 0.000000
# 2 -0.003108 0.012274 -0.005204 0.000000 0.000000 0.000000
# 3 -0.001206 -0.005204 0.011784 0.000000 0.000000 0.000000
# 4 0.000000 0.000000 0.000000 0.025870 0.000000 0.000000
# 5 0.000000 0.000000 0.000000 0.000000 0.027572 0.000000
# 6 0.000000 0.000000 0.000000 0.000000 0.000000 0.025096
#
#
# Mechanical properties :
#
#
# Convention : Reuss Voigt Hill
#
# Bulk Modulus (GPa) = 58.22268 60.11250 59.16759
# Shear Modulus (GPa) = 35.83918 36.62400 36.23159
#
# Velocity S-wave (km/s) = 4.00484 4.04845 4.02671
# Velocity P-wave (km/s) = 6.88773 6.98247 6.93526
#
# Compressibility (1/GPa) = 0.01717544
#
# Stress axis : x y z
#
# Youngs Moduli (GPa) = 82.27128 81.47615 84.86355
#
# Poissons Ratio (x) = 0.25325 0.10234
# Poissons Ratio (y) = 0.25572 0.44164
# Poissons Ratio (z) = 0.09921 0.42402
#
# Static dielectric constant tensor:
#      x y z
#    x 3.953310 0.000000 0.000000 
#    y 0.000000 4.113120 0.000000 
#    z 0.000000 0.000000 4.248420 
# 
# 
# High freq. dielectric constant tensor:
#      x y z
#    x 1.883680 0.000000 0.000000 
#    y 0.000000 1.881350 0.000000 
#    z 0.000000 0.000000 1.894510 
# 
# From -- ./inp_files/18683.got.cif
#   From: 2010.03.12/outbox.cif.g09.slc.cpg/sg54_10_cif.got.tgz:18683.got - 2010.04.16 15:00:50.
