data_PCOD8224522
_publ_section_title
;
Structure prediction by ZEFSAII (Michael W. Deem and Ramdas Pophale) SiO2 
 PCOD8224522
Probable space group: P B A M
;
_chemical_formula_sum "Si O2"
_cell_formula_units_Z 48
_cell_length_a 33.666863
_cell_length_b 4.999406
_cell_length_c 14.827120
_cell_angle_alpha 90.000000
_cell_angle_beta 90.000000
_cell_angle_gamma 90.000000
_cell_volume 2495.616574
_symmetry_space_group_name_H-M "P B A M"
_symmetry_group_IT_number 55
_symmetry_cell_setting 'orthorhombic'
loop_
_space_group_symop_operation_xyz
x,y,z
-x,-y,z
1/2+x,1/2-y,-z
1/2-x,1/2+y,-z
-x,-y,-z
x,y,-z
1/2-x,1/2+y,z
1/2+x,1/2-y,z
loop_
_atom_site_type_symbol
_atom_site_label
_atom_site_fract_x
_atom_site_fract_y
_atom_site_fract_z
Si Si1 0.524792 0.269765 0.681115
Si Si2 0.723932 0.560102 0.895490
Si Si3 0.601724 0.029066 0.500000
Si Si4 0.886505 0.590932 0.301180
Si Si5 0.277132 0.282343 0.602954
Si Si6 0.840969 0.115194 0.250786
Si Si7 0.552891 0.515135 0.500000
O O1 0.500000 0.500000 0.738743
O O2 0.568370 0.189114 0.717746
O O3 0.528705 0.421738 0.586412
O O4 0.500000 0.000000 0.672500
O O5 0.757241 0.776551 0.869694
O O6 0.683403 0.602993 0.841584
O O7 0.712232 0.581200 0.000000
O O8 0.562898 0.832495 0.500000
O O9 0.623418 0.990489 0.595786
O O10 0.593368 0.346848 0.500000
O O11 0.876863 0.330663 0.239890
O O12 0.857039 0.824466 0.273733
O O13 0.292648 0.281100 0.500000
O O14 0.250231 0.533653 0.625090
O O15 0.314526 0.276565 0.667641
#
# Coordination Sequence:
#
# PCOD8224522 Si02
#       7
#     8   8   4   8   8   8   4
#     4  11  20  34  51  70 102 142 191 239 281 323
#     4  10  21  39  64  90 113 141 178 221 279 343
#     4  10  20  35  46  68 106 143 187 228 271 317
#     4  11  24  34  51  78 108 147 188 228 276 329
#     4  10  21  35  51  71  98 140 187 216 248 303
#     4  12  22  36  56  79 114 142 178 229 278 327
#     4  10  18  31  50  68  90 135 191 240 277 313
#
# _framework density 19.233723000000001
#
# number of rings (size 3 to 8) (size 9 to 14) (size 15 to 20)
#    0.000    1.333    0.000    8.500    2.333    0.000 
#    0.000    0.000    0.000    0.000    0.000    0.000 
#    0.000   13.333    0.000    0.000    0.000    0.000 
#
# Total GULP energy -594787.586500 kJ/mol
# GULP energy per Si atom -12391.408052 kJ/mol
# Density = 1.918995 g / cm^3
# Si number density = 19.233723 Si / 1000 Ang^3
#
#
#
# Elastic Constant Matrix: (Units=GPa)
#
#
# Indices 1 2 3 4 5 6 
#
# 1 85.9683 30.9190 50.5770 0.0000 0.0000 0.0000
# 2 30.9190 115.0586 30.7402 0.0000 0.0000 0.0000
# 3 50.5770 30.7402 57.6515 0.0000 0.0000 0.0000
# 4 0.0000 0.0000 0.0000 17.1865 0.0000 0.0000
# 5 0.0000 0.0000 0.0000 0.0000 34.7481 0.0000
# 6 0.0000 0.0000 0.0000 0.0000 0.0000 43.9653
#
#
#
# Elastic Compliance Matrix: (Units=1/GPa)
#
#
# Indices 1 2 3 4 5 6 
#
# 1 0.024132 -0.000966 -0.020655 0.000000 0.000000 0.000000
# 2 -0.000966 0.010174 -0.004577 0.000000 0.000000 0.000000
# 3 -0.020655 -0.004577 0.037907 0.000000 0.000000 0.000000
# 4 0.000000 0.000000 0.000000 0.058185 0.000000 0.000000
# 5 0.000000 0.000000 0.000000 0.000000 0.028779 0.000000
# 6 0.000000 0.000000 0.000000 0.000000 0.000000 0.022745
#
#
# Mechanical properties :
#
#
# Convention : Reuss Voigt Hill
#
# Bulk Modulus (GPa) = 50.46658 53.68341 52.07500
# Shear Modulus (GPa) = 20.75356 28.94279 24.84818
#
# Velocity S-wave (km/s) = 3.28841 3.88338 3.59821
# Velocity P-wave (km/s) = 6.38073 6.93391 6.66306
#
# Compressibility (1/GPa) = 0.01981509
#
# Stress axis : x y z
#
# Youngs Moduli (GPa) = 41.43952 98.29247 26.38067
#
# Poissons Ratio (x) = 0.09498 0.54490
# Poissons Ratio (y) = 0.04004 0.12074
# Poissons Ratio (z) = 0.85594 0.44988
#
# Static dielectric constant tensor:
#      x y z
#    x 3.596440 0.000000 0.000000 
#    y 0.000000 3.892470 0.000000 
#    z 0.000000 0.000000 3.187020 
# 
# 
# High freq. dielectric constant tensor:
#      x y z
#    x 1.754380 0.000000 0.000000 
#    y 0.000000 1.781950 0.000000 
#    z 0.000000 0.000000 1.688230 
# 
# From -- ./inp_files/20133.got.cif
#   From: 2010.03.12/outbox.cif.g09.slc.cpg/sg55_11_cif.got.tgz:20133.got - 2010.04.16 15:19:21.
