data_PCOD8224468
_publ_section_title
;
Structure prediction by ZEFSAII (Michael W. Deem and Ramdas Pophale) SiO2 
 PCOD8224468
Probable space group: P B A M
;
_chemical_formula_sum "Si O2"
_cell_formula_units_Z 56
_cell_length_a 19.039066
_cell_length_b 19.068070
_cell_length_c 9.231791
_cell_angle_alpha 90.000000
_cell_angle_beta 90.000000
_cell_angle_gamma 90.000000
_cell_volume 3351.493186
_symmetry_space_group_name_H-M "P B A M"
_symmetry_group_IT_number 55
_symmetry_cell_setting 'orthorhombic'
loop_
_space_group_symop_operation_xyz
x,y,z
-x,-y,z
1/2+x,1/2-y,-z
1/2-x,1/2+y,-z
-x,-y,-z
x,y,-z
1/2-x,1/2+y,z
1/2+x,1/2-y,z
loop_
_atom_site_type_symbol
_atom_site_label
_atom_site_fract_x
_atom_site_fract_y
_atom_site_fract_z
Si Si1 0.739080 0.348520 0.331137
Si Si2 0.277136 0.866226 0.832952
Si Si3 0.946321 0.442435 0.828165
Si Si4 0.013419 0.712801 0.167495
Si Si5 0.710246 0.974879 0.170573
Si Si6 0.624096 0.236049 0.669250
Si Si7 0.834761 0.246194 0.835118
O O1 0.750882 0.360178 0.500000
O O2 0.735469 0.423485 0.251795
O O3 0.667455 0.306750 0.298284
O O4 0.804949 0.305286 0.270249
O O5 0.338410 0.830941 0.740029
O O6 0.202471 0.828295 0.805482
O O7 0.268392 0.946441 0.785524
O O8 0.300722 0.861127 0.000000
O O9 0.970352 0.365719 0.776556
O O10 0.868292 0.459416 0.771790
O O11 0.000000 0.500000 0.763437
O O12 0.946098 0.446443 0.000000
O O13 0.082109 0.761274 0.191404
O O14 0.952288 0.746874 0.262454
O O15 0.990291 0.711918 0.000000
O O16 0.716972 0.962205 0.000000
O O17 0.617497 0.221382 0.500000
O O18 0.820812 0.271690 0.000000
#
# Coordination Sequence:
#
# PCOD8224468 Si02
#       7
#     8   8   8   8   8   8   8
#     4  10  20  33  49  70  98 132 167 204 244 289
#     4   9  18  32  53  76  98 127 164 204 248 297
#     4   9  16  26  43  69 100 128 154 185 233 296
#     4  10  18  30  49  71  97 129 162 202 247 291
#     4  10  18  31  51  74  99 129 163 202 246 294
#     4  10  21  34  48  70 101 133 167 204 242 290
#     4   9  17  32  52  74  97 125 166 207 245 295
#
# _framework density 16.708970999999998
#
# number of rings (size 3 to 8) (size 9 to 14) (size 15 to 20)
#    0.000    2.429    1.429    1.714    0.000    5.143 
#    0.000    0.000    0.000    2.571    0.000    6.000 
#    0.000    0.000    0.000    0.000    0.000    0.000 
#
# Total GULP energy -694459.366257 kJ/mol
# GULP energy per Si atom -12401.060112 kJ/mol
# Density = 1.667094 g / cm^3
# Si number density = 16.708971 Si / 1000 Ang^3
#
#
#
# Elastic Constant Matrix: (Units=GPa)
#
#
# Indices 1 2 3 4 5 6 
#
# 1 108.3402 59.6971 47.3147 0.0000 0.0000 0.0000
# 2 59.6971 106.1449 45.7495 0.0000 0.0000 0.0000
# 3 47.3147 45.7495 63.3957 0.0000 0.0000 0.0000
# 4 0.0000 0.0000 0.0000 19.6974 0.0000 0.0000
# 5 0.0000 0.0000 0.0000 0.0000 21.2321 0.0000
# 6 0.0000 0.0000 0.0000 0.0000 0.0000 23.2364
#
#
#
# Elastic Compliance Matrix: (Units=1/GPa)
#
#
# Indices 1 2 3 4 5 6 
#
# 1 0.015601 -0.005451 -0.007710 0.000000 0.000000 0.000000
# 2 -0.005451 0.015579 -0.007174 0.000000 0.000000 0.000000
# 3 -0.007710 -0.007174 0.026705 0.000000 0.000000 0.000000
# 4 0.000000 0.000000 0.000000 0.050768 0.000000 0.000000
# 5 0.000000 0.000000 0.000000 0.000000 0.047098 0.000000
# 6 0.000000 0.000000 0.000000 0.000000 0.000000 0.043036
#
#
# Mechanical properties :
#
#
# Convention : Reuss Voigt Hill
#
# Bulk Modulus (GPa) = 58.08881 64.82263 61.45572
# Shear Modulus (GPa) = 20.39185 21.17449 20.78317
#
# Velocity S-wave (km/s) = 3.49723 3.56371 3.53063
# Velocity P-wave (km/s) = 7.15178 7.47079 7.31303
#
# Compressibility (1/GPa) = 0.01721502
#
# Stress axis : x y z
#
# Youngs Moduli (GPa) = 64.09904 64.18891 37.44582
#
# Poissons Ratio (x) = 0.34990 0.28870
# Poissons Ratio (y) = 0.34941 0.26864
# Poissons Ratio (z) = 0.49419 0.46050
#
# Static dielectric constant tensor:
#      x y z
#    x 3.141540 0.000000 0.000000 
#    y 0.000000 3.178920 0.000000 
#    z 0.000000 0.000000 3.030380 
# 
# 
# High freq. dielectric constant tensor:
#      x y z
#    x 1.636200 0.000000 0.000000 
#    y 0.000000 1.635930 0.000000 
#    z 0.000000 0.000000 1.629260 
# 
# From -- ./inp_files/7801.got.cif
#   From: 2010.03.12/outbox.cif.g09.slc.cpg/sg55_4_cif.got.tgz:7801.got - 2010.04.16 15:19:21.
