data_PCOD8224013
_publ_section_title
;
Structure prediction by ZEFSAII (Michael W. Deem and Ramdas Pophale) SiO2 
 PCOD8224013
Probable space group: P C C A
;
_chemical_formula_sum "Si O2"
_cell_formula_units_Z 48
_cell_length_a 29.824699
_cell_length_b 8.624523
_cell_length_c 8.179373
_cell_angle_alpha 90.000000
_cell_angle_beta 90.000000
_cell_angle_gamma 90.000000
_cell_volume 2103.929425
_symmetry_space_group_name_H-M "P C C A"
_symmetry_group_IT_number 54
_symmetry_cell_setting 'orthorhombic'
loop_
_space_group_symop_operation_xyz
x,y,z
1/2-x,-y,z
1/2+x,-y,1/2-z
-x,y,1/2-z
-x,-y,-z
1/2+x,y,-z
1/2-x,y,1/2+z
x,-y,1/2+z
loop_
_atom_site_type_symbol
_atom_site_label
_atom_site_fract_x
_atom_site_fract_y
_atom_site_fract_z
Si Si1 0.776920 0.855713 0.826164
Si Si2 0.953150 0.274488 0.205107
Si Si3 0.125239 0.923801 0.653033
Si Si4 0.372781 0.765317 0.802306
Si Si5 0.278457 0.345078 0.382076
Si Si6 0.954617 0.603820 0.334549
O O1 0.826348 0.898384 0.764662
O O2 0.782469 0.694617 0.927581
O O3 0.748108 0.807694 0.671318
O O4 0.750000 0.000000 0.909768
O O5 0.912572 0.157637 0.237217
O O6 0.952867 0.417161 0.334114
O O7 0.000000 0.186537 0.250000
O O8 0.950839 0.334230 0.018742
O O9 0.124429 0.862660 0.469079
O O10 0.120692 0.110622 0.655251
O O11 0.413617 0.649130 0.782791
O O12 0.327461 0.659485 0.794525
O O13 0.250000 0.500000 0.350820
O O14 0.000000 0.666444 0.250000
#
# Coordination Sequence:
#
# PCOD8224013 Si02
#       6
#     8   8   8   8   8   8
#     4  11  23  43  67  93 135 180 227 281 345 415
#     4  11  23  43  70 100 138 179 225 280 342 411
#     4  11  24  41  65  98 130 180 227 281 343 409
#     4  11  24  43  64  99 135 178 230 285 343 412
#     4  11  25  42  65  98 134 176 232 284 345 409
#     4  11  23  43  69 100 138 178 224 279 344 411
#
# _framework density 22.814454000000001
#
# number of rings (size 3 to 8) (size 9 to 14) (size 15 to 20)
#    0.000    1.000    1.667    6.000    4.667    2.000 
#    0.000    3.333    0.000    0.000    0.000    0.000 
#    0.000    0.000    0.000    0.000    0.000    0.000 
#
# Total GULP energy -594843.989717 kJ/mol
# GULP energy per Si atom -12392.583119 kJ/mol
# Density = 2.276253 g / cm^3
# Si number density = 22.814454 Si / 1000 Ang^3
#
#
#
# Elastic Constant Matrix: (Units=GPa)
#
#
# Indices 1 2 3 4 5 6 
#
# 1 211.7130 67.9908 29.1867 0.0000 0.0000 0.0000
# 2 67.9908 95.2413 19.5295 0.0000 0.0000 0.0000
# 3 29.1867 19.5295 57.8859 0.0000 0.0000 0.0000
# 4 0.0000 0.0000 0.0000 24.9668 0.0000 0.0000
# 5 0.0000 0.0000 0.0000 0.0000 26.8788 0.0000
# 6 0.0000 0.0000 0.0000 0.0000 0.0000 40.9913
#
#
#
# Elastic Compliance Matrix: (Units=1/GPa)
#
#
# Indices 1 2 3 4 5 6 
#
# 1 0.006295 -0.004128 -0.001781 0.000000 0.000000 0.000000
# 2 -0.004128 0.013988 -0.002638 0.000000 0.000000 0.000000
# 3 -0.001781 -0.002638 0.019063 0.000000 0.000000 0.000000
# 4 0.000000 0.000000 0.000000 0.040053 0.000000 0.000000
# 5 0.000000 0.000000 0.000000 0.000000 0.037204 0.000000
# 6 0.000000 0.000000 0.000000 0.000000 0.000000 0.024395
#
#
# Mechanical properties :
#
#
# Convention : Reuss Voigt Hill
#
# Bulk Modulus (GPa) = 44.94056 66.47271 55.70663
# Shear Modulus (GPa) = 30.20969 35.10957 32.65963
#
# Velocity S-wave (km/s) = 3.64283 3.92716 3.78766
# Velocity P-wave (km/s) = 6.11839 7.05428 6.60294
#
# Compressibility (1/GPa) = 0.02225161
#
# Stress axis : x y z
#
# Youngs Moduli (GPa) = 158.86241 71.49120 52.45697
#
# Poissons Ratio (x) = 0.29515 0.09343
# Poissons Ratio (y) = 0.65586 0.13836
# Poissons Ratio (z) = 0.28294 0.18856
#
# Static dielectric constant tensor:
#      x y z
#    x 4.473460 0.000000 0.000000 
#    y 0.000000 3.942910 0.000000 
#    z 0.000000 0.000000 3.849300 
# 
# 
# High freq. dielectric constant tensor:
#      x y z
#    x 1.919790 0.000000 0.000000 
#    y 0.000000 1.891510 0.000000 
#    z 0.000000 0.000000 1.899060 
# 
# From -- ./inp_files/5837.got.cif
#   From: 2010.03.12/outbox.cif.g09.slc.cpg/sg54_3_cif.got.tgz:5837.got - 2010.04.16 15:00:50.
