data_PCOD8224204
_publ_section_title
;
Structure prediction by ZEFSAII (Michael W. Deem and Ramdas Pophale) SiO2 
 PCOD8224204
Probable space group: P C C A
;
_chemical_formula_sum "Si O2"
_cell_formula_units_Z 40
_cell_length_a 9.673240
_cell_length_b 16.794152
_cell_length_c 10.470687
_cell_angle_alpha 90.000000
_cell_angle_beta 90.000000
_cell_angle_gamma 90.000000
_cell_volume 1701.003550
_symmetry_space_group_name_H-M "P C C A"
_symmetry_group_IT_number 54
_symmetry_cell_setting 'orthorhombic'
loop_
_space_group_symop_operation_xyz
x,y,z
1/2-x,-y,z
1/2+x,-y,1/2-z
-x,y,1/2-z
-x,-y,-z
1/2+x,y,-z
1/2-x,y,1/2+z
x,-y,1/2+z
loop_
_atom_site_type_symbol
_atom_site_label
_atom_site_fract_x
_atom_site_fract_y
_atom_site_fract_z
Si Si1 0.000000 0.350935 0.750000
Si Si2 0.125722 0.442877 0.966490
Si Si3 0.000000 0.915924 0.250000
Si Si4 0.250000 0.000000 0.378009
Si Si5 0.761545 0.707215 0.884554
Si Si6 0.627212 0.150766 0.500900
Si Si7 0.000000 0.213881 0.250000
O O1 0.897844 0.404962 0.669703
O O2 0.897347 0.301872 0.840046
O O3 0.250000 0.500000 0.947612
O O4 0.164919 0.372571 0.064454
O O5 0.000000 0.500000 0.000000
O O6 0.957862 0.859445 0.368938
O O7 0.125726 0.973350 0.286931
O O8 0.289581 0.929248 0.472812
O O9 0.861432 0.734384 0.769944
O O10 0.739478 0.776948 0.989903
O O11 0.523993 0.163519 0.621029
#
# Coordination Sequence:
#
# PCOD8224204 Si02
#       7
#     4   8   4   4   8   8   4
#     4  12  27  47  78 104 154 196 250 311 399 451
#     4  12  28  50  74 111 149 198 255 316 386 464
#     4  12  26  48  80 110 164 206 268 324 396 466
#     4  12  26  48  78 116 156 212 264 328 388 466
#     4  12  27  50  75 114 150 203 255 325 386 473
#     4  12  26  50  77 117 156 209 265 326 393 466
#     4  12  27  47  82 110 158 198 268 315 397 455
#
# _framework density 23.515532
#
# number of rings (size 3 to 8) (size 9 to 14) (size 15 to 20)
#    0.000    0.000    2.000    7.200    5.600    0.000 
#    0.000    0.000    0.000    0.000    0.000    0.000 
#    0.000    0.000    0.000    0.000    0.000    0.000 
#
# Total GULP energy -495910.803493 kJ/mol
# GULP energy per Si atom -12397.770087 kJ/mol
# Density = 2.346201 g / cm^3
# Si number density = 23.515532 Si / 1000 Ang^3
#
#
#
# Elastic Constant Matrix: (Units=GPa)
#
#
# Indices 1 2 3 4 5 6 
#
# 1 159.4164 78.5190 61.9489 0.0000 0.0000 0.0000
# 2 78.5190 158.0273 61.7556 0.0000 0.0000 0.0000
# 3 61.9489 61.7556 146.6587 0.0000 0.0000 0.0000
# 4 0.0000 0.0000 0.0000 16.9084 0.0000 0.0000
# 5 0.0000 0.0000 0.0000 0.0000 50.0328 0.0000
# 6 0.0000 0.0000 0.0000 0.0000 0.0000 64.3772
#
#
#
# Elastic Compliance Matrix: (Units=1/GPa)
#
#
# Indices 1 2 3 4 5 6 
#
# 1 0.008895 -0.003533 -0.002270 0.000000 0.000000 0.000000
# 2 -0.003533 0.008977 -0.002288 0.000000 0.000000 0.000000
# 3 -0.002270 -0.002288 0.008741 0.000000 0.000000 0.000000
# 4 0.000000 0.000000 0.000000 0.059142 0.000000 0.000000
# 5 0.000000 0.000000 0.000000 0.000000 0.019987 0.000000
# 6 0.000000 0.000000 0.000000 0.000000 0.000000 0.015533
#
#
# Mechanical properties :
#
#
# Convention : Reuss Voigt Hill
#
# Bulk Modulus (GPa) = 95.85616 96.50548 96.18082
# Shear Modulus (GPa) = 35.47770 43.72226 39.59998
#
# Velocity S-wave (km/s) = 3.88840 4.31663 4.10810
# Velocity P-wave (km/s) = 7.81095 8.12235 7.96817
#
# Compressibility (1/GPa) = 0.01043230
#
# Stress axis : x y z
#
# Youngs Moduli (GPa) = 112.42505 111.39059 114.40688
#
# Poissons Ratio (x) = 0.39350 0.25967
# Poissons Ratio (y) = 0.39715 0.26177
# Poissons Ratio (z) = 0.25517 0.25487
#
# Static dielectric constant tensor:
#      x y z
#    x 4.306690 0.000000 0.000000 
#    y 0.000000 4.528670 0.000000 
#    z 0.000000 0.000000 4.225590 
# 
# 
# High freq. dielectric constant tensor:
#      x y z
#    x 1.949360 0.000000 0.000000 
#    y 0.000000 1.948070 0.000000 
#    z 0.000000 0.000000 1.933860 
# 
# From -- ./inp_files/3004.got.cif
#   From: 2010.03.12/outbox.cif.g09.slc.cpg/sg54_2_cif.got.tgz:3004.got - 2010.04.16 15:00:50.
