data_PCOD8224030
_publ_section_title
;
Structure prediction by ZEFSAII (Michael W. Deem and Ramdas Pophale) SiO2 
 PCOD8224030
Probable space group: P C C A
;
_chemical_formula_sum "Si O2"
_cell_formula_units_Z 32
_cell_length_a 11.065119
_cell_length_b 11.390938
_cell_length_c 10.658940
_cell_angle_alpha 90.000000
_cell_angle_beta 90.000000
_cell_angle_gamma 90.000000
_cell_volume 1343.475016
_symmetry_space_group_name_H-M "P C C A"
_symmetry_group_IT_number 54
_symmetry_cell_setting 'orthorhombic'
loop_
_space_group_symop_operation_xyz
x,y,z
1/2-x,-y,z
1/2+x,-y,1/2-z
-x,y,1/2-z
-x,-y,-z
1/2+x,y,-z
1/2-x,y,1/2+z
x,-y,1/2+z
loop_
_atom_site_type_symbol
_atom_site_label
_atom_site_fract_x
_atom_site_fract_y
_atom_site_fract_z
Si Si1 0.655612 0.169737 0.850937
Si Si2 0.618263 0.471791 0.081257
Si Si3 0.500000 0.642171 0.250000
Si Si4 0.500000 0.033331 0.250000
Si Si5 0.164655 0.209010 0.876034
O O1 0.554407 0.272855 0.857909
O O2 0.739276 0.197462 0.733633
O O3 0.597507 0.042886 0.826430
O O4 0.721629 0.176382 0.986580
O O5 0.750000 0.500000 0.017059
O O6 0.608656 0.560965 0.198639
O O7 0.610233 0.338954 0.127746
O O8 0.500000 0.500000 0.000000
O O9 0.559040 0.115309 0.144804
#
# Coordination Sequence:
#
# PCOD8224030 Si02
#       5
#     8   8   4   4   8
#     4  11  26  48  75 109 158 204 271 332 415 488
#     4  12  26  47  79 116 161 213 274 339 414 499
#     4  11  23  46  70 110 155 209 258 340 396 489
#     4  11  27  46  76 114 151 209 276 344 404 493
#     4  12  26  49  78 111 156 213 266 338 417 492
#
# _framework density 23.818828
#
# number of rings (size 3 to 8) (size 9 to 14) (size 15 to 20)
#    0.000    0.500    5.000    2.250    0.000   13.000 
#    0.000    0.000    0.000    0.000    0.000    0.000 
#    0.000    0.000    0.000    0.000    0.000    0.000 
#
# Total GULP energy -396688.649738 kJ/mol
# GULP energy per Si atom -12396.520304 kJ/mol
# Density = 2.376461 g / cm^3
# Si number density = 23.818828 Si / 1000 Ang^3
#
#
#
# Elastic Constant Matrix: (Units=GPa)
#
#
# Indices 1 2 3 4 5 6 
#
# 1 137.8464 65.0267 60.0342 0.0000 0.0000 0.0000
# 2 65.0267 207.4920 59.6772 0.0000 0.0000 0.0000
# 3 60.0342 59.6772 172.1908 0.0000 0.0000 0.0000
# 4 0.0000 0.0000 0.0000 20.0463 0.0000 0.0000
# 5 0.0000 0.0000 0.0000 0.0000 44.9656 0.0000
# 6 0.0000 0.0000 0.0000 0.0000 0.0000 39.3988
#
#
#
# Elastic Compliance Matrix: (Units=1/GPa)
#
#
# Indices 1 2 3 4 5 6 
#
# 1 0.009394 -0.002224 -0.002505 0.000000 0.000000 0.000000
# 2 -0.002224 0.005879 -0.001262 0.000000 0.000000 0.000000
# 3 -0.002505 -0.001262 0.007118 0.000000 0.000000 0.000000
# 4 0.000000 0.000000 0.000000 0.049884 0.000000 0.000000
# 5 0.000000 0.000000 0.000000 0.000000 0.022239 0.000000
# 6 0.000000 0.000000 0.000000 0.000000 0.000000 0.025381
#
#
# Mechanical properties :
#
#
# Convention : Reuss Voigt Hill
#
# Bulk Modulus (GPa) = 96.05676 98.55616 97.30646
# Shear Modulus (GPa) = 36.94163 43.06823 40.00493
#
# Velocity S-wave (km/s) = 3.94247 4.25686 4.10268
# Velocity P-wave (km/s) = 7.81919 8.10113 7.96141
#
# Compressibility (1/GPa) = 0.01041051
#
# Stress axis : x y z
#
# Youngs Moduli (GPa) = 106.44801 170.08409 140.48413
#
# Poissons Ratio (x) = 0.37822 0.35186
# Poissons Ratio (y) = 0.23671 0.17734
# Poissons Ratio (z) = 0.26661 0.21471
#
# Static dielectric constant tensor:
#      x y z
#    x 4.420820 0.000000 0.000000 
#    y 0.000000 4.907600 0.000000 
#    z 0.000000 0.000000 4.489830 
# 
# 
# High freq. dielectric constant tensor:
#      x y z
#    x 1.934380 0.000000 0.000000 
#    y 0.000000 1.980070 0.000000 
#    z 0.000000 0.000000 1.937400 
# 
# From -- ./inp_files/7312.got.cif
#   From: 2010.03.12/outbox.cif.g09.slc.cpg/sg54_4_cif.got.tgz:7312.got - 2010.04.16 15:00:50.
