data_PCOD8224048
_publ_section_title
;
Structure prediction by ZEFSAII (Michael W. Deem and Ramdas Pophale) SiO2 
 PCOD8224048
Probable space group: P C C A
;
_chemical_formula_sum "Si O2"
_cell_formula_units_Z 32
_cell_length_a 8.929178
_cell_length_b 7.123523
_cell_length_c 22.469609
_cell_angle_alpha 90.000000
_cell_angle_beta 90.000000
_cell_angle_gamma 90.000000
_cell_volume 1429.229023
_symmetry_space_group_name_H-M "P C C A"
_symmetry_group_IT_number 54
_symmetry_cell_setting 'orthorhombic'
loop_
_space_group_symop_operation_xyz
x,y,z
1/2-x,-y,z
1/2+x,-y,1/2-z
-x,y,1/2-z
-x,-y,-z
1/2+x,y,-z
1/2-x,y,1/2+z
x,-y,1/2+z
loop_
_atom_site_type_symbol
_atom_site_label
_atom_site_fract_x
_atom_site_fract_y
_atom_site_fract_z
Si Si1 0.072187 0.506960 0.189687
Si Si2 0.620015 0.359719 0.478944
Si Si3 0.046811 0.823973 0.372400
Si Si4 0.120512 0.757503 0.891238
O O1 0.250000 0.500000 0.190112
O O2 0.000000 0.423277 0.250000
O O3 0.034621 0.728677 0.184019
O O4 0.994859 0.401254 0.132771
O O5 0.750000 0.500000 0.455621
O O6 0.500000 0.500000 0.500000
O O7 0.558048 0.221866 0.428926
O O8 0.650550 0.234729 0.537665
O O9 0.210785 0.728325 0.368836
O O10 0.053328 0.047047 0.367535
#
# Coordination Sequence:
#
# PCOD8224048 Si02
#       4
#     8   8   8   8
#     4  12  26  46  70  94 126 169 216 272 330 388
#     4  12  21  39  66  96 137 180 217 263 323 383
#     4  11  24  42  67  98 131 175 217 269 323 385
#     4  11  24  43  66  96 135 172 219 267 323 387
#
# _framework density 22.389693000000001
#
# number of rings (size 3 to 8) (size 9 to 14) (size 15 to 20)
#    0.000    0.500    5.000    3.750    0.000    2.000 
#    0.000    0.000    0.000    0.000    0.000    0.000 
#    0.000    0.000    0.000    0.000    0.000    0.000 
#
# Total GULP energy -396420.306451 kJ/mol
# GULP energy per Si atom -12388.134577 kJ/mol
# Density = 2.233873 g / cm^3
# Si number density = 22.389693 Si / 1000 Ang^3
#
#
#
# Elastic Constant Matrix: (Units=GPa)
#
#
# Indices 1 2 3 4 5 6 
#
# 1 169.1332 58.9864 38.0743 0.0000 0.0000 0.0000
# 2 58.9864 86.2998 17.7874 0.0000 0.0000 0.0000
# 3 38.0743 17.7874 92.0980 0.0000 0.0000 0.0000
# 4 0.0000 0.0000 0.0000 12.7951 0.0000 0.0000
# 5 0.0000 0.0000 0.0000 0.0000 19.8321 0.0000
# 6 0.0000 0.0000 0.0000 0.0000 0.0000 34.8492
#
#
#
# Elastic Compliance Matrix: (Units=1/GPa)
#
#
# Indices 1 2 3 4 5 6 
#
# 1 0.008249 -0.005140 -0.002418 0.000000 0.000000 0.000000
# 2 -0.005140 0.015271 -0.000824 0.000000 0.000000 0.000000
# 3 -0.002418 -0.000824 0.012017 0.000000 0.000000 0.000000
# 4 0.000000 0.000000 0.000000 0.078155 0.000000 0.000000
# 5 0.000000 0.000000 0.000000 0.000000 0.050423 0.000000
# 6 0.000000 0.000000 0.000000 0.000000 0.000000 0.028695
#
#
# Mechanical properties :
#
#
# Convention : Reuss Voigt Hill
#
# Bulk Modulus (GPa) = 53.26928 64.13635 58.70282
# Shear Modulus (GPa) = 23.16616 29.00748 26.08682
#
# Velocity S-wave (km/s) = 3.22013 3.60331 3.41710
# Velocity P-wave (km/s) = 6.13752 6.78377 6.46872
#
# Compressibility (1/GPa) = 0.01877254
#
# Stress axis : x y z
#
# Youngs Moduli (GPa) = 121.22032 65.48453 83.21764
#
# Poissons Ratio (x) = 0.33661 0.20119
# Poissons Ratio (y) = 0.62310 0.06860
# Poissons Ratio (z) = 0.29307 0.05398
#
# Static dielectric constant tensor:
#      x y z
#    x 4.135670 0.000000 0.000000 
#    y 0.000000 3.898420 0.000000 
#    z 0.000000 0.000000 2.440620 
# 
# 
# High freq. dielectric constant tensor:
#      x y z
#    x 1.902340 0.000000 0.000000 
#    y 0.000000 1.876740 0.000000 
#    z 0.000000 0.000000 1.875100 
# 
# From -- ./inp_files/23137.got.cif
#   From: 2010.03.12/outbox.cif.g09.slc.cpg/sg54_12_cif.got.tgz:23137.got - 2010.04.16 15:00:50.
