data_PCOD8224748
_publ_section_title
;
Structure prediction by ZEFSAII (Michael W. Deem and Ramdas Pophale) SiO2 
 PCOD8224748
Probable space group: P B A M
;
_chemical_formula_sum "Si O2"
_cell_formula_units_Z 32
_cell_length_a 14.882162
_cell_length_b 19.947235
_cell_length_c 5.154856
_cell_angle_alpha 90.000000
_cell_angle_beta 90.000000
_cell_angle_gamma 90.000000
_cell_volume 1530.260153
_symmetry_space_group_name_H-M "P B A M"
_symmetry_group_IT_number 55
_symmetry_cell_setting 'orthorhombic'
loop_
_space_group_symop_operation_xyz
x,y,z
-x,-y,z
1/2+x,1/2-y,-z
1/2-x,1/2+y,-z
-x,-y,-z
x,y,-z
1/2-x,1/2+y,z
1/2+x,1/2-y,z
loop_
_atom_site_type_symbol
_atom_site_label
_atom_site_fract_x
_atom_site_fract_y
_atom_site_fract_z
Si Si1 0.593111 0.284615 0.500000
Si Si2 0.187942 0.410549 0.000000
Si Si3 0.223467 0.966757 0.500000
Si Si4 0.254067 0.113996 0.500000
Si Si5 0.323651 0.295554 0.000000
Si Si6 0.587098 0.650651 0.500000
Si Si7 0.448630 0.804392 0.000000
Si Si8 0.345667 0.153671 0.000000
O O1 0.689456 0.321492 0.500000
O O2 0.521201 0.346432 0.500000
O O3 0.582816 0.236772 0.748027
O O4 0.214338 0.452358 0.252440
O O5 0.086492 0.382381 0.000000
O O6 0.236703 0.339801 0.000000
O O7 0.130211 0.924272 0.500000
O O8 0.196481 0.044985 0.500000
O O9 0.320648 0.111490 0.253784
O O10 0.383619 0.308427 0.749537
O O11 0.284735 0.220602 0.000000
O O12 0.554617 0.816434 0.000000
#
# Coordination Sequence:
#
# PCOD8224748 Si02
#       8
#     4   4   4   4   4   4   4   4
#     4  12  22  40  64  99 129 151 208 259 322 371
#     4  10  21  39  64  84 118 166 209 258 290 370
#     4  10  23  42  60  87 126 167 219 235 300 370
#     4  12  26  40  62  91 126 171 204 257 301 373
#     4  10  18  35  60  88 117 152 197 245 325 352
#     4  10  19  36  62  89 120 160 188 257 298 369
#     4  12  24  41  64  99 124 155 208 265 315 371
#     4  12  23  41  61  91 130 161 201 261 324 360
#
# _framework density 20.911476
#
# number of rings (size 3 to 8) (size 9 to 14) (size 15 to 20)
#    0.000    1.000    2.500    5.250    0.000    2.500 
#    0.000    3.750    0.000    7.500    0.000    0.000 
#    0.000    0.000    0.000    0.000    0.000    0.000 
#
# Total GULP energy -396646.100478 kJ/mol
# GULP energy per Si atom -12395.190640 kJ/mol
# Density = 2.086388 g / cm^3
# Si number density = 20.911476 Si / 1000 Ang^3
#
#
#
# Elastic Constant Matrix: (Units=GPa)
#
#
# Indices 1 2 3 4 5 6 
#
# 1 67.7641 23.1303 35.8924 0.0000 0.0000 0.0000
# 2 23.1303 83.5693 31.0977 0.0000 0.0000 0.0000
# 3 35.8924 31.0977 185.8952 0.0000 0.0000 0.0000
# 4 0.0000 0.0000 0.0000 -8.7765 0.0000 0.0000
# 5 0.0000 0.0000 0.0000 0.0000 8.6287 0.0000
# 6 0.0000 0.0000 0.0000 0.0000 0.0000 29.8601
#
#
#
# Elastic Compliance Matrix: (Units=1/GPa)
#
#
# Indices 1 2 3 4 5 6 
#
# 1 0.017516 -0.003828 -0.002742 0.000000 0.000000 0.000000
# 2 -0.003828 0.013597 -0.001536 0.000000 0.000000 0.000000
# 3 -0.002742 -0.001536 0.006166 0.000000 0.000000 0.000000
# 4 0.000000 0.000000 0.000000 -0.113941 0.000000 0.000000
# 5 0.000000 0.000000 0.000000 0.000000 0.115892 0.000000
# 6 0.000000 0.000000 0.000000 0.000000 0.000000 0.033489
#
#
# Mechanical properties :
#
#
# Convention : Reuss Voigt Hill
#
# Bulk Modulus (GPa) = 47.46424 57.49662 52.48043
# Shear Modulus (GPa) = 52.10973 22.41636 37.26304
#
# Velocity S-wave (km/s) = 4.99733 3.27764 4.22589
# Velocity P-wave (km/s) = 7.48630 6.47138 6.99727
#
# Compressibility (1/GPa) = 0.02106849
#
# Stress axis : x y z
#
# Youngs Moduli (GPa) = 57.09141 73.54581 162.19062
#
# Poissons Ratio (x) = 0.28152 0.44466
# Poissons Ratio (y) = 0.21854 0.24905
# Poissons Ratio (z) = 0.15652 0.11293
#
# Static dielectric constant tensor:
#      x y z
#    x 3.793120 0.000000 0.000000 
#    y 0.000000 3.703760 0.000000 
#    z 0.000000 0.000000 4.110800 
# 
# 
# High freq. dielectric constant tensor:
#      x y z
#    x 1.809370 0.000000 0.000000 
#    y 0.000000 1.811420 0.000000 
#    z 0.000000 0.000000 1.842820 
# 
# From -- ./inp_files/671.got.cif
#   From: 2010.03.12/outbox.cif.g09.slc.cpg/sg55_1_cif.got.tgz:671.got - 2010.04.16 15:19:21.
