data_PCOD8224650
_publ_section_title
;
Structure prediction by ZEFSAII (Michael W. Deem and Ramdas Pophale) SiO2 
 PCOD8224650
Probable space group: P B A M
;
_chemical_formula_sum "Si O2"
_cell_formula_units_Z 48
_cell_length_a 14.373864
_cell_length_b 20.324517
_cell_length_c 8.818604
_cell_angle_alpha 90.000000
_cell_angle_beta 90.000000
_cell_angle_gamma 90.000000
_cell_volume 2576.283227
_symmetry_space_group_name_H-M "P B A M"
_symmetry_group_IT_number 55
_symmetry_cell_setting 'orthorhombic'
loop_
_space_group_symop_operation_xyz
x,y,z
-x,-y,z
1/2+x,1/2-y,-z
1/2-x,1/2+y,-z
-x,-y,-z
x,y,-z
1/2-x,1/2+y,z
1/2+x,1/2-y,z
loop_
_atom_site_type_symbol
_atom_site_label
_atom_site_fract_x
_atom_site_fract_y
_atom_site_fract_z
Si Si1 0.304808 0.925551 0.674972
Si Si2 0.784274 0.196653 0.178244
Si Si3 0.497811 0.134021 0.674692
Si Si4 0.507267 0.727846 0.177896
Si Si5 0.192599 0.572312 0.679835
Si Si6 0.671689 0.314510 0.679580
O O1 0.274435 0.917155 0.500000
O O2 0.244553 0.876866 0.777479
O O3 0.414714 0.913791 0.692453
O O4 0.284854 0.998940 0.737852
O O5 0.890102 0.207462 0.231499
O O6 0.718913 0.247661 0.264317
O O7 0.772666 0.207759 0.000000
O O8 0.483509 0.155702 0.500000
O O9 0.515395 0.198018 0.774747
O O10 0.407626 0.096455 0.739773
O O11 0.432875 0.679658 0.257367
O O12 0.495164 0.720494 0.000000
O O13 0.188784 0.570852 0.500000
O O14 0.271344 0.622298 0.739670
O O15 0.669236 0.312366 0.500000
#
# Coordination Sequence:
#
# PCOD8224650 Si02
#       6
#     8   8   8   8   8   8
#     4  10  20  35  58  86 115 150 185 230 284 335
#     4  11  23  38  56  81 115 152 188 231 279 334
#     4  10  18  32  57  86 116 146 181 226 281 340
#     4  11  23  37  55  82 117 150 188 233 278 330
#     4   9  19  35  56  86 118 145 185 233 282 336
#     4  11  21  36  60  85 111 147 190 236 279 330
#
# _framework density 18.631491
#
# number of rings (size 3 to 8) (size 9 to 14) (size 15 to 20)
#    0.000    1.667    3.333    2.000    0.000    4.000 
#    0.000    3.333    0.000    7.000    0.000    0.000 
#    0.000    0.000    0.000    0.000    0.000    0.000 
#
# Total GULP energy -595361.422706 kJ/mol
# GULP energy per Si atom -12403.362973 kJ/mol
# Density = 1.858909 g / cm^3
# Si number density = 18.631491 Si / 1000 Ang^3
#
#
#
# Elastic Constant Matrix: (Units=GPa)
#
#
# Indices 1 2 3 4 5 6 
#
# 1 102.2736 32.8055 27.5987 0.0000 0.0000 0.0000
# 2 32.8055 106.2627 15.0976 0.0000 0.0000 0.0000
# 3 27.5987 15.0976 44.6763 0.0000 0.0000 0.0000
# 4 0.0000 0.0000 0.0000 7.3401 0.0000 0.0000
# 5 0.0000 0.0000 0.0000 0.0000 28.2326 0.0000
# 6 0.0000 0.0000 0.0000 0.0000 0.0000 32.7216
#
#
#
# Elastic Compliance Matrix: (Units=1/GPa)
#
#
# Indices 1 2 3 4 5 6 
#
# 1 0.012535 -0.002909 -0.006760 0.000000 0.000000 0.000000
# 2 -0.002909 0.010561 -0.001772 0.000000 0.000000 0.000000
# 3 -0.006760 -0.001772 0.027158 0.000000 0.000000 0.000000
# 4 0.000000 0.000000 0.000000 0.136239 0.000000 0.000000
# 5 0.000000 0.000000 0.000000 0.000000 0.035420 0.000000
# 6 0.000000 0.000000 0.000000 0.000000 0.000000 0.030561
#
#
# Mechanical properties :
#
#
# Convention : Reuss Voigt Hill
#
# Bulk Modulus (GPa) = 36.53467 44.91291 40.72379
# Shear Modulus (GPa) = 17.57594 25.50624 21.54109
#
# Velocity S-wave (km/s) = 3.07473 3.70399 3.40393
# Velocity P-wave (km/s) = 5.67952 6.51544 6.11179
#
# Compressibility (1/GPa) = 0.02737126
#
# Stress axis : x y z
#
# Youngs Moduli (GPa) = 79.77526 94.69234 36.82140
#
# Poissons Ratio (x) = 0.27549 0.24893
# Poissons Ratio (y) = 0.23210 0.06523
# Poissons Ratio (z) = 0.53931 0.16775
#
# Static dielectric constant tensor:
#      x y z
#    x 3.665590 0.000000 0.000000 
#    y 0.000000 3.494160 0.000000 
#    z 0.000000 0.000000 3.238100 
# 
# 
# High freq. dielectric constant tensor:
#      x y z
#    x 1.730730 0.000000 0.000000 
#    y 0.000000 1.718660 0.000000 
#    z 0.000000 0.000000 1.707230 
# 
# From -- ./inp_files/5559.got.cif
#   From: 2010.03.12/outbox.cif.g09.slc.cpg/sg55_3_cif.got.tgz:5559.got - 2010.04.16 15:19:21.
