data_PCOD8224181
_publ_section_title
;
Structure prediction by ZEFSAII (Michael W. Deem and Ramdas Pophale) SiO2 
 PCOD8224181
Probable space group: P C C A
;
_chemical_formula_sum "Si O2"
_cell_formula_units_Z 56
_cell_length_a 9.223653
_cell_length_b 13.616618
_cell_length_c 20.611771
_cell_angle_alpha 90.000000
_cell_angle_beta 90.000000
_cell_angle_gamma 90.000000
_cell_volume 2588.734543
_symmetry_space_group_name_H-M "P C C A"
_symmetry_group_IT_number 54
_symmetry_cell_setting 'orthorhombic'
loop_
_space_group_symop_operation_xyz
x,y,z
1/2-x,-y,z
1/2+x,-y,1/2-z
-x,y,1/2-z
-x,-y,-z
1/2+x,y,-z
1/2-x,y,1/2+z
x,-y,1/2+z
loop_
_atom_site_type_symbol
_atom_site_label
_atom_site_fract_x
_atom_site_fract_y
_atom_site_fract_z
Si Si1 0.519604 0.089822 0.675614
Si Si2 0.019604 0.589822 0.824386
Si Si3 0.247087 0.750000 0.304572
Si Si4 0.089898 0.960461 0.440759
Si Si5 0.015369 0.750000 0.404658
Si Si6 0.410102 0.539539 0.940759
Si Si7 0.712795 0.750000 0.342949
O O1 0.500000 0.054537 0.750000
O O2 0.665593 0.154018 0.671512
O O3 0.384455 0.152991 0.649412
O O4 0.530158 0.995778 0.629337
O O5 0.165593 0.654018 0.828488
O O6 0.030158 0.495778 0.870663
O O7 0.000000 0.554537 0.750000
O O8 0.884455 0.652991 0.850588
O O9 0.088074 0.750000 0.334110
O O10 0.221540 0.750000 0.228526
O O11 0.073505 0.843292 0.444459
O O12 0.250000 0.000000 0.451143
O O13 0.000000 0.000000 0.500000
O O14 0.073505 0.656708 0.444459
O O15 0.841006 0.750000 0.396043
O O16 0.250000 0.500000 0.951143
O O17 0.500000 0.500000 0.000000
#
# Coordination Sequence:
#
# PCOD8224181 Si02
#       7
#     8   8   8   8   8   8   8
#     4   9  20  44  71  98 144 187 220 282 350 400
#     4   9  20  44  71  98 144 187 220 282 350 400
#     4   9  17  40  68 104 138 182 226 284 340 398
#     4  12  29  49  70 100 139 185 234 286 345 406
#     4  12  25  42  70 101 135 179 233 292 328 420
#     4  12  29  49  70 100 139 185 234 286 345 406
#     4   9  21  36  72 109 140 175 229 278 343 417
#
# _framework density 21.632190000000001
#
# number of rings (size 3 to 8) (size 9 to 14) (size 15 to 20)
#    0.000    1.714    2.857    2.143    4.000    5.714 
#    0.000    0.000    0.000    0.000    0.000    0.000 
#    0.000    0.000    0.000    0.000    0.000    0.000 
#
# Total GULP energy -694453.374874 kJ/mol
# GULP energy per Si atom -12400.953123 kJ/mol
# Density = 2.158295 g / cm^3
# Si number density = 21.632190 Si / 1000 Ang^3
#
#
#
# Elastic Constant Matrix: (Units=GPa)
#
#
# Indices 1 2 3 4 5 6 
#
# 1 141.9622 48.0131 45.0191 0.0000 0.0000 0.0000
# 2 48.0131 159.7700 62.7848 0.0000 0.0000 0.0000
# 3 45.0191 62.7848 101.8951 0.0000 0.0000 0.0000
# 4 0.0000 0.0000 0.0000 11.7134 0.0000 0.0000
# 5 0.0000 0.0000 0.0000 0.0000 30.4483 0.0000
# 6 0.0000 0.0000 0.0000 0.0000 0.0000 18.8938
#
#
#
# Elastic Compliance Matrix: (Units=1/GPa)
#
#
# Indices 1 2 3 4 5 6 
#
# 1 0.008426 -0.001411 -0.002854 0.000000 0.000000 0.000000
# 2 -0.001411 0.008495 -0.004611 0.000000 0.000000 0.000000
# 3 -0.002854 -0.004611 0.013916 0.000000 0.000000 0.000000
# 4 0.000000 0.000000 0.000000 0.085372 0.000000 0.000000
# 5 0.000000 0.000000 0.000000 0.000000 0.032843 0.000000
# 6 0.000000 0.000000 0.000000 0.000000 0.000000 0.052928
#
#
# Mechanical properties :
#
#
# Convention : Reuss Voigt Hill
#
# Bulk Modulus (GPa) = 76.41564 79.47348 77.94456
# Shear Modulus (GPa) = 22.31226 28.73179 25.52203
#
# Velocity S-wave (km/s) = 3.21509 3.64840 3.43857
# Velocity P-wave (km/s) = 7.01313 7.38688 7.20243
#
# Compressibility (1/GPa) = 0.01308633
#
# Stress axis : x y z
#
# Youngs Moduli (GPa) = 118.67745 117.71677 71.86010
#
# Poissons Ratio (x) = 0.16608 0.20505
# Poissons Ratio (y) = 0.16744 0.33135
# Poissons Ratio (z) = 0.33865 0.54279
#
# Static dielectric constant tensor:
#      x y z
#    x 4.249460 0.000000 0.000000 
#    y 0.000000 3.608560 0.000000 
#    z 0.000000 0.000000 3.706510 
# 
# 
# High freq. dielectric constant tensor:
#      x y z
#    x 1.857400 0.000000 0.000000 
#    y 0.000000 1.848790 0.000000 
#    z 0.000000 0.000000 1.841340 
# 
# From -- ./inp_files/20574.got.cif
#   From: 2010.03.12/outbox.cif.g09.slc.cpg/sg54_11_cif.got.tgz:20574.got - 2010.04.16 15:00:50.
