data_PCOD8224754
_publ_section_title
;
Structure prediction by ZEFSAII (Michael W. Deem and Ramdas Pophale) SiO2 
 PCOD8224754
Probable space group: P B A M
;
_chemical_formula_sum "Si O2"
_cell_formula_units_Z 48
_cell_length_a 15.117371
_cell_length_b 8.609928
_cell_length_c 16.368913
_cell_angle_alpha 90.000000
_cell_angle_beta 90.000000
_cell_angle_gamma 90.000000
_cell_volume 2130.569136
_symmetry_space_group_name_H-M "P B A M"
_symmetry_group_IT_number 55
_symmetry_cell_setting 'orthorhombic'
loop_
_space_group_symop_operation_xyz
x,y,z
-x,-y,z
1/2+x,1/2-y,-z
1/2-x,1/2+y,-z
-x,-y,-z
x,y,-z
1/2-x,1/2+y,z
1/2+x,1/2-y,z
loop_
_atom_site_type_symbol
_atom_site_label
_atom_site_fract_x
_atom_site_fract_y
_atom_site_fract_z
Si Si1 0.355342 0.167060 0.165172
Si Si2 0.302916 0.312144 0.323811
Si Si3 0.808703 0.657931 0.094013
Si Si4 0.872822 0.829891 0.500000
Si Si5 0.530037 0.329761 0.158502
Si Si6 0.376855 0.651417 0.322505
Si Si7 0.209362 0.847592 0.500000
O O1 0.353657 0.198221 0.262255
O O2 0.286462 0.279840 0.120141
O O3 0.453859 0.207350 0.134151
O O4 0.334234 0.989068 0.148582
O O5 0.326609 0.490031 0.303319
O O6 0.196930 0.286446 0.314549
O O7 0.332388 0.273335 0.417361
O O8 0.881220 0.791439 0.108709
O O9 0.806109 0.607594 0.000000
O O10 0.924962 0.844001 0.586827
O O11 0.815503 0.673341 0.500000
O O12 0.800637 0.967754 0.500000
O O13 0.500000 0.500000 0.131429
O O14 0.546868 0.323136 0.256207
#
# Coordination Sequence:
#
# PCOD8224754 Si02
#       7
#     8   8   8   4   8   8   4
#     4  12  24  44  71  99 133 173 218 274 332 405
#     4  10  18  35  62  92 135 175 223 269 322 386
#     4  12  28  49  73 100 129 169 218 275 344 407
#     4   8  16  30  54  87 134 172 223 275 317 382
#     4  12  25  43  68 100 136 172 222 270 329 400
#     4  10  19  36  60  97 132 180 227 272 330 389
#     4   8  16  28  53  92 125 174 220 267 314 374
#
# _framework density 22.529191999999998
#
# number of rings (size 3 to 8) (size 9 to 14) (size 15 to 20)
#    0.000    1.333    3.333    3.000    0.000    2.333 
#    0.000    1.250    0.000    0.000    0.000    2.333 
#    0.000    0.000    0.000    0.000    0.000    0.000 
#
# Total GULP energy -594996.989310 kJ/mol
# GULP energy per Si atom -12395.770611 kJ/mol
# Density = 2.247791 g / cm^3
# Si number density = 22.529192 Si / 1000 Ang^3
#
#
#
# Elastic Constant Matrix: (Units=GPa)
#
#
# Indices 1 2 3 4 5 6 
#
# 1 85.9579 31.0550 31.5973 0.0000 0.0000 0.0000
# 2 31.0550 89.4296 29.8884 0.0000 0.0000 0.0000
# 3 31.5973 29.8884 106.4973 0.0000 0.0000 0.0000
# 4 0.0000 0.0000 0.0000 27.1385 0.0000 0.0000
# 5 0.0000 0.0000 0.0000 0.0000 10.3585 0.0000
# 6 0.0000 0.0000 0.0000 0.0000 0.0000 33.3839
#
#
#
# Elastic Compliance Matrix: (Units=1/GPa)
#
#
# Indices 1 2 3 4 5 6 
#
# 1 0.014183 -0.003883 -0.003118 0.000000 0.000000 0.000000
# 2 -0.003883 0.013402 -0.002609 0.000000 0.000000 0.000000
# 3 -0.003118 -0.002609 0.011047 0.000000 0.000000 0.000000
# 4 0.000000 0.000000 0.000000 0.036848 0.000000 0.000000
# 5 0.000000 0.000000 0.000000 0.000000 0.096539 0.000000
# 6 0.000000 0.000000 0.000000 0.000000 0.000000 0.029955
#
#
# Mechanical properties :
#
#
# Convention : Reuss Voigt Hill
#
# Bulk Modulus (GPa) = 51.51564 51.88513 51.70038
# Shear Modulus (GPa) = 21.96202 26.79911 24.38057
#
# Velocity S-wave (km/s) = 3.12561 3.45270 3.29321
# Velocity P-wave (km/s) = 5.99514 6.24299 6.12032
#
# Compressibility (1/GPa) = 0.01941158
#
# Stress axis : x y z
#
# Youngs Moduli (GPa) = 70.50880 74.61350 90.51921
#
# Poissons Ratio (x) = 0.28971 0.28226
# Poissons Ratio (y) = 0.27378 0.23620
# Poissons Ratio (z) = 0.21986 0.19469
#
# Static dielectric constant tensor:
#      x y z
#    x 3.822350 0.000000 0.000000 
#    y 0.000000 4.011850 0.000000 
#    z 0.000000 0.000000 4.433080 
# 
# 
# High freq. dielectric constant tensor:
#      x y z
#    x 1.861030 0.000000 0.000000 
#    y 0.000000 1.882340 0.000000 
#    z 0.000000 0.000000 1.902760 
# 
# From -- ./inp_files/21526.got.cif
#   From: 2010.03.12/outbox.cif.g09.slc.cpg/sg55_11_cif.got.tgz:21526.got - 2010.04.16 15:19:21.
