data_PCOD8224689
_publ_section_title
;
Structure prediction by ZEFSAII (Michael W. Deem and Ramdas Pophale) SiO2 
 PCOD8224689
Probable space group: P B A M
;
_chemical_formula_sum "Si O2"
_cell_formula_units_Z 64
_cell_length_a 23.609137
_cell_length_b 14.537268
_cell_length_c 8.933597
_cell_angle_alpha 90.000000
_cell_angle_beta 90.000000
_cell_angle_gamma 90.000000
_cell_volume 3066.120837
_symmetry_space_group_name_H-M "P B A M"
_symmetry_group_IT_number 55
_symmetry_cell_setting 'orthorhombic'
loop_
_space_group_symop_operation_xyz
x,y,z
-x,-y,z
1/2+x,1/2-y,-z
1/2-x,1/2+y,-z
-x,-y,-z
x,y,-z
1/2-x,1/2+y,z
1/2+x,1/2-y,z
loop_
_atom_site_type_symbol
_atom_site_label
_atom_site_fract_x
_atom_site_fract_y
_atom_site_fract_z
Si Si1 0.333957 0.854892 0.825175
Si Si2 0.468431 0.633862 0.331086
Si Si3 0.597559 0.649477 0.333007
Si Si4 0.176273 0.557874 0.824041
Si Si5 0.284010 0.666051 0.822380
Si Si6 0.073636 0.646737 0.322602
Si Si7 0.959016 0.676797 0.823985
Si Si8 0.121440 0.021867 0.176167
O O1 0.299623 0.767313 0.754842
O O2 0.398822 0.863880 0.768268
O O3 0.303435 0.952405 0.791087
O O4 0.336614 0.833526 0.000000
O O5 0.447629 0.657399 0.500000
O O6 0.534218 0.609651 0.335426
O O7 0.456723 0.716821 0.218243
O O8 0.435453 0.547503 0.263994
O O9 0.623548 0.648412 0.500000
O O10 0.596161 0.753225 0.268749
O O11 0.635484 0.583358 0.226473
O O12 0.223260 0.629610 0.762679
O O13 0.117473 0.572181 0.738092
O O14 0.165328 0.570501 0.000000
O O15 0.329949 0.591451 0.770062
O O16 0.281257 0.668141 0.000000
O O17 0.068742 0.643354 0.500000
O O18 0.011128 0.625689 0.258008
O O19 0.968087 0.665018 0.000000
O O20 0.112037 0.025369 0.000000
#
# Coordination Sequence:
#
# PCOD8224689 Si02
#       8
#     8   8   8   8   8   8   8   8
#     4   9  18  35  59  88 119 147 183 242 297 337
#     4  10  19  32  50  77 116 157 192 230 288 347
#     4   9  20  35  50  73 111 154 184 223 289 350
#     4  10  21  38  63  86 109 151 197 232 286 350
#     4   9  19  36  57  85 118 148 189 244 290 334
#     4  10  22  40  57  80 120 154 187 240 296 346
#     4  10  18  33  59  85 115 151 194 240 289 347
#     4  11  20  31  52  82 111 147 196 244 282 329
#
# _framework density 20.873280000000001
#
# number of rings (size 3 to 8) (size 9 to 14) (size 15 to 20)
#    0.000    2.250    1.250    2.625    0.000    6.000 
#    0.000    7.500    0.000    0.000    0.000    0.000 
#    0.000    0.000    0.000    0.000    0.000    0.000 
#
# Total GULP energy -793272.713127 kJ/mol
# GULP energy per Si atom -12394.886143 kJ/mol
# Density = 2.082577 g / cm^3
# Si number density = 20.873280 Si / 1000 Ang^3
#
#
#
# Elastic Constant Matrix: (Units=GPa)
#
#
# Indices 1 2 3 4 5 6 
#
# 1 83.3272 57.8668 25.6778 0.0000 0.0000 0.0000
# 2 57.8668 99.4513 23.3556 0.0000 0.0000 0.0000
# 3 25.6778 23.3556 55.3874 0.0000 0.0000 0.0000
# 4 0.0000 0.0000 0.0000 21.7653 0.0000 0.0000
# 5 0.0000 0.0000 0.0000 0.0000 3.3778 0.0000
# 6 0.0000 0.0000 0.0000 0.0000 0.0000 27.3411
#
#
#
# Elastic Compliance Matrix: (Units=1/GPa)
#
#
# Indices 1 2 3 4 5 6 
#
# 1 0.021400 -0.011234 -0.005184 0.000000 0.000000 0.000000
# 2 -0.011234 0.017058 -0.001985 0.000000 0.000000 0.000000
# 3 -0.005184 -0.001985 0.021295 0.000000 0.000000 0.000000
# 4 0.000000 0.000000 0.000000 0.045945 0.000000 0.000000
# 5 0.000000 0.000000 0.000000 0.000000 0.296050 0.000000
# 6 0.000000 0.000000 0.000000 0.000000 0.000000 0.036575
#
#
# Mechanical properties :
#
#
# Convention : Reuss Voigt Hill
#
# Bulk Modulus (GPa) = 43.57863 50.21849 46.89856
# Shear Modulus (GPa) = 10.35672 19.24788 14.80230
#
# Velocity S-wave (km/s) = 2.22991 3.03995 2.66588
# Velocity P-wave (km/s) = 5.24910 6.03595 5.65622
#
# Compressibility (1/GPa) = 0.02294703
#
# Stress axis : x y z
#
# Youngs Moduli (GPa) = 46.72870 58.62297 46.95979
#
# Poissons Ratio (x) = 0.65860 0.24343
# Poissons Ratio (y) = 0.52497 0.09320
# Poissons Ratio (z) = 0.24224 0.11635
#
# Static dielectric constant tensor:
#      x y z
#    x 3.738700 0.000000 0.000000 
#    y 0.000000 3.847970 0.000000 
#    z 0.000000 0.000000 3.453160 
# 
# 
# High freq. dielectric constant tensor:
#      x y z
#    x 1.802650 0.000000 0.000000 
#    y 0.000000 1.825810 0.000000 
#    z 0.000000 0.000000 1.786670 
# 
# From -- ./inp_files/9677.got.cif
#   From: 2010.03.12/outbox.cif.g09.slc.cpg/sg55_5_cif.got.tgz:9677.got - 2010.04.16 15:19:21.
