data_PCOD8224654
_publ_section_title
;
Structure prediction by ZEFSAII (Michael W. Deem and Ramdas Pophale) SiO2 
 PCOD8224654
Probable space group: P B A M
;
_chemical_formula_sum "Si O2"
_cell_formula_units_Z 64
_cell_length_a 30.194178
_cell_length_b 14.784083
_cell_length_c 8.452849
_cell_angle_alpha 90.000000
_cell_angle_beta 90.000000
_cell_angle_gamma 90.000000
_cell_volume 3773.294599
_symmetry_space_group_name_H-M "P B A M"
_symmetry_group_IT_number 55
_symmetry_cell_setting 'orthorhombic'
loop_
_space_group_symop_operation_xyz
x,y,z
-x,-y,z
1/2+x,1/2-y,-z
1/2-x,1/2+y,-z
-x,-y,-z
x,y,-z
1/2-x,1/2+y,z
1/2+x,1/2-y,z
loop_
_atom_site_type_symbol
_atom_site_label
_atom_site_fract_x
_atom_site_fract_y
_atom_site_fract_z
Si Si1 0.711090 0.207713 0.687451
Si Si2 0.816072 0.006917 0.820603
Si Si3 0.204095 0.682220 0.685740
Si Si4 0.276518 0.989687 0.681937
Si Si5 0.543451 0.598212 0.683844
Si Si6 0.635094 0.341914 0.685077
Si Si7 0.549234 0.399455 0.185843
Si Si8 0.363951 0.329113 0.317575
O O1 0.716871 0.200253 0.500000
O O2 0.753827 0.261829 0.756929
O O3 0.709054 0.105950 0.761804
O O4 0.665227 0.256456 0.734497
O O5 0.775964 0.998193 0.698615
O O6 0.840349 0.101545 0.798060
O O7 0.850418 0.928085 0.785402
O O8 0.798785 0.000278 0.000000
O O9 0.212990 0.672612 0.500000
O O10 0.201354 0.580251 0.758789
O O11 0.157308 0.731200 0.721011
O O12 0.289936 0.984980 0.500000
O O13 0.531783 0.590837 0.500000
O O14 0.500353 0.634546 0.775613
O O15 0.557400 0.499335 0.744332
O O16 0.583338 0.669323 0.714774
O O17 0.639770 0.361615 0.500000
O O18 0.583702 0.328461 0.734188
O O19 0.556505 0.401958 0.000000
O O20 0.354364 0.356063 0.500000
#
# Coordination Sequence:
#
# PCOD8224654 Si02
#       8
#     8   8   8   8   8   8   8   8
#     4   9  17  28  49  74  92 123 165 201 236 277
#     4  12  22  29  43  69  99 129 163 199 239 276
#     4   9  16  28  49  74  94 122 162 200 233 275
#     4  10  18  33  51  67  95 129 165 201 237 281
#     4  10  19  31  49  70  95 130 162 192 234 286
#     4  11  20  33  49  68  94 129 168 200 234 286
#     4  11  21  32  47  70  99 125 155 198 244 289
#     4  10  19  32  50  70  95 128 165 195 231 282
#
# _framework density 16.961306
#
# number of rings (size 3 to 8) (size 9 to 14) (size 15 to 20)
#    0.000    1.750    3.750    3.750    0.000    0.500 
#    0.000    3.125    0.000    0.000    0.000    0.875 
#    0.000    7.000    0.000    0.000    0.000    0.000 
#
# Total GULP energy -793292.658182 kJ/mol
# GULP energy per Si atom -12395.197784 kJ/mol
# Density = 1.692270 g / cm^3
# Si number density = 16.961306 Si / 1000 Ang^3
#
#
#
# Elastic Constant Matrix: (Units=GPa)
#
#
# Indices 1 2 3 4 5 6 
#
# 1 115.2347 52.1387 8.9276 0.0000 0.0000 0.0000
# 2 52.1387 109.9163 16.9547 0.0000 0.0000 0.0000
# 3 8.9276 16.9547 34.9528 0.0000 0.0000 0.0000
# 4 0.0000 0.0000 0.0000 2.0004 0.0000 0.0000
# 5 0.0000 0.0000 0.0000 0.0000 11.9248 0.0000
# 6 0.0000 0.0000 0.0000 0.0000 0.0000 21.1310
#
#
#
# Elastic Compliance Matrix: (Units=1/GPa)
#
#
# Indices 1 2 3 4 5 6 
#
# 1 0.011052 -0.005196 -0.000303 0.000000 0.000000 0.000000
# 2 -0.005196 0.012276 -0.004628 0.000000 0.000000 0.000000
# 3 -0.000303 -0.004628 0.030932 0.000000 0.000000 0.000000
# 4 0.000000 0.000000 0.000000 0.499893 0.000000 0.000000
# 5 0.000000 0.000000 0.000000 0.000000 0.083859 0.000000
# 6 0.000000 0.000000 0.000000 0.000000 0.000000 0.047324
#
#
# Mechanical properties :
#
#
# Convention : Reuss Voigt Hill
#
# Bulk Modulus (GPa) = 29.40468 46.23840 37.82154
# Shear Modulus (GPa) = 6.97422 19.15009 13.06216
#
# Velocity S-wave (km/s) = 2.02997 3.36377 2.77811
# Velocity P-wave (km/s) = 4.78208 6.51206 5.71293
#
# Compressibility (1/GPa) = 0.03400820
#
# Stress axis : x y z
#
# Youngs Moduli (GPa) = 90.47846 81.45711 32.32887
#
# Poissons Ratio (x) = 0.42325 0.00978
# Poissons Ratio (y) = 0.47013 0.14961
# Poissons Ratio (z) = 0.02737 0.37697
#
# Static dielectric constant tensor:
#      x y z
#    x 3.251400 0.000000 0.000000 
#    y 0.000000 3.296920 0.000000 
#    z 0.000000 0.000000 2.940540 
# 
# 
# High freq. dielectric constant tensor:
#      x y z
#    x 1.646300 0.000000 0.000000 
#    y 0.000000 1.627650 0.000000 
#    z 0.000000 0.000000 1.636010 
# 
# From -- ./inp_files/10903.got.cif
#   From: 2010.03.12/outbox.cif.g09.slc.cpg/sg55_6_cif.got.tgz:10903.got - 2010.04.16 15:19:21.
