data_PCOD8224632
_publ_section_title
;
Structure prediction by ZEFSAII (Michael W. Deem and Ramdas Pophale) SiO2 
 PCOD8224632
Probable space group: P B A M
;
_chemical_formula_sum "Si O2"
_cell_formula_units_Z 64
_cell_length_a 19.706941
_cell_length_b 20.393952
_cell_length_c 9.065283
_cell_angle_alpha 90.000000
_cell_angle_beta 90.000000
_cell_angle_gamma 90.000000
_cell_volume 3643.359074
_symmetry_space_group_name_H-M "P B A M"
_symmetry_group_IT_number 55
_symmetry_cell_setting 'orthorhombic'
loop_
_space_group_symop_operation_xyz
x,y,z
-x,-y,z
1/2+x,1/2-y,-z
1/2-x,1/2+y,-z
-x,-y,-z
x,y,-z
1/2-x,1/2+y,z
1/2+x,1/2-y,z
loop_
_atom_site_type_symbol
_atom_site_label
_atom_site_fract_x
_atom_site_fract_y
_atom_site_fract_z
Si Si1 0.701818 0.674202 0.173327
Si Si2 0.215757 0.434085 0.331225
Si Si3 0.934149 0.231489 0.828195
Si Si4 0.574178 0.124299 0.673215
Si Si5 0.306309 0.080279 0.328857
Si Si6 0.725235 0.308199 0.169501
Si Si7 0.581991 0.259294 0.830086
Si Si8 0.561715 0.880763 0.824928
O O1 0.730412 0.607784 0.240555
O O2 0.625640 0.686368 0.239450
O O3 0.747763 0.736718 0.216364
O O4 0.701565 0.663349 0.000000
O O5 0.225572 0.413815 0.500000
O O6 0.138406 0.420032 0.283594
O O7 0.230808 0.510731 0.304312
O O8 0.927731 0.305888 0.770577
O O9 0.010096 0.204563 0.793027
O O10 0.919283 0.233517 0.000000
O O11 0.558888 0.123960 0.500000
O O12 0.591366 0.197699 0.724346
O O13 0.509475 0.094088 0.758298
O O14 0.322314 0.092491 0.500000
O O15 0.256493 0.136467 0.271775
O O16 0.376692 0.077637 0.240377
O O17 0.643828 0.309596 0.192832
O O18 0.745200 0.322993 0.000000
O O19 0.580064 0.233873 0.000000
O O20 0.559702 0.888128 0.000000
#
# Coordination Sequence:
#
# PCOD8224632 Si02
#       8
#     8   8   8   8   8   8   8   8
#     4  10  18  32  55  80 103 131 175 220 262 310
#     4  10  23  38  50  72 108 144 177 217 263 314
#     4   8  15  29  50  76 104 131 160 209 261 306
#     4  10  19  32  50  74 105 140 178 214 254 311
#     4  11  23  37  52  73 105 144 180 216 265 318
#     4  10  19  33  54  81 106 133 175 224 266 313
#     4   9  17  31  52  77 107 138 169 212 268 315
#     4  10  19  34  53  75 106 139 175 217 259 308
#
# _framework density 17.566206000000001
#
# number of rings (size 3 to 8) (size 9 to 14) (size 15 to 20)
#    0.000    2.250    2.500    1.875    0.000    3.000 
#    0.000    3.125    0.000    0.750    0.000    5.250 
#    0.000    0.000    0.000    0.000    0.000    0.000 
#
# Total GULP energy -793439.163772 kJ/mol
# GULP energy per Si atom -12397.486934 kJ/mol
# Density = 1.752622 g / cm^3
# Si number density = 17.566206 Si / 1000 Ang^3
#
#
#
# Elastic Constant Matrix: (Units=GPa)
#
#
# Indices 1 2 3 4 5 6 
#
# 1 105.2578 28.2497 34.4909 0.0000 0.0000 0.0000
# 2 28.2497 54.3570 26.5442 0.0000 0.0000 0.0000
# 3 34.4909 26.5442 61.2552 0.0000 0.0000 0.0000
# 4 0.0000 0.0000 0.0000 25.3506 0.0000 0.0000
# 5 0.0000 0.0000 0.0000 0.0000 26.8582 0.0000
# 6 0.0000 0.0000 0.0000 0.0000 0.0000 22.4871
#
#
#
# Elastic Compliance Matrix: (Units=1/GPa)
#
#
# Indices 1 2 3 4 5 6 
#
# 1 0.012239 -0.003799 -0.005245 0.000000 0.000000 0.000000
# 2 -0.003799 0.024514 -0.008484 0.000000 0.000000 0.000000
# 3 -0.005245 -0.008484 0.022955 0.000000 0.000000 0.000000
# 4 0.000000 0.000000 0.000000 0.039447 0.000000 0.000000
# 5 0.000000 0.000000 0.000000 0.000000 0.037233 0.000000
# 6 0.000000 0.000000 0.000000 0.000000 0.000000 0.044470
#
#
# Mechanical properties :
#
#
# Convention : Reuss Voigt Hill
#
# Bulk Modulus (GPa) = 40.56476 44.38218 42.47347
# Shear Modulus (GPa) = 22.30846 23.71153 23.00999
#
# Velocity S-wave (km/s) = 3.56752 3.67800 3.62318
# Velocity P-wave (km/s) = 6.33342 6.58464 6.46025
#
# Compressibility (1/GPa) = 0.02465194
#
# Stress axis : x y z
#
# Youngs Moduli (GPa) = 81.70716 40.79254 43.56405
#
# Poissons Ratio (x) = 0.15498 0.22849
# Poissons Ratio (y) = 0.31043 0.36958
# Poissons Ratio (z) = 0.42855 0.34607
#
# Static dielectric constant tensor:
#      x y z
#    x 3.577160 0.000000 0.000000 
#    y 0.000000 2.998790 0.000000 
#    z 0.000000 0.000000 3.152210 
# 
# 
# High freq. dielectric constant tensor:
#      x y z
#    x 1.690680 0.000000 0.000000 
#    y 0.000000 1.645770 0.000000 
#    z 0.000000 0.000000 1.670830 
# 
# From -- ./inp_files/7935.got.cif
#   From: 2010.03.12/outbox.cif.g09.slc.cpg/sg55_4_cif.got.tgz:7935.got - 2010.04.16 15:19:21.
