data_PCOD8224498
_publ_section_title
;
Structure prediction by ZEFSAII (Michael W. Deem and Ramdas Pophale) SiO2 
 PCOD8224498
Probable space group: P B A M
;
_chemical_formula_sum "Si O2"
_cell_formula_units_Z 64
_cell_length_a 16.622598
_cell_length_b 21.375586
_cell_length_c 9.482213
_cell_angle_alpha 90.000000
_cell_angle_beta 90.000000
_cell_angle_gamma 90.000000
_cell_volume 3369.198807
_symmetry_space_group_name_H-M "P B A M"
_symmetry_group_IT_number 55
_symmetry_cell_setting 'orthorhombic'
loop_
_space_group_symop_operation_xyz
x,y,z
-x,-y,z
1/2+x,1/2-y,-z
1/2-x,1/2+y,-z
-x,-y,-z
x,y,-z
1/2-x,1/2+y,z
1/2+x,1/2-y,z
loop_
_atom_site_type_symbol
_atom_site_label
_atom_site_fract_x
_atom_site_fract_y
_atom_site_fract_z
Si Si1 0.187186 0.481248 0.839094
Si Si2 0.434285 0.876240 0.158853
Si Si3 0.618949 0.339499 0.657163
Si Si4 0.465835 0.314567 0.837962
Si Si5 0.700340 0.632141 0.839086
Si Si6 0.780990 0.397517 0.333847
Si Si7 0.098781 0.679749 0.162175
Si Si8 0.179342 0.297257 0.659491
O O1 0.102839 0.444893 0.813554
O O2 0.262717 0.435779 0.804743
O O3 0.188573 0.537882 0.731292
O O4 0.192410 0.506035 0.000000
O O5 0.530546 0.874464 0.176238
O O6 0.398366 0.826959 0.267656
O O7 0.410437 0.855157 0.000000
O O8 0.584911 0.349866 0.500000
O O9 0.543422 0.340945 0.759446
O O10 0.685093 0.392284 0.695807
O O11 0.670226 0.276475 0.665062
O O12 0.395362 0.365724 0.813549
O O13 0.437083 0.246224 0.784794
O O14 0.490732 0.309081 0.000000
O O15 0.739633 0.684726 0.740896
O O16 0.720480 0.650356 0.000000
O O17 0.799704 0.396053 0.500000
O O18 0.827421 0.339845 0.260646
O O19 0.128140 0.685664 0.000000
O O20 0.185024 0.322304 0.500000
#
# Coordination Sequence:
#
# PCOD8224498 Si02
#       8
#     8   8   8   8   8   8   8   8
#     4   9  19  37  57  76 106 146 186 226 270 317
#     4   9  18  34  56  82 112 143 175 221 273 321
#     4  10  22  37  52  76 112 147 177 220 277 325
#     4  10  20  35  59  88 111 137 179 224 271 332
#     4   9  19  35  56  82 109 138 177 227 274 320
#     4  11  24  39  54  76 109 149 190 228 266 318
#     4  10  20  35  57  86 115 141 175 221 277 332
#     4  10  18  30  52  80 108 141 177 212 265 330
#
# _framework density 18.995614
#
# number of rings (size 3 to 8) (size 9 to 14) (size 15 to 20)
#    0.000    2.250    1.250    2.250    0.000    5.500 
#    0.000    3.125    0.000    3.750    0.000    0.000 
#    0.000    0.000    0.000    0.000    0.000    0.000 
#
# Total GULP energy -793507.272658 kJ/mol
# GULP energy per Si atom -12398.551135 kJ/mol
# Density = 1.895238 g / cm^3
# Si number density = 18.995614 Si / 1000 Ang^3
#
#
#
# Elastic Constant Matrix: (Units=GPa)
#
#
# Indices 1 2 3 4 5 6 
#
# 1 91.2009 11.6295 39.1621 0.0000 0.0000 0.0000
# 2 11.6295 36.9881 16.3303 0.0000 0.0000 0.0000
# 3 39.1621 16.3303 83.0629 0.0000 0.0000 0.0000
# 4 0.0000 0.0000 0.0000 25.3447 0.0000 0.0000
# 5 0.0000 0.0000 0.0000 0.0000 26.8018 0.0000
# 6 0.0000 0.0000 0.0000 0.0000 0.0000 22.5932
#
#
#
# Elastic Compliance Matrix: (Units=1/GPa)
#
#
# Indices 1 2 3 4 5 6 
#
# 1 0.013835 -0.001610 -0.006206 0.000000 0.000000 0.000000
# 2 -0.001610 0.029793 -0.005098 0.000000 0.000000 0.000000
# 3 -0.006206 -0.005098 0.015968 0.000000 0.000000 0.000000
# 4 0.000000 0.000000 0.000000 0.039456 0.000000 0.000000
# 5 0.000000 0.000000 0.000000 0.000000 0.037311 0.000000
# 6 0.000000 0.000000 0.000000 0.000000 0.000000 0.044261
#
#
# Mechanical properties :
#
#
# Convention : Reuss Voigt Hill
#
# Bulk Modulus (GPa) = 29.61523 38.38842 34.00182
# Shear Modulus (GPa) = 22.96652 24.55660 23.76156
#
# Velocity S-wave (km/s) = 3.48090 3.59939 3.54064
# Velocity P-wave (km/s) = 5.63737 6.12593 5.88672
#
# Compressibility (1/GPa) = 0.03376641
#
# Stress axis : x y z
#
# Youngs Moduli (GPa) = 72.27966 33.56512 62.62683
#
# Poissons Ratio (x) = 0.05403 0.38869
# Poissons Ratio (y) = 0.11636 0.31929
# Poissons Ratio (z) = 0.44860 0.17113
#
# Static dielectric constant tensor:
#      x y z
#    x 3.552690 0.000000 0.000000 
#    y 0.000000 3.265620 0.000000 
#    z 0.000000 0.000000 3.487510 
# 
# 
# High freq. dielectric constant tensor:
#      x y z
#    x 1.739520 0.000000 0.000000 
#    y 0.000000 1.717860 0.000000 
#    z 0.000000 0.000000 1.737270 
# 
# From -- ./inp_files/6715.got.cif
#   From: 2010.03.12/outbox.cif.g09.slc.cpg/sg55_4_cif.got.tgz:6715.got - 2010.04.16 15:19:21.
