data_PCOD8224973
_publ_section_title
;
Structure prediction by ZEFSAII (Michael W. Deem and Ramdas Pophale) SiO2 
 PCOD8224973
Probable space group: P B A M
;
_chemical_formula_sum "Si O2"
_cell_formula_units_Z 64
_cell_length_a 12.781555
_cell_length_b 27.886950
_cell_length_c 9.462753
_cell_angle_alpha 90.000000
_cell_angle_beta 90.000000
_cell_angle_gamma 90.000000
_cell_volume 3372.890291
_symmetry_space_group_name_H-M "P B A M"
_symmetry_group_IT_number 55
_symmetry_cell_setting 'orthorhombic'
loop_
_space_group_symop_operation_xyz
x,y,z
-x,-y,z
1/2+x,1/2-y,-z
1/2-x,1/2+y,-z
-x,-y,-z
x,y,-z
1/2-x,1/2+y,z
1/2+x,1/2-y,z
loop_
_atom_site_type_symbol
_atom_site_label
_atom_site_fract_x
_atom_site_fract_y
_atom_site_fract_z
Si Si1 0.022126 0.345957 0.332520
Si Si2 0.897124 0.024454 0.840335
Si Si3 0.582981 0.636970 0.162296
Si Si4 0.752129 0.691965 0.667083
Si Si5 0.880124 0.861810 0.664537
Si Si6 0.535647 0.948973 0.334880
Si Si7 0.228169 0.040416 0.660210
Si Si8 0.688677 0.798126 0.667205
O O1 0.009859 0.348496 0.500000
O O2 0.022627 0.401232 0.273794
O O3 0.923029 0.315952 0.270313
O O4 0.127466 0.317978 0.289855
O O5 0.907453 0.080522 0.829520
O O6 0.797205 0.005993 0.753660
O O7 0.881957 0.006636 0.000000
O O8 0.000000 0.000000 0.773983
O O9 0.683547 0.655619 0.243753
O O10 0.478815 0.654272 0.242478
O O11 0.579872 0.654922 0.000000
O O12 0.735133 0.683888 0.500000
O O13 0.716465 0.744588 0.716159
O O14 0.903868 0.850436 0.500000
O O15 0.855754 0.917732 0.687394
O O16 0.781295 0.832156 0.721843
O O17 0.511065 0.952181 0.500000
O O18 0.657315 0.940116 0.302586
O O19 0.500000 0.000000 0.264928
O O20 0.224931 0.022503 0.500000
O O21 0.684161 0.801051 0.500000
#
# Coordination Sequence:
#
# PCOD8224973 Si02
#       8
#     8   8   8   8   8   8   8   8
#     4   9  17  32  52  81 116 143 175 222 278 336
#     4  10  21  37  53  72 107 152 186 217 272 337
#     4  11  24  40  56  77 113 155 191 233 285 335
#     4  10  22  36  59  87 110 145 187 231 280 335
#     4  10  19  34  58  87 114 141 185 235 277 332
#     4   9  17  29  47  76 113 145 173 217 277 330
#     4  10  19  31  53  84 110 140 182 230 274 319
#     4   9  18  34  57  85 115 144 178 226 285 338
#
# _framework density 18.974824000000002
#
# number of rings (size 3 to 8) (size 9 to 14) (size 15 to 20)
#    0.000    2.250    2.500    0.375    3.500    1.250 
#    0.000    0.625    0.000    1.875    0.000    0.000 
#    0.000    0.000    0.000    0.000    0.000    0.000 
#
# Total GULP energy -793417.602557 kJ/mol
# GULP energy per Si atom -12397.150040 kJ/mol
# Density = 1.893164 g / cm^3
# Si number density = 18.974824 Si / 1000 Ang^3
#
#
#
# Elastic Constant Matrix: (Units=GPa)
#
#
# Indices 1 2 3 4 5 6 
#
# 1 128.8601 61.3715 44.6768 0.0000 0.0000 0.0000
# 2 61.3715 102.5264 25.2964 0.0000 0.0000 0.0000
# 3 44.6768 25.2964 51.0769 0.0000 0.0000 0.0000
# 4 0.0000 0.0000 0.0000 13.8248 0.0000 0.0000
# 5 0.0000 0.0000 0.0000 0.0000 -4.0400 0.0000
# 6 0.0000 0.0000 0.0000 0.0000 0.0000 36.0467
#
#
#
# Elastic Compliance Matrix: (Units=1/GPa)
#
#
# Indices 1 2 3 4 5 6 
#
# 1 0.013761 -0.006001 -0.009065 0.000000 0.000000 0.000000
# 2 -0.006001 0.013728 -0.001550 0.000000 0.000000 0.000000
# 3 -0.009065 -0.001550 0.028275 0.000000 0.000000 0.000000
# 4 0.000000 0.000000 0.000000 0.072334 0.000000 0.000000
# 5 0.000000 0.000000 0.000000 0.000000 -0.247527 0.000000
# 6 0.000000 0.000000 0.000000 0.000000 0.000000 0.027742
#
#
# Mechanical properties :
#
#
# Convention : Reuss Voigt Hill
#
# Bulk Modulus (GPa) = 44.37993 60.57252 52.47622
# Shear Modulus (GPa) = -98.14459 19.24091 -39.45184
#
# Velocity S-wave (km/s) = -7.19971 3.18783 -4.56474
# Velocity P-wave (km/s) = 6.75832 6.74845 0.25821
#
# Compressibility (1/GPa) = 0.02253271
#
# Stress axis : x y z
#
# Youngs Moduli (GPa) = 72.66836 72.84365 35.36687
#
# Poissons Ratio (x) = 0.43711 0.32060
# Poissons Ratio (y) = 0.43606 0.05482
# Poissons Ratio (z) = 0.65873 0.11292
#
# Static dielectric constant tensor:
#      x y z
#    x 3.599760 0.000000 0.000000 
#    y 0.000000 3.630280 0.000000 
#    z 0.000000 0.000000 3.075710 
# 
# 
# High freq. dielectric constant tensor:
#      x y z
#    x 1.746250 0.000000 0.000000 
#    y 0.000000 1.746350 0.000000 
#    z 0.000000 0.000000 1.683230 
# 
# From -- ./inp_files/4612.got.cif
#   From: 2010.03.12/outbox.cif.g09.slc.cpg/sg55_3_cif.got.tgz:4612.got - 2010.04.16 15:19:21.
