data_PCOD8224598
_publ_section_title
;
Structure prediction by ZEFSAII (Michael W. Deem and Ramdas Pophale) SiO2 
 PCOD8224598
Probable space group: P B A M
;
_chemical_formula_sum "Si O2"
_cell_formula_units_Z 44
_cell_length_a 18.425227
_cell_length_b 13.111091
_cell_length_c 10.870753
_cell_angle_alpha 90.000000
_cell_angle_beta 90.000000
_cell_angle_gamma 90.000000
_cell_volume 2626.100285
_symmetry_space_group_name_H-M "P B A M"
_symmetry_group_IT_number 55
_symmetry_cell_setting 'orthorhombic'
loop_
_space_group_symop_operation_xyz
x,y,z
-x,-y,z
1/2+x,1/2-y,-z
1/2-x,1/2+y,-z
-x,-y,-z
x,y,-z
1/2-x,1/2+y,z
1/2+x,1/2-y,z
loop_
_atom_site_type_symbol
_atom_site_label
_atom_site_fract_x
_atom_site_fract_y
_atom_site_fract_z
Si Si1 0.517250 0.111409 0.772312
Si Si2 0.371703 0.151127 0.355882
Si Si3 0.731289 0.710949 0.786625
Si Si4 0.287851 0.654876 0.000000
Si Si5 0.396261 0.812551 0.000000
Si Si6 0.736263 0.581567 0.000000
Si Si7 0.843255 0.577215 0.639284
O O1 0.444794 0.165034 0.723136
O O2 0.571761 0.101218 0.657018
O O3 0.500000 0.000000 0.826710
O O4 0.554073 0.173971 0.881173
O O5 0.389662 0.159089 0.500000
O O6 0.321809 0.246652 0.317743
O O7 0.331759 0.042921 0.327545
O O8 0.696568 0.626427 0.878355
O O9 0.798813 0.654026 0.724157
O O10 0.752821 0.805043 0.873579
O O11 0.276114 0.536468 0.000000
O O12 0.371184 0.693951 0.000000
O O13 0.322590 0.883729 0.000000
O O14 0.820368 0.598446 0.500000
#
# Coordination Sequence:
#
# PCOD8224598 Si02
#       7
#     8   8   8   4   4   4   8
#     4  10  19  32  50  78 111 137 165 213 264 312
#     4  10  21  33  52  81 108 137 173 213 260 313
#     4  10  19  33  52  76 106 136 175 214 261 307
#     4  10  20  32  55  75 108 134 175 218 258 306
#     4  10  19  34  52  83 104 140 175 209 266 322
#     4  10  20  34  53  78 104 132 172 224 261 299
#     4  10  18  32  51  75 108 140 170 209 258 310
#
# _framework density 16.754881999999998
#
# number of rings (size 3 to 8) (size 9 to 14) (size 15 to 20)
#    0.000    2.182    3.636    2.455    2.545    3.636 
#    0.000    0.000    0.000    2.182    0.000    1.273 
#    0.000    0.000    0.000    0.000    0.000    0.000 
#
# Total GULP energy -545154.442274 kJ/mol
# GULP energy per Si atom -12389.873688 kJ/mol
# Density = 1.671675 g / cm^3
# Si number density = 16.754882 Si / 1000 Ang^3
#
#
#
# Elastic Constant Matrix: (Units=GPa)
#
#
# Indices 1 2 3 4 5 6 
#
# 1 71.2934 40.7145 31.2232 0.0000 0.0000 0.0000
# 2 40.7145 113.8341 44.0123 0.0000 0.0000 0.0000
# 3 31.2232 44.0123 90.0264 0.0000 0.0000 0.0000
# 4 0.0000 0.0000 0.0000 19.0526 0.0000 0.0000
# 5 0.0000 0.0000 0.0000 0.0000 -7.3595 0.0000
# 6 0.0000 0.0000 0.0000 0.0000 0.0000 25.1407
#
#
#
# Elastic Compliance Matrix: (Units=1/GPa)
#
#
# Indices 1 2 3 4 5 6 
#
# 1 0.018710 -0.005158 -0.003967 0.000000 0.000000 0.000000
# 2 -0.005158 0.012254 -0.004202 0.000000 0.000000 0.000000
# 3 -0.003967 -0.004202 0.014538 0.000000 0.000000 0.000000
# 4 0.000000 0.000000 0.000000 0.052486 0.000000 0.000000
# 5 0.000000 0.000000 0.000000 0.000000 -0.135879 0.000000
# 6 0.000000 0.000000 0.000000 0.000000 0.000000 0.039776
#
#
# Mechanical properties :
#
#
# Convention : Reuss Voigt Hill
#
# Bulk Modulus (GPa) = 53.05741 56.33934 54.69837
# Shear Modulus (GPa) = 143.58748 17.98035 80.78392
#
# Velocity S-wave (km/s) = 9.26741 3.27944 6.95125
# Velocity P-wave (km/s) = 12.09334 6.93096 9.85614
#
# Compressibility (1/GPa) = 0.01884751
#
# Stress axis : x y z
#
# Youngs Moduli (GPa) = 53.44840 81.60506 68.78490
#
# Poissons Ratio (x) = 0.42091 0.27289
# Poissons Ratio (y) = 0.27568 0.28903
# Poissons Ratio (z) = 0.21205 0.34290
#
# Static dielectric constant tensor:
#      x y z
#    x 2.993020 0.000000 0.000000 
#    y 0.000000 3.053500 0.000000 
#    z 0.000000 0.000000 3.255720 
# 
# 
# High freq. dielectric constant tensor:
#      x y z
#    x 1.623210 0.000000 0.000000 
#    y 0.000000 1.628000 0.000000 
#    z 0.000000 0.000000 1.665900 
# 
# From -- ./inp_files/14086.got.cif
#   From: 2010.03.12/outbox.cif.g09.slc.cpg/sg55_8_cif.got.tgz:14086.got - 2010.04.16 15:19:21.
