data_PCOD8224655
_publ_section_title
;
Structure prediction by ZEFSAII (Michael W. Deem and Ramdas Pophale) SiO2 
 PCOD8224655
Probable space group: P B A M
;
_chemical_formula_sum "Si O2"
_cell_formula_units_Z 60
_cell_length_a 23.712485
_cell_length_b 5.112271
_cell_length_c 25.489203
_cell_angle_alpha 90.000000
_cell_angle_beta 90.000000
_cell_angle_gamma 90.000000
_cell_volume 3089.919697
_symmetry_space_group_name_H-M "P B A M"
_symmetry_group_IT_number 55
_symmetry_cell_setting 'orthorhombic'
loop_
_space_group_symop_operation_xyz
x,y,z
-x,-y,z
1/2+x,1/2-y,-z
1/2-x,1/2+y,-z
-x,-y,-z
x,y,-z
1/2-x,1/2+y,z
1/2+x,1/2-y,z
loop_
_atom_site_type_symbol
_atom_site_label
_atom_site_fract_x
_atom_site_fract_y
_atom_site_fract_z
Si Si1 0.690490 0.824694 0.708545
Si Si2 0.872070 0.085697 0.911318
Si Si3 0.186551 0.168562 0.661338
Si Si4 0.786223 0.038236 0.000000
Si Si5 0.944265 0.386092 0.558605
Si Si6 0.873247 0.899340 0.559044
Si Si7 0.939112 0.592957 0.060431
Si Si8 0.714887 0.759740 0.169618
O O1 0.747618 0.842265 0.674376
O O2 0.655172 0.575973 0.689207
O O3 0.704952 0.786895 0.768872
O O4 0.656930 0.084346 0.690739
O O5 0.822615 0.981945 0.948555
O O6 0.899560 0.340879 0.936726
O O7 0.844769 0.179743 0.856314
O O8 0.916051 0.841904 0.905645
O O9 0.178924 0.138960 0.598798
O O10 0.765419 0.336817 0.000000
O O11 0.963547 0.305429 0.500000
O O12 0.899442 0.614716 0.557796
O O13 0.000000 0.500000 0.588718
O O14 0.916359 0.120700 0.582012
O O15 0.852577 0.977736 0.500000
O O16 0.000000 0.500000 0.082222
O O17 0.943704 0.686798 0.000000
O O18 0.761358 0.542877 0.152547
#
# Coordination Sequence:
#
# PCOD8224655 Si02
#       8
#     8   8   8   4   8   8   8   8
#     4  10  19  35  53  74 104 138 188 226 272 320
#     4  12  23  37  59  88 118 155 200 232 294 344
#     4  10  18  33  52  73 105 140 177 230 267 322
#     4  12  22  36  49  80 127 164 176 218 288 352
#     4   9  17  30  47  70 104 140 173 217 270 329
#     4  10  19  30  48  77 106 139 182 222 276 340
#     4  11  22  41  62  84 117 158 202 245 278 341
#     4  12  21  38  58  86 117 148 192 244 280 348
#
# _framework density 19.417978000000002
#
# number of rings (size 3 to 8) (size 9 to 14) (size 15 to 20)
#    0.000    1.333    4.000    4.000    0.000    2.667 
#    0.000    2.667    0.000    0.000    0.000   14.000 
#    0.000    0.000    0.000    0.000    0.000    0.000 
#
# Total GULP energy -743289.979116 kJ/mol
# GULP energy per Si atom -12388.166319 kJ/mol
# Density = 1.937378 g / cm^3
# Si number density = 19.417978 Si / 1000 Ang^3
#
#
#
# Elastic Constant Matrix: (Units=GPa)
#
#
# Indices 1 2 3 4 5 6 
#
# 1 63.2259 17.8805 46.4004 0.0000 0.0000 0.0000
# 2 17.8805 150.4030 26.6165 0.0000 0.0000 0.0000
# 3 46.4004 26.6165 80.5521 0.0000 0.0000 0.0000
# 4 0.0000 0.0000 0.0000 24.9024 0.0000 0.0000
# 5 0.0000 0.0000 0.0000 0.0000 -30.8279 0.0000
# 6 0.0000 0.0000 0.0000 0.0000 0.0000 29.3375
#
#
#
# Elastic Compliance Matrix: (Units=1/GPa)
#
#
# Indices 1 2 3 4 5 6 
#
# 1 0.027433 -0.000494 -0.015639 0.000000 0.000000 0.000000
# 2 -0.000494 0.007071 -0.002052 0.000000 0.000000 0.000000
# 3 -0.015639 -0.002052 0.022101 0.000000 0.000000 0.000000
# 4 0.000000 0.000000 0.000000 0.040157 0.000000 0.000000
# 5 0.000000 0.000000 0.000000 0.000000 -0.032438 0.000000
# 6 0.000000 0.000000 0.000000 0.000000 0.000000 0.034086
#
#
# Mechanical properties :
#
#
# Convention : Reuss Voigt Hill
#
# Bulk Modulus (GPa) = 49.41901 52.88621 51.15261
# Shear Modulus (GPa) = 35.32957 18.23465 26.78211
#
# Velocity S-wave (km/s) = 4.27010 3.06773 3.71785
# Velocity P-wave (km/s) = 7.05812 6.31212 6.69552
#
# Compressibility (1/GPa) = 0.02023513
#
# Stress axis : x y z
#
# Youngs Moduli (GPa) = 36.45199 141.43030 45.24679
#
# Poissons Ratio (x) = 0.06983 0.70763
# Poissons Ratio (y) = 0.01800 0.09284
# Poissons Ratio (z) = 0.57008 0.29020
#
# Static dielectric constant tensor:
#      x y z
#    x 3.353880 0.000000 0.000000 
#    y 0.000000 3.296940 0.000000 
#    z 0.000000 0.000000 3.420480 
# 
# 
# High freq. dielectric constant tensor:
#      x y z
#    x 1.714780 0.000000 0.000000 
#    y 0.000000 1.795690 0.000000 
#    z 0.000000 0.000000 1.726270 
# 
# From -- ./inp_files/23698.got.cif
#   From: 2010.03.12/outbox.cif.g09.slc.cpg/sg55_12_cif.got.tgz:23698.got - 2010.04.16 15:19:21.
