data_PCOD8224228
_publ_section_title
;
Structure prediction by ZEFSAII (Michael W. Deem and Ramdas Pophale) SiO2 
 PCOD8224228
Probable space group: P B A M
;
_chemical_formula_sum "Si O2"
_cell_formula_units_Z 44
_cell_length_a 5.254624
_cell_length_b 14.347452
_cell_length_c 25.770771
_cell_angle_alpha 90.000000
_cell_angle_beta 90.000000
_cell_angle_gamma 90.000000
_cell_volume 1942.870425
_symmetry_space_group_name_H-M "P B A M"
_symmetry_group_IT_number 55
_symmetry_cell_setting 'orthorhombic'
loop_
_space_group_symop_operation_xyz
x,y,z
-x,-y,z
1/2+x,1/2-y,-z
1/2-x,1/2+y,-z
-x,-y,-z
x,y,-z
1/2-x,1/2+y,z
1/2+x,1/2-y,z
loop_
_atom_site_type_symbol
_atom_site_label
_atom_site_fract_x
_atom_site_fract_y
_atom_site_fract_z
Si Si1 0.000128 0.389104 0.618793
Si Si2 0.998512 0.858502 0.779177
Si Si3 0.960555 0.809568 0.891006
Si Si4 0.501451 0.150250 0.735397
Si Si5 0.567317 0.691430 0.000000
Si Si6 0.999905 0.889361 0.441856
O O1 0.001491 0.337152 0.673744
O O2 0.247495 0.354613 0.587483
O O3 0.000000 0.500000 0.627502
O O4 0.751745 0.354577 0.587824
O O5 0.001141 0.875397 0.841171
O O6 0.749048 0.906080 0.753919
O O7 0.995179 0.749414 0.764285
O O8 0.247898 0.906068 0.754021
O O9 0.671694 0.772403 0.888722
O O10 0.008229 0.864259 0.946044
O O11 0.362707 0.777339 0.000000
O O12 0.999020 0.847932 0.500000
O O13 0.000000 0.000000 0.444483
#
# Coordination Sequence:
#
# PCOD8224228 Si02
#       6
#     8   8   8   8   4   8
#     4  10  19  30  45  67  90 108 130 166 209 249
#     4  10  17  28  43  60  81 114 149 172 192 236
#     4  10  14  25  36  56  80 107 140 170 206 246
#     4  10  18  28  42  62  83 111 142 170 199 233
#     4   8  16  20  34  52  78 108 128 166 216 248
#     4   9  17  30  47  66  86 106 130 163 208 256
#
# _framework density 22.646902999999998
#
# number of rings (size 3 to 8) (size 9 to 14) (size 15 to 20)
#    0.000    2.364    3.636    1.636    0.000    2.182 
#    0.000    0.000    0.000    0.000    0.000   50.909 
#    0.000    0.000    0.000    9.000    0.000    0.000 
#
# Total GULP energy -545125.506616 kJ/mol
# GULP energy per Si atom -12389.216059 kJ/mol
# Density = 2.259536 g / cm^3
# Si number density = 22.646903 Si / 1000 Ang^3
#
#
#
# Elastic Constant Matrix: (Units=GPa)
#
#
# Indices 1 2 3 4 5 6 
#
# 1 230.9629 -6.9167 85.9880 0.0000 0.0000 0.0000
# 2 -6.9167 21.4881 0.1727 0.0000 0.0000 0.0000
# 3 85.9880 0.1727 255.9037 0.0000 0.0000 0.0000
# 4 0.0000 0.0000 0.0000 656.7334 0.0000 0.0000
# 5 0.0000 0.0000 0.0000 0.0000 43.6171 0.0000
# 6 0.0000 0.0000 0.0000 0.0000 0.0000 -9.5432
#
#
#
# Elastic Compliance Matrix: (Units=1/GPa)
#
#
# Indices 1 2 3 4 5 6 
#
# 1 0.005005 0.001625 -0.001683 0.000000 0.000000 0.000000
# 2 0.001625 0.047065 -0.000578 0.000000 0.000000 0.000000
# 3 -0.001683 -0.000578 0.004474 0.000000 0.000000 0.000000
# 4 0.000000 0.000000 0.000000 0.001523 0.000000 0.000000
# 5 0.000000 0.000000 0.000000 0.000000 0.022927 0.000000
# 6 0.000000 0.000000 0.000000 0.000000 0.000000 -0.104787
#
#
# Mechanical properties :
#
#
# Convention : Reuss Voigt Hill
#
# Bulk Modulus (GPa) = 18.09248 74.09363 46.09305
# Shear Modulus (GPa) = -1220.01452 166.76887 -526.62283
#
# Velocity S-wave (km/s) = -23.23534 8.59061 -15.26569
# Velocity P-wave (km/s) = 26.68023 11.45365 17.03891
#
# Compressibility (1/GPa) = 0.05527159
#
# Stress axis : x y z
#
# Youngs Moduli (GPa) = 199.80564 21.24721 223.53546
#
# Poissons Ratio (x) = -0.03452 0.37617
# Poissons Ratio (y) = -0.32459 0.12912
# Poissons Ratio (z) = 0.33624 0.01227
#
# Static dielectric constant tensor:
#      x y z
#    x 6.948320 0.000000 0.000000 
#    y 0.000000 3.061600 0.000000 
#    z 0.000000 0.000000 4.523880 
# 
# 
# High freq. dielectric constant tensor:
#      x y z
#    x 1.929740 0.000000 0.000000 
#    y 0.000000 1.801770 0.000000 
#    z 0.000000 0.000000 1.918210 
# 
# From -- ./inp_files/22314.got.cif
#   From: 2010.03.12/outbox.cif.g09.slc.cpg/sg55_12_cif.got.tgz:22314.got - 2010.04.16 15:19:21.
