data_PCOD8224686
_publ_section_title
;
Structure prediction by ZEFSAII (Michael W. Deem and Ramdas Pophale) SiO2 
 PCOD8224686
Probable space group: P B A M
;
_chemical_formula_sum "Si O2"
_cell_formula_units_Z 64
_cell_length_a 16.747111
_cell_length_b 21.653713
_cell_length_c 8.873985
_cell_angle_alpha 90.000000
_cell_angle_beta 90.000000
_cell_angle_gamma 90.000000
_cell_volume 3218.036498
_symmetry_space_group_name_H-M "P B A M"
_symmetry_group_IT_number 55
_symmetry_cell_setting 'orthorhombic'
loop_
_space_group_symop_operation_xyz
x,y,z
-x,-y,z
1/2+x,1/2-y,-z
1/2-x,1/2+y,-z
-x,-y,-z
x,y,-z
1/2-x,1/2+y,z
1/2+x,1/2-y,z
loop_
_atom_site_type_symbol
_atom_site_label
_atom_site_fract_x
_atom_site_fract_y
_atom_site_fract_z
Si Si1 0.568067 0.115775 0.324829
Si Si2 0.587521 0.816496 0.677827
Si Si3 0.769987 0.399721 0.678200
Si Si4 0.685290 0.624948 0.829074
Si Si5 0.173392 0.290783 0.168754
Si Si6 0.042346 0.818708 0.677519
Si Si7 0.375973 0.654436 0.172740
Si Si8 0.316698 0.975027 0.176917
O O1 0.574169 0.098261 0.500000
O O2 0.477895 0.131956 0.274891
O O3 0.618493 0.177758 0.294344
O O4 0.601808 0.059216 0.226545
O O5 0.585936 0.808460 0.500000
O O6 0.673469 0.842456 0.730678
O O7 0.566409 0.748763 0.746320
O O8 0.760671 0.400629 0.500000
O O9 0.682283 0.395665 0.751637
O O10 0.811429 0.462282 0.731325
O O11 0.735595 0.687953 0.810228
O O12 0.609268 0.630778 0.720505
O O13 0.740479 0.567351 0.780879
O O14 0.655137 0.616710 0.000000
O O15 0.170592 0.218309 0.191835
O O16 0.143989 0.310119 0.000000
O O17 0.032281 0.815968 0.500000
O O18 0.960470 0.843139 0.746427
O O19 0.389966 0.636081 0.000000
O O20 0.320336 0.988451 0.000000
#
# Coordination Sequence:
#
# PCOD8224686 Si02
#       8
#     8   8   8   8   8   8   8   8
#     4  10  18  33  58  85 116 153 190 230 281 334
#     4   9  20  36  56  87 123 151 183 234 289 339
#     4  11  23  40  60  83 113 153 198 241 288 341
#     4   9  19  36  57  81 111 147 186 234 286 335
#     4   9  18  33  54  82 115 149 186 228 282 342
#     4  11  21  36  58  88 119 148 187 233 283 343
#     4  11  22  37  57  83 117 153 188 232 291 345
#     4  10  22  41  59  81 116 153 198 243 286 339
#
# _framework density 19.887903999999999
#
# number of rings (size 3 to 8) (size 9 to 14) (size 15 to 20)
#    0.000    2.000    1.250    3.375    0.000    3.500 
#    0.000    7.500    0.000    3.750    0.000    0.000 
#    0.000    0.000    0.000    0.000    0.000    0.000 
#
# Total GULP energy -793572.977522 kJ/mol
# GULP energy per Si atom -12399.577774 kJ/mol
# Density = 1.984264 g / cm^3
# Si number density = 19.887904 Si / 1000 Ang^3
#
#
#
# Elastic Constant Matrix: (Units=GPa)
#
#
# Indices 1 2 3 4 5 6 
#
# 1 108.6934 16.2239 39.1976 0.0000 0.0000 0.0000
# 2 16.2239 37.9009 15.2345 0.0000 0.0000 0.0000
# 3 39.1976 15.2345 75.3857 0.0000 0.0000 0.0000
# 4 0.0000 0.0000 0.0000 29.8366 0.0000 0.0000
# 5 0.0000 0.0000 0.0000 0.0000 30.9062 0.0000
# 6 0.0000 0.0000 0.0000 0.0000 0.0000 19.0417
#
#
#
# Elastic Compliance Matrix: (Units=1/GPa)
#
#
# Indices 1 2 3 4 5 6 
#
# 1 0.011583 -0.002762 -0.005465 0.000000 0.000000 0.000000
# 2 -0.002762 0.029376 -0.004500 0.000000 0.000000 0.000000
# 3 -0.005465 -0.004500 0.017016 0.000000 0.000000 0.000000
# 4 0.000000 0.000000 0.000000 0.033516 0.000000 0.000000
# 5 0.000000 0.000000 0.000000 0.000000 0.032356 0.000000
# 6 0.000000 0.000000 0.000000 0.000000 0.000000 0.052516
#
#
# Mechanical properties :
#
#
# Convention : Reuss Voigt Hill
#
# Bulk Modulus (GPa) = 30.74919 40.36578 35.55749
# Shear Modulus (GPa) = 23.51202 26.04516 24.77859
#
# Velocity S-wave (km/s) = 3.44208 3.62276 3.53358
# Velocity P-wave (km/s) = 5.59393 6.15142 5.87929
#
# Compressibility (1/GPa) = 0.03252118
#
# Stress axis : x y z
#
# Youngs Moduli (GPa) = 86.33261 34.04163 58.76815
#
# Poissons Ratio (x) = 0.09401 0.32115
# Poissons Ratio (y) = 0.23843 0.26449
# Poissons Ratio (z) = 0.47178 0.15320
#
# Static dielectric constant tensor:
#      x y z
#    x 3.599800 0.000000 0.000000 
#    y 0.000000 3.488350 0.000000 
#    z 0.000000 0.000000 3.515880 
# 
# 
# High freq. dielectric constant tensor:
#      x y z
#    x 1.777610 0.000000 0.000000 
#    y 0.000000 1.760330 0.000000 
#    z 0.000000 0.000000 1.769760 
# 
# From -- ./inp_files/8160.got.cif
#   From: 2010.03.12/outbox.cif.g09.slc.cpg/sg55_5_cif.got.tgz:8160.got - 2010.04.16 15:19:21.
