data_PCOD8224063
_publ_section_title
;
Structure prediction by ZEFSAII (Michael W. Deem and Ramdas Pophale) SiO2 
 PCOD8224063
Probable space group: P C C A
;
_chemical_formula_sum "Si O2"
_cell_formula_units_Z 56
_cell_length_a 11.265470
_cell_length_b 15.595143
_cell_length_c 14.257786
_cell_angle_alpha 90.000000
_cell_angle_beta 90.000000
_cell_angle_gamma 90.000000
_cell_volume 2504.902168
_symmetry_space_group_name_H-M "P C C A"
_symmetry_group_IT_number 54
_symmetry_cell_setting 'orthorhombic'
loop_
_space_group_symop_operation_xyz
x,y,z
1/2-x,-y,z
1/2+x,-y,1/2-z
-x,y,1/2-z
-x,-y,-z
1/2+x,y,-z
1/2-x,y,1/2+z
x,-y,1/2+z
loop_
_atom_site_type_symbol
_atom_site_label
_atom_site_fract_x
_atom_site_fract_y
_atom_site_fract_z
Si Si1 0.406663 0.005711 0.079235
Si Si2 0.939754 0.617497 0.412863
Si Si3 0.369980 0.238342 0.375613
Si Si4 0.229940 0.849645 0.558127
Si Si5 0.500000 0.350430 0.750000
Si Si6 0.881617 0.463341 0.105107
Si Si7 0.743918 0.295566 0.801484
Si Si8 0.500000 0.103132 0.250000
O O1 0.317744 0.073362 0.030393
O O2 0.429438 0.040671 0.182279
O O3 0.378236 0.905487 0.097991
O O4 0.500000 0.000000 0.000000
O O5 0.893720 0.599871 0.516963
O O6 0.822798 0.626430 0.346010
O O7 0.019204 0.702964 0.406546
O O8 0.019811 0.536792 0.385556
O O9 0.300677 0.207648 0.467413
O O10 0.279003 0.289360 0.308141
O O11 0.414730 0.158547 0.315615
O O12 0.282386 0.788160 0.638911
O O13 0.403804 0.405254 0.805748
O O14 0.598476 0.300206 0.813448
O O15 0.750000 0.500000 0.106965
#
# Coordination Sequence:
#
# PCOD8224063 Si02
#       8
#     8   8   8   8   4   8   8   4
#     4  11  24  45  67 106 141 193 239 311 367 445
#     4  11  26  47  75 103 146 194 243 306 372 442
#     4  12  23  46  77 105 139 200 247 303 373 457
#     4  11  26  43  72 104 148 184 246 303 373 439
#     4  12  30  44  72 112 146 190 254 304 368 442
#     4  11  28  48  72 109 146 196 245 309 376 446
#     4  12  27  47  73 109 147 197 247 308 369 448
#     4  12  22  46  72 104 136 190 254 288 382 444
#
# _framework density 22.356162000000001
#
# number of rings (size 3 to 8) (size 9 to 14) (size 15 to 20)
#    0.000    0.571    4.286    1.714   12.000    2.857 
#    0.000    0.000    0.000    0.000    0.000    0.000 
#    0.000    0.000    0.000    0.000    0.000    0.000 
#
# Total GULP energy -693771.758873 kJ/mol
# GULP energy per Si atom -12388.781408 kJ/mol
# Density = 2.230528 g / cm^3
# Si number density = 22.356162 Si / 1000 Ang^3
#
#
#
# Elastic Constant Matrix: (Units=GPa)
#
#
# Indices 1 2 3 4 5 6 
#
# 1 123.0401 39.6071 45.3757 0.0000 0.0000 0.0000
# 2 39.6071 94.3597 59.3488 0.0000 0.0000 0.0000
# 3 45.3757 59.3488 110.6693 0.0000 0.0000 0.0000
# 4 0.0000 0.0000 0.0000 45.0289 0.0000 0.0000
# 5 0.0000 0.0000 0.0000 0.0000 36.4735 0.0000
# 6 0.0000 0.0000 0.0000 0.0000 0.0000 33.6482
#
#
#
# Elastic Compliance Matrix: (Units=1/GPa)
#
#
# Indices 1 2 3 4 5 6 
#
# 1 0.009930 -0.002425 -0.002771 0.000000 0.000000 0.000000
# 2 -0.002425 0.016584 -0.007899 0.000000 0.000000 0.000000
# 3 -0.002771 -0.007899 0.014408 0.000000 0.000000 0.000000
# 4 0.000000 0.000000 0.000000 0.022208 0.000000 0.000000
# 5 0.000000 0.000000 0.000000 0.000000 0.027417 0.000000
# 6 0.000000 0.000000 0.000000 0.000000 0.000000 0.029719
#
#
# Mechanical properties :
#
#
# Convention : Reuss Voigt Hill
#
# Bulk Modulus (GPa) = 67.88134 68.52580 68.20357
# Shear Modulus (GPa) = 33.03221 35.27930 34.15575
#
# Velocity S-wave (km/s) = 3.84805 3.97679 3.91295
# Velocity P-wave (km/s) = 7.08328 7.19756 7.14065
#
# Compressibility (1/GPa) = 0.01473159
#
# Stress axis : x y z
#
# Youngs Moduli (GPa) = 100.70507 60.29903 69.40573
#
# Poissons Ratio (x) = 0.14625 0.19231
# Poissons Ratio (y) = 0.24425 0.54824
# Poissons Ratio (z) = 0.27903 0.47631
#
# Static dielectric constant tensor:
#      x y z
#    x 4.188270 0.000000 0.000000 
#    y 0.000000 4.283200 0.000000 
#    z 0.000000 0.000000 4.108900 
# 
# 
# High freq. dielectric constant tensor:
#      x y z
#    x 1.889370 0.000000 0.000000 
#    y 0.000000 1.893920 0.000000 
#    z 0.000000 0.000000 1.884970 
# 
# From -- ./inp_files/12753.got.cif
#   From: 2010.03.12/outbox.cif.g09.slc.cpg/sg54_7_cif.got.tgz:12753.got - 2010.04.16 15:00:50.
