data_PCOD8224653
_publ_section_title
;
Structure prediction by ZEFSAII (Michael W. Deem and Ramdas Pophale) SiO2 
 PCOD8224653
Probable space group: P B A M
;
_chemical_formula_sum "Si O2"
_cell_formula_units_Z 56
_cell_length_a 12.705786
_cell_length_b 19.732665
_cell_length_c 11.226086
_cell_angle_alpha 90.000000
_cell_angle_beta 90.000000
_cell_angle_gamma 90.000000
_cell_volume 2814.593266
_symmetry_space_group_name_H-M "P B A M"
_symmetry_group_IT_number 55
_symmetry_cell_setting 'orthorhombic'
loop_
_space_group_symop_operation_xyz
x,y,z
-x,-y,z
1/2+x,1/2-y,-z
1/2-x,1/2+y,-z
-x,-y,-z
x,y,-z
1/2-x,1/2+y,z
1/2+x,1/2-y,z
loop_
_atom_site_type_symbol
_atom_site_label
_atom_site_fract_x
_atom_site_fract_y
_atom_site_fract_z
Si Si1 0.596696 0.679168 0.632983
Si Si2 0.436758 0.568520 0.702973
Si Si3 0.632067 0.880729 0.866770
Si Si4 0.646269 0.324127 0.869912
Si Si5 0.795083 0.463538 0.637790
Si Si6 0.029280 0.293081 0.246743
Si Si7 0.194525 0.383250 0.638052
O O1 0.623751 0.701040 0.500000
O O2 0.508218 0.620463 0.628373
O O3 0.561646 0.748723 0.693594
O O4 0.702439 0.651596 0.698522
O O5 0.500000 0.500000 0.730972
O O6 0.406643 0.606268 0.824812
O O7 0.329300 0.552622 0.632459
O O8 0.728522 0.828861 0.868353
O O9 0.643830 0.924588 0.744669
O O10 0.524368 0.838072 0.856355
O O11 0.629125 0.917546 0.000000
O O12 0.619050 0.257118 0.797970
O O13 0.599060 0.314329 0.000000
O O14 0.836955 0.449882 0.500000
O O15 0.815612 0.539827 0.681257
O O16 0.087021 0.343405 0.337755
O O17 0.218440 0.385157 0.500000
#
# Coordination Sequence:
#
# PCOD8224653 Si02
#       7
#     8   8   8   8   8   8   8
#     4  10  20  33  54  84 119 151 187 238 291 347
#     4  10  18  32  58  87 116 149 189 234 295 348
#     4  10  22  41  62  83 116 154 193 240 289 346
#     4   9  20  37  56  81 112 148 192 240 286 340
#     4  10  21  37  60  88 119 153 194 241 291 345
#     4  11  21  36  57  81 111 154 197 233 284 348
#     4  10  21  36  55  83 117 148 188 243 292 341
#
# _framework density 19.896303
#
# number of rings (size 3 to 8) (size 9 to 14) (size 15 to 20)
#    0.000    2.000    1.429    2.143    0.000    2.571 
#    0.000    7.143    0.000    0.857    0.000    0.000 
#    0.000    0.000    0.000    0.000    0.000    0.000 
#
# Total GULP energy -693765.898851 kJ/mol
# GULP energy per Si atom -12388.676765 kJ/mol
# Density = 1.985102 g / cm^3
# Si number density = 19.896303 Si / 1000 Ang^3
#
#
#
# Elastic Constant Matrix: (Units=GPa)
#
#
# Indices 1 2 3 4 5 6 
#
# 1 56.9720 41.4324 12.5488 0.0000 0.0000 0.0000
# 2 41.4324 104.2120 42.3539 0.0000 0.0000 0.0000
# 3 12.5488 42.3539 85.8847 0.0000 0.0000 0.0000
# 4 0.0000 0.0000 0.0000 16.7199 0.0000 0.0000
# 5 0.0000 0.0000 0.0000 0.0000 13.7693 0.0000
# 6 0.0000 0.0000 0.0000 0.0000 0.0000 26.7074
#
#
#
# Elastic Compliance Matrix: (Units=1/GPa)
#
#
# Indices 1 2 3 4 5 6 
#
# 1 0.024856 -0.010513 0.001553 0.000000 0.000000 0.000000
# 2 -0.010513 0.016448 -0.006575 0.000000 0.000000 0.000000
# 3 0.001553 -0.006575 0.014659 0.000000 0.000000 0.000000
# 4 0.000000 0.000000 0.000000 0.059809 0.000000 0.000000
# 5 0.000000 0.000000 0.000000 0.000000 0.072625 0.000000
# 6 0.000000 0.000000 0.000000 0.000000 0.000000 0.037443
#
#
# Mechanical properties :
#
#
# Convention : Reuss Voigt Hill
#
# Bulk Modulus (GPa) = 40.17355 48.85989 44.51672
# Shear Modulus (GPa) = 18.85302 21.48821 20.17062
#
# Velocity S-wave (km/s) = 3.08159 3.28992 3.18746
# Velocity P-wave (km/s) = 5.73558 6.24836 5.99745
#
# Compressibility (1/GPa) = 0.02489200
#
# Stress axis : x y z
#
# Youngs Moduli (GPa) = 40.23132 60.79757 68.21666
#
# Poissons Ratio (x) = 0.63919 -0.10593
# Poissons Ratio (y) = 0.42297 0.44854
# Poissons Ratio (z) = -0.06248 0.39976
#
# Static dielectric constant tensor:
#      x y z
#    x 3.595360 0.000000 0.000000 
#    y 0.000000 3.640800 0.000000 
#    z 0.000000 0.000000 3.581010 
# 
# 
# High freq. dielectric constant tensor:
#      x y z
#    x 1.779940 0.000000 0.000000 
#    y 0.000000 1.774690 0.000000 
#    z 0.000000 0.000000 1.762970 
# 
# From -- ./inp_files/13365.got.cif
#   From: 2010.03.12/outbox.cif.g09.slc.cpg/sg55_7_cif.got.tgz:13365.got - 2010.04.16 15:19:21.
