data_PCOD8224039
_publ_section_title
;
Structure prediction by ZEFSAII (Michael W. Deem and Ramdas Pophale) SiO2 
 PCOD8224039
Probable space group: P C C A
;
_chemical_formula_sum "Si O2"
_cell_formula_units_Z 60
_cell_length_a 16.696357
_cell_length_b 6.998165
_cell_length_c 26.020046
_cell_angle_alpha 90.000000
_cell_angle_beta 90.000000
_cell_angle_gamma 90.000000
_cell_volume 3040.282643
_symmetry_space_group_name_H-M "P C C A"
_symmetry_group_IT_number 54
_symmetry_cell_setting 'orthorhombic'
loop_
_space_group_symop_operation_xyz
x,y,z
1/2-x,-y,z
1/2+x,-y,1/2-z
-x,y,1/2-z
-x,-y,-z
1/2+x,y,-z
1/2-x,y,1/2+z
x,-y,1/2+z
loop_
_atom_site_type_symbol
_atom_site_label
_atom_site_fract_x
_atom_site_fract_y
_atom_site_fract_z
Si Si1 0.250000 0.500000 0.407478
Si Si2 0.841890 0.464898 0.343564
Si Si3 0.908370 0.355937 0.546517
Si Si4 0.940272 0.785102 0.292984
Si Si5 0.957244 0.653153 0.930607
Si Si6 0.673716 0.888554 0.273516
Si Si7 0.812870 0.159552 0.158103
Si Si8 0.530843 0.977901 0.615647
O O1 0.184892 0.603795 0.443016
O O2 0.296247 0.646469 0.371333
O O3 0.750000 0.500000 0.358570
O O4 0.872448 0.630934 0.305941
O O5 0.894045 0.457445 0.395010
O O6 0.853454 0.268460 0.313705
O O7 0.917777 0.331356 0.486078
O O8 0.932268 0.155454 0.571776
O O9 0.961079 0.531467 0.567909
O O10 0.000000 0.697591 0.250000
O O11 0.983764 0.841807 0.345485
O O12 0.900004 0.967521 0.266284
O O13 0.972752 0.866942 0.910384
O O14 0.695728 0.796700 0.218636
O O15 0.750000 0.000000 0.296563
O O16 0.750000 0.000000 0.140240
O O17 0.901633 0.090146 0.146484
#
# Coordination Sequence:
#
# PCOD8224039 Si02
#       8
#     4   8   8   8   8   8   8   8
#     4  12  24  42  70 100 132 172 220 280 330 388
#     4  12  26  43  68  97 134 175 226 273 329 390
#     4  11  25  43  67  99 131 167 226 278 331 393
#     4  12  25  41  67 100 135 171 218 270 328 399
#     4  11  25  44  67  95 132 176 218 277 336 391
#     4  11  24  42  64  96 132 174 212 263 322 396
#     4  11  24  39  66  98 136 171 212 269 330 390
#     4  12  22  43  68  94 129 176 216 270 330 396
#
# _framework density 19.735008000000001
#
# number of rings (size 3 to 8) (size 9 to 14) (size 15 to 20)
#    0.000    0.533    8.000    0.400    1.867    2.667 
#    0.000    0.000    5.867    0.000    0.000    0.000 
#    0.000    0.000    0.000    0.000    0.000    0.000 
#
# Total GULP energy -744396.908643 kJ/mol
# GULP energy per Si atom -12406.615144 kJ/mol
# Density = 1.969009 g / cm^3
# Si number density = 19.735008 Si / 1000 Ang^3
#
#
#
# Elastic Constant Matrix: (Units=GPa)
#
#
# Indices 1 2 3 4 5 6 
#
# 1 107.6991 28.5187 41.8325 0.0000 0.0000 0.0000
# 2 28.5187 80.2110 38.2154 0.0000 0.0000 0.0000
# 3 41.8325 38.2154 103.1662 0.0000 0.0000 0.0000
# 4 0.0000 0.0000 0.0000 9.1386 0.0000 0.0000
# 5 0.0000 0.0000 0.0000 0.0000 25.0652 0.0000
# 6 0.0000 0.0000 0.0000 0.0000 0.0000 36.6973
#
#
#
# Elastic Compliance Matrix: (Units=1/GPa)
#
#
# Indices 1 2 3 4 5 6 
#
# 1 0.011342 -0.002236 -0.003771 0.000000 0.000000 0.000000
# 2 -0.002236 0.015580 -0.004864 0.000000 0.000000 0.000000
# 3 -0.003771 -0.004864 0.013024 0.000000 0.000000 0.000000
# 4 0.000000 0.000000 0.000000 0.109426 0.000000 0.000000
# 5 0.000000 0.000000 0.000000 0.000000 0.039896 0.000000
# 6 0.000000 0.000000 0.000000 0.000000 0.000000 0.027250
#
#
# Mechanical properties :
#
#
# Convention : Reuss Voigt Hill
#
# Bulk Modulus (GPa) = 54.93540 56.46773 55.70156
# Shear Modulus (GPa) = 20.46436 26.34753 23.40595
#
# Velocity S-wave (km/s) = 3.22368 3.65782 3.44759
# Velocity P-wave (km/s) = 6.46166 6.82016 6.64333
#
# Compressibility (1/GPa) = 0.01820320
#
# Stress axis : x y z
#
# Youngs Moduli (GPa) = 88.16906 64.18591 76.78151
#
# Poissons Ratio (x) = 0.14352 0.28952
# Poissons Ratio (y) = 0.19715 0.37350
# Poissons Ratio (z) = 0.33246 0.31223
#
# Static dielectric constant tensor:
#      x y z
#    x 3.804260 0.000000 0.000000 
#    y 0.000000 3.672440 0.000000 
#    z 0.000000 0.000000 3.496790 
# 
# 
# High freq. dielectric constant tensor:
#      x y z
#    x 1.780420 0.000000 0.000000 
#    y 0.000000 1.775750 0.000000 
#    z 0.000000 0.000000 1.770780 
# 
# From -- ./inp_files/26637.got.cif
#   From: 2010.03.12/outbox.cif.g09.slc.cpg/sg54_14_cif.got.tgz:26637.got - 2010.04.16 15:00:50.
