data_PCOD8224437
_publ_section_title
;
Structure prediction by ZEFSAII (Michael W. Deem and Ramdas Pophale) SiO2 
 PCOD8224437
Probable space group: P B A M
;
_chemical_formula_sum "Si O2"
_cell_formula_units_Z 56
_cell_length_a 18.708262
_cell_length_b 10.807537
_cell_length_c 13.619954
_cell_angle_alpha 90.000000
_cell_angle_beta 90.000000
_cell_angle_gamma 90.000000
_cell_volume 2753.821683
_symmetry_space_group_name_H-M "P B A M"
_symmetry_group_IT_number 55
_symmetry_cell_setting 'orthorhombic'
loop_
_space_group_symop_operation_xyz
x,y,z
-x,-y,z
1/2+x,1/2-y,-z
1/2-x,1/2+y,-z
-x,-y,-z
x,y,-z
1/2-x,1/2+y,z
1/2+x,1/2-y,z
loop_
_atom_site_type_symbol
_atom_site_label
_atom_site_fract_x
_atom_site_fract_y
_atom_site_fract_z
Si Si1 0.459325 0.119749 0.709251
Si Si2 0.641128 0.372186 0.893386
Si Si3 0.550404 0.153784 0.887928
Si Si4 0.331560 0.997106 0.777985
Si Si5 0.789234 0.281987 0.107577
Si Si6 0.678720 0.578498 0.253896
Si Si7 0.451081 0.382698 0.615840
O O1 0.477655 0.127855 0.827318
O O2 0.479456 0.250095 0.657673
O O3 0.500000 0.000000 0.661696
O O4 0.374628 0.088574 0.703337
O O5 0.565471 0.300743 0.890939
O O6 0.703366 0.266275 0.886440
O O7 0.644297 0.464601 0.803556
O O8 0.649038 0.439846 0.000000
O O9 0.614272 0.102502 0.820332
O O10 0.544924 0.101161 0.000000
O O11 0.262739 0.940895 0.720090
O O12 0.301609 0.073309 0.870512
O O13 0.830223 0.198161 0.185689
O O14 0.818887 0.248756 0.000000
O O15 0.630879 0.595863 0.350649
O O16 0.500000 0.500000 0.649495
O O17 0.451634 0.371303 0.500000
#
# Coordination Sequence:
#
# PCOD8224437 Si02
#       7
#     8   8   8   8   8   8   8
#     4  10  22  40  63  95 126 167 205 252 315 371
#     4   9  18  30  49  83 123 163 203 245 293 356
#     4  10  19  33  54  88 133 173 208 244 290 363
#     4  10  20  34  56  86 124 162 205 250 300 363
#     4  10  18  29  51  82 119 164 203 244 295 358
#     4  11  20  36  61  84 119 160 207 256 313 378
#     4  11  25  47  70  91 118 158 212 273 336 390
#
# _framework density 20.335377000000001
#
# number of rings (size 3 to 8) (size 9 to 14) (size 15 to 20)
#    0.000    1.857    2.857    1.714    0.000    4.571 
#    0.000    0.714    0.000    3.857    0.000    0.000 
#    0.000    0.000    0.000    0.000    0.000    0.000 
#
# Total GULP energy -693791.797793 kJ/mol
# GULP energy per Si atom -12389.139246 kJ/mol
# Density = 2.028909 g / cm^3
# Si number density = 20.335377 Si / 1000 Ang^3
#
#
#
# Elastic Constant Matrix: (Units=GPa)
#
#
# Indices 1 2 3 4 5 6 
#
# 1 93.2570 29.4039 29.9736 0.0000 0.0000 0.0000
# 2 29.4039 97.0688 32.9558 0.0000 0.0000 0.0000
# 3 29.9736 32.9558 72.3811 0.0000 0.0000 0.0000
# 4 0.0000 0.0000 0.0000 16.8936 0.0000 0.0000
# 5 0.0000 0.0000 0.0000 0.0000 26.6636 0.0000
# 6 0.0000 0.0000 0.0000 0.0000 0.0000 27.9900
#
#
#
# Elastic Compliance Matrix: (Units=1/GPa)
#
#
# Indices 1 2 3 4 5 6 
#
# 1 0.012850 -0.002467 -0.004198 0.000000 0.000000 0.000000
# 2 -0.002467 0.012659 -0.004742 0.000000 0.000000 0.000000
# 3 -0.004198 -0.004742 0.017713 0.000000 0.000000 0.000000
# 4 0.000000 0.000000 0.000000 0.059194 0.000000 0.000000
# 5 0.000000 0.000000 0.000000 0.000000 0.037504 0.000000
# 6 0.000000 0.000000 0.000000 0.000000 0.000000 0.035727
#
#
# Mechanical properties :
#
#
# Convention : Reuss Voigt Hill
#
# Bulk Modulus (GPa) = 49.00046 49.70815 49.35431
# Shear Modulus (GPa) = 24.35860 25.66766 25.01313
#
# Velocity S-wave (km/s) = 3.46474 3.55662 3.51098
# Velocity P-wave (km/s) = 6.33675 6.43143 6.38427
#
# Compressibility (1/GPa) = 0.02040797
#
# Stress axis : x y z
#
# Youngs Moduli (GPa) = 77.81931 78.99277 56.45461
#
# Poissons Ratio (x) = 0.19490 0.23700
# Poissons Ratio (y) = 0.19200 0.26772
# Poissons Ratio (z) = 0.32669 0.37460
#
# Static dielectric constant tensor:
#      x y z
#    x 3.839960 0.000000 0.000000 
#    y 0.000000 3.778840 0.000000 
#    z 0.000000 0.000000 3.244140 
# 
# 
# High freq. dielectric constant tensor:
#      x y z
#    x 1.794700 0.000000 0.000000 
#    y 0.000000 1.806670 0.000000 
#    z 0.000000 0.000000 1.746140 
# 
# From -- ./inp_files/13396.got.cif
#   From: 2010.03.12/outbox.cif.g09.slc.cpg/sg55_7_cif.got.tgz:13396.got - 2010.04.16 15:19:21.
