data_PCOD8224683
_publ_section_title
;
Structure prediction by ZEFSAII (Michael W. Deem and Ramdas Pophale) SiO2 
 PCOD8224683
Probable space group: P B A M
;
_chemical_formula_sum "Si O2"
_cell_formula_units_Z 64
_cell_length_a 19.678647
_cell_length_b 19.425904
_cell_length_c 9.052754
_cell_angle_alpha 90.000000
_cell_angle_beta 90.000000
_cell_angle_gamma 90.000000
_cell_volume 3460.646129
_symmetry_space_group_name_H-M "P B A M"
_symmetry_group_IT_number 55
_symmetry_cell_setting 'orthorhombic'
loop_
_space_group_symop_operation_xyz
x,y,z
-x,-y,z
1/2+x,1/2-y,-z
1/2-x,1/2+y,-z
-x,-y,-z
x,y,-z
1/2-x,1/2+y,z
1/2+x,1/2-y,z
loop_
_atom_site_type_symbol
_atom_site_label
_atom_site_fract_x
_atom_site_fract_y
_atom_site_fract_z
Si Si1 0.069733 0.460570 0.168482
Si Si2 0.295421 0.745256 0.829432
Si Si3 0.016542 0.788116 0.674900
Si Si4 0.313403 0.602359 0.673915
Si Si5 0.962793 0.933144 0.325780
Si Si6 0.094316 0.322879 0.673947
Si Si7 0.141887 0.724139 0.831358
Si Si8 0.180238 0.572911 0.173020
O O1 0.067872 0.397452 0.280112
O O2 0.130805 0.510910 0.213503
O O3 0.000000 0.500000 0.188574
O O4 0.078368 0.434833 0.000000
O O5 0.318376 0.677597 0.743117
O O6 0.334766 0.809406 0.757733
O O7 0.215360 0.759395 0.812562
O O8 0.315405 0.736490 0.000000
O O9 0.020268 0.789324 0.500000
O O10 0.090037 0.767123 0.733719
O O11 0.995871 0.863031 0.738774
O O12 0.960680 0.733013 0.727506
O O13 0.303428 0.610786 0.500000
O O14 0.382885 0.562351 0.712485
O O15 0.250638 0.559758 0.741298
O O16 0.973661 0.932186 0.500000
O O17 0.000000 0.000000 0.256094
O O18 0.106540 0.320029 0.500000
O O19 0.146056 0.644875 0.776426
O O20 0.116842 0.726369 0.000000
O O21 0.197075 0.577727 0.000000
#
# Coordination Sequence:
#
# PCOD8224683 Si02
#       8
#     8   8   8   8   8   8   8   8
#     4  10  21  38  58  80 111 154 194 228 278 339
#     4  10  20  36  57  79 108 146 186 225 275 332
#     4  10  20  35  55  82 111 141 179 227 280 327
#     4  10  18  33  58  83 109 141 185 230 274 328
#     4   9  18  35  56  77 107 143 179 222 274 332
#     4  11  22  36  56  84 114 143 186 238 282 332
#     4   9  19  35  56  82 109 142 183 225 269 324
#     4   9  19  36  56  80 112 147 188 229 268 329
#
# _framework density 18.493656000000001
#
# number of rings (size 3 to 8) (size 9 to 14) (size 15 to 20)
#    0.000    2.250    1.250    2.625    0.000    5.250 
#    2.250    0.000    0.000    2.625    0.000    0.000 
#    0.000    0.000    0.000    0.000    0.000    0.000 
#
# Total GULP energy -793709.710016 kJ/mol
# GULP energy per Si atom -12401.714219 kJ/mol
# Density = 1.845156 g / cm^3
# Si number density = 18.493656 Si / 1000 Ang^3
#
#
#
# Elastic Constant Matrix: (Units=GPa)
#
#
# Indices 1 2 3 4 5 6 
#
# 1 124.7311 69.1388 49.4619 0.0000 0.0000 0.0000
# 2 69.1388 114.2337 34.5675 0.0000 0.0000 0.0000
# 3 49.4619 34.5675 58.7268 0.0000 0.0000 0.0000
# 4 0.0000 0.0000 0.0000 26.7698 0.0000 0.0000
# 5 0.0000 0.0000 0.0000 0.0000 28.8566 0.0000
# 6 0.0000 0.0000 0.0000 0.0000 0.0000 27.8768
#
#
#
# Elastic Compliance Matrix: (Units=1/GPa)
#
#
# Indices 1 2 3 4 5 6 
#
# 1 0.015149 -0.006458 -0.008958 0.000000 0.000000 0.000000
# 2 -0.006458 0.013404 -0.002451 0.000000 0.000000 0.000000
# 3 -0.008958 -0.002451 0.026015 0.000000 0.000000 0.000000
# 4 0.000000 0.000000 0.000000 0.037356 0.000000 0.000000
# 5 0.000000 0.000000 0.000000 0.000000 0.034654 0.000000
# 6 0.000000 0.000000 0.000000 0.000000 0.000000 0.035872
#
#
# Mechanical properties :
#
#
# Convention : Reuss Voigt Hill
#
# Bulk Modulus (GPa) = 53.09190 67.11423 60.10307
# Shear Modulus (GPa) = 24.45434 26.33552 25.39493
#
# Velocity S-wave (km/s) = 3.64030 3.77773 3.70965
# Velocity P-wave (km/s) = 6.81466 7.44295 7.13572
#
# Compressibility (1/GPa) = 0.01883526
#
# Stress axis : x y z
#
# Youngs Moduli (GPa) = 66.00954 74.60260 38.43916
#
# Poissons Ratio (x) = 0.48180 0.34433
# Poissons Ratio (y) = 0.42631 0.09420
# Poissons Ratio (z) = 0.59131 0.18282
#
# Static dielectric constant tensor:
#      x y z
#    x 3.513900 0.000000 0.000000 
#    y 0.000000 3.417700 0.000000 
#    z 0.000000 0.000000 3.269040 
# 
# 
# High freq. dielectric constant tensor:
#      x y z
#    x 1.728210 0.000000 0.000000 
#    y 0.000000 1.707340 0.000000 
#    z 0.000000 0.000000 1.705890 
# 
# From -- ./inp_files/8021.got.cif
#   From: 2010.03.12/outbox.cif.g09.slc.cpg/sg55_5_cif.got.tgz:8021.got - 2010.04.16 15:19:21.
