data_PCOD8224179
_publ_section_title
;
Structure prediction by ZEFSAII (Michael W. Deem and Ramdas Pophale) SiO2 
 PCOD8224179
Probable space group: P C C A
;
_chemical_formula_sum "Si O2"
_cell_formula_units_Z 36
_cell_length_a 15.508217
_cell_length_b 5.273017
_cell_length_c 18.498159
_cell_angle_alpha 90.000000
_cell_angle_beta 90.000000
_cell_angle_gamma 90.000000
_cell_volume 1512.688652
_symmetry_space_group_name_H-M "P C C A"
_symmetry_group_IT_number 54
_symmetry_cell_setting 'orthorhombic'
loop_
_space_group_symop_operation_xyz
x,y,z
1/2-x,-y,z
1/2+x,-y,1/2-z
-x,y,1/2-z
-x,-y,-z
1/2+x,y,-z
1/2-x,y,1/2+z
x,-y,1/2+z
loop_
_atom_site_type_symbol
_atom_site_label
_atom_site_fract_x
_atom_site_fract_y
_atom_site_fract_z
Si Si1 0.351245 0.048640 0.505958
Si Si2 0.153887 0.451390 0.738601
Si Si3 0.000000 0.167857 0.250000
Si Si4 0.937266 0.816355 0.139789
Si Si5 0.593368 0.437578 0.413715
O O1 0.375956 0.079493 0.422564
O O2 0.381786 0.297728 0.549323
O O3 0.250000 0.000000 0.514149
O O4 0.400528 0.797613 0.531393
O O5 0.250000 0.500000 0.765193
O O6 0.122069 0.228872 0.790364
O O7 0.155805 0.378997 0.653923
O O8 0.089276 0.682365 0.750424
O O9 0.994548 0.016000 0.326536
O O10 0.992913 0.569558 0.113291
#
# Coordination Sequence:
#
# PCOD8224179 Si02
#       5
#     8   8   4   8   8
#     4  12  29  47  77 115 157 205 267 323 398 474
#     4  12  27  46  79 112 157 206 266 331 392 473
#     4  12  24  50  76 112 160 196 270 326 398 464
#     4  12  27  48  76 113 152 210 265 325 400 471
#     4  12  25  53  74 112 158 213 257 325 399 473
#
# _framework density 23.798684999999999
#
# number of rings (size 3 to 8) (size 9 to 14) (size 15 to 20)
#    0.000    0.000    4.444    4.667    6.222    0.000 
#    0.000    0.000    0.000    0.000    0.000    0.000 
#    0.000    0.000    0.000    0.000    0.000    0.000 
#
# Total GULP energy -446275.826961 kJ/mol
# GULP energy per Si atom -12396.550749 kJ/mol
# Density = 2.374452 g / cm^3
# Si number density = 23.798685 Si / 1000 Ang^3
#
#
#
# Elastic Constant Matrix: (Units=GPa)
#
#
# Indices 1 2 3 4 5 6 
#
# 1 131.1391 37.7755 27.5661 0.0000 0.0000 0.0000
# 2 37.7755 123.9658 52.2389 0.0000 0.0000 0.0000
# 3 27.5661 52.2389 158.6045 0.0000 0.0000 0.0000
# 4 0.0000 0.0000 0.0000 3.1485 0.0000 0.0000
# 5 0.0000 0.0000 0.0000 0.0000 27.2309 0.0000
# 6 0.0000 0.0000 0.0000 0.0000 0.0000 19.3383
#
#
#
# Elastic Compliance Matrix: (Units=1/GPa)
#
#
# Indices 1 2 3 4 5 6 
#
# 1 0.008429 -0.002266 -0.000719 0.000000 0.000000 0.000000
# 2 -0.002266 0.009976 -0.002892 0.000000 0.000000 0.000000
# 3 -0.000719 -0.002892 0.007382 0.000000 0.000000 0.000000
# 4 0.000000 0.000000 0.000000 0.317616 0.000000 0.000000
# 5 0.000000 0.000000 0.000000 0.000000 0.036723 0.000000
# 6 0.000000 0.000000 0.000000 0.000000 0.000000 0.051711
#
#
# Mechanical properties :
#
#
# Convention : Reuss Voigt Hill
#
# Bulk Modulus (GPa) = 71.25218 72.09672 71.67445
# Shear Modulus (GPa) = 11.15404 29.68547 20.41976
#
# Velocity S-wave (km/s) = 2.16726 3.53563 2.93238
# Velocity P-wave (km/s) = 6.02223 6.85768 6.45348
#
# Compressibility (1/GPa) = 0.01403466
#
# Stress axis : x y z
#
# Youngs Moduli (GPa) = 118.63470 100.24262 135.45713
#
# Poissons Ratio (x) = 0.22712 0.09737
# Poissons Ratio (y) = 0.26879 0.39173
# Poissons Ratio (z) = 0.08527 0.28989
#
# Static dielectric constant tensor:
#      x y z
#    x 4.264020 0.000000 0.000000 
#    y 0.000000 4.323960 0.000000 
#    z 0.000000 0.000000 4.695910 
# 
# 
# High freq. dielectric constant tensor:
#      x y z
#    x 1.944640 0.000000 0.000000 
#    y 0.000000 1.943120 0.000000 
#    z 0.000000 0.000000 1.967150 
# 
# From -- ./inp_files/21343.got.cif
#   From: 2010.03.12/outbox.cif.g09.slc.cpg/sg54_11_cif.got.tgz:21343.got - 2010.04.16 15:00:50.
