data_PCOD8224890
_publ_section_title
;
Structure prediction by ZEFSAII (Michael W. Deem and Ramdas Pophale) SiO2 
 PCOD8224890
Probable space group: P B A M
;
_chemical_formula_sum "Si O2"
_cell_formula_units_Z 64
_cell_length_a 30.310288
_cell_length_b 14.462509
_cell_length_c 8.864826
_cell_angle_alpha 90.000000
_cell_angle_beta 90.000000
_cell_angle_gamma 90.000000
_cell_volume 3886.010062
_symmetry_space_group_name_H-M "P B A M"
_symmetry_group_IT_number 55
_symmetry_cell_setting 'orthorhombic'
loop_
_space_group_symop_operation_xyz
x,y,z
-x,-y,z
1/2+x,1/2-y,-z
1/2-x,1/2+y,-z
-x,-y,-z
x,y,-z
1/2-x,1/2+y,z
1/2+x,1/2-y,z
loop_
_atom_site_type_symbol
_atom_site_label
_atom_site_fract_x
_atom_site_fract_y
_atom_site_fract_z
Si Si1 0.706430 0.172540 0.825989
Si Si2 0.824492 0.000545 0.669380
Si Si3 0.213868 0.715726 0.321232
Si Si4 0.277589 0.008203 0.668879
Si Si5 0.547740 0.605253 0.821086
Si Si6 0.639901 0.327368 0.825192
Si Si7 0.548329 0.397734 0.178342
Si Si8 0.361544 0.327093 0.176423
O O1 0.746838 0.223132 0.744623
O O2 0.697339 0.069031 0.766776
O O3 0.660351 0.226231 0.798992
O O4 0.719437 0.168205 0.000000
O O5 0.843493 0.014667 0.500000
O O6 0.773014 0.021174 0.667537
O O7 0.846332 0.068837 0.789178
O O8 0.831866 0.896364 0.723182
O O9 0.218605 0.718944 0.500000
O O10 0.216504 0.610467 0.260629
O O11 0.166163 0.754176 0.273031
O O12 0.297179 0.006760 0.500000
O O13 0.499457 0.639218 0.761761
O O14 0.557066 0.501372 0.758304
O O15 0.586701 0.676179 0.772706
O O16 0.548139 0.599167 0.000000
O O17 0.588512 0.330552 0.771880
O O18 0.643964 0.357121 0.000000
O O19 0.545490 0.401766 0.000000
O O20 0.355061 0.306133 0.000000
#
# Coordination Sequence:
#
# PCOD8224890 Si02
#       8
#     8   8   8   8   8   8   8   8
#     4  11  22  32  49  74  97 123 157 201 243 274
#     4  11  20  30  46  68  96 132 165 194 232 279
#     4  11  22  36  50  67  93 129 165 194 233 284
#     4  10  22  37  50  64  92 132 168 198 230 279
#     4   8  14  24  44  70  95 125 156 189 233 283
#     4  10  19  31  48  72  98 127 162 199 237 277
#     4   8  13  25  44  68  97 126 156 189 230 286
#     4  11  20  31  48  73  97 124 161 201 238 278
#
# _framework density 16.469335000000001
#
# number of rings (size 3 to 8) (size 9 to 14) (size 15 to 20)
#    0.000    2.000    3.750    2.250    0.000    2.000 
#    0.000    0.000    0.000    2.250    0.000    0.875 
#    0.000    7.000    0.000    0.000    0.000    0.000 
#
# Total GULP energy -793208.238912 kJ/mol
# GULP energy per Si atom -12393.878733 kJ/mol
# Density = 1.643185 g / cm^3
# Si number density = 16.469335 Si / 1000 Ang^3
#
#
#
# Elastic Constant Matrix: (Units=GPa)
#
#
# Indices 1 2 3 4 5 6 
#
# 1 105.2742 37.7650 20.3925 0.0000 0.0000 0.0000
# 2 37.7650 88.9370 26.5986 0.0000 0.0000 0.0000
# 3 20.3925 26.5986 45.3607 0.0000 0.0000 0.0000
# 4 0.0000 0.0000 0.0000 22.3788 0.0000 0.0000
# 5 0.0000 0.0000 0.0000 0.0000 7.1391 0.0000
# 6 0.0000 0.0000 0.0000 0.0000 0.0000 23.9482
#
#
#
# Elastic Compliance Matrix: (Units=1/GPa)
#
#
# Indices 1 2 3 4 5 6 
#
# 1 0.011491 -0.004043 -0.002795 0.000000 0.000000 0.000000
# 2 -0.004043 0.015058 -0.007012 0.000000 0.000000 0.000000
# 3 -0.002795 -0.007012 0.027414 0.000000 0.000000 0.000000
# 4 0.000000 0.000000 0.000000 0.044685 0.000000 0.000000
# 5 0.000000 0.000000 0.000000 0.000000 0.140073 0.000000
# 6 0.000000 0.000000 0.000000 0.000000 0.000000 0.041757
#
#
# Mechanical properties :
#
#
# Convention : Reuss Voigt Hill
#
# Bulk Modulus (GPa) = 38.07781 45.45378 41.76580
# Shear Modulus (GPa) = 15.77626 21.01429 18.39527
#
# Velocity S-wave (km/s) = 3.09838 3.57594 3.34569
# Velocity P-wave (km/s) = 5.99755 6.68646 6.35135
#
# Compressibility (1/GPa) = 0.02626201
#
# Stress axis : x y z
#
# Youngs Moduli (GPa) = 87.02537 66.41016 36.47823
#
# Poissons Ratio (x) = 0.26853 0.10195
# Poissons Ratio (y) = 0.35188 0.25578
# Poissons Ratio (z) = 0.24322 0.46566
#
# Static dielectric constant tensor:
#      x y z
#    x 3.448910 0.000000 0.000000 
#    y 0.000000 3.006200 0.000000 
#    z 0.000000 0.000000 2.998830 
# 
# 
# High freq. dielectric constant tensor:
#      x y z
#    x 1.629610 0.000000 0.000000 
#    y 0.000000 1.606100 0.000000 
#    z 0.000000 0.000000 1.621210 
# 
# From -- ./inp_files/10902.got.cif
#   From: 2010.03.12/outbox.cif.g09.slc.cpg/sg55_6_cif.got.tgz:10902.got - 2010.04.16 15:19:21.
