data_PCOD8224539
_publ_section_title
;
Structure prediction by ZEFSAII (Michael W. Deem and Ramdas Pophale) SiO2 
 PCOD8224539
Probable space group: P B A M
;
_chemical_formula_sum "Si O2"
_cell_formula_units_Z 64
_cell_length_a 20.573877
_cell_length_b 19.070798
_cell_length_c 9.405085
_cell_angle_alpha 90.000000
_cell_angle_beta 90.000000
_cell_angle_gamma 90.000000
_cell_volume 3690.181524
_symmetry_space_group_name_H-M "P B A M"
_symmetry_group_IT_number 55
_symmetry_cell_setting 'orthorhombic'
loop_
_space_group_symop_operation_xyz
x,y,z
-x,-y,z
1/2+x,1/2-y,-z
1/2-x,1/2+y,-z
-x,-y,-z
x,y,-z
1/2-x,1/2+y,z
1/2+x,1/2-y,z
loop_
_atom_site_type_symbol
_atom_site_label
_atom_site_fract_x
_atom_site_fract_y
_atom_site_fract_z
Si Si1 0.764741 0.320225 0.333558
Si Si2 0.609669 0.184069 0.164102
Si Si3 0.683918 0.537081 0.163150
Si Si4 0.430858 0.529779 0.333050
Si Si5 0.739599 0.686841 0.838874
Si Si6 0.690145 0.949500 0.832065
Si Si7 0.886083 0.819305 0.664462
Si Si8 0.565441 0.035202 0.830861
O O1 0.780097 0.322373 0.500000
O O2 0.784999 0.244875 0.271645
O O3 0.808138 0.377113 0.253209
O O4 0.689123 0.334348 0.299819
O O5 0.685406 0.167550 0.188332
O O6 0.586822 0.252937 0.248898
O O7 0.570748 0.115921 0.221500
O O8 0.594014 0.198484 0.000000
O O9 0.623536 0.515855 0.257840
O O10 0.696060 0.618990 0.187644
O O11 0.747457 0.494860 0.210816
O O12 0.667420 0.520576 0.000000
O O13 0.500000 0.500000 0.283696
O O14 0.419716 0.521101 0.500000
O O15 0.426172 0.611686 0.289986
O O16 0.731237 0.714800 0.000000
O O17 0.626759 0.990537 0.777442
O O18 0.687593 0.934359 0.000000
O O19 0.895340 0.801195 0.500000
O O20 0.500000 0.000000 0.769328
O O21 0.565413 0.035414 0.000000
#
# Coordination Sequence:
#
# PCOD8224539 Si02
#       8
#     8   8   8   8   8   8   8   8
#     4  10  19  31  49  76 104 132 170 215 257 304
#     4   9  16  29  51  76  99 129 169 208 250 300
#     4  10  19  32  53  78 103 130 168 216 261 303
#     4  10  21  37  54  73 103 141 175 209 258 313
#     4   9  17  31  50  75 104 132 167 214 261 305
#     4  10  18  31  52  77 103 133 166 208 260 302
#     4   9  18  32  49  72  99 129 168 210 252 302
#     4   9  17  31  52  78 106 135 170 208 250 306
#
# _framework density 17.343319999999999
#
# number of rings (size 3 to 8) (size 9 to 14) (size 15 to 20)
#    0.000    2.500    2.500    0.375    0.000    1.750 
#    0.000    1.875    0.000    6.000    0.000    0.000 
#    0.000    0.000    0.000    0.000    0.000    0.000 
#
# Total GULP energy -793651.763735 kJ/mol
# GULP energy per Si atom -12400.808808 kJ/mol
# Density = 1.730385 g / cm^3
# Si number density = 17.343320 Si / 1000 Ang^3
#
#
#
# Elastic Constant Matrix: (Units=GPa)
#
#
# Indices 1 2 3 4 5 6 
#
# 1 103.2394 67.4268 38.8836 0.0000 0.0000 0.0000
# 2 67.4268 142.4096 53.6178 0.0000 0.0000 0.0000
# 3 38.8836 53.6178 53.7790 0.0000 0.0000 0.0000
# 4 0.0000 0.0000 0.0000 22.3782 0.0000 0.0000
# 5 0.0000 0.0000 0.0000 0.0000 16.2566 0.0000
# 6 0.0000 0.0000 0.0000 0.0000 0.0000 26.3815
#
#
#
# Elastic Compliance Matrix: (Units=1/GPa)
#
#
# Indices 1 2 3 4 5 6 
#
# 1 0.015176 -0.004890 -0.006098 0.000000 0.000000 0.000000
# 2 -0.004890 0.012817 -0.009244 0.000000 0.000000 0.000000
# 3 -0.006098 -0.009244 0.032219 0.000000 0.000000 0.000000
# 4 0.000000 0.000000 0.000000 0.044686 0.000000 0.000000
# 5 0.000000 0.000000 0.000000 0.000000 0.061513 0.000000
# 6 0.000000 0.000000 0.000000 0.000000 0.000000 0.037905
#
#
# Mechanical properties :
#
#
# Convention : Reuss Voigt Hill
#
# Bulk Modulus (GPa) = 50.63067 68.80937 59.72002
# Shear Modulus (GPa) = 19.89145 22.30325 21.09735
#
# Velocity S-wave (km/s) = 3.39030 3.58995 3.49155
# Velocity P-wave (km/s) = 6.67698 7.54617 7.12484
#
# Compressibility (1/GPa) = 0.01975087
#
# Stress axis : x y z
#
# Youngs Moduli (GPa) = 65.89162 78.01906 31.03721
#
# Poissons Ratio (x) = 0.38149 0.18926
# Poissons Ratio (y) = 0.32219 0.28689
# Poissons Ratio (z) = 0.40180 0.72117
#
# Static dielectric constant tensor:
#      x y z
#    x 3.093330 0.000000 0.000000 
#    y 0.000000 3.359560 0.000000 
#    z 0.000000 0.000000 3.067940 
# 
# 
# High freq. dielectric constant tensor:
#      x y z
#    x 1.643760 0.000000 0.000000 
#    y 0.000000 1.683430 0.000000 
#    z 0.000000 0.000000 1.653500 
# 
# From -- ./inp_files/9868.got.cif
#   From: 2010.03.12/outbox.cif.g09.slc.cpg/sg55_5_cif.got.tgz:9868.got - 2010.04.16 15:19:21.
