data_PCOD8224330
_publ_section_title
;
Structure prediction by ZEFSAII (Michael W. Deem and Ramdas Pophale) SiO2 
 PCOD8224330
Probable space group: P B A M
;
_chemical_formula_sum "Si O2"
_cell_formula_units_Z 64
_cell_length_a 12.023425
_cell_length_b 31.008994
_cell_length_c 8.543101
_cell_angle_alpha 90.000000
_cell_angle_beta 90.000000
_cell_angle_gamma 90.000000
_cell_volume 3185.161198
_symmetry_space_group_name_H-M "P B A M"
_symmetry_group_IT_number 55
_symmetry_cell_setting 'orthorhombic'
loop_
_space_group_symop_operation_xyz
x,y,z
-x,-y,z
1/2+x,1/2-y,-z
1/2-x,1/2+y,-z
-x,-y,-z
x,y,-z
1/2-x,1/2+y,z
1/2+x,1/2-y,z
loop_
_atom_site_type_symbol
_atom_site_label
_atom_site_fract_x
_atom_site_fract_y
_atom_site_fract_z
Si Si1 0.633856 0.626502 0.315212
Si Si2 0.383704 0.628126 0.313525
Si Si3 0.265398 0.955007 0.682934
Si Si4 0.771387 0.703580 0.180102
Si Si5 0.499365 0.918562 0.682310
Si Si6 0.490705 0.171895 0.820191
Si Si7 0.761563 0.450686 0.313878
Si Si8 0.771454 0.294699 0.681460
O O1 0.627670 0.621791 0.500000
O O2 0.508853 0.629198 0.246476
O O3 0.695396 0.584466 0.240928
O O4 0.700016 0.669903 0.279102
O O5 0.381077 0.626627 0.500000
O O6 0.321923 0.585516 0.245995
O O7 0.319557 0.670984 0.256433
O O8 0.240690 0.954136 0.500000
O O9 0.397051 0.950616 0.713810
O O10 0.228234 0.001740 0.751287
O O11 0.901698 0.700548 0.219869
O O12 0.734445 0.751722 0.217790
O O13 0.748115 0.693145 0.000000
O O14 0.505613 0.905102 0.500000
O O15 0.476246 0.877112 0.787828
O O16 0.612835 0.940653 0.739341
O O17 0.393031 0.185330 0.703639
O O18 0.453655 0.177870 0.000000
O O19 0.756079 0.451077 0.500000
O O20 0.752373 0.283834 0.500000
#
# Coordination Sequence:
#
# PCOD8224330 Si02
#       8
#     8   8   8   8   8   8   8   8
#     4  10  20  36  57  85 115 149 195 239 280 339
#     4   9  19  34  54  84 117 146 184 235 287 334
#     4   9  17  28  51  85 116 147 188 237 290 339
#     4  11  25  42  59  84 116 152 189 234 289 345
#     4  10  17  31  55  83 114 149 193 237 286 339
#     4  11  23  39  60  86 117 150 189 236 289 342
#     4   9  16  29  51  83 118 147 182 238 293 339
#     4  11  23  40  62  87 114 149 190 237 287 340
#
# _framework density 20.093173
#
# number of rings (size 3 to 8) (size 9 to 14) (size 15 to 20)
#    0.000    2.000    2.500    1.500    1.750    3.500 
#    0.000    3.125    0.000    2.250    0.000    0.875 
#    0.000    0.000    0.000    0.000    0.000    0.000 
#
# Total GULP energy -793576.423954 kJ/mol
# GULP energy per Si atom -12399.631624 kJ/mol
# Density = 2.004744 g / cm^3
# Si number density = 20.093173 Si / 1000 Ang^3
#
#
#
# Elastic Constant Matrix: (Units=GPa)
#
#
# Indices 1 2 3 4 5 6 
#
# 1 114.6592 39.7379 20.4848 0.0000 0.0000 0.0000
# 2 39.7379 134.0956 7.4015 0.0000 0.0000 0.0000
# 3 20.4848 7.4015 13.8097 0.0000 0.0000 0.0000
# 4 0.0000 0.0000 0.0000 6.1023 0.0000 0.0000
# 5 0.0000 0.0000 0.0000 0.0000 16.8702 0.0000
# 6 0.0000 0.0000 0.0000 0.0000 0.0000 23.7190
#
#
#
# Elastic Compliance Matrix: (Units=1/GPa)
#
#
# Indices 1 2 3 4 5 6 
#
# 1 0.012834 -0.002836 -0.017518 0.000000 0.000000 0.000000
# 2 -0.002836 0.008312 -0.000247 0.000000 0.000000 0.000000
# 3 -0.017518 -0.000247 0.098530 0.000000 0.000000 0.000000
# 4 0.000000 0.000000 0.000000 0.163873 0.000000 0.000000
# 5 0.000000 0.000000 0.000000 0.000000 0.059276 0.000000
# 6 0.000000 0.000000 0.000000 0.000000 0.000000 0.042160
#
#
# Mechanical properties :
#
#
# Convention : Reuss Voigt Hill
#
# Bulk Modulus (GPa) = 12.74314 44.20142 28.47228
# Shear Modulus (GPa) = 11.05350 22.33433 16.69392
#
# Velocity S-wave (km/s) = 2.34799 3.33759 2.88553
# Velocity P-wave (km/s) = 3.70224 6.07443 5.03017
#
# Compressibility (1/GPa) = 0.07847361
#
# Stress axis : x y z
#
# Youngs Moduli (GPa) = 77.91703 120.31450 10.14916
#
# Poissons Ratio (x) = 0.34126 0.17779
# Poissons Ratio (y) = 0.22100 0.00251
# Poissons Ratio (z) = 1.36491 0.02975
#
# Static dielectric constant tensor:
#      x y z
#    x 3.838690 0.000000 0.000000 
#    y 0.000000 3.878770 0.000000 
#    z 0.000000 0.000000 3.136960 
# 
# 
# High freq. dielectric constant tensor:
#      x y z
#    x 1.790780 0.000000 0.000000 
#    y 0.000000 1.797340 0.000000 
#    z 0.000000 0.000000 1.735790 
# 
# From -- ./inp_files/4526.got.cif
#   From: 2010.03.12/outbox.cif.g09.slc.cpg/sg55_3_cif.got.tgz:4526.got - 2010.04.16 15:19:21.
