data_PCOD8224332
_publ_section_title
;
Structure prediction by ZEFSAII (Michael W. Deem and Ramdas Pophale) SiO2 
 PCOD8224332
Probable space group: P B A M
;
_chemical_formula_sum "Si O2"
_cell_formula_units_Z 48
_cell_length_a 26.641695
_cell_length_b 5.000601
_cell_length_c 19.635428
_cell_angle_alpha 90.000000
_cell_angle_beta 90.000000
_cell_angle_gamma 90.000000
_cell_volume 2615.919816
_symmetry_space_group_name_H-M "P B A M"
_symmetry_group_IT_number 55
_symmetry_cell_setting 'orthorhombic'
loop_
_space_group_symop_operation_xyz
x,y,z
-x,-y,z
1/2+x,1/2-y,-z
1/2-x,1/2+y,-z
-x,-y,-z
x,y,-z
1/2-x,1/2+y,z
1/2+x,1/2-y,z
loop_
_atom_site_type_symbol
_atom_site_label
_atom_site_fract_x
_atom_site_fract_y
_atom_site_fract_z
Si Si1 0.779503 0.978960 0.000000
Si Si2 0.579657 0.995406 0.925120
Si Si3 0.859935 0.004556 0.897413
Si Si4 0.714168 0.476871 0.648214
Si Si5 0.055219 0.559344 0.225301
Si Si6 0.879250 0.952637 0.251603
Si Si7 0.219451 0.114688 0.500000
O O1 0.809794 0.901058 0.067532
O O2 0.769058 0.294130 0.000000
O O3 0.594971 0.303037 0.915794
O O4 0.548491 0.909040 0.857453
O O5 0.627416 0.797914 0.926412
O O6 0.552217 0.969166 0.000000
O O7 0.849455 0.016060 0.817481
O O8 0.754598 0.244858 0.663083
O O9 0.663246 0.460112 0.691147
O O10 0.692123 0.463204 0.570662
O O11 0.076314 0.829302 0.259899
O O12 0.000000 0.500000 0.255340
O O13 0.094619 0.334565 0.247708
O O14 0.270188 0.932265 0.500000
#
# Coordination Sequence:
#
# PCOD8224332 Si02
#       7
#     4   8   8   8   8   8   4
#     4  12  22  30  44  62  85 122 163 202 246 292
#     4  10  17  32  53  64  88 121 155 207 268 308
#     4  10  20  33  45  64  91 123 163 205 247 298
#     4  10  19  33  55  82 113 139 171 205 252 308
#     4  10  21  35  52  77 102 131 176 219 263 316
#     4  10  21  35  54  75 103 140 169 212 261 304
#     4   8  16  30  50  80 111 138 163 208 250 296
#
# _framework density 18.349184999999999
#
# number of rings (size 3 to 8) (size 9 to 14) (size 15 to 20)
#    0.000    2.000    1.667    2.500    0.000    1.667 
#    0.000    0.000    0.000    6.000    0.000    3.500 
#    0.000    0.000    0.000    0.000    0.000    0.000 
#
# Total GULP energy -594659.362103 kJ/mol
# GULP energy per Si atom -12388.736710 kJ/mol
# Density = 1.830742 g / cm^3
# Si number density = 18.349185 Si / 1000 Ang^3
#
#
#
# Elastic Constant Matrix: (Units=GPa)
#
#
# Indices 1 2 3 4 5 6 
#
# 1 68.3634 3.8145 40.0112 0.0000 0.0000 0.0000
# 2 3.8145 79.0944 11.8084 0.0000 0.0000 0.0000
# 3 40.0112 11.8084 109.3733 0.0000 0.0000 0.0000
# 4 0.0000 0.0000 0.0000 17.7238 0.0000 0.0000
# 5 0.0000 0.0000 0.0000 0.0000 -6.4382 0.0000
# 6 0.0000 0.0000 0.0000 0.0000 0.0000 21.8674
#
#
#
# Elastic Compliance Matrix: (Units=1/GPa)
#
#
# Indices 1 2 3 4 5 6 
#
# 1 0.018614 0.000121 -0.006822 0.000000 0.000000 0.000000
# 2 0.000121 0.012851 -0.001432 0.000000 0.000000 0.000000
# 3 -0.006822 -0.001432 0.011793 0.000000 0.000000 0.000000
# 4 0.000000 0.000000 0.000000 0.056421 0.000000 0.000000
# 5 0.000000 0.000000 0.000000 0.000000 -0.155324 0.000000
# 6 0.000000 0.000000 0.000000 0.000000 0.000000 0.045730
#
#
# Mechanical properties :
#
#
# Convention : Reuss Voigt Hill
#
# Bulk Modulus (GPa) = 37.04825 40.89995 38.97410
# Shear Modulus (GPa) = 325.73549 20.04373 172.88961
#
# Velocity S-wave (km/s) = 13.33813 3.30866 9.71733
# Velocity P-wave (km/s) = 16.04501 6.07737 12.13212
#
# Compressibility (1/GPa) = 0.02699183
#
# Stress axis : x y z
#
# Youngs Moduli (GPa) = 53.72312 77.81481 84.79340
#
# Poissons Ratio (x) = -0.00940 0.57850
# Poissons Ratio (y) = -0.00649 0.12140
# Poissons Ratio (z) = 0.36652 0.11140
#
# Static dielectric constant tensor:
#      x y z
#    x 2.969910 0.000000 0.000000 
#    y 0.000000 3.551350 0.000000 
#    z 0.000000 0.000000 3.472700 
# 
# 
# High freq. dielectric constant tensor:
#      x y z
#    x 1.675390 0.000000 0.000000 
#    y 0.000000 1.735360 0.000000 
#    z 0.000000 0.000000 1.694480 
# 
# From -- ./inp_files/23122.got.cif
#   From: 2010.03.12/outbox.cif.g09.slc.cpg/sg55_12_cif.got.tgz:23122.got - 2010.04.16 15:19:21.
