data_PCOD8224123
_publ_section_title
;
Structure prediction by ZEFSAII (Michael W. Deem and Ramdas Pophale) SiO2 
 PCOD8224123
Probable space group: P C C A
;
_chemical_formula_sum "Si O2"
_cell_formula_units_Z 32
_cell_length_a 14.311788
_cell_length_b 7.202833
_cell_length_c 11.875721
_cell_angle_alpha 90.000000
_cell_angle_beta 90.000000
_cell_angle_gamma 90.000000
_cell_volume 1224.213674
_symmetry_space_group_name_H-M "P C C A"
_symmetry_group_IT_number 54
_symmetry_cell_setting 'orthorhombic'
loop_
_space_group_symop_operation_xyz
x,y,z
1/2-x,-y,z
1/2+x,-y,1/2-z
-x,y,1/2-z
-x,-y,-z
1/2+x,y,-z
1/2-x,y,1/2+z
x,-y,1/2+z
loop_
_atom_site_type_symbol
_atom_site_label
_atom_site_fract_x
_atom_site_fract_y
_atom_site_fract_z
Si Si1 0.167882 0.235189 0.020901
Si Si2 0.010371 0.306098 0.368787
Si Si3 0.132043 0.182969 0.569422
Si Si4 0.847676 0.611281 0.211073
O O1 0.273701 0.298006 0.042492
O O2 0.093181 0.370901 0.085439
O O3 0.150310 0.035757 0.078234
O O4 0.163024 0.233683 0.886016
O O5 0.054638 0.194045 0.471695
O O6 0.073135 0.479001 0.337389
O O7 0.000000 0.190892 0.250000
O O8 0.104254 0.273862 0.687707
O O9 0.750000 0.500000 0.235285
#
# Coordination Sequence:
#
# PCOD8224123 Si02
#       4
#     8   8   8   8
#     4  11  27  50  79 112 161 205 268 327 406 467
#     4  12  28  47  78 115 157 202 266 322 395 473
#     4  11  28  50  79 115 157 210 265 333 400 478
#     4  12  27  48  82 114 159 208 267 331 396 470
#
# _framework density 26.139227000000002
#
# number of rings (size 3 to 8) (size 9 to 14) (size 15 to 20)
#    0.000    0.500    2.500    3.000   14.000    2.000 
#    0.000    0.000    0.000    0.000    0.000    0.000 
#    0.000    0.000    0.000    0.000    0.000    0.000 
#
# Total GULP energy -396423.623212 kJ/mol
# GULP energy per Si atom -12388.238225 kJ/mol
# Density = 2.607973 g / cm^3
# Si number density = 26.139227 Si / 1000 Ang^3
#
#
#
# Elastic Constant Matrix: (Units=GPa)
#
#
# Indices 1 2 3 4 5 6 
#
# 1 145.7538 0.6591 27.3699 0.0000 0.0000 0.0000
# 2 0.6591 62.0302 27.7591 0.0000 0.0000 0.0000
# 3 27.3699 27.7591 179.4207 0.0000 0.0000 0.0000
# 4 0.0000 0.0000 0.0000 36.1821 0.0000 0.0000
# 5 0.0000 0.0000 0.0000 0.0000 49.8720 0.0000
# 6 0.0000 0.0000 0.0000 0.0000 0.0000 20.6794
#
#
#
# Elastic Compliance Matrix: (Units=1/GPa)
#
#
# Indices 1 2 3 4 5 6 
#
# 1 0.007074 0.000438 -0.001147 0.000000 0.000000 0.000000
# 2 0.000438 0.017348 -0.002751 0.000000 0.000000 0.000000
# 3 -0.001147 -0.002751 0.006174 0.000000 0.000000 0.000000
# 4 0.000000 0.000000 0.000000 0.027638 0.000000 0.000000
# 5 0.000000 0.000000 0.000000 0.000000 0.020051 0.000000
# 6 0.000000 0.000000 0.000000 0.000000 0.000000 0.048357
#
#
# Mechanical properties :
#
#
# Convention : Reuss Voigt Hill
#
# Bulk Modulus (GPa) = 42.23571 55.42009 48.82790
# Shear Modulus (GPa) = 35.34722 43.44114 39.39418
#
# Velocity S-wave (km/s) = 3.68131 4.08108 3.88634
# Velocity P-wave (km/s) = 5.85341 6.59203 6.23367
#
# Compressibility (1/GPa) = 0.02367665
#
# Stress axis : x y z
#
# Youngs Moduli (GPa) = 141.35725 57.64518 161.96861
#
# Poissons Ratio (x) = -0.02525 0.18577
# Poissons Ratio (y) = -0.06193 0.44553
# Poissons Ratio (z) = 0.16213 0.15857
#
# Static dielectric constant tensor:
#      x y z
#    x 5.653820 0.000000 0.000000 
#    y 0.000000 4.206450 0.000000 
#    z 0.000000 0.000000 5.845660 
# 
# 
# High freq. dielectric constant tensor:
#      x y z
#    x 2.073120 0.000000 0.000000 
#    y 0.000000 2.019830 0.000000 
#    z 0.000000 0.000000 2.071360 
# 
# From -- ./inp_files/7962.got.cif
#   From: 2010.03.12/outbox.cif.g09.slc.cpg/sg54_4_cif.got.tgz:7962.got - 2010.04.16 15:00:50.
