data_PCOD8224152
_publ_section_title
;
Structure prediction by ZEFSAII (Michael W. Deem and Ramdas Pophale) SiO2 
 PCOD8224152
Probable space group: P C C A
;
_chemical_formula_sum "Si O2"
_cell_formula_units_Z 40
_cell_length_a 9.073294
_cell_length_b 8.122622
_cell_length_c 23.691253
_cell_angle_alpha 90.000000
_cell_angle_beta 90.000000
_cell_angle_gamma 90.000000
_cell_volume 1746.020173
_symmetry_space_group_name_H-M "P C C A"
_symmetry_group_IT_number 54
_symmetry_cell_setting 'orthorhombic'
loop_
_space_group_symop_operation_xyz
x,y,z
1/2-x,-y,z
1/2+x,-y,1/2-z
-x,y,1/2-z
-x,-y,-z
1/2+x,y,-z
1/2-x,y,1/2+z
x,-y,1/2+z
loop_
_atom_site_type_symbol
_atom_site_label
_atom_site_fract_x
_atom_site_fract_y
_atom_site_fract_z
Si Si1 0.674109 0.674657 0.049954
Si Si2 0.171791 0.671238 0.238651
Si Si3 0.465943 0.169604 0.470184
Si Si4 0.106119 0.078804 0.643339
Si Si5 0.350414 0.852849 0.338404
O O1 0.750000 0.500000 0.054228
O O2 0.615588 0.723206 0.111978
O O3 0.792166 0.806115 0.027912
O O4 0.542091 0.680645 0.004664
O O5 0.250000 0.500000 0.223531
O O6 0.175363 0.791295 0.186055
O O7 0.264599 0.759857 0.288318
O O8 0.000000 0.634896 0.250000
O O9 0.514755 0.171725 0.404920
O O10 0.500000 0.000000 0.500000
O O11 0.250000 0.000000 0.614165
O O12 0.006441 0.941965 0.676989
O O13 0.250000 0.000000 0.362095
#
# Coordination Sequence:
#
# PCOD8224152 Si02
#       5
#     8   8   8   8   8
#     4  12  25  43  71 107 147 187 238 303 372 429
#     4  12  28  47  72 106 149 192 242 312 379 436
#     4  12  23  46  72 104 141 191 241 296 360 448
#     4  12  27  45  75 107 140 190 256 302 356 444
#     4  12  23  49  75 100 141 196 249 296 365 442
#
# _framework density 22.909241000000002
#
# number of rings (size 3 to 8) (size 9 to 14) (size 15 to 20)
#    0.000    0.000    6.000    3.600    2.800    0.800 
#    0.000    0.000    0.000    0.000    0.000    0.000 
#    0.000    0.000    0.000    0.000    0.000    0.000 
#
# Total GULP energy -495896.597030 kJ/mol
# GULP energy per Si atom -12397.414926 kJ/mol
# Density = 2.285710 g / cm^3
# Si number density = 22.909241 Si / 1000 Ang^3
#
#
#
# Elastic Constant Matrix: (Units=GPa)
#
#
# Indices 1 2 3 4 5 6 
#
# 1 90.2846 18.7031 28.6673 0.0000 0.0000 0.0000
# 2 18.7031 120.5946 37.8761 0.0000 0.0000 0.0000
# 3 28.6673 37.8761 132.6389 0.0000 0.0000 0.0000
# 4 0.0000 0.0000 0.0000 24.1902 0.0000 0.0000
# 5 0.0000 0.0000 0.0000 0.0000 29.5462 0.0000
# 6 0.0000 0.0000 0.0000 0.0000 0.0000 45.2967
#
#
#
# Elastic Compliance Matrix: (Units=1/GPa)
#
#
# Indices 1 2 3 4 5 6 
#
# 1 0.012036 -0.001153 -0.002272 0.000000 0.000000 0.000000
# 2 -0.001153 0.009220 -0.002384 0.000000 0.000000 0.000000
# 3 -0.002272 -0.002384 0.008711 0.000000 0.000000 0.000000
# 4 0.000000 0.000000 0.000000 0.041339 0.000000 0.000000
# 5 0.000000 0.000000 0.000000 0.000000 0.033845 0.000000
# 6 0.000000 0.000000 0.000000 0.000000 0.000000 0.022077
#
#
# Mechanical properties :
#
#
# Convention : Reuss Voigt Hill
#
# Bulk Modulus (GPa) = 54.49738 57.11235 55.80486
# Shear Modulus (GPa) = 34.49174 37.02472 35.75823
#
# Velocity S-wave (km/s) = 3.88439 4.02450 3.95506
# Velocity P-wave (km/s) = 6.63009 6.82491 6.72820
#
# Compressibility (1/GPa) = 0.01834951
#
# Stress axis : x y z
#
# Youngs Moduli (GPa) = 83.08116 108.46343 114.79752
#
# Poissons Ratio (x) = 0.12507 0.26084
# Poissons Ratio (y) = 0.09580 0.27362
# Poissons Ratio (z) = 0.18877 0.25853
#
# Static dielectric constant tensor:
#      x y z
#    x 4.769490 0.000000 0.000000 
#    y 0.000000 4.230050 0.000000 
#    z 0.000000 0.000000 4.162640 
# 
# 
# High freq. dielectric constant tensor:
#      x y z
#    x 1.927250 0.000000 0.000000 
#    y 0.000000 1.904340 0.000000 
#    z 0.000000 0.000000 1.901640 
# 
# From -- ./inp_files/23225.got.cif
#   From: 2010.03.12/outbox.cif.g09.slc.cpg/sg54_12_cif.got.tgz:23225.got - 2010.04.16 15:00:50.
