data_PCOD8224400
_publ_section_title
;
Structure prediction by ZEFSAII (Michael W. Deem and Ramdas Pophale) SiO2 
 PCOD8224400
Probable space group: P B A M
;
_chemical_formula_sum "Si O2"
_cell_formula_units_Z 64
_cell_length_a 19.114277
_cell_length_b 23.105832
_cell_length_c 9.377874
_cell_angle_alpha 90.000000
_cell_angle_beta 90.000000
_cell_angle_gamma 90.000000
_cell_volume 4141.749992
_symmetry_space_group_name_H-M "P B A M"
_symmetry_group_IT_number 55
_symmetry_cell_setting 'orthorhombic'
loop_
_space_group_symop_operation_xyz
x,y,z
-x,-y,z
1/2+x,1/2-y,-z
1/2-x,1/2+y,-z
-x,-y,-z
x,y,-z
1/2-x,1/2+y,z
1/2+x,1/2-y,z
loop_
_atom_site_type_symbol
_atom_site_label
_atom_site_fract_x
_atom_site_fract_y
_atom_site_fract_z
Si Si1 0.648864 0.279584 0.836255
Si Si2 0.277271 0.840219 0.162555
Si Si3 0.347367 0.263806 0.836542
Si Si4 0.501325 0.240994 0.163542
Si Si5 0.639229 0.937226 0.666647
Si Si6 0.000660 0.623469 0.332150
Si Si7 0.267196 0.168337 0.332714
Si Si8 0.354928 0.934100 0.332545
O O1 0.673681 0.214486 0.801492
O O2 0.566250 0.283614 0.801009
O O3 0.690698 0.324743 0.737509
O O4 0.665032 0.295239 0.000000
O O5 0.196712 0.822080 0.194587
O O6 0.296624 0.893948 0.260955
O O7 0.287484 0.859719 0.000000
O O8 0.429370 0.276113 0.809713
O O9 0.322935 0.212339 0.734314
O O10 0.333174 0.244267 0.000000
O O11 0.505190 0.185622 0.262088
O O12 0.507255 0.220035 0.000000
O O13 0.625530 0.944495 0.500000
O O14 0.568243 0.909759 0.731465
O O15 0.705751 0.896480 0.698245
O O16 0.653938 0.000941 0.729686
O O17 0.008002 0.633578 0.500000
O O18 0.932713 0.586301 0.293029
O O19 0.262088 0.181171 0.500000
O O20 0.341117 0.931079 0.500000
#
# Coordination Sequence:
#
# PCOD8224400 Si02
#       8
#     8   8   8   8   8   8   8   8
#     4   9  18  31  46  64  91 119 146 184 228 271
#     4   9  17  30  44  63  90 115 143 186 227 261
#     4   9  18  31  47  65  89 119 148 182 228 272
#     4  10  18  30  48  67  90 122 151 180 224 273
#     4   9  18  31  44  63  91 122 154 188 223 257
#     4  10  18  29  44  64  91 122 155 188 215 253
#     4  10  18  29  46  66  89 117 150 188 224 261
#     4  10  19  30  46  64  87 123 159 184 217 265
#
# _framework density 15.452406
#
# number of rings (size 3 to 8) (size 9 to 14) (size 15 to 20)
#    0.000    2.500    2.500    1.500    0.000    4.000 
#    0.000    1.875    0.000    1.500    0.000    0.875 
#    0.000    7.000    0.000    0.000    0.000    0.000 
#
# Total GULP energy -793451.293030 kJ/mol
# GULP energy per Si atom -12397.676454 kJ/mol
# Density = 1.541724 g / cm^3
# Si number density = 15.452406 Si / 1000 Ang^3
#
#
#
# Elastic Constant Matrix: (Units=GPa)
#
#
# Indices 1 2 3 4 5 6 
#
# 1 130.5217 55.9582 46.2857 0.0000 0.0000 0.0000
# 2 55.9582 81.7393 42.4217 0.0000 0.0000 0.0000
# 3 46.2857 42.4217 49.0873 0.0000 0.0000 0.0000
# 4 0.0000 0.0000 0.0000 5.5269 0.0000 0.0000
# 5 0.0000 0.0000 0.0000 0.0000 22.5720 0.0000
# 6 0.0000 0.0000 0.0000 0.0000 0.0000 21.7273
#
#
#
# Elastic Compliance Matrix: (Units=1/GPa)
#
#
# Indices 1 2 3 4 5 6 
#
# 1 0.012311 -0.004358 -0.007842 0.000000 0.000000 0.000000
# 2 -0.004358 0.023726 -0.016395 0.000000 0.000000 0.000000
# 3 -0.007842 -0.016395 0.041935 0.000000 0.000000 0.000000
# 4 0.000000 0.000000 0.000000 0.180935 0.000000 0.000000
# 5 0.000000 0.000000 0.000000 0.000000 0.044303 0.000000
# 6 0.000000 0.000000 0.000000 0.000000 0.000000 0.046025
#
#
# Mechanical properties :
#
#
# Convention : Reuss Voigt Hill
#
# Bulk Modulus (GPa) = 48.11875 61.18661 54.65268
# Shear Modulus (GPa) = 12.09620 17.74409 14.92014
#
# Velocity S-wave (km/s) = 2.80090 3.39234 3.11071
# Velocity P-wave (km/s) = 6.45505 7.41800 6.95321
#
# Compressibility (1/GPa) = 0.02078192
#
# Stress axis : x y z
#
# Youngs Moduli (GPa) = 81.22869 42.14703 23.84627
#
# Poissons Ratio (x) = 0.18368 0.18700
# Poissons Ratio (y) = 0.35400 0.39097
# Poissons Ratio (z) = 0.63700 0.69101
#
# Static dielectric constant tensor:
#      x y z
#    x 3.217380 0.000000 0.000000 
#    y 0.000000 2.820360 0.000000 
#    z 0.000000 0.000000 2.885150 
# 
# 
# High freq. dielectric constant tensor:
#      x y z
#    x 1.596070 0.000000 0.000000 
#    y 0.000000 1.560790 0.000000 
#    z 0.000000 0.000000 1.585700 
# 
# From -- ./inp_files/8144.got.cif
#   From: 2010.03.12/outbox.cif.g09.slc.cpg/sg55_5_cif.got.tgz:8144.got - 2010.04.16 15:19:21.
