data_PCOD8224463
_publ_section_title
;
Structure prediction by ZEFSAII (Michael W. Deem and Ramdas Pophale) SiO2 
 PCOD8224463
Probable space group: P B A M
;
_chemical_formula_sum "Si O2"
_cell_formula_units_Z 64
_cell_length_a 14.444411
_cell_length_b 30.318671
_cell_length_c 8.819569
_cell_angle_alpha 90.000000
_cell_angle_beta 90.000000
_cell_angle_gamma 90.000000
_cell_volume 3862.400992
_symmetry_space_group_name_H-M "P B A M"
_symmetry_group_IT_number 55
_symmetry_cell_setting 'orthorhombic'
loop_
_space_group_symop_operation_xyz
x,y,z
-x,-y,z
1/2+x,1/2-y,-z
1/2-x,1/2+y,-z
-x,-y,-z
x,y,-z
1/2-x,1/2+y,z
1/2+x,1/2-y,z
loop_
_atom_site_type_symbol
_atom_site_label
_atom_site_fract_x
_atom_site_fract_y
_atom_site_fract_z
Si Si1 0.173268 0.131170 0.677209
Si Si2 0.892965 0.049737 0.821576
Si Si3 0.013328 0.824065 0.321924
Si Si4 0.603094 0.449798 0.177246
Si Si5 0.996860 0.273684 0.678407
Si Si6 0.304196 0.369927 0.319659
Si Si7 0.714808 0.785194 0.321117
Si Si8 0.181101 0.299083 0.820590
O O1 0.189254 0.126225 0.500000
O O2 0.070367 0.144982 0.723884
O O3 0.180966 0.082764 0.751266
O O4 0.242106 0.168823 0.740581
O O5 0.817744 0.079721 0.734215
O O6 0.998020 0.058841 0.762941
O O7 0.866335 0.999404 0.782457
O O8 0.885967 0.058650 0.000000
O O9 0.025588 0.819788 0.500000
O O10 0.994290 0.775743 0.257599
O O11 0.107040 0.843694 0.254778
O O12 0.603246 0.442241 0.000000
O O13 0.018068 0.277478 0.500000
O O14 0.073821 0.300450 0.770437
O O15 0.893422 0.289764 0.716581
O O16 0.293348 0.368449 0.500000
O O17 0.217946 0.345749 0.242425
O O18 0.733009 0.779568 0.500000
O O19 0.762455 0.742711 0.245555
O O20 0.189289 0.297656 0.000000
#
# Coordination Sequence:
#
# PCOD8224463 Si02
#       8
#     8   8   8   8   8   8   8   8
#     4  10  18  30  48  74 101 128 169 210 243 286
#     4   9  18  32  47  69 101 134 167 205 248 296
#     4   9  16  27  48  72  96 127 166 207 241 282
#     4   9  18  31  47  69 102 137 164 198 251 304
#     4  10  19  36  54  68  95 134 174 210 246 289
#     4  11  20  33  51  73  98 134 175 207 247 296
#     4  10  20  35  54  73  97 134 174 211 249 292
#     4  12  24  34  48  74 104 133 167 208 253 301
#
# _framework density 16.570004000000001
#
# number of rings (size 3 to 8) (size 9 to 14) (size 15 to 20)
#    0.000    2.000    3.750    2.250    0.000    1.500 
#    0.000    1.250    0.000    0.000    0.000    0.875 
#    0.000    7.000    0.000    0.000    0.000    0.000 
#
# Total GULP energy -793273.271028 kJ/mol
# GULP energy per Si atom -12394.894860 kJ/mol
# Density = 1.653229 g / cm^3
# Si number density = 16.570004 Si / 1000 Ang^3
#
#
#
# Elastic Constant Matrix: (Units=GPa)
#
#
# Indices 1 2 3 4 5 6 
#
# 1 179.2101 75.7260 36.4978 0.0000 0.0000 0.0000
# 2 75.7260 127.8756 41.2829 0.0000 0.0000 0.0000
# 3 36.4978 41.2829 60.6230 0.0000 0.0000 0.0000
# 4 0.0000 0.0000 0.0000 27.4375 0.0000 0.0000
# 5 0.0000 0.0000 0.0000 0.0000 18.2816 0.0000
# 6 0.0000 0.0000 0.0000 0.0000 0.0000 34.9748
#
#
#
# Elastic Compliance Matrix: (Units=1/GPa)
#
#
# Indices 1 2 3 4 5 6 
#
# 1 0.007616 -0.003884 -0.001941 0.000000 0.000000 0.000000
# 2 -0.003884 0.012004 -0.005836 0.000000 0.000000 0.000000
# 3 -0.001941 -0.005836 0.021638 0.000000 0.000000 0.000000
# 4 0.000000 0.000000 0.000000 0.036446 0.000000 0.000000
# 5 0.000000 0.000000 0.000000 0.000000 0.054700 0.000000
# 6 0.000000 0.000000 0.000000 0.000000 0.000000 0.028592
#
#
# Mechanical properties :
#
#
# Convention : Reuss Voigt Hill
#
# Bulk Modulus (GPa) = 55.75016 74.96911 65.35963
# Shear Modulus (GPa) = 26.27463 30.41893 28.34678
#
# Velocity S-wave (km/s) = 3.98637 4.28925 4.14058
# Velocity P-wave (km/s) = 7.40989 8.35897 7.89870
#
# Compressibility (1/GPa) = 0.01793717
#
# Stress axis : x y z
#
# Youngs Moduli (GPa) = 131.29591 83.30405 46.21461
#
# Poissons Ratio (x) = 0.32354 0.08969
# Poissons Ratio (y) = 0.50993 0.26973
# Poissons Ratio (z) = 0.25480 0.48619
#
# Static dielectric constant tensor:
#      x y z
#    x 2.995540 0.000000 0.000000 
#    y 0.000000 3.232630 0.000000 
#    z 0.000000 0.000000 2.911550 
# 
# 
# High freq. dielectric constant tensor:
#      x y z
#    x 1.612940 0.000000 0.000000 
#    y 0.000000 1.636930 0.000000 
#    z 0.000000 0.000000 1.624740 
# 
# From -- ./inp_files/6921.got.cif
#   From: 2010.03.12/outbox.cif.g09.slc.cpg/sg55_4_cif.got.tgz:6921.got - 2010.04.16 15:19:21.
