data_PCOD8224096
_publ_section_title
;
Structure prediction by ZEFSAII (Michael W. Deem and Ramdas Pophale) SiO2 
 PCOD8224096
Probable space group: P C C A
;
_chemical_formula_sum "Si O2"
_cell_formula_units_Z 24
_cell_length_a 9.895445
_cell_length_b 4.834724
_cell_length_c 20.343567
_cell_angle_alpha 90.000000
_cell_angle_beta 90.000000
_cell_angle_gamma 90.000000
_cell_volume 973.271754
_symmetry_space_group_name_H-M "P C C A"
_symmetry_group_IT_number 54
_symmetry_cell_setting 'orthorhombic'
loop_
_space_group_symop_operation_xyz
x,y,z
1/2-x,-y,z
1/2+x,-y,1/2-z
-x,y,1/2-z
-x,-y,-z
1/2+x,y,-z
1/2-x,y,1/2+z
x,-y,1/2+z
loop_
_atom_site_type_symbol
_atom_site_label
_atom_site_fract_x
_atom_site_fract_y
_atom_site_fract_z
Si Si1 0.601716 0.534572 0.693891
Si Si2 0.443701 0.973907 0.394249
Si Si3 0.374946 0.308223 0.018309
O O1 0.750000 0.500000 0.725744
O O2 0.500000 0.637413 0.750000
O O3 0.533104 0.269639 0.658748
O O4 0.630400 0.772493 0.640708
O O5 0.345836 0.871397 0.453066
O O6 0.586836 0.092014 0.423277
O O7 0.250000 0.500000 0.039726
O O8 0.500000 0.500000 0.000000
#
# Coordination Sequence:
#
# PCOD8224096 Si02
#       3
#     8   8   8
#     4  12  27  49  74 103 143 197 253 309 368 438
#     4  11  25  46  74 106 148 192 240 301 376 441
#     4  11  25  45  74 114 149 189 238 299 376 452
#
# _framework density 24.659096000000002
#
# number of rings (size 3 to 8) (size 9 to 14) (size 15 to 20)
#    0.000    0.667    3.333    3.000    4.667    5.333 
#    6.000    0.000    0.000    0.000    0.000    0.000 
#    0.000    0.000    0.000    0.000    0.000    0.000 
#
# Total GULP energy -297526.446469 kJ/mol
# GULP energy per Si atom -12396.935270 kJ/mol
# Density = 2.460297 g / cm^3
# Si number density = 24.659096 Si / 1000 Ang^3
#
#
#
# Elastic Constant Matrix: (Units=GPa)
#
#
# Indices 1 2 3 4 5 6 
#
# 1 118.1703 49.0003 57.8604 0.0000 0.0000 0.0000
# 2 49.0003 154.4574 34.1057 0.0000 0.0000 0.0000
# 3 57.8604 34.1057 95.1094 0.0000 0.0000 0.0000
# 4 0.0000 0.0000 0.0000 44.2834 0.0000 0.0000
# 5 0.0000 0.0000 0.0000 0.0000 13.6387 0.0000
# 6 0.0000 0.0000 0.0000 0.0000 0.0000 43.3803
#
#
#
# Elastic Compliance Matrix: (Units=1/GPa)
#
#
# Indices 1 2 3 4 5 6 
#
# 1 0.012927 -0.002568 -0.006943 0.000000 0.000000 0.000000
# 2 -0.002568 0.007541 -0.001142 0.000000 0.000000 0.000000
# 3 -0.006943 -0.001142 0.015148 0.000000 0.000000 0.000000
# 4 0.000000 0.000000 0.000000 0.022582 0.000000 0.000000
# 5 0.000000 0.000000 0.000000 0.000000 0.073321 0.000000
# 6 0.000000 0.000000 0.000000 0.000000 0.000000 0.023052
#
#
# Mechanical properties :
#
#
# Convention : Reuss Voigt Hill
#
# Bulk Modulus (GPa) = 69.88450 72.18555 71.03503
# Shear Modulus (GPa) = 27.67840 35.37852 31.52846
#
# Velocity S-wave (km/s) = 3.35392 3.79186 3.57959
# Velocity P-wave (km/s) = 6.58788 6.96476 6.77894
#
# Compressibility (1/GPa) = 0.01430932
#
# Stress axis : x y z
#
# Youngs Moduli (GPa) = 77.35852 132.60741 66.01631
#
# Poissons Ratio (x) = 0.34051 0.45837
# Poissons Ratio (y) = 0.19864 0.07539
# Poissons Ratio (z) = 0.53713 0.15145
#
# Static dielectric constant tensor:
#      x y z
#    x 6.512910 0.000000 0.000000 
#    y 0.000000 5.515870 0.000000 
#    z 0.000000 0.000000 4.368890 
# 
# 
# High freq. dielectric constant tensor:
#      x y z
#    x 1.973340 0.000000 0.000000 
#    y 0.000000 2.011010 0.000000 
#    z 0.000000 0.000000 1.964080 
# 
# From -- ./inp_files/16899.got.cif
#   From: 2010.03.12/outbox.cif.g09.slc.cpg/sg54_9_cif.got.tgz:16899.got - 2010.04.16 15:00:50.
