data_PCOD8224481
_publ_section_title
;
Structure prediction by ZEFSAII (Michael W. Deem and Ramdas Pophale) SiO2 
 PCOD8224481
Probable space group: P B A M
;
_chemical_formula_sum "Si O2"
_cell_formula_units_Z 64
_cell_length_a 20.063338
_cell_length_b 19.559033
_cell_length_c 9.150270
_cell_angle_alpha 90.000000
_cell_angle_beta 90.000000
_cell_angle_gamma 90.000000
_cell_volume 3590.744287
_symmetry_space_group_name_H-M "P B A M"
_symmetry_group_IT_number 55
_symmetry_cell_setting 'orthorhombic'
loop_
_space_group_symop_operation_xyz
x,y,z
-x,-y,z
1/2+x,1/2-y,-z
1/2-x,1/2+y,-z
-x,-y,-z
x,y,-z
1/2-x,1/2+y,z
1/2+x,1/2-y,z
loop_
_atom_site_type_symbol
_atom_site_label
_atom_site_fract_x
_atom_site_fract_y
_atom_site_fract_z
Si Si1 0.086635 0.808529 0.331791
Si Si2 0.341971 0.840044 0.667804
Si Si3 0.784894 0.180260 0.164183
Si Si4 0.303093 0.481338 0.834179
Si Si5 0.490859 0.813830 0.668533
Si Si6 0.172825 0.497314 0.672082
Si Si7 0.948858 0.440429 0.171719
Si Si8 0.432315 0.463870 0.329019
O O1 0.107677 0.806483 0.500000
O O2 0.152175 0.784748 0.243368
O O3 0.025707 0.758134 0.297733
O O4 0.062430 0.884056 0.286942
O O5 0.320877 0.833377 0.500000
O O6 0.285125 0.800933 0.759470
O O7 0.412467 0.804327 0.701179
O O8 0.347776 0.919765 0.710919
O O9 0.794021 0.099515 0.171747
O O10 0.782344 0.208201 0.000000
O O11 0.243890 0.516274 0.742826
O O12 0.372940 0.500608 0.758979
O O13 0.302104 0.508643 0.000000
O O14 0.501361 0.836975 0.500000
O O15 0.520927 0.869138 0.777162
O O16 0.176393 0.510235 0.500000
O O17 0.119470 0.547956 0.742413
O O18 0.000000 0.500000 0.213352
O O19 0.934213 0.438248 0.000000
O O20 0.500000 0.500000 0.279456
O O21 0.418307 0.474023 0.500000
#
# Coordination Sequence:
#
# PCOD8224481 Si02
#       8
#     8   8   8   8   8   8   8   8
#     4   9  18  33  53  75 100 130 168 211 254 303
#     4   9  17  29  48  73  97 126 166 212 253 292
#     4   9  17  29  48  72  98 127 164 207 250 300
#     4   9  17  29  47  74 103 130 164 207 255 303
#     4  10  20  34  52  74 100 133 173 213 255 303
#     4  10  18  30  50  72  99 132 170 213 250 292
#     4  11  22  33  48  73 105 138 170 207 252 302
#     4   9  17  31  53  79 104 131 167 211 259 309
#
# _framework density 17.823601
#
# number of rings (size 3 to 8) (size 9 to 14) (size 15 to 20)
#    0.000    2.500    1.250    1.500    0.000    5.250 
#    0.000    0.000    2.750    0.000    0.000    0.000 
#    0.000    0.000    0.000    0.000    0.000    0.000 
#
# Total GULP energy -793694.758978 kJ/mol
# GULP energy per Si atom -12401.480609 kJ/mol
# Density = 1.778303 g / cm^3
# Si number density = 17.823601 Si / 1000 Ang^3
#
#
#
# Elastic Constant Matrix: (Units=GPa)
#
#
# Indices 1 2 3 4 5 6 
#
# 1 166.2737 42.9118 74.0167 0.0000 0.0000 0.0000
# 2 42.9118 45.2017 29.1694 0.0000 0.0000 0.0000
# 3 74.0167 29.1694 94.2146 0.0000 0.0000 0.0000
# 4 0.0000 0.0000 0.0000 15.2920 0.0000 0.0000
# 5 0.0000 0.0000 0.0000 0.0000 24.3970 0.0000
# 6 0.0000 0.0000 0.0000 0.0000 0.0000 25.9907
#
#
#
# Elastic Compliance Matrix: (Units=1/GPa)
#
#
# Indices 1 2 3 4 5 6 
#
# 1 0.010302 -0.005695 -0.006330 0.000000 0.000000 0.000000
# 2 -0.005695 0.030795 -0.005060 0.000000 0.000000 0.000000
# 3 -0.006330 -0.005060 0.017154 0.000000 0.000000 0.000000
# 4 0.000000 0.000000 0.000000 0.065393 0.000000 0.000000
# 5 0.000000 0.000000 0.000000 0.000000 0.040989 0.000000
# 6 0.000000 0.000000 0.000000 0.000000 0.000000 0.038475
#
#
# Mechanical properties :
#
#
# Convention : Reuss Voigt Hill
#
# Bulk Modulus (GPa) = 41.52832 66.43178 53.98005
# Shear Modulus (GPa) = 20.38278 23.77542 22.07910
#
# Velocity S-wave (km/s) = 3.38536 3.65626 3.52342
# Velocity P-wave (km/s) = 6.21539 7.42813 6.84865
#
# Compressibility (1/GPa) = 0.02407995
#
# Stress axis : x y z
#
# Youngs Moduli (GPa) = 97.07075 32.47283 58.29630
#
# Poissons Ratio (x) = 0.18493 0.36902
# Poissons Ratio (y) = 0.55282 0.29499
# Poissons Ratio (z) = 0.61446 0.16432
#
# Static dielectric constant tensor:
#      x y z
#    x 3.465550 0.000000 0.000000 
#    y 0.000000 2.922850 0.000000 
#    z 0.000000 0.000000 3.361190 
# 
# 
# High freq. dielectric constant tensor:
#      x y z
#    x 1.703250 0.000000 0.000000 
#    y 0.000000 1.640410 0.000000 
#    z 0.000000 0.000000 1.694890 
# 
# From -- ./inp_files/8209.got.cif
#   From: 2010.03.12/outbox.cif.g09.slc.cpg/sg55_5_cif.got.tgz:8209.got - 2010.04.16 15:19:21.
