data_PCOD8224393
_publ_section_title
;
Structure prediction by ZEFSAII (Michael W. Deem and Ramdas Pophale) SiO2 
 PCOD8224393
Probable space group: P B A M
;
_chemical_formula_sum "Si O2"
_cell_formula_units_Z 64
_cell_length_a 29.973844
_cell_length_b 8.822692
_cell_length_c 13.709618
_cell_angle_alpha 90.000000
_cell_angle_beta 90.000000
_cell_angle_gamma 90.000000
_cell_volume 3625.508393
_symmetry_space_group_name_H-M "P B A M"
_symmetry_group_IT_number 55
_symmetry_cell_setting 'orthorhombic'
loop_
_space_group_symop_operation_xyz
x,y,z
-x,-y,z
1/2+x,1/2-y,-z
1/2-x,1/2+y,-z
-x,-y,-z
x,y,-z
1/2-x,1/2+y,z
1/2+x,1/2-y,z
loop_
_atom_site_type_symbol
_atom_site_label
_atom_site_fract_x
_atom_site_fract_y
_atom_site_fract_z
Si Si1 0.570921 0.291331 0.782506
Si Si2 0.116602 0.071653 0.387643
Si Si3 0.605912 0.554081 0.109420
Si Si4 0.203259 0.580826 0.616244
Si Si5 0.983919 0.218372 0.893057
Si Si6 0.705823 0.267467 0.385096
Si Si7 0.548289 0.960975 0.238328
Si Si8 0.377640 0.258772 0.294458
O O1 0.576456 0.350802 0.671953
O O2 0.607228 0.380387 0.850464
O O3 0.520734 0.329336 0.814658
O O4 0.577741 0.110045 0.785189
O O5 0.109086 0.111846 0.500000
O O6 0.163057 0.140599 0.346545
O O7 0.116408 0.891502 0.373131
O O8 0.553440 0.589787 0.105640
O O9 0.629478 0.669739 0.185539
O O10 0.627018 0.566416 0.000000
O O11 0.195805 0.600972 0.500000
O O12 0.203520 0.406117 0.648415
O O13 0.249270 0.654220 0.653762
O O14 0.164826 0.661019 0.677226
O O15 0.962357 0.380055 0.864521
O O16 0.005743 0.234561 0.000000
O O17 0.706780 0.278633 0.500000
O O18 0.578246 0.846676 0.302673
O O19 0.500000 0.000000 0.289589
#
# Coordination Sequence:
#
# PCOD8224393 Si02
#       8
#     8   8   8   8   8   8   8   8
#     4  10  18  28  48  71  94 125 161 202 247 297
#     4  10  20  34  50  70  99 132 167 206 250 301
#     4   9  18  31  48  71  97 125 161 205 251 293
#     4  10  18  30  51  78 105 130 159 198 244 293
#     4   9  17  30  49  72  97 124 158 207 260 300
#     4   9  18  31  50  78 106 129 158 199 245 294
#     4   9  19  32  47  68  98 129 165 208 254 304
#     4  10  19  32  51  72  97 132 166 204 248 293
#
# _framework density 17.652697
#
# number of rings (size 3 to 8) (size 9 to 14) (size 15 to 20)
#    0.000    2.500    0.000    2.625    0.000    6.750 
#    0.000    0.625    0.000   35.625    0.000    8.750 
#    0.000    0.000    0.000    0.000    0.000    0.000 
#
# Total GULP energy -793145.515969 kJ/mol
# GULP energy per Si atom -12392.898687 kJ/mol
# Density = 1.761252 g / cm^3
# Si number density = 17.652697 Si / 1000 Ang^3
#
#
#
# Elastic Constant Matrix: (Units=GPa)
#
#
# Indices 1 2 3 4 5 6 
#
# 1 92.3643 53.6502 47.6981 0.0000 0.0000 0.0000
# 2 53.6502 138.7333 35.4040 0.0000 0.0000 0.0000
# 3 47.6981 35.4040 89.8424 0.0000 0.0000 0.0000
# 4 0.0000 0.0000 0.0000 19.8427 0.0000 0.0000
# 5 0.0000 0.0000 0.0000 0.0000 17.7011 0.0000
# 6 0.0000 0.0000 0.0000 0.0000 0.0000 34.2978
#
#
#
# Elastic Compliance Matrix: (Units=1/GPa)
#
#
# Indices 1 2 3 4 5 6 
#
# 1 0.017450 -0.004874 -0.007344 0.000000 0.000000 0.000000
# 2 -0.004874 0.009375 -0.001107 0.000000 0.000000 0.000000
# 3 -0.007344 -0.001107 0.015466 0.000000 0.000000 0.000000
# 4 0.000000 0.000000 0.000000 0.050396 0.000000 0.000000
# 5 0.000000 0.000000 0.000000 0.000000 0.056494 0.000000
# 6 0.000000 0.000000 0.000000 0.000000 0.000000 0.029156
#
#
# Mechanical properties :
#
#
# Convention : Reuss Voigt Hill
#
# Bulk Modulus (GPa) = 63.93106 66.04942 64.99024
# Shear Modulus (GPa) = 23.78669 26.64747 25.21708
#
# Velocity S-wave (km/s) = 3.67479 3.88950 3.78367
# Velocity P-wave (km/s) = 7.36886 7.59396 7.48225
#
# Compressibility (1/GPa) = 0.01564185
#
# Stress axis : x y z
#
# Youngs Moduli (GPa) = 57.30562 106.66150 64.65957
#
# Poissons Ratio (x) = 0.51989 0.47484
# Poissons Ratio (y) = 0.27932 0.07157
# Poissons Ratio (z) = 0.42084 0.11805
#
# Static dielectric constant tensor:
#      x y z
#    x 3.246880 0.000000 0.000000 
#    y 0.000000 3.604660 0.000000 
#    z 0.000000 0.000000 3.162630 
# 
# 
# High freq. dielectric constant tensor:
#      x y z
#    x 1.658440 0.000000 0.000000 
#    y 0.000000 1.706050 0.000000 
#    z 0.000000 0.000000 1.653370 
# 
# From -- ./inp_files/17921.got.cif
#   From: 2010.03.12/outbox.cif.g09.slc.cpg/sg55_9_cif.got.tgz:17921.got - 2010.04.16 15:19:21.
