data_PCOD8224726
_publ_section_title
;
Structure prediction by ZEFSAII (Michael W. Deem and Ramdas Pophale) SiO2 
 PCOD8224726
Probable space group: P B A M
;
_chemical_formula_sum "Si O2"
_cell_formula_units_Z 48
_cell_length_a 22.140453
_cell_length_b 12.340572
_cell_length_c 8.567069
_cell_angle_alpha 90.000000
_cell_angle_beta 90.000000
_cell_angle_gamma 90.000000
_cell_volume 2340.744747
_symmetry_space_group_name_H-M "P B A M"
_symmetry_group_IT_number 55
_symmetry_cell_setting 'orthorhombic'
loop_
_space_group_symop_operation_xyz
x,y,z
-x,-y,z
1/2+x,1/2-y,-z
1/2-x,1/2+y,-z
-x,-y,-z
x,y,-z
1/2-x,1/2+y,z
1/2+x,1/2-y,z
loop_
_atom_site_type_symbol
_atom_site_label
_atom_site_fract_x
_atom_site_fract_y
_atom_site_fract_z
Si Si1 0.694382 0.581894 0.185660
Si Si2 0.567537 0.976469 0.184736
Si Si3 0.637172 0.361039 0.185340
Si Si4 0.827375 0.630613 0.814857
Si Si5 0.396956 0.252166 0.680838
Si Si6 0.003455 0.127273 0.826008
O O1 0.665277 0.471515 0.255094
O O2 0.764164 0.578798 0.239149
O O3 0.662519 0.687936 0.255594
O O4 0.687688 0.588704 0.000000
O O5 0.592030 0.859163 0.229609
O O6 0.500000 0.000000 0.252786
O O7 0.615503 0.063869 0.253577
O O8 0.565130 0.985309 0.000000
O O9 0.672918 0.255190 0.244486
O O10 0.568751 0.342135 0.241550
O O11 0.638686 0.372500 0.000000
O O12 0.832348 0.629268 0.000000
O O13 0.388642 0.227258 0.500000
O O14 0.454162 0.329475 0.706739
O O15 0.992986 0.177502 0.000000
O O16 0.000000 0.000000 0.839124
#
# Coordination Sequence:
#
# PCOD8224726 Si02
#       6
#     8   8   8   8   8   8
#     4  10  20  36  59  87 117 153 197 245 296 348
#     4  10  21  40  66  93 119 151 199 254 304 355
#     4   9  17  32  56  88 117 142 183 244 301 345
#     4   9  19  33  59  92 116 146 194 250 298 347
#     4  12  25  38  56  85 125 163 197 237 293 361
#     4  10  18  34  59  84 111 147 194 246 296 338
#
# _framework density 20.506294
#
# number of rings (size 3 to 8) (size 9 to 14) (size 15 to 20)
#    0.000    2.000    1.667    2.500    2.333    3.333 
#    0.000    0.833    0.000    2.000    0.000    0.000 
#    0.000    0.000    0.000    0.000    0.000    0.000 
#
# Total GULP energy -595093.014267 kJ/mol
# GULP energy per Si atom -12397.771131 kJ/mol
# Density = 2.045962 g / cm^3
# Si number density = 20.506294 Si / 1000 Ang^3
#
#
#
# Elastic Constant Matrix: (Units=GPa)
#
#
# Indices 1 2 3 4 5 6 
#
# 1 149.3335 59.1611 15.1837 0.0000 0.0000 0.0000
# 2 59.1611 119.4103 -0.0449 0.0000 0.0000 0.0000
# 3 15.1837 -0.0449 15.7137 0.0000 0.0000 0.0000
# 4 0.0000 0.0000 0.0000 8.7985 0.0000 0.0000
# 5 0.0000 0.0000 0.0000 0.0000 17.9470 0.0000
# 6 0.0000 0.0000 0.0000 0.0000 0.0000 33.8226
#
#
#
# Elastic Compliance Matrix: (Units=1/GPa)
#
#
# Indices 1 2 3 4 5 6 
#
# 1 0.009496 -0.004708 -0.009189 0.000000 0.000000 0.000000
# 2 -0.004708 0.010709 0.004580 0.000000 0.000000 0.000000
# 3 -0.009189 0.004580 0.072531 0.000000 0.000000 0.000000
# 4 0.000000 0.000000 0.000000 0.113656 0.000000 0.000000
# 5 0.000000 0.000000 0.000000 0.000000 0.055720 0.000000
# 6 0.000000 0.000000 0.000000 0.000000 0.000000 0.029566
#
#
# Mechanical properties :
#
#
# Convention : Reuss Voigt Hill
#
# Bulk Modulus (GPa) = 13.49503 48.11747 30.80625
# Shear Modulus (GPa) = 14.92482 26.12414 20.52448
#
# Velocity S-wave (km/s) = 2.70073 3.57313 3.16711
# Velocity P-wave (km/s) = 4.03986 6.36700 5.33194
#
# Compressibility (1/GPa) = 0.07410133
#
# Stress axis : x y z
#
# Youngs Moduli (GPa) = 105.30793 93.38075 13.78718
#
# Poissons Ratio (x) = 0.43965 0.12669
# Poissons Ratio (y) = 0.49581 -0.06315
# Poissons Ratio (z) = 0.96769 -0.42768
#
# Static dielectric constant tensor:
#      x y z
#    x 4.356190 0.000000 0.000000 
#    y 0.000000 3.879210 0.000000 
#    z 0.000000 0.000000 3.182120 
# 
# 
# High freq. dielectric constant tensor:
#      x y z
#    x 1.815800 0.000000 0.000000 
#    y 0.000000 1.814520 0.000000 
#    z 0.000000 0.000000 1.740840 
# 
# From -- ./inp_files/9429.got.cif
#   From: 2010.03.12/outbox.cif.g09.slc.cpg/sg55_5_cif.got.tgz:9429.got - 2010.04.16 15:19:21.
