data_PCOD8224177
_publ_section_title
;
Structure prediction by ZEFSAII (Michael W. Deem and Ramdas Pophale) SiO2 
 PCOD8224177
Probable space group: P C C A
;
_chemical_formula_sum "Si O2"
_cell_formula_units_Z 20
_cell_length_a 5.002561
_cell_length_b 13.556266
_cell_length_c 11.726176
_cell_angle_alpha 90.000000
_cell_angle_beta 90.000000
_cell_angle_gamma 90.000000
_cell_volume 795.222910
_symmetry_space_group_name_H-M "P C C A"
_symmetry_group_IT_number 54
_symmetry_cell_setting 'orthorhombic'
loop_
_space_group_symop_operation_xyz
x,y,z
1/2-x,-y,z
1/2+x,-y,1/2-z
-x,y,1/2-z
-x,-y,-z
1/2+x,y,-z
1/2-x,y,1/2+z
x,-y,1/2+z
loop_
_atom_site_type_symbol
_atom_site_label
_atom_site_fract_x
_atom_site_fract_y
_atom_site_fract_z
Si Si1 0.500000 0.653776 0.750000
Si Si2 0.250000 0.500000 0.584731
Si Si3 0.250000 0.000000 0.826693
Si Si4 0.756044 0.791554 0.070943
O O1 0.300309 0.591503 0.669380
O O2 0.303367 0.723202 0.820988
O O3 0.500000 0.500000 0.500000
O O4 0.313740 0.906034 0.903873
O O5 0.500000 0.029404 0.750000
O O6 0.457004 0.766184 0.032114
#
# Coordination Sequence:
#
# PCOD8224177 Si02
#       4
#     4   4   4   8
#     4  12  28  52  82 112 158 198 262 326 386 462
#     4  12  28  52  80 112 150 200 256 324 398 460
#     4  12  24  48  76 110 160 206 250 312 378 448
#     4  12  27  47  77 114 155 204 255 310 382 456
#
# _framework density 25.150182000000001
#
# number of rings (size 3 to 8) (size 9 to 14) (size 15 to 20)
#    0.000    0.000    2.000    7.200    0.000    6.400 
#    0.000    0.000    0.000    0.000    0.000    0.000 
#    0.000    0.000    0.000    0.000    0.000    0.000 
#
# Total GULP energy -248071.179803 kJ/mol
# GULP energy per Si atom -12403.558990 kJ/mol
# Density = 2.509294 g / cm^3
# Si number density = 25.150182 Si / 1000 Ang^3
#
#
#
# Elastic Constant Matrix: (Units=GPa)
#
#
# Indices 1 2 3 4 5 6 
#
# 1 136.0082 36.5002 52.8881 0.0000 0.0000 0.0000
# 2 36.5002 163.2299 78.9850 0.0000 0.0000 0.0000
# 3 52.8881 78.9850 151.2091 0.0000 0.0000 0.0000
# 4 0.0000 0.0000 0.0000-2871.3155 0.0000 0.0000
# 5 0.0000 0.0000 0.0000 0.0000 26.8156 0.0000
# 6 0.0000 0.0000 0.0000 0.0000 0.0000 -92.2811
#
#
#
# Elastic Compliance Matrix: (Units=1/GPa)
#
#
# Indices 1 2 3 4 5 6 
#
# 1 0.008557 -0.000623 -0.002668 0.000000 0.000000 0.000000
# 2 -0.000623 0.008244 -0.004089 0.000000 0.000000 0.000000
# 3 -0.002668 -0.004089 0.009682 0.000000 0.000000 0.000000
# 4 0.000000 0.000000 0.000000 -0.000348 0.000000 0.000000
# 5 0.000000 0.000000 0.000000 0.000000 0.037292 0.000000
# 6 0.000000 0.000000 0.000000 0.000000 0.000000 -0.010836
#
#
# Mechanical properties :
#
#
# Convention : Reuss Voigt Hill
#
# Bulk Modulus (GPa) = 85.28529 87.46599 86.37564
# Shear Modulus (GPa) = 70.16942 -568.55129 -249.19094
#
# Velocity S-wave (km/s) = 5.28779 -15.05169 -9.96475
# Velocity P-wave (km/s) = 8.44186 16.34680 9.89831
#
# Compressibility (1/GPa) = 0.01172535
#
# Stress axis : x y z
#
# Youngs Moduli (GPa) = 116.86410 121.30150 103.28323
#
# Poissons Ratio (x) = 0.07552 0.27553
# Poissons Ratio (y) = 0.07275 0.42228
# Poissons Ratio (z) = 0.31176 0.49594
#
# Static dielectric constant tensor:
#      x y z
#    x 4.360880 0.000000 0.000000 
#    y 0.000000 4.761120 0.000000 
#    z 0.000000 0.000000 4.872630 
# 
# 
# High freq. dielectric constant tensor:
#      x y z
#    x 2.013230 0.000000 0.000000 
#    y 0.000000 2.020410 0.000000 
#    z 0.000000 0.000000 2.022460 
# 
# From -- ./inp_files/2320.got.cif
#   From: 2010.03.12/outbox.cif.g09.slc.cpg/sg54_2_cif.got.tgz:2320.got - 2010.04.16 15:00:50.
