data_PCOD8224477
_publ_section_title
;
Structure prediction by ZEFSAII (Michael W. Deem and Ramdas Pophale) SiO2 
 PCOD8224477
Probable space group: P B A M
;
_chemical_formula_sum "Si O2"
_cell_formula_units_Z 56
_cell_length_a 23.561752
_cell_length_b 10.651828
_cell_length_c 12.711789
_cell_angle_alpha 90.000000
_cell_angle_beta 90.000000
_cell_angle_gamma 90.000000
_cell_volume 3190.350520
_symmetry_space_group_name_H-M "P B A M"
_symmetry_group_IT_number 55
_symmetry_cell_setting 'orthorhombic'
loop_
_space_group_symop_operation_xyz
x,y,z
-x,-y,z
1/2+x,1/2-y,-z
1/2-x,1/2+y,-z
-x,-y,-z
x,y,-z
1/2-x,1/2+y,z
1/2+x,1/2-y,z
loop_
_atom_site_type_symbol
_atom_site_label
_atom_site_fract_x
_atom_site_fract_y
_atom_site_fract_z
Si Si1 0.562206 0.559641 0.877895
Si Si2 0.188683 0.309527 0.620821
Si Si3 0.125705 0.085453 0.711936
Si Si4 0.416935 0.231317 0.277812
Si Si5 0.816695 0.147310 0.620293
Si Si6 0.025935 0.221346 0.618935
Si Si7 0.584743 0.023900 0.620645
O O1 0.500000 0.500000 0.858448
O O2 0.613421 0.476423 0.826207
O O3 0.566695 0.704035 0.833748
O O4 0.576276 0.566644 0.000000
O O5 0.187069 0.256850 0.500000
O O6 0.164434 0.210029 0.706228
O O7 0.251442 0.348094 0.656766
O O8 0.150221 0.433683 0.626287
O O9 0.061975 0.115074 0.676095
O O10 0.158005 0.990392 0.635302
O O11 0.352020 0.255524 0.309284
O O12 0.459547 0.300556 0.359777
O O13 0.426151 0.082226 0.290384
O O14 0.821874 0.188892 0.500000
O O15 0.042551 0.203796 0.500000
O O16 0.043480 0.362367 0.653759
O O17 0.571231 0.977240 0.500000
#
# Coordination Sequence:
#
# PCOD8224477 Si02
#       7
#     8   8   8   8   8   8   8
#     4  10  21  39  58  76  99 130 175 229 284 322
#     4   9  19  33  50  75 112 149 176 202 240 306
#     4  10  19  34  53  75 101 139 180 215 261 306
#     4  11  20  31  51  78 101 135 178 215 260 315
#     4  10  20  29  46  76 109 144 174 207 246 300
#     4  10  18  30  49  77 114 146 168 201 247 314
#     4   9  18  31  48  73 109 149 174 195 240 306
#
# _framework density 17.552931000000001
#
# number of rings (size 3 to 8) (size 9 to 14) (size 15 to 20)
#    0.000    2.143    1.429    3.857    2.000    1.143 
#    0.000    2.143    0.000    8.571    0.000    0.000 
#    0.000    0.000    0.000    0.000    0.000    0.000 
#
# Total GULP energy -693806.422724 kJ/mol
# GULP energy per Si atom -12389.400406 kJ/mol
# Density = 1.751298 g / cm^3
# Si number density = 17.552931 Si / 1000 Ang^3
#
#
#
# Elastic Constant Matrix: (Units=GPa)
#
#
# Indices 1 2 3 4 5 6 
#
# 1 100.5783 12.1978 30.3895 0.0000 0.0000 0.0000
# 2 12.1978 69.2770 46.3507 0.0000 0.0000 0.0000
# 3 30.3895 46.3507 82.0405 0.0000 0.0000 0.0000
# 4 0.0000 0.0000 0.0000 23.6275 0.0000 0.0000
# 5 0.0000 0.0000 0.0000 0.0000 18.5414 0.0000
# 6 0.0000 0.0000 0.0000 0.0000 0.0000 13.1548
#
#
#
# Elastic Compliance Matrix: (Units=1/GPa)
#
#
# Indices 1 2 3 4 5 6 
#
# 1 0.011268 0.001300 -0.004908 0.000000 0.000000 0.000000
# 2 0.001300 0.023357 -0.013678 0.000000 0.000000 0.000000
# 3 -0.004908 -0.013678 0.021735 0.000000 0.000000 0.000000
# 4 0.000000 0.000000 0.000000 0.042324 0.000000 0.000000
# 5 0.000000 0.000000 0.000000 0.000000 0.053933 0.000000
# 6 0.000000 0.000000 0.000000 0.000000 0.000000 0.076018
#
#
# Mechanical properties :
#
#
# Convention : Reuss Voigt Hill
#
# Bulk Modulus (GPa) = 45.89732 47.75242 46.82487
# Shear Modulus (GPa) = 18.48634 21.92857 20.20745
#
# Velocity S-wave (km/s) = 3.24879 3.53835 3.39666
# Velocity P-wave (km/s) = 6.34646 6.63002 6.48979
#
# Compressibility (1/GPa) = 0.02178777
#
# Stress axis : x y z
#
# Youngs Moduli (GPa) = 88.74782 42.81329 46.00905
#
# Poissons Ratio (x) = -0.05566 0.22583
# Poissons Ratio (y) = -0.11537 0.62930
# Poissons Ratio (z) = 0.43560 0.58559
#
# Static dielectric constant tensor:
#      x y z
#    x 3.478400 0.000000 0.000000 
#    y 0.000000 3.347030 0.000000 
#    z 0.000000 0.000000 2.861120 
# 
# 
# High freq. dielectric constant tensor:
#      x y z
#    x 1.693150 0.000000 0.000000 
#    y 0.000000 1.681430 0.000000 
#    z 0.000000 0.000000 1.621890 
# 
# From -- ./inp_files/15711.got.cif
#   From: 2010.03.12/outbox.cif.g09.slc.cpg/sg55_8_cif.got.tgz:15711.got - 2010.04.16 15:19:21.
