data_PCOD8224997
_publ_section_title
;
Structure prediction by ZEFSAII (Michael W. Deem and Ramdas Pophale) SiO2 
 PCOD8224997
Probable space group: P B A M
;
_chemical_formula_sum "Si O2"
_cell_formula_units_Z 64
_cell_length_a 23.052302
_cell_length_b 18.896116
_cell_length_c 9.026847
_cell_angle_alpha 90.000000
_cell_angle_beta 90.000000
_cell_angle_gamma 90.000000
_cell_volume 3932.085280
_symmetry_space_group_name_H-M "P B A M"
_symmetry_group_IT_number 55
_symmetry_cell_setting 'orthorhombic'
loop_
_space_group_symop_operation_xyz
x,y,z
-x,-y,z
1/2+x,1/2-y,-z
1/2-x,1/2+y,-z
-x,-y,-z
x,y,-z
1/2-x,1/2+y,z
1/2+x,1/2-y,z
loop_
_atom_site_type_symbol
_atom_site_label
_atom_site_fract_x
_atom_site_fract_y
_atom_site_fract_z
Si Si1 0.938850 0.861633 0.172437
Si Si2 0.660674 0.256207 0.829884
Si Si3 0.168407 0.773527 0.326523
Si Si4 0.380304 0.506921 0.672079
Si Si5 0.257458 0.498499 0.175585
Si Si6 0.271744 0.154281 0.171848
Si Si7 0.942530 0.139416 0.328756
Si Si8 0.720258 0.137087 0.325672
O O1 0.901633 0.790867 0.200344
O O2 0.003407 0.844057 0.224282
O O3 0.913489 0.925194 0.268090
O O4 0.937469 0.883226 0.000000
O O5 0.708963 0.314205 0.785927
O O6 0.667253 0.186499 0.728506
O O7 0.667867 0.233100 0.000000
O O8 0.170948 0.762945 0.500000
O O9 0.176995 0.696576 0.253907
O O10 0.107676 0.806897 0.276496
O O11 0.219564 0.826332 0.276369
O O12 0.364922 0.517404 0.500000
O O13 0.321621 0.492689 0.759527
O O14 0.422612 0.440818 0.695039
O O15 0.228117 0.572717 0.221473
O O16 0.216503 0.438079 0.243759
O O17 0.261926 0.490705 0.000000
O O18 0.284424 0.161859 0.000000
O O19 0.959098 0.152234 0.500000
O O20 0.715995 0.124914 0.500000
#
# Coordination Sequence:
#
# PCOD8224997 Si02
#       8
#     8   8   8   8   8   8   8   8
#     4  11  22  35  50  72  99 131 174 210 243 292
#     4   9  18  34  49  68  98 129 162 205 247 287
#     4   9  18  33  49  69  97 127 163 205 244 288
#     4  11  21  34  49  68 100 138 173 208 242 286
#     4  11  20  32  50  74 103 134 164 202 249 297
#     4   9  18  32  49  70  97 126 161 201 245 294
#     4  10  21  36  49  68  99 134 170 206 245 287
#     4  10  19  32  50  74  98 126 166 203 245 299
#
# _framework density 16.276350999999998
#
# number of rings (size 3 to 8) (size 9 to 14) (size 15 to 20)
#    0.000    2.000    2.500    1.875    0.000    5.500 
#    0.000    0.000    0.000    0.000    0.000    0.875 
#    0.000    7.000    0.000    0.000    0.000    0.000 
#
# Total GULP energy -793755.672791 kJ/mol
# GULP energy per Si atom -12402.432387 kJ/mol
# Density = 1.623931 g / cm^3
# Si number density = 16.276351 Si / 1000 Ang^3
#
#
#
# Elastic Constant Matrix: (Units=GPa)
#
#
# Indices 1 2 3 4 5 6 
#
# 1 52.1135 33.1155 25.6129 0.0000 0.0000 0.0000
# 2 33.1155 99.1999 45.4104 0.0000 0.0000 0.0000
# 3 25.6129 45.4104 62.6998 0.0000 0.0000 0.0000
# 4 0.0000 0.0000 0.0000 29.8911 0.0000 0.0000
# 5 0.0000 0.0000 0.0000 0.0000 27.4792 0.0000
# 6 0.0000 0.0000 0.0000 0.0000 0.0000 20.9991
#
#
#
# Elastic Compliance Matrix: (Units=1/GPa)
#
#
# Indices 1 2 3 4 5 6 
#
# 1 0.026007 -0.005712 -0.006487 0.000000 0.000000 0.000000
# 2 -0.005712 0.016335 -0.009497 0.000000 0.000000 0.000000
# 3 -0.006487 -0.009497 0.025477 0.000000 0.000000 0.000000
# 4 0.000000 0.000000 0.000000 0.033455 0.000000 0.000000
# 5 0.000000 0.000000 0.000000 0.000000 0.036391 0.000000
# 6 0.000000 0.000000 0.000000 0.000000 0.000000 0.047621
#
#
# Mechanical properties :
#
#
# Convention : Reuss Voigt Hill
#
# Bulk Modulus (GPa) = 40.93877 46.92118 43.92997
# Shear Modulus (GPa) = 21.11302 22.99884 22.05593
#
# Velocity S-wave (km/s) = 3.60552 3.76310 3.68515
# Velocity P-wave (km/s) = 6.52226 6.91170 6.71980
#
# Compressibility (1/GPa) = 0.02442672
#
# Stress axis : x y z
#
# Youngs Moduli (GPa) = 38.45138 61.21797 39.25095
#
# Poissons Ratio (x) = 0.34970 0.25460
# Poissons Ratio (y) = 0.21965 0.37277
# Poissons Ratio (z) = 0.24942 0.58140
#
# Static dielectric constant tensor:
#      x y z
#    x 2.950260 0.000000 0.000000 
#    y 0.000000 3.175850 0.000000 
#    z 0.000000 0.000000 3.123760 
# 
# 
# High freq. dielectric constant tensor:
#      x y z
#    x 1.598170 0.000000 0.000000 
#    y 0.000000 1.622690 0.000000 
#    z 0.000000 0.000000 1.635600 
# 
# From -- ./inp_files/7988.got.cif
#   From: 2010.03.12/outbox.cif.g09.slc.cpg/sg55_4_cif.got.tgz:7988.got - 2010.04.16 15:19:21.
