data_PCOD8224526
_publ_section_title
;
Structure prediction by ZEFSAII (Michael W. Deem and Ramdas Pophale) SiO2 
 PCOD8224526
Probable space group: P B A M
;
_chemical_formula_sum "Si O2"
_cell_formula_units_Z 48
_cell_length_a 20.378352
_cell_length_b 14.657125
_cell_length_c 9.250934
_cell_angle_alpha 90.000000
_cell_angle_beta 90.000000
_cell_angle_gamma 90.000000
_cell_volume 2763.143461
_symmetry_space_group_name_H-M "P B A M"
_symmetry_group_IT_number 55
_symmetry_cell_setting 'orthorhombic'
loop_
_space_group_symop_operation_xyz
x,y,z
-x,-y,z
1/2+x,1/2-y,-z
1/2-x,1/2+y,-z
-x,-y,-z
x,y,-z
1/2-x,1/2+y,z
1/2+x,1/2-y,z
loop_
_atom_site_type_symbol
_atom_site_label
_atom_site_fract_x
_atom_site_fract_y
_atom_site_fract_z
Si Si1 0.549620 0.077074 0.832423
Si Si2 0.978672 0.781908 0.168111
Si Si3 0.445471 0.425423 0.670383
Si Si4 0.818895 0.605776 0.331174
Si Si5 0.848038 0.808131 0.666433
Si Si6 0.806596 0.002166 0.668751
O O1 0.515008 0.174015 0.804119
O O2 0.616805 0.067223 0.745443
O O3 0.500000 0.000000 0.776356
O O4 0.566870 0.063754 0.000000
O O5 0.910855 0.818513 0.232876
O O6 0.038864 0.830934 0.248417
O O7 0.980350 0.806376 0.000000
O O8 0.500000 0.500000 0.711734
O O9 0.444623 0.407105 0.500000
O O10 0.375207 0.459405 0.730146
O O11 0.826807 0.584814 0.500000
O O12 0.809765 0.714062 0.302376
O O13 0.755707 0.554636 0.262788
O O14 0.872422 0.812683 0.500000
O O15 0.800461 0.893672 0.700492
O O16 0.805904 0.022382 0.500000
#
# Coordination Sequence:
#
# PCOD8224526 Si02
#       6
#     8   8   8   8   8   8
#     4   9  19  37  56  71  97 136 168 200 253 308
#     4  10  19  31  50  75  99 124 165 213 247 286
#     4  10  18  31  51  73 100 136 167 194 246 309
#     4   9  18  32  52  76  98 126 168 212 244 285
#     4   9  16  31  52  68  94 134 166 194 245 304
#     4   9  17  31  49  72 101 131 163 200 246 297
#
# _framework density 17.371517999999998
#
# number of rings (size 3 to 8) (size 9 to 14) (size 15 to 20)
#    0.000    2.667    1.667    0.500    0.000    1.333 
#    3.000    1.667    0.000    0.000    0.000    0.000 
#    0.000    0.000    0.000    0.000    0.000    0.000 
#
# Total GULP energy -595136.755736 kJ/mol
# GULP energy per Si atom -12398.682411 kJ/mol
# Density = 1.733198 g / cm^3
# Si number density = 17.371518 Si / 1000 Ang^3
#
#
#
# Elastic Constant Matrix: (Units=GPa)
#
#
# Indices 1 2 3 4 5 6 
#
# 1 136.4972 91.0706 41.1511 0.0000 0.0000 0.0000
# 2 91.0706 130.5859 41.4921 0.0000 0.0000 0.0000
# 3 41.1511 41.4921 44.2994 0.0000 0.0000 0.0000
# 4 0.0000 0.0000 0.0000 23.0981 0.0000 0.0000
# 5 0.0000 0.0000 0.0000 0.0000 10.7584 0.0000
# 6 0.0000 0.0000 0.0000 0.0000 0.0000 34.5106
#
#
#
# Elastic Compliance Matrix: (Units=1/GPa)
#
#
# Indices 1 2 3 4 5 6 
#
# 1 0.014665 -0.008398 -0.005757 0.000000 0.000000 0.000000
# 2 -0.008398 0.015712 -0.006915 0.000000 0.000000 0.000000
# 3 -0.005757 -0.006915 0.034398 0.000000 0.000000 0.000000
# 4 0.000000 0.000000 0.000000 0.043294 0.000000 0.000000
# 5 0.000000 0.000000 0.000000 0.000000 0.092951 0.000000
# 6 0.000000 0.000000 0.000000 0.000000 0.000000 0.028977
#
#
# Mechanical properties :
#
#
# Convention : Reuss Voigt Hill
#
# Bulk Modulus (GPa) = 44.17902 73.20112 58.69007
# Shear Modulus (GPa) = 17.87759 22.85135 20.36447
#
# Velocity S-wave (km/s) = 3.21149 3.63085 3.42759
# Velocity P-wave (km/s) = 6.26407 7.73353 7.03726
#
# Compressibility (1/GPa) = 0.02263518
#
# Stress axis : x y z
#
# Youngs Moduli (GPa) = 68.18979 63.64659 29.07164
#
# Poissons Ratio (x) = 0.53452 0.16736
# Poissons Ratio (y) = 0.57267 0.20102
# Poissons Ratio (z) = 0.39255 0.44010
#
# Static dielectric constant tensor:
#      x y z
#    x 3.255430 0.000000 0.000000 
#    y 0.000000 3.419150 0.000000 
#    z 0.000000 0.000000 3.063830 
# 
# 
# High freq. dielectric constant tensor:
#      x y z
#    x 1.655250 0.000000 0.000000 
#    y 0.000000 1.680350 0.000000 
#    z 0.000000 0.000000 1.650590 
# 
# From -- ./inp_files/5797.got.cif
#   From: 2010.03.12/outbox.cif.g09.slc.cpg/sg55_3_cif.got.tgz:5797.got - 2010.04.16 15:19:21.
