data_PCOD8224070
_publ_section_title
;
Structure prediction by ZEFSAII (Michael W. Deem and Ramdas Pophale) SiO2 
 PCOD8224070
Probable space group: P C C A
;
_chemical_formula_sum "Si O2"
_cell_formula_units_Z 48
_cell_length_a 16.998920
_cell_length_b 8.868993
_cell_length_c 13.795023
_cell_angle_alpha 90.000000
_cell_angle_beta 90.000000
_cell_angle_gamma 90.000000
_cell_volume 2079.783225
_symmetry_space_group_name_H-M "P C C A"
_symmetry_group_IT_number 54
_symmetry_cell_setting 'orthorhombic'
loop_
_space_group_symop_operation_xyz
x,y,z
1/2-x,-y,z
1/2+x,-y,1/2-z
-x,y,1/2-z
-x,-y,-z
1/2+x,y,-z
1/2-x,y,1/2+z
x,-y,1/2+z
loop_
_atom_site_type_symbol
_atom_site_label
_atom_site_fract_x
_atom_site_fract_y
_atom_site_fract_z
Si Si1 0.250000 0.500000 0.988375
Si Si2 0.578856 0.033770 0.130297
Si Si3 0.881725 0.793865 0.795308
Si Si4 0.594888 0.952742 0.921276
Si Si5 0.288702 0.715739 0.659316
Si Si6 0.371816 0.364163 0.340582
Si Si7 0.000000 0.460785 0.250000
O O1 0.224016 0.636802 0.056448
O O2 0.176236 0.451453 0.922965
O O3 0.631019 0.184101 0.141637
O O4 0.588787 0.917318 0.217655
O O5 0.490180 0.096362 0.119196
O O6 0.603086 0.935072 0.036498
O O7 0.893639 0.869008 0.900530
O O8 0.790359 0.757010 0.782413
O O9 0.932561 0.643030 0.796037
O O10 0.661458 0.864426 0.863099
O O11 0.334773 0.606956 0.733643
O O12 0.459803 0.435407 0.333717
#
# Coordination Sequence:
#
# PCOD8224070 Si02
#       7
#     4   8   8   8   8   8   4
#     4  12  28  50  72 114 162 194 258 310 390 474
#     4  11  25  45  76 109 147 196 256 320 376 451
#     4  12  24  48  73 108 147 196 254 316 377 455
#     4  11  24  45  74 111 144 190 260 317 374 450
#     4  12  27  47  74 112 154 199 253 316 388 455
#     4  12  27  48  75 108 154 199 250 313 387 459
#     4  12  26  44  80 100 148 208 244 306 396 450
#
# _framework density 23.079328
#
# number of rings (size 3 to 8) (size 9 to 14) (size 15 to 20)
#    0.000    0.333    3.333    5.000    4.667    0.000 
#    0.000    5.000    0.000    0.000    0.000    0.000 
#    0.000    0.000    0.000    0.000    0.000    0.000 
#
# Total GULP energy -595221.207284 kJ/mol
# GULP energy per Si atom -12400.441818 kJ/mol
# Density = 2.302680 g / cm^3
# Si number density = 23.079328 Si / 1000 Ang^3
#
#
#
# Elastic Constant Matrix: (Units=GPa)
#
#
# Indices 1 2 3 4 5 6 
#
# 1 117.9162 31.1980 61.0969 0.0000 0.0000 0.0000
# 2 31.1980 89.0721 49.2290 0.0000 0.0000 0.0000
# 3 61.0969 49.2290 119.5285 0.0000 0.0000 0.0000
# 4 0.0000 0.0000 0.0000 28.9661 0.0000 0.0000
# 5 0.0000 0.0000 0.0000 0.0000 38.8559 0.0000
# 6 0.0000 0.0000 0.0000 0.0000 0.0000 42.8101
#
#
#
# Elastic Compliance Matrix: (Units=1/GPa)
#
#
# Indices 1 2 3 4 5 6 
#
# 1 0.011607 -0.001018 -0.005513 0.000000 0.000000 0.000000
# 2 -0.001018 0.014625 -0.005503 0.000000 0.000000 0.000000
# 3 -0.005513 -0.005503 0.013451 0.000000 0.000000 0.000000
# 4 0.000000 0.000000 0.000000 0.034523 0.000000 0.000000
# 5 0.000000 0.000000 0.000000 0.000000 0.025736 0.000000
# 6 0.000000 0.000000 0.000000 0.000000 0.000000 0.023359
#
#
# Mechanical properties :
#
#
# Convention : Reuss Voigt Hill
#
# Bulk Modulus (GPa) = 64.04774 67.72941 65.88857
# Shear Modulus (GPa) = 32.77094 34.45928 33.61511
#
# Velocity S-wave (km/s) = 3.77228 3.86823 3.82056
# Velocity P-wave (km/s) = 6.83994 7.02574 6.93346
#
# Compressibility (1/GPa) = 0.01561335
#
# Stress axis : x y z
#
# Youngs Moduli (GPa) = 86.15723 68.37654 74.34465
#
# Poissons Ratio (x) = 0.06961 0.40989
# Poissons Ratio (y) = 0.08772 0.40912
# Poissons Ratio (z) = 0.47502 0.37628
#
# Static dielectric constant tensor:
#      x y z
#    x 4.341030 0.000000 0.000000 
#    y 0.000000 4.112430 0.000000 
#    z 0.000000 0.000000 4.158050 
# 
# 
# High freq. dielectric constant tensor:
#      x y z
#    x 1.923040 0.000000 0.000000 
#    y 0.000000 1.918510 0.000000 
#    z 0.000000 0.000000 1.913950 
# 
# From -- ./inp_files/14175.got.cif
#   From: 2010.03.12/outbox.cif.g09.slc.cpg/sg54_8_cif.got.tgz:14175.got - 2010.04.16 15:00:50.
