data_PCOD8224774
_publ_section_title
;
Structure prediction by ZEFSAII (Michael W. Deem and Ramdas Pophale) SiO2 
 PCOD8224774
Probable space group: P B A M
;
_chemical_formula_sum "Si O2"
_cell_formula_units_Z 64
_cell_length_a 18.145110
_cell_length_b 26.681739
_cell_length_c 9.136536
_cell_angle_alpha 90.000000
_cell_angle_beta 90.000000
_cell_angle_gamma 90.000000
_cell_volume 4423.390763
_symmetry_space_group_name_H-M "P B A M"
_symmetry_group_IT_number 55
_symmetry_cell_setting 'orthorhombic'
loop_
_space_group_symop_operation_xyz
x,y,z
-x,-y,z
1/2+x,1/2-y,-z
1/2-x,1/2+y,-z
-x,-y,-z
x,y,-z
1/2-x,1/2+y,z
1/2+x,1/2-y,z
loop_
_atom_site_type_symbol
_atom_site_label
_atom_site_fract_x
_atom_site_fract_y
_atom_site_fract_z
Si Si1 0.075496 0.256730 0.332117
Si Si2 0.419895 0.944464 0.672239
Si Si3 0.085380 0.557102 0.326848
Si Si4 0.283236 0.293411 0.169335
Si Si5 0.168600 0.644078 0.826617
Si Si6 0.784902 0.799779 0.670113
Si Si7 0.172426 0.351327 0.673599
Si Si8 0.425884 0.239865 0.833776
O O1 0.055452 0.263819 0.500000
O O2 0.126960 0.207420 0.307534
O O3 0.116302 0.307263 0.278481
O O4 0.999379 0.247914 0.251709
O O5 0.426270 0.940312 0.500000
O O6 0.502231 0.933108 0.730703
O O7 0.362118 0.903521 0.730623
O O8 0.392841 0.000032 0.714704
O O9 0.093369 0.567016 0.500000
O O10 0.140014 0.592238 0.237762
O O11 0.250440 0.250675 0.270814
O O12 0.249946 0.344645 0.238321
O O13 0.371858 0.288280 0.181593
O O14 0.258990 0.287026 0.000000
O O15 0.250509 0.653740 0.760092
O O16 0.114703 0.689381 0.776868
O O17 0.175800 0.640804 0.000000
O O18 0.765303 0.806311 0.500000
O O19 0.187655 0.350944 0.500000
O O20 0.448806 0.230977 0.000000
#
# Coordination Sequence:
#
# PCOD8224774 Si02
#       8
#     8   8   8   8   8   8   8   8
#     4   9  17  26  40  61  80  99 131 168 198 231
#     4   8  15  27  43  61  80 104 140 175 202 233
#     4   9  16  28  44  59  78 108 139 171 205 235
#     4   9  17  28  39  56  80 105 133 164 196 235
#     4  10  19  29  40  58  82 108 137 168 199 237
#     4   9  17  29  42  57  76 102 134 166 198 235
#     4   9  16  27  41  58  79 105 136 168 197 232
#     4   9  18  28  38  54  79 107 133 160 194 234
#
# _framework density 14.468538000000001
#
# number of rings (size 3 to 8) (size 9 to 14) (size 15 to 20)
#    0.000    3.000    0.000    4.125    0.000    6.500 
#    0.000    2.500    0.000    0.000    0.000    0.000 
#    0.000    1.000    0.000   11.250    0.000    5.625 
#
# Total GULP energy -793044.211644 kJ/mol
# GULP energy per Si atom -12391.315807 kJ/mol
# Density = 1.443561 g / cm^3
# Si number density = 14.468538 Si / 1000 Ang^3
#
#
#
# Elastic Constant Matrix: (Units=GPa)
#
#
# Indices 1 2 3 4 5 6 
#
# 1 85.2530 51.3240 43.2890 0.0000 0.0000 0.0000
# 2 51.3240 86.9644 33.3043 0.0000 0.0000 0.0000
# 3 43.2890 33.3043 56.8564 0.0000 0.0000 0.0000
# 4 0.0000 0.0000 0.0000 15.1150 0.0000 0.0000
# 5 0.0000 0.0000 0.0000 0.0000 21.2874 0.0000
# 6 0.0000 0.0000 0.0000 0.0000 0.0000 27.1262
#
#
#
# Elastic Compliance Matrix: (Units=1/GPa)
#
#
# Indices 1 2 3 4 5 6 
#
# 1 0.023642 -0.009101 -0.012669 0.000000 0.000000 0.000000
# 2 -0.009101 0.018328 -0.003807 0.000000 0.000000 0.000000
# 3 -0.012669 -0.003807 0.029464 0.000000 0.000000 0.000000
# 4 0.000000 0.000000 0.000000 0.066159 0.000000 0.000000
# 5 0.000000 0.000000 0.000000 0.000000 0.046976 0.000000
# 6 0.000000 0.000000 0.000000 0.000000 0.000000 0.036865
#
#
# Mechanical properties :
#
#
# Convention : Reuss Voigt Hill
#
# Bulk Modulus (GPa) = 49.30937 53.87871 51.59404
# Shear Modulus (GPa) = 17.89885 19.44949 18.67417
#
# Velocity S-wave (km/s) = 3.52104 3.67039 3.59649
# Velocity P-wave (km/s) = 7.11932 7.43517 7.27896
#
# Compressibility (1/GPa) = 0.02028012
#
# Stress axis : x y z
#
# Youngs Moduli (GPa) = 42.29792 54.56186 33.93962
#
# Poissons Ratio (x) = 0.49656 0.42999
# Poissons Ratio (y) = 0.38495 0.12919
# Poissons Ratio (z) = 0.53589 0.20770
#
# Static dielectric constant tensor:
#      x y z
#    x 3.006600 0.000000 0.000000 
#    y 0.000000 2.918140 0.000000 
#    z 0.000000 0.000000 2.795150 
# 
# 
# High freq. dielectric constant tensor:
#      x y z
#    x 1.539630 0.000000 0.000000 
#    y 0.000000 1.522890 0.000000 
#    z 0.000000 0.000000 1.552320 
# 
# From -- ./inp_files/8219.got.cif
#   From: 2010.03.12/outbox.cif.g09.slc.cpg/sg55_5_cif.got.tgz:8219.got - 2010.04.16 15:19:21.
