data_PCOD8224603
_publ_section_title
;
Structure prediction by ZEFSAII (Michael W. Deem and Ramdas Pophale) SiO2 
 PCOD8224603
Probable space group: P B A M
;
_chemical_formula_sum "Si O2"
_cell_formula_units_Z 56
_cell_length_a 19.272300
_cell_length_b 19.329666
_cell_length_c 8.608509
_cell_angle_alpha 90.000000
_cell_angle_beta 90.000000
_cell_angle_gamma 90.000000
_cell_volume 3206.903083
_symmetry_space_group_name_H-M "P B A M"
_symmetry_group_IT_number 55
_symmetry_cell_setting 'orthorhombic'
loop_
_space_group_symop_operation_xyz
x,y,z
-x,-y,z
1/2+x,1/2-y,-z
1/2-x,1/2+y,-z
-x,-y,-z
x,y,-z
1/2-x,1/2+y,z
1/2+x,1/2-y,z
loop_
_atom_site_type_symbol
_atom_site_label
_atom_site_fract_x
_atom_site_fract_y
_atom_site_fract_z
Si Si1 0.335833 0.240329 0.180043
Si Si2 0.227540 0.341580 0.317857
Si Si3 0.944153 0.053246 0.317054
Si Si4 0.293046 0.481079 0.315667
Si Si5 0.479039 0.302187 0.821072
Si Si6 0.258402 0.632821 0.683464
Si Si7 0.367960 0.735206 0.818757
O O1 0.297041 0.299182 0.278316
O O2 0.418082 0.246533 0.210035
O O3 0.309758 0.165165 0.235900
O O4 0.316874 0.250623 0.000000
O O5 0.213384 0.335436 0.500000
O O6 0.239043 0.421088 0.265706
O O7 0.161438 0.310661 0.227164
O O8 0.940779 0.043718 0.500000
O O9 0.868821 0.035918 0.244093
O O10 0.967106 0.130618 0.281279
O O11 0.000000 0.000000 0.244895
O O12 0.299468 0.483211 0.500000
O O13 0.266437 0.554769 0.252630
O O14 0.551316 0.266789 0.772475
O O15 0.479899 0.325305 0.000000
O O16 0.247940 0.634213 0.500000
O O17 0.327105 0.676068 0.725355
O O18 0.356351 0.722050 0.000000
#
# Coordination Sequence:
#
# PCOD8224603 Si02
#       7
#     8   8   8   8   8   8   8
#     4  10  19  33  50  72  98 129 168 207 245 292
#     4  10  18  32  52  73  96 128 166 206 247 293
#     4  10  19  31  49  73 103 135 164 197 242 299
#     4   9  18  31  48  73 102 128 160 203 247 292
#     4  10  21  34  49  70 101 135 165 203 248 292
#     4  10  19  33  52  74  99 130 164 203 249 295
#     4  10  20  34  49  71 101 131 165 206 245 290
#
# _framework density 17.462330000000001
#
# number of rings (size 3 to 8) (size 9 to 14) (size 15 to 20)
#    0.000    2.143    1.429    4.286    0.000    3.143 
#    0.000    4.286    0.000    0.857    0.000    6.000 
#    0.000    0.000    0.000    0.000    0.000    0.000 
#
# Total GULP energy -694366.084394 kJ/mol
# GULP energy per Si atom -12399.394364 kJ/mol
# Density = 1.742258 g / cm^3
# Si number density = 17.462330 Si / 1000 Ang^3
#
#
#
# Elastic Constant Matrix: (Units=GPa)
#
#
# Indices 1 2 3 4 5 6 
#
# 1 123.2901 74.9770 14.7599 0.0000 0.0000 0.0000
# 2 74.9770 128.0535 15.0257 0.0000 0.0000 0.0000
# 3 14.7599 15.0257 26.5956 0.0000 0.0000 0.0000
# 4 0.0000 0.0000 0.0000 7.1537 0.0000 0.0000
# 5 0.0000 0.0000 0.0000 0.0000 20.9203 0.0000
# 6 0.0000 0.0000 0.0000 0.0000 0.0000 26.6495
#
#
#
# Elastic Compliance Matrix: (Units=1/GPa)
#
#
# Indices 1 2 3 4 5 6 
#
# 1 0.012827 -0.007149 -0.003080 0.000000 0.000000 0.000000
# 2 -0.007149 0.012348 -0.003009 0.000000 0.000000 0.000000
# 3 -0.003080 -0.003009 0.041009 0.000000 0.000000 0.000000
# 4 0.000000 0.000000 0.000000 0.139789 0.000000 0.000000
# 5 0.000000 0.000000 0.000000 0.000000 0.047800 0.000000
# 6 0.000000 0.000000 0.000000 0.000000 0.000000 0.037524
#
#
# Mechanical properties :
#
#
# Convention : Reuss Voigt Hill
#
# Bulk Modulus (GPa) = 25.18297 54.16269 39.67283
# Shear Modulus (GPa) = 15.10528 22.48980 18.79754
#
# Velocity S-wave (km/s) = 2.94431 3.59263 3.28451
# Velocity P-wave (km/s) = 5.10012 6.94936 6.09528
#
# Compressibility (1/GPa) = 0.03970938
#
# Stress axis : x y z
#
# Youngs Moduli (GPa) = 77.95867 80.98337 24.38476
#
# Poissons Ratio (x) = 0.57896 0.07510
# Poissons Ratio (y) = 0.55734 0.07337
# Poissons Ratio (z) = 0.24009 0.24366
#
# Static dielectric constant tensor:
#      x y z
#    x 3.408640 0.000000 0.000000 
#    y 0.000000 3.355800 0.000000 
#    z 0.000000 0.000000 3.141000 
# 
# 
# High freq. dielectric constant tensor:
#      x y z
#    x 1.667960 0.000000 0.000000 
#    y 0.000000 1.665530 0.000000 
#    z 0.000000 0.000000 1.669330 
# 
# From -- ./inp_files/7878.got.cif
#   From: 2010.03.12/outbox.cif.g09.slc.cpg/sg55_4_cif.got.tgz:7878.got - 2010.04.16 15:19:21.
