data_PCOD8224011
_publ_section_title
;
Structure prediction by ZEFSAII (Michael W. Deem and Ramdas Pophale) SiO2 
 PCOD8224011
Probable space group: P C C A
;
_chemical_formula_sum "Si O2"
_cell_formula_units_Z 56
_cell_length_a 7.778147
_cell_length_b 13.243799
_cell_length_c 23.526765
_cell_angle_alpha 90.000000
_cell_angle_beta 90.000000
_cell_angle_gamma 90.000000
_cell_volume 2423.544185
_symmetry_space_group_name_H-M "P C C A"
_symmetry_group_IT_number 54
_symmetry_cell_setting 'orthorhombic'
loop_
_space_group_symop_operation_xyz
x,y,z
1/2-x,-y,z
1/2+x,-y,1/2-z
-x,y,1/2-z
-x,-y,-z
1/2+x,y,-z
1/2-x,y,1/2+z
x,-y,1/2+z
loop_
_atom_site_type_symbol
_atom_site_label
_atom_site_fract_x
_atom_site_fract_y
_atom_site_fract_z
Si Si1 0.228564 0.383204 0.604533
Si Si2 0.464692 0.312048 0.813915
Si Si3 0.780302 0.751064 0.506796
Si Si4 0.951238 0.900756 0.966888
Si Si5 0.624609 0.704007 0.625904
Si Si6 0.459831 0.120979 0.188873
Si Si7 0.564101 0.098499 0.836527
O O1 0.250000 0.500000 0.591291
O O2 0.383015 0.346673 0.644689
O O3 0.227086 0.327081 0.544480
O O4 0.045253 0.364414 0.635283
O O5 0.500000 0.352218 0.750000
O O6 0.277294 0.346873 0.836575
O O7 0.448466 0.190155 0.814308
O O8 0.736568 0.867877 0.488196
O O9 0.679231 0.704751 0.560210
O O10 0.971563 0.784782 0.525058
O O11 0.962096 0.928603 0.901768
O O12 0.000000 0.000000 0.000000
O O13 0.575845 0.819041 0.643328
O O14 0.500000 0.170796 0.250000
O O15 0.260247 0.130690 0.173673
O O16 0.505160 0.002252 0.193680
#
# Coordination Sequence:
#
# PCOD8224011 Si02
#       7
#     8   8   8   8   8   8   8
#     4  12  29  54  78 110 151 193 255 327 390 454
#     4  12  26  50  78 110 149 197 252 314 379 462
#     4  12  23  46  69 110 147 192 250 304 380 454
#     4  12  24  38  67 105 153 196 238 300 372 450
#     4  12  25  47  78 107 151 196 250 316 387 448
#     4  11  24  41  69 105 149 210 251 301 373 447
#     4  11  23  43  65 105 156 194 254 300 364 453
#
# _framework density 23.106653999999999
#
# number of rings (size 3 to 8) (size 9 to 14) (size 15 to 20)
#    0.000    0.286    5.714    2.571    4.000    2.857 
#    2.571    0.000    0.000    0.000    0.000    0.000 
#    0.000    0.000    0.000    0.000    0.000    0.000 
#
# Total GULP energy -694085.845393 kJ/mol
# GULP energy per Si atom -12394.390096 kJ/mol
# Density = 2.305406 g / cm^3
# Si number density = 23.106654 Si / 1000 Ang^3
#
#
#
# Elastic Constant Matrix: (Units=GPa)
#
#
# Indices 1 2 3 4 5 6 
#
# 1 138.1392 49.4504 60.5765 0.0000 0.0000 0.0000
# 2 49.4504 104.5253 33.6759 0.0000 0.0000 0.0000
# 3 60.5765 33.6759 159.7425 0.0000 0.0000 0.0000
# 4 0.0000 0.0000 0.0000 25.4756 0.0000 0.0000
# 5 0.0000 0.0000 0.0000 0.0000 36.8364 0.0000
# 6 0.0000 0.0000 0.0000 0.0000 0.0000 17.6530
#
#
#
# Elastic Compliance Matrix: (Units=1/GPa)
#
#
# Indices 1 2 3 4 5 6 
#
# 1 0.009866 -0.003714 -0.002958 0.000000 0.000000 0.000000
# 2 -0.003714 0.011663 -0.001050 0.000000 0.000000 0.000000
# 3 -0.002958 -0.001050 0.007603 0.000000 0.000000 0.000000
# 4 0.000000 0.000000 0.000000 0.039253 0.000000 0.000000
# 5 0.000000 0.000000 0.000000 0.000000 0.027147 0.000000
# 6 0.000000 0.000000 0.000000 0.000000 0.000000 0.056647
#
#
# Mechanical properties :
#
#
# Convention : Reuss Voigt Hill
#
# Bulk Modulus (GPa) = 73.06560 76.64582 74.85571
# Shear Modulus (GPa) = 29.03813 33.23996 31.13905
#
# Velocity S-wave (km/s) = 3.54884 3.79693 3.67498
# Velocity P-wave (km/s) = 6.96290 7.24325 7.10446
#
# Compressibility (1/GPa) = 0.01368633
#
# Stress axis : x y z
#
# Youngs Moduli (GPa) = 101.35812 85.74372 131.52258
#
# Poissons Ratio (x) = 0.31849 0.38908
# Poissons Ratio (y) = 0.37649 0.13811
# Poissons Ratio (z) = 0.29984 0.09004
#
# Static dielectric constant tensor:
#      x y z
#    x 4.566460 0.000000 0.000000 
#    y 0.000000 3.915400 0.000000 
#    z 0.000000 0.000000 4.094970 
# 
# 
# High freq. dielectric constant tensor:
#      x y z
#    x 1.935070 0.000000 0.000000 
#    y 0.000000 1.887970 0.000000 
#    z 0.000000 0.000000 1.923840 
# 
# From -- ./inp_files/20535.got.cif
#   From: 2010.03.12/outbox.cif.g09.slc.cpg/sg54_11_cif.got.tgz:20535.got - 2010.04.16 15:00:50.
