data_PCOD8224593
_publ_section_title
;
Structure prediction by ZEFSAII (Michael W. Deem and Ramdas Pophale) SiO2 
 PCOD8224593
Probable space group: P B A M
;
_chemical_formula_sum "Si O2"
_cell_formula_units_Z 64
_cell_length_a 14.200033
_cell_length_b 30.142926
_cell_length_c 9.102532
_cell_angle_alpha 90.000000
_cell_angle_beta 90.000000
_cell_angle_gamma 90.000000
_cell_volume 3896.161723
_symmetry_space_group_name_H-M "P B A M"
_symmetry_group_IT_number 55
_symmetry_cell_setting 'orthorhombic'
loop_
_space_group_symop_operation_xyz
x,y,z
-x,-y,z
1/2+x,1/2-y,-z
1/2-x,1/2+y,-z
-x,-y,-z
x,y,-z
1/2-x,1/2+y,z
1/2+x,1/2-y,z
loop_
_atom_site_type_symbol
_atom_site_label
_atom_site_fract_x
_atom_site_fract_y
_atom_site_fract_z
Si Si1 0.973153 0.277539 0.332009
Si Si2 0.849961 0.865346 0.171322
Si Si3 0.514189 0.675570 0.663415
Si Si4 0.392686 0.452722 0.326101
Si Si5 0.724743 0.782221 0.173084
Si Si6 0.393473 0.550871 0.326537
Si Si7 0.289957 0.366329 0.670183
Si Si8 0.845283 0.696332 0.173738
O O1 0.966985 0.293954 0.500000
O O2 0.006515 0.227118 0.322957
O O3 0.872722 0.283227 0.257603
O O4 0.051490 0.305290 0.245268
O O5 0.776553 0.827610 0.219104
O O6 0.827316 0.912151 0.250518
O O7 0.954140 0.850133 0.216439
O O8 0.847189 0.873659 0.000000
O O9 0.487202 0.657961 0.500000
O O10 0.623693 0.667296 0.692624
O O11 0.397082 0.450998 0.500000
O O12 0.359536 0.501734 0.275306
O O13 0.498728 0.442429 0.271850
O O14 0.319973 0.415188 0.270421
O O15 0.787702 0.740230 0.222966
O O16 0.705394 0.779821 0.000000
O O17 0.383912 0.555921 0.500000
O O18 0.258288 0.367871 0.500000
O O19 0.205839 0.348078 0.769682
O O20 0.856628 0.694502 0.000000
#
# Coordination Sequence:
#
# PCOD8224593 Si02
#       8
#     8   8   8   8   8   8   8   8
#     4  11  22  35  52  73  96 127 170 216 247 277
#     4  11  21  32  47  71 101 136 169 201 243 294
#     4  10  19  30  48  71  98 130 166 207 244 281
#     4   8  15  28  49  71  98 131 164 202 248 293
#     4  10  22  36  49  68  99 136 168 198 244 298
#     4   9  16  30  49  71  97 131 167 202 246 294
#     4  10  18  32  50  73  99 131 172 208 239 285
#     4  11  22  35  50  71 101 136 165 199 248 300
#
# _framework density 16.426423
#
# number of rings (size 3 to 8) (size 9 to 14) (size 15 to 20)
#    0.000    2.000    3.750    1.875    0.000    2.500 
#    0.000    1.875    0.000    0.000    0.000    0.875 
#    0.000    7.000    0.000    0.000    0.000    0.000 
#
# Total GULP energy -793461.981296 kJ/mol
# GULP energy per Si atom -12397.843458 kJ/mol
# Density = 1.638904 g / cm^3
# Si number density = 16.426423 Si / 1000 Ang^3
#
#
#
# Elastic Constant Matrix: (Units=GPa)
#
#
# Indices 1 2 3 4 5 6 
#
# 1 66.1097 29.9359 35.6353 0.0000 0.0000 0.0000
# 2 29.9359 97.1021 36.1353 0.0000 0.0000 0.0000
# 3 35.6353 36.1353 50.6630 0.0000 0.0000 0.0000
# 4 0.0000 0.0000 0.0000 23.0143 0.0000 0.0000
# 5 0.0000 0.0000 0.0000 0.0000 27.8058 0.0000
# 6 0.0000 0.0000 0.0000 0.0000 0.0000 25.5381
#
#
#
# Elastic Compliance Matrix: (Units=1/GPa)
#
#
# Indices 1 2 3 4 5 6 
#
# 1 0.024535 -0.001554 -0.016149 0.000000 0.000000 0.000000
# 2 -0.001554 0.014118 -0.008976 0.000000 0.000000 0.000000
# 3 -0.016149 -0.008976 0.037499 0.000000 0.000000 0.000000
# 4 0.000000 0.000000 0.000000 0.043451 0.000000 0.000000
# 5 0.000000 0.000000 0.000000 0.000000 0.035964 0.000000
# 6 0.000000 0.000000 0.000000 0.000000 0.000000 0.039157
#
#
# Mechanical properties :
#
#
# Convention : Reuss Voigt Hill
#
# Bulk Modulus (GPa) = 43.87237 46.36532 45.11884
# Shear Modulus (GPa) = 19.55562 22.74954 21.15258
#
# Velocity S-wave (km/s) = 3.45410 3.72551 3.59237
# Velocity P-wave (km/s) = 6.53255 6.84056 6.68833
#
# Compressibility (1/GPa) = 0.02279339
#
# Stress axis : x y z
#
# Youngs Moduli (GPa) = 40.75826 70.83118 26.66719
#
# Poissons Ratio (x) = 0.11010 0.43064
# Poissons Ratio (y) = 0.06336 0.23937
# Poissons Ratio (z) = 0.65819 0.63580
#
# Static dielectric constant tensor:
#      x y z
#    x 2.856030 0.000000 0.000000 
#    y 0.000000 3.390370 0.000000 
#    z 0.000000 0.000000 2.990470 
# 
# 
# High freq. dielectric constant tensor:
#      x y z
#    x 1.601890 0.000000 0.000000 
#    y 0.000000 1.631620 0.000000 
#    z 0.000000 0.000000 1.624450 
# 
# From -- ./inp_files/6904.got.cif
#   From: 2010.03.12/outbox.cif.g09.slc.cpg/sg55_4_cif.got.tgz:6904.got - 2010.04.16 15:19:21.
