data_PCOD8224959
_publ_section_title
;
Structure prediction by ZEFSAII (Michael W. Deem and Ramdas Pophale) SiO2 
 PCOD8224959
Probable space group: P B A M
;
_chemical_formula_sum "Si O2"
_cell_formula_units_Z 64
_cell_length_a 19.687703
_cell_length_b 19.829868
_cell_length_c 9.374195
_cell_angle_alpha 90.000000
_cell_angle_beta 90.000000
_cell_angle_gamma 90.000000
_cell_volume 3659.728397
_symmetry_space_group_name_H-M "P B A M"
_symmetry_group_IT_number 55
_symmetry_cell_setting 'orthorhombic'
loop_
_space_group_symop_operation_xyz
x,y,z
-x,-y,z
1/2+x,1/2-y,-z
1/2-x,1/2+y,-z
-x,-y,-z
x,y,-z
1/2-x,1/2+y,z
1/2+x,1/2-y,z
loop_
_atom_site_type_symbol
_atom_site_label
_atom_site_fract_x
_atom_site_fract_y
_atom_site_fract_z
Si Si1 0.581747 0.195262 0.163419
Si Si2 0.321963 0.921436 0.833689
Si Si3 0.547097 0.838375 0.662772
Si Si4 0.572795 0.470551 0.334696
Si Si5 0.950133 0.843164 0.167831
Si Si6 0.314392 0.418683 0.336678
Si Si7 0.921856 0.484344 0.663766
Si Si8 0.081892 0.808267 0.664013
O O1 0.651190 0.154761 0.194119
O O2 0.521979 0.160003 0.249512
O O3 0.590679 0.274069 0.203562
O O4 0.559790 0.188784 0.000000
O O5 0.248768 0.929637 0.765060
O O6 0.373633 0.974792 0.767650
O O7 0.315799 0.937370 0.000000
O O8 0.522748 0.839628 0.500000
O O9 0.591402 0.904856 0.695536
O O10 0.591573 0.771453 0.695167
O O11 0.500000 0.500000 0.288548
O O12 0.572272 0.449903 0.500000
O O13 0.589900 0.404462 0.241488
O O14 0.629922 0.525149 0.300554
O O15 0.025340 0.839046 0.232933
O O16 0.955851 0.856303 0.000000
O O17 0.290051 0.424379 0.500000
O O18 0.346957 0.345252 0.306040
O O19 0.904473 0.502577 0.500000
O O20 0.000000 0.500000 0.698052
O O21 0.059221 0.821737 0.500000
#
# Coordination Sequence:
#
# PCOD8224959 Si02
#       8
#     8   8   8   8   8   8   8   8
#     4   9  19  34  50  74 108 141 173 215 265 314
#     4  11  23  37  54  76 107 147 184 220 267 327
#     4   9  17  30  54  82 106 132 173 223 264 310
#     4  10  19  35  56  80 108 140 177 221 272 321
#     4  10  19  31  52  81 109 136 172 220 265 312
#     4  10  21  37  56  76 105 142 179 223 270 322
#     4  10  19  33  54  83 112 140 177 225 271 315
#     4   9  17  33  54  77 104 138 175 217 267 317
#
# _framework density 17.487635999999998
#
# number of rings (size 3 to 8) (size 9 to 14) (size 15 to 20)
#    0.000    2.250    2.500    0.750    0.000    3.000 
#    0.000    1.250    0.000    4.500    0.000    0.000 
#    0.000    0.000    0.000    0.000    0.000    0.000 
#
# Total GULP energy -793561.613123 kJ/mol
# GULP energy per Si atom -12399.400205 kJ/mol
# Density = 1.744783 g / cm^3
# Si number density = 17.487636 Si / 1000 Ang^3
#
#
#
# Elastic Constant Matrix: (Units=GPa)
#
#
# Indices 1 2 3 4 5 6 
#
# 1 104.3907 60.1292 60.1943 0.0000 0.0000 0.0000
# 2 60.1292 124.7436 61.9149 0.0000 0.0000 0.0000
# 3 60.1943 61.9149 87.6188 0.0000 0.0000 0.0000
# 4 0.0000 0.0000 0.0000 27.7150 0.0000 0.0000
# 5 0.0000 0.0000 0.0000 0.0000 -10.3793 0.0000
# 6 0.0000 0.0000 0.0000 0.0000 0.0000 20.3766
#
#
#
# Elastic Compliance Matrix: (Units=1/GPa)
#
#
# Indices 1 2 3 4 5 6 
#
# 1 0.016888 -0.003668 -0.009010 0.000000 0.000000 0.000000
# 2 -0.003668 0.013144 -0.006768 0.000000 0.000000 0.000000
# 3 -0.009010 -0.006768 0.022385 0.000000 0.000000 0.000000
# 4 0.000000 0.000000 0.000000 0.036082 0.000000 0.000000
# 5 0.000000 0.000000 0.000000 0.000000 -0.096346 0.000000
# 6 0.000000 0.000000 0.000000 0.000000 0.000000 0.049076
#
#
# Mechanical properties :
#
#
# Convention : Reuss Voigt Hill
#
# Bulk Modulus (GPa) = 73.93719 75.69221 74.81470
# Shear Modulus (GPa) = 59.08261 16.51011 37.79636
#
# Velocity S-wave (km/s) = 5.81882 3.07596 4.65404
# Velocity P-wave (km/s) = 9.35502 7.48282 8.47080
#
# Compressibility (1/GPa) = 0.01352499
#
# Stress axis : x y z
#
# Youngs Moduli (GPa) = 59.21534 76.08179 44.67289
#
# Poissons Ratio (x) = 0.27910 0.40248
# Poissons Ratio (y) = 0.21723 0.30233
# Poissons Ratio (z) = 0.53350 0.51490
#
# Static dielectric constant tensor:
#      x y z
#    x 2.981720 0.000000 0.000000 
#    y 0.000000 3.685410 0.000000 
#    z 0.000000 0.000000 3.283480 
# 
# 
# High freq. dielectric constant tensor:
#      x y z
#    x 1.640310 0.000000 0.000000 
#    y 0.000000 1.693860 0.000000 
#    z 0.000000 0.000000 1.678430 
# 
# From -- ./inp_files/7948.got.cif
#   From: 2010.03.12/outbox.cif.g09.slc.cpg/sg55_4_cif.got.tgz:7948.got - 2010.04.16 15:19:21.
