data_PCOD8224266
_publ_section_title
;
Structure prediction by ZEFSAII (Michael W. Deem and Ramdas Pophale) SiO2 
 PCOD8224266
Probable space group: P B A M
;
_chemical_formula_sum "Si O2"
_cell_formula_units_Z 56
_cell_length_a 29.099514
_cell_length_b 15.290305
_cell_length_c 8.814348
_cell_angle_alpha 90.000000
_cell_angle_beta 90.000000
_cell_angle_gamma 90.000000
_cell_volume 3921.859916
_symmetry_space_group_name_H-M "P B A M"
_symmetry_group_IT_number 55
_symmetry_cell_setting 'orthorhombic'
loop_
_space_group_symop_operation_xyz
x,y,z
-x,-y,z
1/2+x,1/2-y,-z
1/2-x,1/2+y,-z
-x,-y,-z
x,y,-z
1/2-x,1/2+y,z
1/2+x,1/2-y,z
loop_
_atom_site_type_symbol
_atom_site_label
_atom_site_fract_x
_atom_site_fract_y
_atom_site_fract_z
Si Si1 0.481306 0.097801 0.171569
Si Si2 0.782895 0.603937 0.673594
Si Si3 0.568659 0.155938 0.324642
Si Si4 0.737619 0.290464 0.326968
Si Si5 0.204275 0.564797 0.178755
Si Si6 0.605877 0.961765 0.675640
Si Si7 0.847561 0.725929 0.820969
O O1 0.517933 0.161328 0.252880
O O2 0.433035 0.103404 0.259746
O O3 0.500000 0.000000 0.175973
O O4 0.473995 0.130106 0.000000
O O5 0.798009 0.585813 0.500000
O O6 0.747642 0.686646 0.680667
O O7 0.764786 0.514106 0.748588
O O8 0.828203 0.630470 0.770499
O O9 0.565334 0.180256 0.500000
O O10 0.600456 0.229097 0.242080
O O11 0.589758 0.060447 0.297795
O O12 0.736853 0.324031 0.500000
O O13 0.774003 0.343664 0.229506
O O14 0.685842 0.299057 0.256590
O O15 0.152538 0.558502 0.236257
O O16 0.206092 0.558008 0.000000
O O17 0.613519 0.940559 0.500000
O O18 0.847023 0.738523 0.000000
#
# Coordination Sequence:
#
# PCOD8224266 Si02
#       7
#     8   8   8   8   8   8   8
#     4   9  17  26  36  52  75  99 133 174 206 235
#     4   9  18  31  44  58  80 108 139 172 208 251
#     4  10  17  26  40  55  75 106 138 166 206 247
#     4   9  19  32  44  59  82 108 140 175 211 253
#     4  12  21  28  45  64  83 111 143 178 214 249
#     4  10  18  27  38  53  77 105 138 170 202 247
#     4  10  17  27  42  59  79 100 134 174 206 239
#
# _framework density 14.27894
#
# number of rings (size 3 to 8) (size 9 to 14) (size 15 to 20)
#    0.857    1.286    1.429    4.286    0.000    2.857 
#    0.000    0.000    0.000    0.000    0.000    0.000 
#    0.000    0.000    0.000    1.286    0.000   23.857 
#
# Total GULP energy -693834.300700 kJ/mol
# GULP energy per Si atom -12389.898227 kJ/mol
# Density = 1.424644 g / cm^3
# Si number density = 14.278940 Si / 1000 Ang^3
#
#
#
# Elastic Constant Matrix: (Units=GPa)
#
#
# Indices 1 2 3 4 5 6 
#
# 1 26.1925 27.5922 20.0673 0.0000 0.0000 0.0000
# 2 27.5922 39.2231 26.4104 0.0000 0.0000 0.0000
# 3 20.0673 26.4104 107.5964 0.0000 0.0000 0.0000
# 4 0.0000 0.0000 0.0000 17.6831 0.0000 0.0000
# 5 0.0000 0.0000 0.0000 0.0000 27.6690 0.0000
# 6 0.0000 0.0000 0.0000 0.0000 0.0000 15.8882
#
#
#
# Elastic Compliance Matrix: (Units=1/GPa)
#
#
# Indices 1 2 3 4 5 6 
#
# 1 0.147980 -0.102448 -0.002452 0.000000 0.000000 0.000000
# 2 -0.102448 0.101469 -0.005799 0.000000 0.000000 0.000000
# 3 -0.002452 -0.005799 0.011175 0.000000 0.000000 0.000000
# 4 0.000000 0.000000 0.000000 0.056551 0.000000 0.000000
# 5 0.000000 0.000000 0.000000 0.000000 0.036142 0.000000
# 6 0.000000 0.000000 0.000000 0.000000 0.000000 0.062940
#
#
# Mechanical properties :
#
#
# Convention : Reuss Voigt Hill
#
# Bulk Modulus (GPa) = 25.49414 35.68353 30.58883
# Shear Modulus (GPa) = 7.68367 18.84421 13.26394
#
# Velocity S-wave (km/s) = 2.32224 3.63674 3.05112
# Velocity P-wave (km/s) = 5.00835 6.53292 5.82076
#
# Compressibility (1/GPa) = 0.03922470
#
# Stress axis : x y z
#
# Youngs Moduli (GPa) = 6.75765 9.85524 89.48659
#
# Poissons Ratio (x) = 1.00965 0.21945
# Poissons Ratio (y) = 0.69231 0.51896
# Poissons Ratio (z) = 0.01657 0.05715
#
# Static dielectric constant tensor:
#      x y z
#    x 2.748660 0.000000 0.000000 
#    y 0.000000 2.432600 0.000000 
#    z 0.000000 0.000000 2.913400 
# 
# 
# High freq. dielectric constant tensor:
#      x y z
#    x 1.528850 0.000000 0.000000 
#    y 0.000000 1.486350 0.000000 
#    z 0.000000 0.000000 1.569120 
# 
# From -- ./inp_files/9845.got.cif
#   From: 2010.03.12/outbox.cif.g09.slc.cpg/sg55_5_cif.got.tgz:9845.got - 2010.04.16 15:19:21.
