data_PCOD8224784
_publ_section_title
;
Structure prediction by ZEFSAII (Michael W. Deem and Ramdas Pophale) SiO2 
 PCOD8224784
Probable space group: P B A M
;
_chemical_formula_sum "Si O2"
_cell_formula_units_Z 48
_cell_length_a 8.526017
_cell_length_b 15.603435
_cell_length_c 17.149099
_cell_angle_alpha 90.000000
_cell_angle_beta 90.000000
_cell_angle_gamma 90.000000
_cell_volume 2281.432993
_symmetry_space_group_name_H-M "P B A M"
_symmetry_group_IT_number 55
_symmetry_cell_setting 'orthorhombic'
loop_
_space_group_symop_operation_xyz
x,y,z
-x,-y,z
1/2+x,1/2-y,-z
1/2-x,1/2+y,-z
-x,-y,-z
x,y,-z
1/2-x,1/2+y,z
1/2+x,1/2-y,z
loop_
_atom_site_type_symbol
_atom_site_label
_atom_site_fract_x
_atom_site_fract_y
_atom_site_fract_z
Si Si1 0.900115 0.311398 0.679716
Si Si2 0.730264 0.060668 0.839408
Si Si3 0.625836 0.880072 0.158928
Si Si4 0.932434 0.304516 0.000000
Si Si5 0.787765 0.132267 0.000000
Si Si6 0.180154 0.526365 0.588493
Si Si7 0.758957 0.135785 0.321092
O O1 0.848168 0.313434 0.770659
O O2 0.799050 0.382873 0.632871
O O3 0.866696 0.214789 0.649281
O O4 0.082101 0.331176 0.671115
O O5 0.550253 0.086694 0.842906
O O6 0.808213 0.111234 0.767377
O O7 0.742891 0.959049 0.825246
O O8 0.814743 0.077926 0.921668
O O9 0.662113 0.837843 0.075666
O O10 0.113648 0.328644 0.000000
O O11 0.922788 0.202739 0.000000
O O12 0.236791 0.538502 0.500000
O O13 0.282804 0.449611 0.626641
O O14 0.000000 0.500000 0.593699
#
# Coordination Sequence:
#
# PCOD8224784 Si02
#       7
#     8   8   8   4   4   8   8
#     4  10  19  33  54  77 102 132 168 208 249 296
#     4   9  16  29  49  71  94 127 170 207 238 284
#     4   9  16  29  49  71  94 127 170 207 238 284
#     4  10  19  29  45  69  97 126 162 205 245 287
#     4  10  19  29  45  69  97 126 162 205 245 287
#     4   9  18  34  55  76 100 134 171 203 243 303
#     4  10  19  33  54  77 102 132 168 208 249 296
#
# _framework density 21.039408000000002
#
# number of rings (size 3 to 8) (size 9 to 14) (size 15 to 20)
#    0.000    2.500    1.667    1.500    0.000    2.667 
#    0.000    0.833    0.000    5.000    0.000    0.000 
#    0.000    0.000    0.000    0.000    0.000    0.000 
#
# Total GULP energy -594961.733690 kJ/mol
# GULP energy per Si atom -12395.036119 kJ/mol
# Density = 2.099152 g / cm^3
# Si number density = 21.039408 Si / 1000 Ang^3
#
#
#
# Elastic Constant Matrix: (Units=GPa)
#
#
# Indices 1 2 3 4 5 6 
#
# 1 6.1463 -1.6778 6.6685 0.0000 0.0000 0.0000
# 2 -1.6778 36.2470 14.3606 0.0000 0.0000 0.0000
# 3 6.6685 14.3606 133.9866 0.0000 0.0000 0.0000
# 4 0.0000 0.0000 0.0000 26.3412 0.0000 0.0000
# 5 0.0000 0.0000 0.0000 0.0000 9.0045 0.0000
# 6 0.0000 0.0000 0.0000 0.0000 0.0000 30.1929
#
#
#
# Elastic Compliance Matrix: (Units=1/GPa)
#
#
# Indices 1 2 3 4 5 6 
#
# 1 0.177006 0.012201 -0.010117 0.000000 0.000000 0.000000
# 2 0.012201 0.029653 -0.003785 0.000000 0.000000 0.000000
# 3 -0.010117 -0.003785 0.008373 0.000000 0.000000 0.000000
# 4 0.000000 0.000000 0.000000 0.037963 0.000000 0.000000
# 5 0.000000 0.000000 0.000000 0.000000 0.111056 0.000000
# 6 0.000000 0.000000 0.000000 0.000000 0.000000 0.033120
#
#
# Mechanical properties :
#
#
# Convention : Reuss Voigt Hill
#
# Bulk Modulus (GPa) = 4.72526 23.89806 14.31166
# Shear Modulus (GPa) = 10.61309 23.57630 17.09470
#
# Velocity S-wave (km/s) = 2.24841 3.35114 2.85355
# Velocity P-wave (km/s) = 2.99854 5.13389 4.20405
#
# Compressibility (1/GPa) = 0.21162869
#
# Stress axis : x y z
#
# Youngs Moduli (GPa) = 5.64954 33.72341 119.43600
#
# Poissons Ratio (x) = -0.41147 1.20837
# Poissons Ratio (y) = -0.06893 0.45212
# Poissons Ratio (z) = 0.05716 0.12766
#
# Static dielectric constant tensor:
#      x y z
#    x 3.136010 0.000000 0.000000 
#    y 0.000000 3.924660 0.000000 
#    z 0.000000 0.000000 4.083280 
# 
# 
# High freq. dielectric constant tensor:
#      x y z
#    x 1.763520 0.000000 0.000000 
#    y 0.000000 1.832350 0.000000 
#    z 0.000000 0.000000 1.828350 
# 
# From -- ./inp_files/20830.got.cif
#   From: 2010.03.12/outbox.cif.g09.slc.cpg/sg55_11_cif.got.tgz:20830.got - 2010.04.16 15:19:21.
