data_PCOD8224585
_publ_section_title
;
Structure prediction by ZEFSAII (Michael W. Deem and Ramdas Pophale) SiO2 
 PCOD8224585
Probable space group: P B A M
;
_chemical_formula_sum "Si O2"
_cell_formula_units_Z 64
_cell_length_a 8.824742
_cell_length_b 21.841088
_cell_length_c 18.290212
_cell_angle_alpha 90.000000
_cell_angle_beta 90.000000
_cell_angle_gamma 90.000000
_cell_volume 3525.291430
_symmetry_space_group_name_H-M "P B A M"
_symmetry_group_IT_number 55
_symmetry_cell_setting 'orthorhombic'
loop_
_space_group_symop_operation_xyz
x,y,z
-x,-y,z
1/2+x,1/2-y,-z
1/2-x,1/2+y,-z
-x,-y,-z
x,y,-z
1/2-x,1/2+y,z
1/2+x,1/2-y,z
loop_
_atom_site_type_symbol
_atom_site_label
_atom_site_fract_x
_atom_site_fract_y
_atom_site_fract_z
Si Si1 0.406308 0.638296 0.728464
Si Si2 0.622647 0.173898 0.414973
Si Si3 0.429934 0.263091 0.808878
Si Si4 0.155164 0.464785 0.083365
Si Si5 0.344023 0.835753 0.843645
Si Si6 0.314260 0.219968 0.651990
Si Si7 0.674199 0.485314 0.215553
Si Si8 0.258653 0.401642 0.298245
O O1 0.437686 0.687395 0.792823
O O2 0.312920 0.667676 0.661822
O O3 0.300917 0.585482 0.764351
O O4 0.562785 0.612822 0.695659
O O5 0.624146 0.159571 0.500000
O O6 0.744108 0.226058 0.396115
O O7 0.455376 0.192758 0.391005
O O8 0.674926 0.111230 0.374633
O O9 0.503161 0.204588 0.849269
O O10 0.303030 0.293370 0.861824
O O11 0.359441 0.244859 0.731138
O O12 0.141447 0.392673 0.101557
O O13 0.277429 0.498858 0.133299
O O14 0.000000 0.500000 0.097643
O O15 0.208631 0.471072 0.000000
O O16 0.322245 0.857986 0.760718
O O17 0.500000 0.500000 0.221173
O O18 0.765012 0.527921 0.273534
#
# Coordination Sequence:
#
# PCOD8224585 Si02
#       8
#     8   8   8   8   8   8   8   8
#     4  10  18  31  56  82 107 133 178 240 278 317
#     4  12  22  33  51  76 112 150 182 222 282 335
#     4  11  17  31  56  82 109 136 176 238 276 321
#     4  10  23  40  56  81 119 152 182 221 270 331
#     4  10  19  33  57  80 108 144 181 224 278 320
#     4  12  19  33  50  79 110 140 180 229 277 324
#     4   9  20  35  61  88 104 138 190 231 275 316
#     4   9  17  36  52  78 108 139 185 232 267 322
#
# _framework density 18.154527000000002
#
# number of rings (size 3 to 8) (size 9 to 14) (size 15 to 20)
#    0.000    1.625    6.250    1.125    1.750    0.250 
#    0.000    1.250    0.000    6.375    0.000    0.000 
#    0.000    0.000    0.000    0.000    0.000    0.000 
#
# Total GULP energy -793486.537734 kJ/mol
# GULP energy per Si atom -12398.227152 kJ/mol
# Density = 1.811321 g / cm^3
# Si number density = 18.154527 Si / 1000 Ang^3
#
#
#
# Elastic Constant Matrix: (Units=GPa)
#
#
# Indices 1 2 3 4 5 6 
#
# 1 62.3295 30.0033 27.9184 0.0000 0.0000 0.0000
# 2 30.0033 82.9038 35.4555 0.0000 0.0000 0.0000
# 3 27.9184 35.4555 80.1483 0.0000 0.0000 0.0000
# 4 0.0000 0.0000 0.0000 19.7179 0.0000 0.0000
# 5 0.0000 0.0000 0.0000 0.0000 16.9428 0.0000
# 6 0.0000 0.0000 0.0000 0.0000 0.0000 31.8195
#
#
#
# Elastic Compliance Matrix: (Units=1/GPa)
#
#
# Indices 1 2 3 4 5 6 
#
# 1 0.020847 -0.005475 -0.004840 0.000000 0.000000 0.000000
# 2 -0.005475 0.016314 -0.005310 0.000000 0.000000 0.000000
# 3 -0.004840 -0.005310 0.016512 0.000000 0.000000 0.000000
# 4 0.000000 0.000000 0.000000 0.050715 0.000000 0.000000
# 5 0.000000 0.000000 0.000000 0.000000 0.059022 0.000000
# 6 0.000000 0.000000 0.000000 0.000000 0.000000 0.031427
#
#
# Mechanical properties :
#
#
# Convention : Reuss Voigt Hill
#
# Bulk Modulus (GPa) = 44.59522 45.79291 45.19407
# Shear Modulus (GPa) = 21.40759 22.49632 21.95196
#
# Velocity S-wave (km/s) = 3.43766 3.52399 3.48109
# Velocity P-wave (km/s) = 6.35407 6.46813 6.41135
#
# Compressibility (1/GPa) = 0.02242393
#
# Stress axis : x y z
#
# Youngs Moduli (GPa) = 47.96858 61.29525 60.56280
#
# Poissons Ratio (x) = 0.33558 0.29311
# Poissons Ratio (y) = 0.26262 0.32159
# Poissons Ratio (z) = 0.23216 0.32548
#
# Static dielectric constant tensor:
#      x y z
#    x 3.462280 0.000000 0.000000 
#    y 0.000000 3.824270 0.000000 
#    z 0.000000 0.000000 3.040710 
# 
# 
# High freq. dielectric constant tensor:
#      x y z
#    x 1.711640 0.000000 0.000000 
#    y 0.000000 1.710360 0.000000 
#    z 0.000000 0.000000 1.659900 
# 
# From -- ./inp_files/21079.got.cif
#   From: 2010.03.12/outbox.cif.g09.slc.cpg/sg55_11_cif.got.tgz:21079.got - 2010.04.16 15:19:21.
