data_PCOD8224373
_publ_section_title
;
Structure prediction by ZEFSAII (Michael W. Deem and Ramdas Pophale) SiO2 
 PCOD8224373
Probable space group: P B A M
;
_chemical_formula_sum "Si O2"
_cell_formula_units_Z 56
_cell_length_a 13.658696
_cell_length_b 28.624071
_cell_length_c 9.201137
_cell_angle_alpha 90.000000
_cell_angle_beta 90.000000
_cell_angle_gamma 90.000000
_cell_volume 3597.345383
_symmetry_space_group_name_H-M "P B A M"
_symmetry_group_IT_number 55
_symmetry_cell_setting 'orthorhombic'
loop_
_space_group_symop_operation_xyz
x,y,z
-x,-y,z
1/2+x,1/2-y,-z
1/2-x,1/2+y,-z
-x,-y,-z
x,y,-z
1/2-x,1/2+y,z
1/2+x,1/2-y,z
loop_
_atom_site_type_symbol
_atom_site_label
_atom_site_fract_x
_atom_site_fract_y
_atom_site_fract_z
Si Si1 0.285450 0.314238 0.829332
Si Si2 0.113779 0.091862 0.829764
Si Si3 0.389533 0.233043 0.332733
Si Si4 0.612323 0.589853 0.168483
Si Si5 0.390496 0.774846 0.668069
Si Si6 0.883624 0.999482 0.664044
Si Si7 0.201658 0.176637 0.334530
O O1 0.361059 0.277163 0.764040
O O2 0.323269 0.365573 0.789963
O O3 0.177189 0.308777 0.763170
O O4 0.280562 0.305847 0.000000
O O5 0.175962 0.135603 0.775062
O O6 0.000266 0.100562 0.791247
O O7 0.154700 0.045577 0.751078
O O8 0.130652 0.085680 0.000000
O O9 0.387160 0.249812 0.500000
O O10 0.497297 0.215357 0.289036
O O11 0.314909 0.190331 0.308610
O O12 0.655162 0.546532 0.259750
O O13 0.621018 0.576597 0.000000
O O14 0.368827 0.785826 0.500000
O O15 0.366161 0.720989 0.702036
O O16 0.843270 0.997477 0.500000
O O17 0.000000 0.000000 0.667964
O O18 0.184110 0.159984 0.500000
#
# Coordination Sequence:
#
# PCOD8224373 Si02
#       7
#     8   8   8   8   8   8   8
#     4  10  19  29  44  67  92 117 147 182 219 261
#     4  10  18  28  43  62  88 119 145 173 213 260
#     4   9  18  32  47  63  87 119 152 186 220 255
#     4   9  18  30  42  61  90 119 144 173 213 259
#     4   9  18  32  47  63  87 119 152 185 220 257
#     4   9  17  28  43  63  85 111 144 179 213 252
#     4   9  17  28  43  64  87 112 146 183 215 252
#
# _framework density 15.567035000000001
#
# number of rings (size 3 to 8) (size 9 to 14) (size 15 to 20)
#    0.000    2.714    0.000    3.000    0.000    6.286 
#    0.000    0.000    0.000    0.000    0.000    1.000 
#    0.000    8.000    0.000    0.000    0.000    0.000 
#
# Total GULP energy -694458.946940 kJ/mol
# GULP energy per Si atom -12401.052624 kJ/mol
# Density = 1.553160 g / cm^3
# Si number density = 15.567035 Si / 1000 Ang^3
#
#
#
# Elastic Constant Matrix: (Units=GPa)
#
#
# Indices 1 2 3 4 5 6 
#
# 1 90.8993 50.0303 41.9760 0.0000 0.0000 0.0000
# 2 50.0303 113.0722 68.3693 0.0000 0.0000 0.0000
# 3 41.9760 68.3693 90.6542 0.0000 0.0000 0.0000
# 4 0.0000 0.0000 0.0000 32.5465 0.0000 0.0000
# 5 0.0000 0.0000 0.0000 0.0000 21.0956 0.0000
# 6 0.0000 0.0000 0.0000 0.0000 0.0000 19.6067
#
#
#
# Elastic Compliance Matrix: (Units=1/GPa)
#
#
# Indices 1 2 3 4 5 6 
#
# 1 0.015157 -0.004527 -0.003604 0.000000 0.000000 0.000000
# 2 -0.004527 0.017610 -0.011185 0.000000 0.000000 0.000000
# 3 -0.003604 -0.011185 0.021135 0.000000 0.000000 0.000000
# 4 0.000000 0.000000 0.000000 0.030725 0.000000 0.000000
# 5 0.000000 0.000000 0.000000 0.000000 0.047403 0.000000
# 6 0.000000 0.000000 0.000000 0.000000 0.000000 0.051003
#
#
# Mechanical properties :
#
#
# Convention : Reuss Voigt Hill
#
# Bulk Modulus (GPa) = 65.48718 68.37522 66.93120
# Shear Modulus (GPa) = 22.05017 23.59976 22.82497
#
# Velocity S-wave (km/s) = 3.76768 3.89782 3.83330
# Velocity P-wave (km/s) = 7.81578 8.01722 7.91714
#
# Compressibility (1/GPa) = 0.01527016
#
# Stress axis : x y z
#
# Youngs Moduli (GPa) = 65.97498 56.78598 47.31524
#
# Poissons Ratio (x) = 0.25710 0.17051
# Poissons Ratio (y) = 0.29870 0.52921
# Poissons Ratio (z) = 0.23776 0.63513
#
# Static dielectric constant tensor:
#      x y z
#    x 2.876320 0.000000 0.000000 
#    y 0.000000 2.898530 0.000000 
#    z 0.000000 0.000000 3.034440 
# 
# 
# High freq. dielectric constant tensor:
#      x y z
#    x 1.569440 0.000000 0.000000 
#    y 0.000000 1.588720 0.000000 
#    z 0.000000 0.000000 1.606780 
# 
# From -- ./inp_files/6856.got.cif
#   From: 2010.03.12/outbox.cif.g09.slc.cpg/sg55_4_cif.got.tgz:6856.got - 2010.04.16 15:19:21.
