data_PCOD8224531
_publ_section_title
;
Structure prediction by ZEFSAII (Michael W. Deem and Ramdas Pophale) SiO2 
 PCOD8224531
Probable space group: P B A M
;
_chemical_formula_sum "Si O2"
_cell_formula_units_Z 64
_cell_length_a 21.622825
_cell_length_b 16.922689
_cell_length_c 8.879175
_cell_angle_alpha 90.000000
_cell_angle_beta 90.000000
_cell_angle_gamma 90.000000
_cell_volume 3249.035243
_symmetry_space_group_name_H-M "P B A M"
_symmetry_group_IT_number 55
_symmetry_cell_setting 'orthorhombic'
loop_
_space_group_symop_operation_xyz
x,y,z
-x,-y,z
1/2+x,1/2-y,-z
1/2-x,1/2+y,-z
-x,-y,-z
x,y,-z
1/2-x,1/2+y,z
1/2+x,1/2-y,z
loop_
_atom_site_type_symbol
_atom_site_label
_atom_site_fract_x
_atom_site_fract_y
_atom_site_fract_z
Si Si1 0.143420 0.524828 0.824425
Si Si2 0.427844 0.172684 0.177484
Si Si3 0.446527 0.893595 0.175634
Si Si4 0.398504 0.643570 0.679042
Si Si5 0.241018 0.414749 0.321896
Si Si6 0.624776 0.532369 0.678410
Si Si7 0.335701 0.783955 0.178403
Si Si8 0.462048 0.329588 0.321869
O O1 0.132223 0.617604 0.788048
O O2 0.078136 0.481243 0.785738
O O3 0.198233 0.488740 0.726016
O O4 0.159649 0.510600 0.000000
O O5 0.487709 0.127930 0.248971
O O6 0.422189 0.257335 0.255417
O O7 0.434026 0.185884 0.000000
O O8 0.395744 0.831694 0.232675
O O9 0.455834 0.884677 0.000000
O O10 0.392716 0.648098 0.500000
O O11 0.387650 0.555255 0.741350
O O12 0.344360 0.696824 0.752420
O O13 0.466771 0.671393 0.733228
O O14 0.236992 0.404659 0.500000
O O15 0.309573 0.434909 0.264593
O O16 0.222755 0.331333 0.245497
O O17 0.624456 0.528395 0.500000
O O18 0.570285 0.589984 0.735656
O O19 0.327839 0.778445 0.000000
O O20 0.458490 0.324214 0.500000
#
# Coordination Sequence:
#
# PCOD8224531 Si02
#       8
#     8   8   8   8   8   8   8   8
#     4   9  18  32  52  77 107 146 183 223 272 325
#     4  10  18  31  51  77 112 147 180 217 274 338
#     4   8  14  27  49  73 102 139 176 210 261 327
#     4  10  19  35  61  87 109 139 184 230 276 330
#     4  10  20  37  58  78 107 146 189 228 268 324
#     4   9  20  39  59  80 108 147 185 226 280 329
#     4  10  19  34  57  83 113 146 180 225 275 326
#     4  10  20  35  57  84 112 140 180 232 279 327
#
# _framework density 19.698155
#
# number of rings (size 3 to 8) (size 9 to 14) (size 15 to 20)
#    0.000    2.500    1.250    2.250    0.000    3.500 
#    2.250    3.125    0.000    3.750    0.000    0.000 
#    0.000    0.000    0.000    0.000    0.000    0.000 
#
# Total GULP energy -793301.352925 kJ/mol
# GULP energy per Si atom -12395.333639 kJ/mol
# Density = 1.965332 g / cm^3
# Si number density = 19.698155 Si / 1000 Ang^3
#
#
#
# Elastic Constant Matrix: (Units=GPa)
#
#
# Indices 1 2 3 4 5 6 
#
# 1 79.6720 49.4713 36.2066 0.0000 0.0000 0.0000
# 2 49.4713 156.8198 42.7685 0.0000 0.0000 0.0000
# 3 36.2066 42.7685 58.9466 0.0000 0.0000 0.0000
# 4 0.0000 0.0000 0.0000 24.9102 0.0000 0.0000
# 5 0.0000 0.0000 0.0000 0.0000 16.3359 0.0000
# 6 0.0000 0.0000 0.0000 0.0000 0.0000 23.6734
#
#
#
# Elastic Compliance Matrix: (Units=1/GPa)
#
#
# Indices 1 2 3 4 5 6 
#
# 1 0.018813 -0.003470 -0.009038 0.000000 0.000000 0.000000
# 2 -0.003470 0.008590 -0.004101 0.000000 0.000000 0.000000
# 3 -0.009038 -0.004101 0.025491 0.000000 0.000000 0.000000
# 4 0.000000 0.000000 0.000000 0.040144 0.000000 0.000000
# 5 0.000000 0.000000 0.000000 0.000000 0.061215 0.000000
# 6 0.000000 0.000000 0.000000 0.000000 0.000000 0.042241
#
#
# Mechanical properties :
#
#
# Convention : Reuss Voigt Hill
#
# Bulk Modulus (GPa) = 50.82190 61.37012 56.09601
# Shear Modulus (GPa) = 21.16205 24.11672 22.63938
#
# Velocity S-wave (km/s) = 3.28123 3.50282 3.39383
# Velocity P-wave (km/s) = 6.34127 6.89801 6.62549
#
# Compressibility (1/GPa) = 0.01967656
#
# Stress axis : x y z
#
# Youngs Moduli (GPa) = 53.15336 116.41629 39.22912
#
# Poissons Ratio (x) = 0.40398 0.35455
# Poissons Ratio (y) = 0.18445 0.16087
# Poissons Ratio (z) = 0.48040 0.47741
#
# Static dielectric constant tensor:
#      x y z
#    x 3.531450 0.000000 0.000000 
#    y 0.000000 3.518370 0.000000 
#    z 0.000000 0.000000 3.187650 
# 
# 
# High freq. dielectric constant tensor:
#      x y z
#    x 1.755640 0.000000 0.000000 
#    y 0.000000 1.777670 0.000000 
#    z 0.000000 0.000000 1.733070 
# 
# From -- ./inp_files/9873.got.cif
#   From: 2010.03.12/outbox.cif.g09.slc.cpg/sg55_5_cif.got.tgz:9873.got - 2010.04.16 15:19:21.
