data_PCOD8224910
_publ_section_title
;
Structure prediction by ZEFSAII (Michael W. Deem and Ramdas Pophale) SiO2 
 PCOD8224910
Probable space group: P B A M
;
_chemical_formula_sum "Si O2"
_cell_formula_units_Z 48
_cell_length_a 9.458924
_cell_length_b 25.725685
_cell_length_c 11.469436
_cell_angle_alpha 90.000000
_cell_angle_beta 90.000000
_cell_angle_gamma 90.000000
_cell_volume 2790.941580
_symmetry_space_group_name_H-M "P B A M"
_symmetry_group_IT_number 55
_symmetry_cell_setting 'orthorhombic'
loop_
_space_group_symop_operation_xyz
x,y,z
-x,-y,z
1/2+x,1/2-y,-z
1/2-x,1/2+y,-z
-x,-y,-z
x,y,-z
1/2-x,1/2+y,z
1/2+x,1/2-y,z
loop_
_atom_site_type_symbol
_atom_site_label
_atom_site_fract_x
_atom_site_fract_y
_atom_site_fract_z
Si Si1 0.432923 0.317034 0.000000
Si Si2 0.991262 0.556862 0.365523
Si Si3 0.284795 0.142172 0.635998
Si Si4 0.720112 0.141162 0.636187
Si Si5 0.606547 0.216906 0.000000
Si Si6 0.498011 0.336130 0.751580
Si Si7 0.984824 0.712611 0.750311
O O1 0.565598 0.277532 0.000000
O O2 0.454024 0.351678 0.116085
O O3 0.277556 0.289580 0.000000
O O4 0.953203 0.548269 0.500000
O O5 0.866357 0.592114 0.309275
O O6 0.000000 0.500000 0.304169
O O7 0.139813 0.586547 0.351001
O O8 0.254954 0.155128 0.500000
O O9 0.143615 0.138395 0.711778
O O10 0.378375 0.187798 0.691235
O O11 0.695381 0.141333 0.500000
O O12 0.656700 0.195193 0.683853
O O13 0.883721 0.137844 0.666780
O O14 0.534490 0.192889 0.115818
O O15 0.501121 0.274140 0.739502
#
# Coordination Sequence:
#
# PCOD8224910 Si02
#       7
#     4   8   8   8   4   8   8
#     4  10  22  34  50  70  99 139 186 219 241 275
#     4   8  16  34  55  72  96 128 166 212 255 303
#     4  10  21  33  49  78 106 133 169 205 251 314
#     4  10  19  31  49  75 102 134 168 202 256 312
#     4  10  20  34  50  70  95 136 188 220 238 276
#     4  11  21  32  48  73 108 137 170 210 247 290
#     4  10  20  32  49  69 104 141 175 204 240 291
#
# _framework density 17.198498000000001
#
# number of rings (size 3 to 8) (size 9 to 14) (size 15 to 20)
#    0.000    2.167    1.667    3.000    7.000    4.000 
#    0.000    0.833    0.000    4.000    0.000   22.167 
#    0.000    0.000    0.000    0.000    0.000    0.000 
#
# Total GULP energy -594926.723750 kJ/mol
# GULP energy per Si atom -12394.306745 kJ/mol
# Density = 1.715935 g / cm^3
# Si number density = 17.198498 Si / 1000 Ang^3
#
#
#
# Elastic Constant Matrix: (Units=GPa)
#
#
# Indices 1 2 3 4 5 6 
#
# 1 95.7360 28.4563 23.4341 0.0000 0.0000 0.0000
# 2 28.4563 79.3131 27.3625 0.0000 0.0000 0.0000
# 3 23.4341 27.3625 83.6460 0.0000 0.0000 0.0000
# 4 0.0000 0.0000 0.0000 4.2929 0.0000 0.0000
# 5 0.0000 0.0000 0.0000 0.0000 30.7991 0.0000
# 6 0.0000 0.0000 0.0000 0.0000 0.0000 5.9424
#
#
#
# Elastic Compliance Matrix: (Units=1/GPa)
#
#
# Indices 1 2 3 4 5 6 
#
# 1 0.012044 -0.003559 -0.002210 0.000000 0.000000 0.000000
# 2 -0.003559 0.015264 -0.003996 0.000000 0.000000 0.000000
# 3 -0.002210 -0.003996 0.013882 0.000000 0.000000 0.000000
# 4 0.000000 0.000000 0.000000 0.232941 0.000000 0.000000
# 5 0.000000 0.000000 0.000000 0.000000 0.032468 0.000000
# 6 0.000000 0.000000 0.000000 0.000000 0.000000 0.168283
#
#
# Mechanical properties :
#
#
# Convention : Reuss Voigt Hill
#
# Bulk Modulus (GPa) = 46.16920 46.35566 46.26243
# Shear Modulus (GPa) = 9.96748 20.16970 15.06859
#
# Velocity S-wave (km/s) = 2.41001 3.42827 2.96321
# Velocity P-wave (km/s) = 5.88620 6.53319 6.21812
#
# Compressibility (1/GPa) = 0.02165946
#
# Stress axis : x y z
#
# Youngs Moduli (GPa) = 83.02763 65.51488 72.03812
#
# Poissons Ratio (x) = 0.23315 0.15921
# Poissons Ratio (y) = 0.29548 0.28787
# Poissons Ratio (z) = 0.18350 0.26180
#
# Static dielectric constant tensor:
#      x y z
#    x 3.329810 0.000000 0.000000 
#    y 0.000000 3.093190 0.000000 
#    z 0.000000 0.000000 3.429860 
# 
# 
# High freq. dielectric constant tensor:
#      x y z
#    x 1.674630 0.000000 0.000000 
#    y 0.000000 1.623320 0.000000 
#    z 0.000000 0.000000 1.662240 
# 
# From -- ./inp_files/12335.got.cif
#   From: 2010.03.12/outbox.cif.g09.slc.cpg/sg55_7_cif.got.tgz:12335.got - 2010.04.16 15:19:21.
