data_PCOD8224690
_publ_section_title
;
Structure prediction by ZEFSAII (Michael W. Deem and Ramdas Pophale) SiO2 
 PCOD8224690
Probable space group: P B A M
;
_chemical_formula_sum "Si O2"
_cell_formula_units_Z 48
_cell_length_a 20.432893
_cell_length_b 14.538218
_cell_length_c 8.832286
_cell_angle_alpha 90.000000
_cell_angle_beta 90.000000
_cell_angle_gamma 90.000000
_cell_volume 2623.699915
_symmetry_space_group_name_H-M "P B A M"
_symmetry_group_IT_number 55
_symmetry_cell_setting 'orthorhombic'
loop_
_space_group_symop_operation_xyz
x,y,z
-x,-y,z
1/2+x,1/2-y,-z
1/2-x,1/2+y,-z
-x,-y,-z
x,y,-z
1/2-x,1/2+y,z
1/2+x,1/2-y,z
loop_
_atom_site_type_symbol
_atom_site_label
_atom_site_fract_x
_atom_site_fract_y
_atom_site_fract_z
Si Si1 0.931823 0.191971 0.178410
Si Si2 0.377628 0.488987 0.676455
Si Si3 0.191801 0.301408 0.679599
Si Si4 0.568004 0.310947 0.676817
Si Si5 0.681071 0.806848 0.319923
Si Si6 0.729937 0.000939 0.320520
O O1 0.884195 0.268763 0.245651
O O2 0.004445 0.218351 0.230721
O O3 0.914561 0.090588 0.235143
O O4 0.927241 0.194582 0.000000
O O5 0.376638 0.462033 0.500000
O O6 0.416508 0.582495 0.704974
O O7 0.304177 0.499279 0.741196
O O8 0.191581 0.293683 0.500000
O O9 0.127457 0.250779 0.742157
O O10 0.257177 0.251904 0.739640
O O11 0.192383 0.407373 0.734865
O O12 0.556164 0.291715 0.500000
O O13 0.674451 0.800326 0.500000
O O14 0.690808 0.911700 0.262935
O O15 0.734354 0.997327 0.500000
#
# Coordination Sequence:
#
# PCOD8224690 Si02
#       6
#     8   8   8   8   8   8
#     4  12  25  37  50  76 115 155 186 220 268 324
#     4  10  18  33  59  86 111 138 176 227 281 330
#     4   9  16  30  57  87 111 133 174 228 275 322
#     4  10  20  35  57  84 110 144 183 225 276 328
#     4  10  18  34  60  84 108 139 178 227 273 321
#     4   9  16  29  57  92 112 129 169 228 281 319
#
# _framework density 18.294775000000001
#
# number of rings (size 3 to 8) (size 9 to 14) (size 15 to 20)
#    0.000    2.000    3.333    2.000    0.000    2.667 
#    0.000    2.500    0.000    5.000    0.000    0.000 
#    0.000    0.000    0.000    0.000    0.000    0.000 
#
# Total GULP energy -595226.501854 kJ/mol
# GULP energy per Si atom -12400.552122 kJ/mol
# Density = 1.825314 g / cm^3
# Si number density = 18.294775 Si / 1000 Ang^3
#
#
#
# Elastic Constant Matrix: (Units=GPa)
#
#
# Indices 1 2 3 4 5 6 
#
# 1 128.6401 51.5564 35.3381 0.0000 0.0000 0.0000
# 2 51.5564 122.2294 29.9598 0.0000 0.0000 0.0000
# 3 35.3381 29.9598 47.8583 0.0000 0.0000 0.0000
# 4 0.0000 0.0000 0.0000 3.5746 0.0000 0.0000
# 5 0.0000 0.0000 0.0000 0.0000 -2.2280 0.0000
# 6 0.0000 0.0000 0.0000 0.0000 0.0000 31.8049
#
#
#
# Elastic Compliance Matrix: (Units=1/GPa)
#
#
# Indices 1 2 3 4 5 6 
#
# 1 0.010619 -0.003021 -0.005950 0.000000 0.000000 0.000000
# 2 -0.003021 0.010523 -0.004357 0.000000 0.000000 0.000000
# 3 -0.005950 -0.004357 0.028016 0.000000 0.000000 0.000000
# 4 0.000000 0.000000 0.000000 0.279749 0.000000 0.000000
# 5 0.000000 0.000000 0.000000 0.000000 -0.448838 0.000000
# 6 0.000000 0.000000 0.000000 0.000000 0.000000 0.031442
#
#
# Mechanical properties :
#
#
# Convention : Reuss Voigt Hill
#
# Bulk Modulus (GPa) = 44.43931 59.15961 51.79946
# Shear Modulus (GPa) = -92.02608 18.75522 -36.63543
#
# Velocity S-wave (km/s) = -7.10007 3.20530 -4.47979
# Velocity P-wave (km/s) = 6.54762 6.79012 1.27169
#
# Compressibility (1/GPa) = 0.02250260
#
# Stress axis : x y z
#
# Youngs Moduli (GPa) = 94.17390 95.02557 35.69374
#
# Poissons Ratio (x) = 0.28703 0.21237
# Poissons Ratio (y) = 0.28446 0.15553
# Poissons Ratio (z) = 0.56031 0.41407
#
# Static dielectric constant tensor:
#      x y z
#    x 3.470290 0.000000 0.000000 
#    y 0.000000 3.590440 0.000000 
#    z 0.000000 0.000000 2.908540 
# 
# 
# High freq. dielectric constant tensor:
#      x y z
#    x 1.714110 0.000000 0.000000 
#    y 0.000000 1.716480 0.000000 
#    z 0.000000 0.000000 1.661030 
# 
# From -- ./inp_files/5587.got.cif
#   From: 2010.03.12/outbox.cif.g09.slc.cpg/sg55_3_cif.got.tgz:5587.got - 2010.04.16 15:19:21.
