data_PCOD8224398
_publ_section_title
;
Structure prediction by ZEFSAII (Michael W. Deem and Ramdas Pophale) SiO2 
 PCOD8224398
Probable space group: P B A M
;
_chemical_formula_sum "Si O2"
_cell_formula_units_Z 64
_cell_length_a 26.532283
_cell_length_b 18.298089
_cell_length_c 8.599183
_cell_angle_alpha 90.000000
_cell_angle_beta 90.000000
_cell_angle_gamma 90.000000
_cell_volume 4174.818006
_symmetry_space_group_name_H-M "P B A M"
_symmetry_group_IT_number 55
_symmetry_cell_setting 'orthorhombic'
loop_
_space_group_symop_operation_xyz
x,y,z
-x,-y,z
1/2+x,1/2-y,-z
1/2-x,1/2+y,-z
-x,-y,-z
x,y,-z
1/2-x,1/2+y,z
1/2+x,1/2-y,z
loop_
_atom_site_type_symbol
_atom_site_label
_atom_site_fract_x
_atom_site_fract_y
_atom_site_fract_z
Si Si1 0.756148 0.416711 0.182476
Si Si2 0.200626 0.795998 0.181155
Si Si3 0.445529 0.921254 0.818534
Si Si4 0.254342 0.925550 0.681680
Si Si5 0.850752 0.333574 0.682849
Si Si6 0.442200 0.084363 0.815453
Si Si7 0.709215 0.288799 0.319905
Si Si8 0.144045 0.340045 0.322840
O O1 0.750162 0.501268 0.220245
O O2 0.810129 0.388119 0.240981
O O3 0.709642 0.373714 0.268527
O O4 0.751992 0.404529 0.000000
O O5 0.207946 0.873351 0.268352
O O6 0.154381 0.749493 0.253109
O O7 0.249998 0.747296 0.206979
O O8 0.191321 0.810234 0.000000
O O9 0.500810 0.896999 0.759666
O O10 0.404141 0.860890 0.777851
O O11 0.429810 0.001663 0.757573
O O12 0.450546 0.929383 0.000000
O O13 0.250698 0.942887 0.500000
O O14 0.307091 0.886896 0.725146
O O15 0.842104 0.334227 0.500000
O O16 0.906317 0.360404 0.724922
O O17 0.434381 0.093705 0.000000
O O18 0.725974 0.279569 0.500000
O O19 0.656188 0.246414 0.295627
O O20 0.129768 0.355943 0.500000
#
# Coordination Sequence:
#
# PCOD8224398 Si02
#       8
#     8   8   8   8   8   8   8   8
#     4  11  20  29  43  64  86 112 145 180 212 252
#     4  10  18  29  44  62  83 110 142 178 212 250
#     4   9  18  30  45  61  83 112 143 180 219 251
#     4  10  19  31  44  62  88 116 143 175 212 255
#     4  11  20  30  44  62  84 115 147 178 216 256
#     4   9  18  32  44  60  84 112 145 181 216 253
#     4   9  17  30  43  58  83 114 142 175 214 253
#     4   9  18  29  43  61  83 111 144 175 209 252
#
# _framework density 15.330009
#
# number of rings (size 3 to 8) (size 9 to 14) (size 15 to 20)
#    0.000    2.250    0.000    7.875    0.000    6.000 
#    0.000    1.250    0.000    0.000    0.000    0.000 
#    0.000    1.000    0.000   10.500    0.000    5.750 
#
# Total GULP energy -793284.011918 kJ/mol
# GULP energy per Si atom -12395.062686 kJ/mol
# Density = 1.529512 g / cm^3
# Si number density = 15.330009 Si / 1000 Ang^3
#
#
#
# Elastic Constant Matrix: (Units=GPa)
#
#
# Indices 1 2 3 4 5 6 
#
# 1 77.5587 43.5662 23.8709 0.0000 0.0000 0.0000
# 2 43.5662 76.5291 19.9773 0.0000 0.0000 0.0000
# 3 23.8709 19.9773 63.6175 0.0000 0.0000 0.0000
# 4 0.0000 0.0000 0.0000 26.2322 0.0000 0.0000
# 5 0.0000 0.0000 0.0000 0.0000 17.3321 0.0000
# 6 0.0000 0.0000 0.0000 0.0000 0.0000 27.0061
#
#
#
# Elastic Compliance Matrix: (Units=1/GPa)
#
#
# Indices 1 2 3 4 5 6 
#
# 1 0.019967 -0.010251 -0.004273 0.000000 0.000000 0.000000
# 2 -0.010251 0.019497 -0.002276 0.000000 0.000000 0.000000
# 3 -0.004273 -0.002276 0.018037 0.000000 0.000000 0.000000
# 4 0.000000 0.000000 0.000000 0.038121 0.000000 0.000000
# 5 0.000000 0.000000 0.000000 0.000000 0.057696 0.000000
# 6 0.000000 0.000000 0.000000 0.000000 0.000000 0.037029
#
#
# Mechanical properties :
#
#
# Convention : Reuss Voigt Hill
#
# Bulk Modulus (GPa) = 41.84025 43.61489 42.72757
# Shear Modulus (GPa) = 21.55971 22.80013 22.17992
#
# Velocity S-wave (km/s) = 3.75423 3.86072 3.80785
# Velocity P-wave (km/s) = 6.79298 6.95600 6.87498
#
# Compressibility (1/GPa) = 0.02390043
#
# Stress axis : x y z
#
# Youngs Moduli (GPa) = 50.08278 51.29035 55.44176
#
# Poissons Ratio (x) = 0.52579 0.23690
# Poissons Ratio (y) = 0.51341 0.12618
# Poissons Ratio (z) = 0.21400 0.11673
#
# Static dielectric constant tensor:
#      x y z
#    x 2.782090 0.000000 0.000000 
#    y 0.000000 3.120110 0.000000 
#    z 0.000000 0.000000 2.926330 
# 
# 
# High freq. dielectric constant tensor:
#      x y z
#    x 1.550300 0.000000 0.000000 
#    y 0.000000 1.579270 0.000000 
#    z 0.000000 0.000000 1.599000 
# 
# From -- ./inp_files/10299.got.cif
#   From: 2010.03.12/outbox.cif.g09.slc.cpg/sg55_6_cif.got.tgz:10299.got - 2010.04.16 15:19:21.
