data_PCOD8224049
_publ_section_title
;
Structure prediction by ZEFSAII (Michael W. Deem and Ramdas Pophale) SiO2 
 PCOD8224049
Probable space group: P C C A
;
_chemical_formula_sum "Si O2"
_cell_formula_units_Z 40
_cell_length_a 8.990503
_cell_length_b 21.994399
_cell_length_c 9.311844
_cell_angle_alpha 90.000000
_cell_angle_beta 90.000000
_cell_angle_gamma 90.000000
_cell_volume 1841.330646
_symmetry_space_group_name_H-M "P C C A"
_symmetry_group_IT_number 54
_symmetry_cell_setting 'orthorhombic'
loop_
_space_group_symop_operation_xyz
x,y,z
1/2-x,-y,z
1/2+x,-y,1/2-z
-x,y,1/2-z
-x,-y,-z
1/2+x,y,-z
1/2-x,y,1/2+z
x,-y,1/2+z
loop_
_atom_site_type_symbol
_atom_site_label
_atom_site_fract_x
_atom_site_fract_y
_atom_site_fract_z
Si Si1 0.103127 0.738948 0.384903
Si Si2 0.646387 0.057785 0.833574
Si Si3 0.368469 0.878233 0.861696
Si Si4 0.401727 0.535551 0.389630
Si Si5 0.907182 0.670089 0.609774
O O1 0.138100 0.809162 0.415445
O O2 0.255489 0.704441 0.356544
O O3 0.000000 0.730467 0.250000
O O4 0.012638 0.711276 0.514552
O O5 0.500000 0.035802 0.750000
O O6 0.719110 0.107783 0.727729
O O7 0.750000 0.000000 0.852704
O O8 0.612083 0.082330 0.993558
O O9 0.500000 0.891370 0.750000
O O10 0.250000 0.500000 0.356702
O O11 0.500000 0.540449 0.250000
O O12 0.500000 0.500000 0.500000
O O13 0.367736 0.603183 0.453441
O O14 0.000000 0.658277 0.750000
#
# Coordination Sequence:
#
# PCOD8224049 Si02
#       5
#     8   8   8   8   8
#     4  11  26  43  68 102 139 182 236 286 353 427
#     4  12  27  48  75 103 146 185 238 298 354 430
#     4  11  27  45  72 107 138 189 236 291 364 425
#     4  11  24  42  67  99 136 182 234 289 353 418
#     4  11  25  43  68  99 140 184 230 291 353 417
#
# _framework density 21.723421999999999
#
# number of rings (size 3 to 8) (size 9 to 14) (size 15 to 20)
#    0.000    0.800    0.000    5.400   11.200    8.800 
#    0.000    1.000    0.000    0.000    0.000    0.000 
#    0.000    0.000    0.000    0.000    0.000    0.000 
#
# Total GULP energy -496035.994943 kJ/mol
# GULP energy per Si atom -12400.899874 kJ/mol
# Density = 2.167398 g / cm^3
# Si number density = 21.723422 Si / 1000 Ang^3
#
#
#
# Elastic Constant Matrix: (Units=GPa)
#
#
# Indices 1 2 3 4 5 6 
#
# 1 138.7419 86.8939 27.4071 0.0000 0.0000 0.0000
# 2 86.8939 191.5142 76.2336 0.0000 0.0000 0.0000
# 3 27.4071 76.2336 108.7081 0.0000 0.0000 0.0000
# 4 0.0000 0.0000 0.0000 33.6630 0.0000 0.0000
# 5 0.0000 0.0000 0.0000 0.0000 33.4306 0.0000
# 6 0.0000 0.0000 0.0000 0.0000 0.0000 36.6249
#
#
#
# Elastic Compliance Matrix: (Units=1/GPa)
#
#
# Indices 1 2 3 4 5 6 
#
# 1 0.010136 -0.004969 0.000929 0.000000 0.000000 0.000000
# 2 -0.004969 0.009679 -0.005535 0.000000 0.000000 0.000000
# 3 0.000929 -0.005535 0.012846 0.000000 0.000000 0.000000
# 4 0.000000 0.000000 0.000000 0.029706 0.000000 0.000000
# 5 0.000000 0.000000 0.000000 0.000000 0.029913 0.000000
# 6 0.000000 0.000000 0.000000 0.000000 0.000000 0.027304
#
#
# Mechanical properties :
#
#
# Convention : Reuss Voigt Hill
#
# Bulk Modulus (GPa) = 74.00872 91.11481 82.56176
# Shear Modulus (GPa) = 34.90700 37.30568 36.10634
#
# Velocity S-wave (km/s) = 4.01294 4.14853 4.08130
# Velocity P-wave (km/s) = 7.45749 8.06109 7.76516
#
# Compressibility (1/GPa) = 0.01351192
#
# Stress axis : x y z
#
# Youngs Moduli (GPa) = 98.65816 103.31439 77.84351
#
# Poissons Ratio (x) = 0.51334 -0.07231
# Poissons Ratio (y) = 0.49020 0.43087
# Poissons Ratio (z) = -0.09165 0.57185
#
# Static dielectric constant tensor:
#      x y z
#    x 2.016530 0.000000 0.000000 
#    y 0.000000 4.579520 0.000000 
#    z 0.000000 0.000000 3.897040 
# 
# 
# High freq. dielectric constant tensor:
#      x y z
#    x 1.871790 0.000000 0.000000 
#    y 0.000000 1.876190 0.000000 
#    z 0.000000 0.000000 1.862990 
# 
# From -- ./inp_files/2529.got.cif
#   From: 2010.03.12/outbox.cif.g09.slc.cpg/sg54_2_cif.got.tgz:2529.got - 2010.04.16 15:00:50.
