data_PCOD8224472
_publ_section_title
;
Structure prediction by ZEFSAII (Michael W. Deem and Ramdas Pophale) SiO2 
 PCOD8224472
Probable space group: P B A M
;
_chemical_formula_sum "Si O2"
_cell_formula_units_Z 64
_cell_length_a 14.258343
_cell_length_b 28.489694
_cell_length_c 9.027183
_cell_angle_alpha 90.000000
_cell_angle_beta 90.000000
_cell_angle_gamma 90.000000
_cell_volume 3666.984626
_symmetry_space_group_name_H-M "P B A M"
_symmetry_group_IT_number 55
_symmetry_cell_setting 'orthorhombic'
loop_
_space_group_symop_operation_xyz
x,y,z
-x,-y,z
1/2+x,1/2-y,-z
1/2-x,1/2+y,-z
-x,-y,-z
x,y,-z
1/2-x,1/2+y,z
1/2+x,1/2-y,z
loop_
_atom_site_type_symbol
_atom_site_label
_atom_site_fract_x
_atom_site_fract_y
_atom_site_fract_z
Si Si1 0.112219 0.277652 0.170826
Si Si2 0.396535 0.319379 0.324429
Si Si3 0.107198 0.184824 0.668993
Si Si4 0.105092 0.722656 0.826733
Si Si5 0.706789 0.862671 0.671550
Si Si6 0.267098 0.865373 0.823765
Si Si7 0.393854 0.054573 0.824641
Si Si8 0.604684 0.051420 0.825200
O O1 0.147441 0.230245 0.247587
O O2 0.169350 0.322048 0.230716
O O3 0.003712 0.287060 0.203419
O O4 0.132877 0.270308 0.000000
O O5 0.383954 0.318144 0.500000
O O6 0.503806 0.330136 0.274616
O O7 0.362532 0.269923 0.255992
O O8 0.333782 0.360934 0.254877
O O9 0.098479 0.200419 0.500000
O O10 0.180433 0.142257 0.690244
O O11 0.158453 0.678442 0.762385
O O12 0.127619 0.728395 0.000000
O O13 0.677392 0.859298 0.500000
O O14 0.677913 0.912566 0.737601
O O15 0.317740 0.912509 0.763633
O O16 0.254016 0.866627 0.000000
O O17 0.500120 0.064752 0.769294
O O18 0.367218 0.001319 0.779937
O O19 0.383553 0.063077 0.000000
O O20 0.599845 0.055313 0.000000
#
# Coordination Sequence:
#
# PCOD8224472 Si02
#       8
#     8   8   8   8   8   8   8   8
#     4   9  18  30  47  71  98 124 155 192 232 278
#     4  10  20  34  48  66  94 129 165 201 237 277
#     4   9  20  35  47  61  92 132 164 194 234 277
#     4  10  19  32  49  71  98 129 161 194 233 284
#     4  11  21  32  48  72  98 126 159 199 241 283
#     4  10  18  30  49  73  97 124 157 195 235 281
#     4   9  17  33  55  76  97 126 157 189 233 288
#     4   8  16  32  54  76 100 126 155 190 234 286
#
# _framework density 17.453030999999999
#
# number of rings (size 3 to 8) (size 9 to 14) (size 15 to 20)
#    0.000    2.500    0.000    3.375    0.000    6.500 
#    0.000    3.750    0.000    0.750    0.000    5.250 
#    0.000    0.000    0.000    0.000    0.000    0.000 
#
# Total GULP energy -793539.304905 kJ/mol
# GULP energy per Si atom -12399.051639 kJ/mol
# Density = 1.741331 g / cm^3
# Si number density = 17.453031 Si / 1000 Ang^3
#
#
#
# Elastic Constant Matrix: (Units=GPa)
#
#
# Indices 1 2 3 4 5 6 
#
# 1 89.5344 72.7571 36.0284 0.0000 0.0000 0.0000
# 2 72.7571 113.0242 35.4201 0.0000 0.0000 0.0000
# 3 36.0284 35.4201 52.0164 0.0000 0.0000 0.0000
# 4 0.0000 0.0000 0.0000 10.0489 0.0000 0.0000
# 5 0.0000 0.0000 0.0000 0.0000 25.5140 0.0000
# 6 0.0000 0.0000 0.0000 0.0000 0.0000 32.0870
#
#
#
# Elastic Compliance Matrix: (Units=1/GPa)
#
#
# Indices 1 2 3 4 5 6 
#
# 1 0.026027 -0.014117 -0.008414 0.000000 0.000000 0.000000
# 2 -0.014117 0.018905 -0.003095 0.000000 0.000000 0.000000
# 3 -0.008414 -0.003095 0.027160 0.000000 0.000000 0.000000
# 4 0.000000 0.000000 0.000000 0.099513 0.000000 0.000000
# 5 0.000000 0.000000 0.000000 0.000000 0.039194 0.000000
# 6 0.000000 0.000000 0.000000 0.000000 0.000000 0.031165
#
#
# Mechanical properties :
#
#
# Convention : Reuss Voigt Hill
#
# Bulk Modulus (GPa) = 47.98657 60.33181 54.15919
# Shear Modulus (GPa) = 16.65757 20.88796 18.77277
#
# Velocity S-wave (km/s) = 3.09272 3.46325 3.28322
# Velocity P-wave (km/s) = 6.34883 7.11585 6.74325
#
# Compressibility (1/GPa) = 0.02083917
#
# Stress axis : x y z
#
# Youngs Moduli (GPa) = 38.42237 52.89493 36.81858
#
# Poissons Ratio (x) = 0.74673 0.30979
# Poissons Ratio (y) = 0.54242 0.11397
# Poissons Ratio (z) = 0.32328 0.16373
#
# Static dielectric constant tensor:
#      x y z
#    x 3.457650 0.000000 0.000000 
#    y 0.000000 3.355330 0.000000 
#    z 0.000000 0.000000 3.120900 
# 
# 
# High freq. dielectric constant tensor:
#      x y z
#    x 1.677670 0.000000 0.000000 
#    y 0.000000 1.656490 0.000000 
#    z 0.000000 0.000000 1.664020 
# 
# From -- ./inp_files/6915.got.cif
#   From: 2010.03.12/outbox.cif.g09.slc.cpg/sg55_4_cif.got.tgz:6915.got - 2010.04.16 15:19:21.
