data_PCOD8224816
_publ_section_title
;
Structure prediction by ZEFSAII (Michael W. Deem and Ramdas Pophale) SiO2 
 PCOD8224816
Probable space group: P B A M
;
_chemical_formula_sum "Si O2"
_cell_formula_units_Z 64
_cell_length_a 22.920897
_cell_length_b 7.904157
_cell_length_c 17.985379
_cell_angle_alpha 90.000000
_cell_angle_beta 90.000000
_cell_angle_gamma 90.000000
_cell_volume 3258.417740
_symmetry_space_group_name_H-M "P B A M"
_symmetry_group_IT_number 55
_symmetry_cell_setting 'orthorhombic'
loop_
_space_group_symop_operation_xyz
x,y,z
-x,-y,z
1/2+x,1/2-y,-z
1/2-x,1/2+y,-z
-x,-y,-z
x,y,-z
1/2-x,1/2+y,z
1/2+x,1/2-y,z
loop_
_atom_site_type_symbol
_atom_site_label
_atom_site_fract_x
_atom_site_fract_y
_atom_site_fract_z
Si Si1 0.929507 0.988038 0.181849
Si Si2 0.937793 0.359509 0.330548
Si Si3 0.435503 0.823883 0.912514
Si Si4 0.339198 0.991317 0.583946
Si Si5 0.122109 0.998896 0.661980
Si Si6 0.061729 0.648465 0.842207
Si Si7 0.723622 0.655393 0.414630
Si Si8 0.970520 0.820001 0.585452
O O1 0.910751 0.849618 0.121297
O O2 0.892400 0.941338 0.254506
O O3 0.906615 0.169930 0.151223
O O4 0.000000 0.000000 0.198393
O O5 0.897049 0.508162 0.364682
O O6 0.948500 0.394356 0.244113
O O7 0.001946 0.337993 0.367913
O O8 0.907012 0.183726 0.350978
O O9 0.502043 0.836732 0.887511
O O10 0.402682 0.992356 0.880000
O O11 0.428432 0.815916 0.000000
O O12 0.362632 0.973798 0.500000
O O13 0.292936 0.844467 0.605856
O O14 0.300060 0.157670 0.594660
O O15 0.189796 0.973632 0.641255
O O16 0.096843 0.147418 0.608026
O O17 0.715583 0.591139 0.500000
O O18 0.976804 0.771294 0.500000
O O19 0.000000 0.000000 0.604937
#
# Coordination Sequence:
#
# PCOD8224816 Si02
#       8
#     8   8   8   8   8   8   8   8
#     4   9  17  29  45  66  95 128 156 186 234 281
#     4   9  16  27  43  62  91 126 157 193 239 287
#     4  10  19  30  46  70  98 127 157 185 225 290
#     4   9  17  30  46  65  89 122 163 204 245 283
#     4   9  15  26  42  64  91 121 156 197 239 282
#     4   9  17  29  44  64  92 127 156 188 230 274
#     4   9  17  29  45  64  89 121 160 205 245 281
#     4   9  14  20  36  63  88 114 156 197 230 274
#
# _framework density 19.641434
#
# number of rings (size 3 to 8) (size 9 to 14) (size 15 to 20)
#    0.000    2.875    0.000    4.125    0.000    5.750 
#    2.250    0.000    0.000    0.000    0.000    4.375 
#    0.000    2.000    1.500    0.000    0.000    0.000 
#
# Total GULP energy -792918.748173 kJ/mol
# GULP energy per Si atom -12389.355440 kJ/mol
# Density = 1.959673 g / cm^3
# Si number density = 19.641434 Si / 1000 Ang^3
#
#
#
# Elastic Constant Matrix: (Units=GPa)
#
#
# Indices 1 2 3 4 5 6 
#
# 1 56.5052 -2.8766 -1.1763 0.0000 0.0000 0.0000
# 2 -2.8766 51.3301 15.2572 0.0000 0.0000 0.0000
# 3 -1.1763 15.2572 81.9679 0.0000 0.0000 0.0000
# 4 0.0000 0.0000 0.0000 11.2158 0.0000 0.0000
# 5 0.0000 0.0000 0.0000 0.0000 13.7504 0.0000
# 6 0.0000 0.0000 0.0000 0.0000 0.0000 16.1144
#
#
#
# Elastic Compliance Matrix: (Units=1/GPa)
#
#
# Indices 1 2 3 4 5 6 
#
# 1 0.017749 0.000973 0.000074 0.000000 0.000000 0.000000
# 2 0.000973 0.020676 -0.003835 0.000000 0.000000 0.000000
# 3 0.000074 -0.003835 0.012915 0.000000 0.000000 0.000000
# 4 0.000000 0.000000 0.000000 0.089160 0.000000 0.000000
# 5 0.000000 0.000000 0.000000 0.000000 0.072725 0.000000
# 6 0.000000 0.000000 0.000000 0.000000 0.000000 0.062056
#
#
# Mechanical properties :
#
#
# Convention : Reuss Voigt Hill
#
# Bulk Modulus (GPa) = 21.85179 23.57911 22.71545
# Shear Modulus (GPa) = 16.88554 20.12271 18.50413
#
# Velocity S-wave (km/s) = 2.93523 3.20426 3.07269
# Velocity P-wave (km/s) = 4.75783 5.07154 4.91719
#
# Compressibility (1/GPa) = 0.04576285
#
# Stress axis : x y z
#
# Youngs Moduli (GPa) = 56.34268 48.36515 77.43109
#
# Poissons Ratio (x) = -0.04705 -0.00570
# Poissons Ratio (y) = -0.05481 0.29692
# Poissons Ratio (z) = -0.00415 0.18546
#
# Static dielectric constant tensor:
#      x y z
#    x 3.409310 0.000000 0.000000 
#    y 0.000000 4.339050 0.000000 
#    z 0.000000 0.000000 3.364150 
# 
# 
# High freq. dielectric constant tensor:
#      x y z
#    x 1.712960 0.000000 0.000000 
#    y 0.000000 1.794410 0.000000 
#    z 0.000000 0.000000 1.739850 
# 
# From -- ./inp_files/21957.got.cif
#   From: 2010.03.12/outbox.cif.g09.slc.cpg/sg55_11_cif.got.tgz:21957.got - 2010.04.16 15:19:21.
