data_PCOD8224298
_publ_section_title
;
Structure prediction by ZEFSAII (Michael W. Deem and Ramdas Pophale) SiO2 
 PCOD8224298
Probable space group: P B A M
;
_chemical_formula_sum "Si O2"
_cell_formula_units_Z 64
_cell_length_a 19.950603
_cell_length_b 20.153920
_cell_length_c 9.070152
_cell_angle_alpha 90.000000
_cell_angle_beta 90.000000
_cell_angle_gamma 90.000000
_cell_volume 3646.952628
_symmetry_space_group_name_H-M "P B A M"
_symmetry_group_IT_number 55
_symmetry_cell_setting 'orthorhombic'
loop_
_space_group_symop_operation_xyz
x,y,z
-x,-y,z
1/2+x,1/2-y,-z
1/2-x,1/2+y,-z
-x,-y,-z
x,y,-z
1/2-x,1/2+y,z
1/2+x,1/2-y,z
loop_
_atom_site_type_symbol
_atom_site_label
_atom_site_fract_x
_atom_site_fract_y
_atom_site_fract_z
Si Si1 0.654514 0.146378 0.675783
Si Si2 0.678468 0.290498 0.337086
Si Si3 0.519601 0.304252 0.665447
Si Si4 0.463174 0.566641 0.826688
Si Si5 0.196039 0.483153 0.175718
Si Si6 0.015465 0.326104 0.172519
Si Si7 0.689368 0.418656 0.172511
Si Si8 0.058811 0.544171 0.828555
O O1 0.645424 0.139856 0.500000
O O2 0.693505 0.215138 0.715507
O O3 0.699169 0.087441 0.742394
O O4 0.581711 0.144834 0.750943
O O5 0.707399 0.302309 0.500000
O O6 0.598859 0.297271 0.336305
O O7 0.711003 0.346523 0.234283
O O8 0.490096 0.303670 0.500000
O O9 0.499755 0.372864 0.744655
O O10 0.489724 0.242502 0.756691
O O11 0.500000 0.500000 0.776395
O O12 0.385519 0.561342 0.778300
O O13 0.469818 0.579091 0.000000
O O14 0.260676 0.524474 0.229272
O O15 0.131152 0.523583 0.234524
O O16 0.196047 0.472156 0.000000
O O17 0.955378 0.378250 0.198812
O O18 0.030982 0.315780 0.000000
O O19 0.695518 0.411284 0.000000
O O20 0.000000 0.500000 0.753885
O O21 0.060133 0.527010 0.000000
#
# Coordination Sequence:
#
# PCOD8224298 Si02
#       8
#     8   8   8   8   8   8   8   8
#     4  10  19  30  46  72  98 125 161 200 238 280
#     4   8  16  30  47  66  92 122 153 192 233 279
#     4   9  17  29  46  72 100 123 155 198 240 285
#     4   9  17  31  52  76  99 123 156 199 248 299
#     4  10  19  32  49  70  97 126 160 201 240 284
#     4  10  17  28  48  69  94 128 163 200 239 280
#     4   9  18  31  50  74  95 119 157 202 241 282
#     4   9  16  28  46  69  95 127 162 194 235 280
#
# _framework density 17.548898999999999
#
# number of rings (size 3 to 8) (size 9 to 14) (size 15 to 20)
#    0.000    2.750    1.250    1.875    0.000    4.250 
#    0.000    1.875    2.750    0.000    0.000    0.000 
#    0.000    0.000    0.000    0.000    0.000    0.000 
#
# Total GULP energy -793351.868886 kJ/mol
# GULP energy per Si atom -12396.122951 kJ/mol
# Density = 1.750896 g / cm^3
# Si number density = 17.548899 Si / 1000 Ang^3
#
#
#
# Elastic Constant Matrix: (Units=GPa)
#
#
# Indices 1 2 3 4 5 6 
#
# 1 55.3380 53.0619 24.8054 0.0000 0.0000 0.0000
# 2 53.0619 171.7783 58.3063 0.0000 0.0000 0.0000
# 3 24.8054 58.3063 63.4583 0.0000 0.0000 0.0000
# 4 0.0000 0.0000 0.0000 26.8992 0.0000 0.0000
# 5 0.0000 0.0000 0.0000 0.0000 10.4164 0.0000
# 6 0.0000 0.0000 0.0000 0.0000 0.0000 25.7048
#
#
#
# Elastic Compliance Matrix: (Units=1/GPa)
#
#
# Indices 1 2 3 4 5 6 
#
# 1 0.026392 -0.006759 -0.004107 0.000000 0.000000 0.000000
# 2 -0.006759 0.010191 -0.006721 0.000000 0.000000 0.000000
# 3 -0.004107 -0.006721 0.023539 0.000000 0.000000 0.000000
# 4 0.000000 0.000000 0.000000 0.037176 0.000000 0.000000
# 5 0.000000 0.000000 0.000000 0.000000 0.096002 0.000000
# 6 0.000000 0.000000 0.000000 0.000000 0.000000 0.038903
#
#
# Mechanical properties :
#
#
# Convention : Reuss Voigt Hill
#
# Bulk Modulus (GPa) = 40.08194 62.54688 51.31441
# Shear Modulus (GPa) = 18.13613 22.89748 20.51681
#
# Velocity S-wave (km/s) = 3.21824 3.61609 3.42295
# Velocity P-wave (km/s) = 6.05798 7.29066 6.70272
#
# Compressibility (1/GPa) = 0.02494889
#
# Stress axis : x y z
#
# Youngs Moduli (GPa) = 37.89008 98.12989 42.48214
#
# Poissons Ratio (x) = 0.66322 0.17446
# Poissons Ratio (y) = 0.25608 0.28554
# Poissons Ratio (z) = 0.15560 0.65957
#
# Static dielectric constant tensor:
#      x y z
#    x 3.000440 0.000000 0.000000 
#    y 0.000000 3.552340 0.000000 
#    z 0.000000 0.000000 3.211450 
# 
# 
# High freq. dielectric constant tensor:
#      x y z
#    x 1.630770 0.000000 0.000000 
#    y 0.000000 1.694720 0.000000 
#    z 0.000000 0.000000 1.668880 
# 
# From -- ./inp_files/8994.got.cif
#   From: 2010.03.12/outbox.cif.g09.slc.cpg/sg55_5_cif.got.tgz:8994.got - 2010.04.16 15:19:21.
