data_PCOD8224969
_publ_section_title
;
Structure prediction by ZEFSAII (Michael W. Deem and Ramdas Pophale) SiO2 
 PCOD8224969
Probable space group: P B A M
;
_chemical_formula_sum "Si O2"
_cell_formula_units_Z 64
_cell_length_a 19.118388
_cell_length_b 20.722469
_cell_length_c 8.752456
_cell_angle_alpha 90.000000
_cell_angle_beta 90.000000
_cell_angle_gamma 90.000000
_cell_volume 3467.549792
_symmetry_space_group_name_H-M "P B A M"
_symmetry_group_IT_number 55
_symmetry_cell_setting 'orthorhombic'
loop_
_space_group_symop_operation_xyz
x,y,z
-x,-y,z
1/2+x,1/2-y,-z
1/2-x,1/2+y,-z
-x,-y,-z
x,y,-z
1/2-x,1/2+y,z
1/2+x,1/2-y,z
loop_
_atom_site_type_symbol
_atom_site_label
_atom_site_fract_x
_atom_site_fract_y
_atom_site_fract_z
Si Si1 0.038973 0.815947 0.819815
Si Si2 0.671485 0.136107 0.677728
Si Si3 0.333207 0.506657 0.178236
Si Si4 0.329618 0.368393 0.320422
Si Si5 0.961540 0.688356 0.818973
Si Si6 0.460114 0.566299 0.323323
Si Si7 0.037877 0.562851 0.821013
Si Si8 0.323922 0.999686 0.823817
O O1 0.114797 0.815673 0.737725
O O2 0.996813 0.753849 0.758685
O O3 0.995177 0.878892 0.777611
O O4 0.051026 0.813043 0.000000
O O5 0.657885 0.143393 0.500000
O O6 0.751321 0.155293 0.720605
O O7 0.618571 0.184307 0.762778
O O8 0.656902 0.062500 0.724412
O O9 0.347947 0.434600 0.235246
O O10 0.380129 0.557736 0.269862
O O11 0.253085 0.526316 0.213158
O O12 0.351315 0.510348 0.000000
O O13 0.338060 0.380851 0.500000
O O14 0.006487 0.628429 0.749762
O O15 0.961253 0.687923 0.000000
O O16 0.500000 0.500000 0.291721
O O17 0.462927 0.586476 0.500000
O O18 0.120931 0.556740 0.787037
O O19 0.000000 0.500000 0.749820
O O20 0.022333 0.565036 0.000000
O O21 0.329525 0.977650 0.000000
#
# Coordination Sequence:
#
# PCOD8224969 Si02
#       8
#     8   8   8   8   8   8   8   8
#     4  11  23  37  56  82 110 142 183 231 275 321
#     4  10  20  33  53  80 110 144 181 223 267 319
#     4  10  19  31  53  83 111 138 180 231 274 317
#     4  10  20  35  54  78 109 144 182 220 269 329
#     4  10  21  37  56  81 110 143 183 224 270 323
#     4  11  22  36  56  79 107 143 179 219 276 333
#     4   9  15  29  56  81 106 139 176 216 264 320
#     4   9  17  31  53  81 110 143 179 223 274 320
#
# _framework density 18.456835000000002
#
# number of rings (size 3 to 8) (size 9 to 14) (size 15 to 20)
#    0.000    2.000    2.500    1.875    0.000    3.500 
#    0.000    2.500    0.000    3.000    0.000    0.000 
#    0.000    0.000    0.000    0.000    0.000    0.000 
#
# Total GULP energy -793616.871094 kJ/mol
# GULP energy per Si atom -12400.263611 kJ/mol
# Density = 1.841483 g / cm^3
# Si number density = 18.456835 Si / 1000 Ang^3
#
#
#
# Elastic Constant Matrix: (Units=GPa)
#
#
# Indices 1 2 3 4 5 6 
#
# 1 144.0866 57.0972 26.5847 0.0000 0.0000 0.0000
# 2 57.0972 82.5277 21.4032 0.0000 0.0000 0.0000
# 3 26.5847 21.4032 30.9614 0.0000 0.0000 0.0000
# 4 0.0000 0.0000 0.0000 10.2722 0.0000 0.0000
# 5 0.0000 0.0000 0.0000 0.0000 27.2151 0.0000
# 6 0.0000 0.0000 0.0000 0.0000 0.0000 30.3914
#
#
#
# Elastic Compliance Matrix: (Units=1/GPa)
#
#
# Indices 1 2 3 4 5 6 
#
# 1 0.010088 -0.005767 -0.004675 0.000000 0.000000 0.000000
# 2 -0.005767 0.018061 -0.007533 0.000000 0.000000 0.000000
# 3 -0.004675 -0.007533 0.041521 0.000000 0.000000 0.000000
# 4 0.000000 0.000000 0.000000 0.097351 0.000000 0.000000
# 5 0.000000 0.000000 0.000000 0.000000 0.036744 0.000000
# 6 0.000000 0.000000 0.000000 0.000000 0.000000 0.032904
#
#
# Mechanical properties :
#
#
# Convention : Reuss Voigt Hill
#
# Bulk Modulus (GPa) = 29.65796 51.97179 40.81487
# Shear Modulus (GPa) = 17.61434 23.74178 20.67806
#
# Velocity S-wave (km/s) = 3.09261 3.59045 3.35079
# Velocity P-wave (km/s) = 5.37178 6.73856 6.09361
#
# Compressibility (1/GPa) = 0.03371776
#
# Stress axis : x y z
#
# Youngs Moduli (GPa) = 99.12550 55.36832 24.08445
#
# Poissons Ratio (x) = 0.31931 0.11261
# Poissons Ratio (y) = 0.57166 0.18144
# Poissons Ratio (z) = 0.46346 0.41711
#
# Static dielectric constant tensor:
#      x y z
#    x 3.729550 0.000000 0.000000 
#    y 0.000000 3.248240 0.000000 
#    z 0.000000 0.000000 3.283130 
# 
# 
# High freq. dielectric constant tensor:
#      x y z
#    x 1.735310 0.000000 0.000000 
#    y 0.000000 1.682000 0.000000 
#    z 0.000000 0.000000 1.707950 
# 
# From -- ./inp_files/9000.got.cif
#   From: 2010.03.12/outbox.cif.g09.slc.cpg/sg55_5_cif.got.tgz:9000.got - 2010.04.16 15:19:21.
