data_PCOD8224091
_publ_section_title
;
Structure prediction by ZEFSAII (Michael W. Deem and Ramdas Pophale) SiO2 
 PCOD8224091
Probable space group: P C C A
;
_chemical_formula_sum "Si O2"
_cell_formula_units_Z 32
_cell_length_a 14.564715
_cell_length_b 6.352962
_cell_length_c 16.294741
_cell_angle_alpha 90.000000
_cell_angle_beta 90.000000
_cell_angle_gamma 90.000000
_cell_volume 1507.737409
_symmetry_space_group_name_H-M "P C C A"
_symmetry_group_IT_number 54
_symmetry_cell_setting 'orthorhombic'
loop_
_space_group_symop_operation_xyz
x,y,z
1/2-x,-y,z
1/2+x,-y,1/2-z
-x,y,1/2-z
-x,-y,-z
1/2+x,y,-z
1/2-x,y,1/2+z
x,-y,1/2+z
loop_
_atom_site_type_symbol
_atom_site_label
_atom_site_fract_x
_atom_site_fract_y
_atom_site_fract_z
Si Si1 0.965571 0.795339 0.047379
Si Si2 0.250000 0.500000 0.707466
Si Si3 0.574271 0.434262 0.887458
Si Si4 0.000000 0.158281 0.250000
Si Si5 0.840700 0.125338 0.696258
O O1 0.882612 0.845570 0.107060
O O2 0.043872 0.680256 0.103874
O O3 0.923692 0.641404 0.980401
O O4 0.000000 0.000000 0.000000
O O5 0.175023 0.609150 0.649341
O O6 0.312213 0.655916 0.761556
O O7 0.501154 0.305853 0.831113
O O8 0.910443 0.009959 0.252112
O O9 0.750000 0.000000 0.680324
#
# Coordination Sequence:
#
# PCOD8224091 Si02
#       5
#     8   4   8   4   8
#     4  11  25  46  70 101 143 195 233 295 374 436
#     4  12  26  44  70 112 136 186 250 302 358 438
#     4  11  25  44  72 100 144 184 239 297 364 436
#     4  12  22  50  72 104 146 194 242 308 370 438
#     4  12  26  44  73 102 142 185 243 297 362 440
#
# _framework density 21.223856000000001
#
# number of rings (size 3 to 8) (size 9 to 14) (size 15 to 20)
#    0.000    0.500    5.000    3.000    0.000    3.000 
#    0.000    0.000    0.000    0.000    0.000    0.000 
#    0.000    0.000    0.000    0.000    0.000    0.000 
#
# Total GULP energy -396695.645765 kJ/mol
# GULP energy per Si atom -12396.738930 kJ/mol
# Density = 2.117555 g / cm^3
# Si number density = 21.223856 Si / 1000 Ang^3
#
#
#
# Elastic Constant Matrix: (Units=GPa)
#
#
# Indices 1 2 3 4 5 6 
#
# 1 140.0180 62.1484 48.2161 0.0000 0.0000 0.0000
# 2 62.1484 127.2157 52.4206 0.0000 0.0000 0.0000
# 3 48.2161 52.4206 119.7014 0.0000 0.0000 0.0000
# 4 0.0000 0.0000 0.0000 49.6978 0.0000 0.0000
# 5 0.0000 0.0000 0.0000 0.0000 34.7992 0.0000
# 6 0.0000 0.0000 0.0000 0.0000 0.0000 46.9482
#
#
#
# Elastic Compliance Matrix: (Units=1/GPa)
#
#
# Indices 1 2 3 4 5 6 
#
# 1 0.009574 -0.003768 -0.002206 0.000000 0.000000 0.000000
# 2 -0.003768 0.011074 -0.003332 0.000000 0.000000 0.000000
# 3 -0.002206 -0.003332 0.010702 0.000000 0.000000 0.000000
# 4 0.000000 0.000000 0.000000 0.020122 0.000000 0.000000
# 5 0.000000 0.000000 0.000000 0.000000 0.028736 0.000000
# 6 0.000000 0.000000 0.000000 0.000000 0.000000 0.021300
#
#
# Mechanical properties :
#
#
# Convention : Reuss Voigt Hill
#
# Bulk Modulus (GPa) = 78.50679 79.16724 78.83701
# Shear Modulus (GPa) = 40.20338 41.23238 40.71788
#
# Velocity S-wave (km/s) = 4.35702 4.41243 4.38482
# Velocity P-wave (km/s) = 7.89821 7.95873 7.92853
#
# Compressibility (1/GPa) = 0.01273775
#
# Stress axis : x y z
#
# Youngs Moduli (GPa) = 104.44702 90.29762 93.44022
#
# Poissons Ratio (x) = 0.34025 0.20616
# Poissons Ratio (y) = 0.39357 0.31134
# Poissons Ratio (z) = 0.23045 0.30087
#
# Static dielectric constant tensor:
#      x y z
#    x 3.837180 0.000000 0.000000 
#    y 0.000000 4.358810 0.000000 
#    z 0.000000 0.000000 3.916070 
# 
# 
# High freq. dielectric constant tensor:
#      x y z
#    x 1.829000 0.000000 0.000000 
#    y 0.000000 1.845480 0.000000 
#    z 0.000000 0.000000 1.847040 
# 
# From -- ./inp_files/17611.got.cif
#   From: 2010.03.12/outbox.cif.g09.slc.cpg/sg54_9_cif.got.tgz:17611.got - 2010.04.16 15:00:50.
