data_PCOD8224268
_publ_section_title
;
Structure prediction by ZEFSAII (Michael W. Deem and Ramdas Pophale) SiO2 
 PCOD8224268
Probable space group: P B A M
;
_chemical_formula_sum "Si O2"
_cell_formula_units_Z 64
_cell_length_a 18.323632
_cell_length_b 26.748775
_cell_length_c 8.893563
_cell_angle_alpha 90.000000
_cell_angle_beta 90.000000
_cell_angle_gamma 90.000000
_cell_volume 4359.043918
_symmetry_space_group_name_H-M "P B A M"
_symmetry_group_IT_number 55
_symmetry_cell_setting 'orthorhombic'
loop_
_space_group_symop_operation_xyz
x,y,z
-x,-y,z
1/2+x,1/2-y,-z
1/2-x,1/2+y,-z
-x,-y,-z
x,y,-z
1/2-x,1/2+y,z
1/2+x,1/2-y,z
loop_
_atom_site_type_symbol
_atom_site_label
_atom_site_fract_x
_atom_site_fract_y
_atom_site_fract_z
Si Si1 0.831744 0.850725 0.823756
Si Si2 0.918098 0.944337 0.179079
Si Si3 0.794297 0.699659 0.330778
Si Si4 0.792887 0.302353 0.334290
Si Si5 0.663277 0.651862 0.179042
Si Si6 0.418532 0.445387 0.821913
Si Si7 0.574990 0.740521 0.679009
Si Si8 0.919483 0.752218 0.822241
O O1 0.864533 0.901841 0.753595
O O2 0.748758 0.842585 0.768269
O O3 0.884183 0.805197 0.775920
O O4 0.827130 0.854676 0.000000
O O5 0.000000 0.934571 0.240267
O O6 0.891687 0.999565 0.231897
O O7 0.917841 0.940610 0.000000
O O8 0.812951 0.681644 0.500000
O O9 0.750889 0.750952 0.335644
O O10 0.743603 0.658913 0.248460
O O11 0.868164 0.707095 0.235263
O O12 0.796383 0.325839 0.500000
O O13 0.874120 0.288325 0.276908
O O14 0.637125 0.597051 0.233281
O O15 0.604148 0.691050 0.239743
O O16 0.667377 0.657116 0.000000
O O17 0.423175 0.444873 0.000000
O O18 0.576636 0.731783 0.500000
O O19 0.495177 0.753306 0.736502
O O20 0.931000 0.747704 0.000000
#
# Coordination Sequence:
#
# PCOD8224268 Si02
#       8
#     8   8   8   8   8   8   8   8
#     4   9  16  25  40  59  78 101 132 165 198 232
#     4   8  13  23  37  56  80 105 132 164 201 238
#     4   9  17  29  41  55  78 108 134 160 198 243
#     4   8  16  28  39  52  74 103 133 159 190 232
#     4  10  17  26  41  60  79 104 139 174 200 227
#     4   8  14  23  37  56  80 106 133 167 203 232
#     4  10  19  29  40  56  79 109 137 163 199 244
#     4  10  18  27  41  62  82 102 132 170 201 232
#
# _framework density 14.682117999999999
#
# number of rings (size 3 to 8) (size 9 to 14) (size 15 to 20)
#    0.000    3.000    0.000    3.750    0.000    6.000 
#    0.000    0.000    0.000    1.500    0.000    5.250 
#    0.000    1.000    0.000   11.500    0.000    2.875 
#
# Total GULP energy -793157.752126 kJ/mol
# GULP energy per Si atom -12393.089877 kJ/mol
# Density = 1.464870 g / cm^3
# Si number density = 14.682118 Si / 1000 Ang^3
#
#
#
# Elastic Constant Matrix: (Units=GPa)
#
#
# Indices 1 2 3 4 5 6 
#
# 1 99.9664 61.2135 30.7835 0.0000 0.0000 0.0000
# 2 61.2135 94.9733 28.1418 0.0000 0.0000 0.0000
# 3 30.7835 28.1418 42.7769 0.0000 0.0000 0.0000
# 4 0.0000 0.0000 0.0000 7.7374 0.0000 0.0000
# 5 0.0000 0.0000 0.0000 0.0000 24.5107 0.0000
# 6 0.0000 0.0000 0.0000 0.0000 0.0000 26.3298
#
#
#
# Elastic Compliance Matrix: (Units=1/GPa)
#
#
# Indices 1 2 3 4 5 6 
#
# 1 0.017899 -0.009589 -0.006572 0.000000 0.000000 0.000000
# 2 -0.009589 0.018216 -0.005083 0.000000 0.000000 0.000000
# 3 -0.006572 -0.005083 0.031451 0.000000 0.000000 0.000000
# 4 0.000000 0.000000 0.000000 0.129242 0.000000 0.000000
# 5 0.000000 0.000000 0.000000 0.000000 0.040799 0.000000
# 6 0.000000 0.000000 0.000000 0.000000 0.000000 0.037980
#
#
# Mechanical properties :
#
#
# Convention : Reuss Voigt Hill
#
# Bulk Modulus (GPa) = 39.87767 53.11046 46.49407
# Shear Modulus (GPa) = 15.31704 19.55410 17.43557
#
# Velocity S-wave (km/s) = 3.23343 3.65339 3.44981
# Velocity P-wave (km/s) = 6.41559 7.35176 6.89957
#
# Compressibility (1/GPa) = 0.02507669
#
# Stress axis : x y z
#
# Youngs Moduli (GPa) = 55.86915 54.89692 31.79568
#
# Poissons Ratio (x) = 0.52641 0.20897
# Poissons Ratio (y) = 0.53573 0.16163
# Poissons Ratio (z) = 0.36719 0.27905
#
# Static dielectric constant tensor:
#      x y z
#    x 2.970290 0.000000 0.000000 
#    y 0.000000 2.908440 0.000000 
#    z 0.000000 0.000000 2.770500 
# 
# 
# High freq. dielectric constant tensor:
#      x y z
#    x 1.552420 0.000000 0.000000 
#    y 0.000000 1.530420 0.000000 
#    z 0.000000 0.000000 1.553160 
# 
# From -- ./inp_files/8181.got.cif
#   From: 2010.03.12/outbox.cif.g09.slc.cpg/sg55_5_cif.got.tgz:8181.got - 2010.04.16 15:19:21.
