data_PCOD8224681
_publ_section_title
;
Structure prediction by ZEFSAII (Michael W. Deem and Ramdas Pophale) SiO2 
 PCOD8224681
Probable space group: P B A M
;
_chemical_formula_sum "Si O2"
_cell_formula_units_Z 64
_cell_length_a 15.344510
_cell_length_b 23.958322
_cell_length_c 9.138100
_cell_angle_alpha 90.000000
_cell_angle_beta 90.000000
_cell_angle_gamma 90.000000
_cell_volume 3359.427929
_symmetry_space_group_name_H-M "P B A M"
_symmetry_group_IT_number 55
_symmetry_cell_setting 'orthorhombic'
loop_
_space_group_symop_operation_xyz
x,y,z
-x,-y,z
1/2+x,1/2-y,-z
1/2-x,1/2+y,-z
-x,-y,-z
x,y,-z
1/2-x,1/2+y,z
1/2+x,1/2-y,z
loop_
_atom_site_type_symbol
_atom_site_label
_atom_site_fract_x
_atom_site_fract_y
_atom_site_fract_z
Si Si1 0.399368 0.500939 0.829423
Si Si2 0.342289 0.115850 0.671957
Si Si3 0.854874 0.615127 0.830815
Si Si4 0.149856 0.110432 0.327997
Si Si5 0.008941 0.814568 0.673390
Si Si6 0.997700 0.687441 0.674002
Si Si7 0.343833 0.379488 0.832211
Si Si8 0.603068 0.003932 0.332423
O O1 0.500000 0.500000 0.786032
O O2 0.352447 0.549697 0.742161
O O3 0.357086 0.442903 0.778310
O O4 0.385348 0.512307 0.000000
O O5 0.357152 0.112568 0.500000
O O6 0.244634 0.136754 0.710691
O O7 0.413451 0.159087 0.735044
O O8 0.357721 0.053463 0.733033
O O9 0.756508 0.637350 0.812510
O O10 0.861095 0.553088 0.767878
O O11 0.915028 0.657492 0.743171
O O12 0.882683 0.613672 0.000000
O O13 0.138967 0.102837 0.500000
O O14 0.073873 0.150432 0.266072
O O15 0.014732 0.818147 0.500000
O O16 0.997480 0.751253 0.726192
O O17 0.098539 0.837855 0.736974
O O18 0.989784 0.682263 0.500000
O O19 0.374552 0.374633 0.000000
O O20 0.632224 0.014753 0.500000
O O21 0.500000 0.000000 0.321807
#
# Coordination Sequence:
#
# PCOD8224681 Si02
#       8
#     8   8   8   8   8   8   8   8
#     4  10  19  34  57  81 108 149 184 213 271 339
#     4   9  18  34  56  79 108 144 179 222 279 334
#     4  11  23  37  56  85 116 147 183 232 282 328
#     4  10  20  34  54  84 113 136 175 232 281 324
#     4  10  22  37  58  85 109 142 189 235 277 321
#     4  10  21  40  60  79 109 149 190 232 275 332
#     4  10  22  39  57  80 115 151 185 226 277 337
#     4  10  18  33  58  83 108 148 189 223 279 345
#
# _framework density 19.050863
#
# number of rings (size 3 to 8) (size 9 to 14) (size 15 to 20)
#    0.000    2.000    2.500    1.125    0.000    3.500 
#    0.000    3.125    0.000    0.000    0.000    0.000 
#    0.000    0.000    0.000    0.000    0.000    0.000 
#
# Total GULP energy -793705.194495 kJ/mol
# GULP energy per Si atom -12401.643664 kJ/mol
# Density = 1.900750 g / cm^3
# Si number density = 19.050863 Si / 1000 Ang^3
#
#
#
# Elastic Constant Matrix: (Units=GPa)
#
#
# Indices 1 2 3 4 5 6 
#
# 1 115.2835 57.6181 28.0147 0.0000 0.0000 0.0000
# 2 57.6181 136.8135 31.7411 0.0000 0.0000 0.0000
# 3 28.0147 31.7411 32.3086 0.0000 0.0000 0.0000
# 4 0.0000 0.0000 0.0000 7.0419 0.0000 0.0000
# 5 0.0000 0.0000 0.0000 0.0000 24.4417 0.0000
# 6 0.0000 0.0000 0.0000 0.0000 0.0000 14.4430
#
#
#
# Elastic Compliance Matrix: (Units=1/GPa)
#
#
# Indices 1 2 3 4 5 6 
#
# 1 0.012133 -0.003457 -0.007125 0.000000 0.000000 0.000000
# 2 -0.003457 0.010452 -0.007271 0.000000 0.000000 0.000000
# 3 -0.007125 -0.007271 0.044272 0.000000 0.000000 0.000000
# 4 0.000000 0.000000 0.000000 0.142008 0.000000 0.000000
# 5 0.000000 0.000000 0.000000 0.000000 0.040914 0.000000
# 6 0.000000 0.000000 0.000000 0.000000 0.000000 0.069238
#
#
# Mechanical properties :
#
#
# Convention : Reuss Voigt Hill
#
# Bulk Modulus (GPa) = 32.09971 57.68370 44.89170
# Shear Modulus (GPa) = 13.69466 20.32076 17.00771
#
# Velocity S-wave (km/s) = 2.68404 3.26952 2.99114
# Velocity P-wave (km/s) = 5.14699 6.67814 5.96192
#
# Compressibility (1/GPa) = 0.03115293
#
# Stress axis : x y z
#
# Youngs Moduli (GPa) = 82.41733 95.67593 22.58745
#
# Poissons Ratio (x) = 0.33075 0.16093
# Poissons Ratio (y) = 0.28491 0.16423
# Poissons Ratio (z) = 0.58719 0.69564
#
# Static dielectric constant tensor:
#      x y z
#    x 3.648510 0.000000 0.000000 
#    y 0.000000 3.553130 0.000000 
#    z 0.000000 0.000000 3.260900 
# 
# 
# High freq. dielectric constant tensor:
#      x y z
#    x 1.755830 0.000000 0.000000 
#    y 0.000000 1.738920 0.000000 
#    z 0.000000 0.000000 1.717250 
# 
# From -- ./inp_files/6614.got.cif
#   From: 2010.03.12/outbox.cif.g09.slc.cpg/sg55_4_cif.got.tgz:6614.got - 2010.04.16 15:19:21.
