data_PCOD8224113
_publ_section_title
;
Structure prediction by ZEFSAII (Michael W. Deem and Ramdas Pophale) SiO2 
 PCOD8224113
Probable space group: P C C A
;
_chemical_formula_sum "Si O2"
_cell_formula_units_Z 36
_cell_length_a 11.258002
_cell_length_b 5.059769
_cell_length_c 26.237373
_cell_angle_alpha 90.000000
_cell_angle_beta 90.000000
_cell_angle_gamma 90.000000
_cell_volume 1494.556580
_symmetry_space_group_name_H-M "P C C A"
_symmetry_group_IT_number 54
_symmetry_cell_setting 'orthorhombic'
loop_
_space_group_symop_operation_xyz
x,y,z
1/2-x,-y,z
1/2+x,-y,1/2-z
-x,y,1/2-z
-x,-y,-z
1/2+x,y,-z
1/2-x,y,1/2+z
x,-y,1/2+z
loop_
_atom_site_type_symbol
_atom_site_label
_atom_site_fract_x
_atom_site_fract_y
_atom_site_fract_z
Si Si1 0.250000 0.000000 0.040117
Si Si2 0.410939 0.625985 0.886969
Si Si3 0.250000 0.500000 0.303348
Si Si4 0.064583 0.123409 0.121620
Si Si5 0.250000 0.500000 0.976619
Si Si6 0.627868 0.138323 0.765881
O O1 0.152209 0.150773 0.074114
O O2 0.302393 0.248903 0.008136
O O3 0.315683 0.700609 0.842748
O O4 0.456636 0.326484 0.880616
O O5 0.352442 0.636733 0.942705
O O6 0.518948 0.824733 0.881093
O O7 0.359145 0.594918 0.267163
O O8 0.136384 0.177098 0.173753
O O9 0.500000 0.006642 0.750000
O O10 0.750000 0.000000 0.747124
#
# Coordination Sequence:
#
# PCOD8224113 Si02
#       6
#     4   8   4   8   4   8
#     4  12  26  46  72 108 146 188 248 320 386 454
#     4  11  26  48  73 105 146 196 253 315 375 461
#     4  11  26  43  74 104 154 195 262 303 384 456
#     4  12  26  46  72 107 149 194 245 317 383 453
#     4  11  26  47  76 106 140 193 252 315 388 462
#     4  12  26  46  75 111 153 209 252 315 384 463
#
# _framework density 24.087412
#
# number of rings (size 3 to 8) (size 9 to 14) (size 15 to 20)
#    0.000    0.444    3.333    4.000    3.111    8.889 
#    0.000    0.000    0.000    0.000    0.000    0.000 
#    0.000    0.000    0.000    0.000    0.000    0.000 
#
# Total GULP energy -446120.366196 kJ/mol
# GULP energy per Si atom -12392.232394 kJ/mol
# Density = 2.403259 g / cm^3
# Si number density = 24.087412 Si / 1000 Ang^3
#
#
#
# Elastic Constant Matrix: (Units=GPa)
#
#
# Indices 1 2 3 4 5 6 
#
# 1 128.5998 23.7140 47.5032 0.0000 0.0000 0.0000
# 2 23.7140 88.8249 43.5043 0.0000 0.0000 0.0000
# 3 47.5032 43.5043 172.1787 0.0000 0.0000 0.0000
# 4 0.0000 0.0000 0.0000 21.8697 0.0000 0.0000
# 5 0.0000 0.0000 0.0000 0.0000 32.0909 0.0000
# 6 0.0000 0.0000 0.0000 0.0000 0.0000 36.4575
#
#
#
# Elastic Compliance Matrix: (Units=1/GPa)
#
#
# Indices 1 2 3 4 5 6 
#
# 1 0.008793 -0.001323 -0.002092 0.000000 0.000000 0.000000
# 2 -0.001323 0.013047 -0.002932 0.000000 0.000000 0.000000
# 3 -0.002092 -0.002932 0.007126 0.000000 0.000000 0.000000
# 4 0.000000 0.000000 0.000000 0.045725 0.000000 0.000000
# 5 0.000000 0.000000 0.000000 0.000000 0.031161 0.000000
# 6 0.000000 0.000000 0.000000 0.000000 0.000000 0.027429
#
#
# Mechanical properties :
#
#
# Convention : Reuss Voigt Hill
#
# Bulk Modulus (GPa) = 61.45105 68.78294 65.11699
# Shear Modulus (GPa) = 33.02550 36.40908 34.71729
#
# Velocity S-wave (km/s) = 3.70681 3.89207 3.80057
# Velocity P-wave (km/s) = 6.62478 6.98678 6.80819
#
# Compressibility (1/GPa) = 0.01627312
#
# Stress axis : x y z
#
# Youngs Moduli (GPa) = 113.73167 76.64515 140.33718
#
# Poissons Ratio (x) = 0.10140 0.29352
# Poissons Ratio (y) = 0.15047 0.41141
# Poissons Ratio (z) = 0.23788 0.22469
#
# Static dielectric constant tensor:
#      x y z
#    x 4.475240 0.000000 0.000000 
#    y 0.000000 4.064470 0.000000 
#    z 0.000000 0.000000 4.539300 
# 
# 
# High freq. dielectric constant tensor:
#      x y z
#    x 1.956950 0.000000 0.000000 
#    y 0.000000 1.936560 0.000000 
#    z 0.000000 0.000000 1.981630 
# 
# From -- ./inp_files/23891.got.cif
#   From: 2010.03.12/outbox.cif.g09.slc.cpg/sg54_12_cif.got.tgz:23891.got - 2010.04.16 15:00:50.
