data_PCOD8224934
_publ_section_title
;
Structure prediction by ZEFSAII (Michael W. Deem and Ramdas Pophale) SiO2 
 PCOD8224934
Probable space group: P B A M
;
_chemical_formula_sum "Si O2"
_cell_formula_units_Z 64
_cell_length_a 14.562617
_cell_length_b 24.593680
_cell_length_c 9.000720
_cell_angle_alpha 90.000000
_cell_angle_beta 90.000000
_cell_angle_gamma 90.000000
_cell_volume 3223.592949
_symmetry_space_group_name_H-M "P B A M"
_symmetry_group_IT_number 55
_symmetry_cell_setting 'orthorhombic'
loop_
_space_group_symop_operation_xyz
x,y,z
-x,-y,z
1/2+x,1/2-y,-z
1/2-x,1/2+y,-z
-x,-y,-z
x,y,-z
1/2-x,1/2+y,z
1/2+x,1/2-y,z
loop_
_atom_site_type_symbol
_atom_site_label
_atom_site_fract_x
_atom_site_fract_y
_atom_site_fract_z
Si Si1 0.637998 0.918872 0.324262
Si Si2 0.831686 0.306864 0.829408
Si Si3 0.458467 0.927005 0.828951
Si Si4 0.678331 0.605041 0.330462
Si Si5 0.368906 0.730327 0.834588
Si Si6 0.129648 0.336819 0.333079
Si Si7 0.729345 0.010991 0.173289
Si Si8 0.071181 0.804871 0.169305
O O1 0.644907 0.922036 0.500000
O O2 0.635165 0.856576 0.271433
O O3 0.544611 0.948366 0.266745
O O4 0.723957 0.952065 0.253154
O O5 0.721547 0.305878 0.813115
O O6 0.880718 0.251066 0.772536
O O7 0.860823 0.317702 0.000000
O O8 0.439741 0.864823 0.782087
O O9 0.367635 0.960580 0.793659
O O10 0.487379 0.930793 0.000000
O O11 0.653984 0.591227 0.500000
O O12 0.769315 0.640171 0.315177
O O13 0.689740 0.547907 0.243121
O O14 0.598707 0.642115 0.262109
O O15 0.367754 0.773997 0.704786
O O16 0.461199 0.695599 0.816480
O O17 0.366372 0.757117 0.000000
O O18 0.092577 0.345437 0.500000
O O19 0.749455 0.003210 0.000000
O O20 0.103568 0.813444 0.000000
#
# Coordination Sequence:
#
# PCOD8224934 Si02
#       8
#     8   8   8   8   8   8   8   8
#     4  12  24  36  53  79 113 148 186 232 286 340
#     4  10  21  37  56  80 115 154 191 231 275 333
#     4  10  20  34  54  79 109 147 189 228 273 334
#     4  10  20  34  54  81 112 143 180 225 276 329
#     4  10  20  34  55  81 109 148 193 232 276 331
#     4  10  19  31  50  78 111 145 181 226 276 327
#     4  10  21  37  58  80 107 147 190 231 277 332
#     4  10  20  35  57  83 110 144 188 232 276 329
#
# _framework density 19.853622000000001
#
# number of rings (size 3 to 8) (size 9 to 14) (size 15 to 20)
#    0.000    1.750    1.250    3.750    0.000    6.500 
#    0.000    0.000    0.000    0.750    0.000    5.250 
#    0.000    0.000    0.000    0.000    0.000    0.000 
#
# Total GULP energy -793548.770118 kJ/mol
# GULP energy per Si atom -12399.199533 kJ/mol
# Density = 1.980843 g / cm^3
# Si number density = 19.853622 Si / 1000 Ang^3
#
#
#
# Elastic Constant Matrix: (Units=GPa)
#
#
# Indices 1 2 3 4 5 6 
#
# 1 66.7930 3.8002 20.3899 0.0000 0.0000 0.0000
# 2 3.8002 35.4069 5.3809 0.0000 0.0000 0.0000
# 3 20.3899 5.3809 71.8148 0.0000 0.0000 0.0000
# 4 0.0000 0.0000 0.0000 31.1011 0.0000 0.0000
# 5 0.0000 0.0000 0.0000 0.0000 19.5591 0.0000
# 6 0.0000 0.0000 0.0000 0.0000 0.0000 20.1974
#
#
#
# Elastic Compliance Matrix: (Units=1/GPa)
#
#
# Indices 1 2 3 4 5 6 
#
# 1 0.016432 -0.001067 -0.004586 0.000000 0.000000 0.000000
# 2 -0.001067 0.028638 -0.001843 0.000000 0.000000 0.000000
# 3 -0.004586 -0.001843 0.015365 0.000000 0.000000 0.000000
# 4 0.000000 0.000000 0.000000 0.032153 0.000000 0.000000
# 5 0.000000 0.000000 0.000000 0.000000 0.051127 0.000000
# 6 0.000000 0.000000 0.000000 0.000000 0.000000 0.049511
#
#
# Mechanical properties :
#
#
# Convention : Reuss Voigt Hill
#
# Bulk Modulus (GPa) = 22.00501 25.90630 23.95565
# Shear Modulus (GPa) = 22.38493 23.80111 23.09302
#
# Velocity S-wave (km/s) = 3.36147 3.46617 3.41422
# Velocity P-wave (km/s) = 5.11602 5.39408 5.25689
#
# Compressibility (1/GPa) = 0.04544420
#
# Stress axis : x y z
#
# Youngs Moduli (GPa) = 60.85632 34.91903 65.08413
#
# Poissons Ratio (x) = 0.03725 0.29845
# Poissons Ratio (y) = 0.06492 0.11994
# Poissons Ratio (z) = 0.27906 0.06435
#
# Static dielectric constant tensor:
#      x y z
#    x 3.508370 0.000000 0.000000 
#    y 0.000000 3.530560 0.000000 
#    z 0.000000 0.000000 3.584690 
# 
# 
# High freq. dielectric constant tensor:
#      x y z
#    x 1.753630 0.000000 0.000000 
#    y 0.000000 1.763910 0.000000 
#    z 0.000000 0.000000 1.774890 
# 
# From -- ./inp_files/6687.got.cif
#   From: 2010.03.12/outbox.cif.g09.slc.cpg/sg55_4_cif.got.tgz:6687.got - 2010.04.16 15:19:21.
