data_PCOD8224874
_publ_section_title
;
Structure prediction by ZEFSAII (Michael W. Deem and Ramdas Pophale) SiO2 
 PCOD8224874
Probable space group: P B A M
;
_chemical_formula_sum "Si O2"
_cell_formula_units_Z 64
_cell_length_a 20.003852
_cell_length_b 20.858488
_cell_length_c 8.801683
_cell_angle_alpha 90.000000
_cell_angle_beta 90.000000
_cell_angle_gamma 90.000000
_cell_volume 3672.503173
_symmetry_space_group_name_H-M "P B A M"
_symmetry_group_IT_number 55
_symmetry_cell_setting 'orthorhombic'
loop_
_space_group_symop_operation_xyz
x,y,z
-x,-y,z
1/2+x,1/2-y,-z
1/2-x,1/2+y,-z
-x,-y,-z
x,y,-z
1/2-x,1/2+y,z
1/2+x,1/2-y,z
loop_
_atom_site_type_symbol
_atom_site_label
_atom_site_fract_x
_atom_site_fract_y
_atom_site_fract_z
Si Si1 0.074835 0.272032 0.673110
Si Si2 0.715574 0.191877 0.318563
Si Si3 0.803915 0.074110 0.321095
Si Si4 0.570484 0.630403 0.178627
Si Si5 0.430288 0.232515 0.680698
Si Si6 0.292338 0.183036 0.680400
Si Si7 0.204283 0.068747 0.678932
Si Si8 0.566418 0.378180 0.325956
O O1 0.073292 0.294214 0.500000
O O2 0.139534 0.306218 0.748962
O O3 0.084680 0.196285 0.688329
O O4 0.002527 0.291832 0.745628
O O5 0.713517 0.195000 0.500000
O O6 0.750718 0.126695 0.262380
O O7 0.755810 0.253457 0.255309
O O8 0.817304 0.081623 0.500000
O O9 0.873712 0.080595 0.233860
O O10 0.774439 0.003820 0.281266
O O11 0.587107 0.697929 0.255644
O O12 0.498144 0.603611 0.227188
O O13 0.572916 0.638555 0.000000
O O14 0.435155 0.240966 0.500000
O O15 0.370774 0.184288 0.728698
O O16 0.287057 0.183366 0.500000
O O17 0.258279 0.118788 0.748936
O O18 0.201937 0.080391 0.500000
O O19 0.129718 0.083000 0.740929
O O20 0.550961 0.396596 0.500000
#
# Coordination Sequence:
#
# PCOD8224874 Si02
#       8
#     8   8   8   8   8   8   8   8
#     4   8  13  22  41  68  90 113 145 184 224 264
#     4   9  14  23  43  68  92 115 148 190 229 263
#     4  10  19  31  47  68  92 122 158 192 225 267
#     4  11  21  31  44  65  95 125 152 186 229 277
#     4   9  16  28  49  71  91 117 154 191 228 272
#     4   9  14  24  45  72  93 114 148 194 233 264
#     4   9  17  28  46  71  94 118 155 197 227 261
#     4   9  16  29  47  65  87 118 156 191 221 266
#
# _framework density 17.426805000000002
#
# number of rings (size 3 to 8) (size 9 to 14) (size 15 to 20)
#    0.000    2.750    2.500    1.875    0.000    0.500 
#    0.000    3.125    0.000    8.250    0.000    5.250 
#    0.000    0.000    0.000    5.625    0.000    6.250 
#
# Total GULP energy -793092.036841 kJ/mol
# GULP energy per Si atom -12392.063076 kJ/mol
# Density = 1.738714 g / cm^3
# Si number density = 17.426805 Si / 1000 Ang^3
#
#
#
# Elastic Constant Matrix: (Units=GPa)
#
#
# Indices 1 2 3 4 5 6 
#
# 1 152.6141 75.2407 15.3100 0.0000 0.0000 0.0000
# 2 75.2407 100.8669 8.4064 0.0000 0.0000 0.0000
# 3 15.3100 8.4064 22.7501 0.0000 0.0000 0.0000
# 4 0.0000 0.0000 0.0000 2.8668 0.0000 0.0000
# 5 0.0000 0.0000 0.0000 0.0000 2.3953 0.0000
# 6 0.0000 0.0000 0.0000 0.0000 0.0000 25.8811
#
#
#
# Elastic Compliance Matrix: (Units=1/GPa)
#
#
# Indices 1 2 3 4 5 6 
#
# 1 0.010778 -0.007671 -0.004418 0.000000 0.000000 0.000000
# 2 -0.007671 0.015689 -0.000635 0.000000 0.000000 0.000000
# 3 -0.004418 -0.000635 0.047164 0.000000 0.000000 0.000000
# 4 0.000000 0.000000 0.000000 0.348826 0.000000 0.000000
# 5 0.000000 0.000000 0.000000 0.000000 0.417484 0.000000
# 6 0.000000 0.000000 0.000000 0.000000 0.000000 0.038638
#
#
# Mechanical properties :
#
#
# Convention : Reuss Voigt Hill
#
# Bulk Modulus (GPa) = 20.75473 52.68283 36.71878
# Shear Modulus (GPa) = 5.43426 18.04689 11.74057
#
# Velocity S-wave (km/s) = 1.76780 3.22154 2.59840
# Velocity P-wave (km/s) = 4.01277 6.64336 5.48801
#
# Compressibility (1/GPa) = 0.04818178
#
# Stress axis : x y z
#
# Youngs Moduli (GPa) = 92.78323 63.73750 21.20267
#
# Poissons Ratio (x) = 0.48895 0.09368
# Poissons Ratio (y) = 0.71177 0.01346
# Poissons Ratio (z) = 0.40996 0.04046
#
# Static dielectric constant tensor:
#      x y z
#    x 3.700360 0.000000 0.000000 
#    y 0.000000 3.135230 0.000000 
#    z 0.000000 0.000000 2.674170 
# 
# 
# High freq. dielectric constant tensor:
#      x y z
#    x 1.688740 0.000000 0.000000 
#    y 0.000000 1.646590 0.000000 
#    z 0.000000 0.000000 1.611830 
# 
# From -- ./inp_files/9141.got.cif
#   From: 2010.03.12/outbox.cif.g09.slc.cpg/sg55_5_cif.got.tgz:9141.got - 2010.04.16 15:19:21.
