data_PCOD8224109
_publ_section_title
;
Structure prediction by ZEFSAII (Michael W. Deem and Ramdas Pophale) SiO2 
 PCOD8224109
Probable space group: P C C A
;
_chemical_formula_sum "Si O2"
_cell_formula_units_Z 48
_cell_length_a 24.379073
_cell_length_b 10.892356
_cell_length_c 7.705331
_cell_angle_alpha 90.000000
_cell_angle_beta 90.000000
_cell_angle_gamma 90.000000
_cell_volume 2046.116297
_symmetry_space_group_name_H-M "P C C A"
_symmetry_group_IT_number 54
_symmetry_cell_setting 'orthorhombic'
loop_
_space_group_symop_operation_xyz
x,y,z
1/2-x,-y,z
1/2+x,-y,1/2-z
-x,y,1/2-z
-x,-y,-z
1/2+x,y,-z
1/2-x,y,1/2+z
x,-y,1/2+z
loop_
_atom_site_type_symbol
_atom_site_label
_atom_site_fract_x
_atom_site_fract_y
_atom_site_fract_z
Si Si1 0.261173 0.856946 0.485309
Si Si2 0.163429 0.694385 0.773052
Si Si3 0.940559 0.162646 0.211030
Si Si4 0.833880 0.763950 0.198543
Si Si5 0.940329 0.114408 0.811640
Si Si6 0.687423 0.525578 0.544037
O O1 0.293924 0.805160 0.315116
O O2 0.200064 0.794929 0.482357
O O3 0.297893 0.825572 0.650525
O O4 0.250000 0.000000 0.462824
O O5 0.105331 0.748224 0.710316
O O6 0.183820 0.590521 0.641026
O O7 0.156661 0.607907 0.947131
O O8 0.000000 0.220986 0.250000
O O9 0.936936 0.031978 0.305073
O O10 0.929133 0.152716 0.007566
O O11 0.894142 0.823512 0.191525
O O12 0.837115 0.616597 0.195680
O O13 0.000000 0.160537 0.750000
O O14 0.750000 0.500000 0.590893
#
# Coordination Sequence:
#
# PCOD8224109 Si02
#       6
#     8   8   8   8   8   8
#     4  12  25  45  67 110 148 187 233 306 375 444
#     4  12  26  47  72 103 144 192 251 300 373 442
#     4  11  25  47  75 108 148 195 246 310 375 451
#     4  12  26  44  74 105 147 195 244 303 367 446
#     4  11  25  47  76 110 151 196 247 302 384 455
#     4  12  27  47  72 101 142 198 248 299 369 447
#
# _framework density 23.459076
#
# number of rings (size 3 to 8) (size 9 to 14) (size 15 to 20)
#    0.000    0.333    3.333    6.000    4.667    0.000 
#    0.000    2.500    0.000    0.000    0.000    0.000 
#    0.000    0.000    0.000    0.000    0.000    0.000 
#
# Total GULP energy -595107.578582 kJ/mol
# GULP energy per Si atom -12398.074554 kJ/mol
# Density = 2.340568 g / cm^3
# Si number density = 23.459076 Si / 1000 Ang^3
#
#
#
# Elastic Constant Matrix: (Units=GPa)
#
#
# Indices 1 2 3 4 5 6 
#
# 1 170.4643 61.9503 -1.9493 0.0000 0.0000 0.0000
# 2 61.9503 137.7131 6.1427 0.0000 0.0000 0.0000
# 3 -1.9493 6.1427 48.3879 0.0000 0.0000 0.0000
# 4 0.0000 0.0000 0.0000 32.6223 0.0000 0.0000
# 5 0.0000 0.0000 0.0000 0.0000 28.4486 0.0000
# 6 0.0000 0.0000 0.0000 0.0000 0.0000 39.0454
#
#
#
# Elastic Compliance Matrix: (Units=1/GPa)
#
#
# Indices 1 2 3 4 5 6 
#
# 1 0.007036 -0.003196 0.000689 0.000000 0.000000 0.000000
# 2 -0.003196 0.008754 -0.001240 0.000000 0.000000 0.000000
# 3 0.000689 -0.001240 0.020852 0.000000 0.000000 0.000000
# 4 0.000000 0.000000 0.000000 0.030654 0.000000 0.000000
# 5 0.000000 0.000000 0.000000 0.000000 0.035151 0.000000
# 6 0.000000 0.000000 0.000000 0.000000 0.000000 0.025611
#
#
# Mechanical properties :
#
#
# Convention : Reuss Voigt Hill
#
# Bulk Modulus (GPa) = 34.30748 54.31696 44.31222
# Shear Modulus (GPa) = 34.41935 39.38469 36.90202
#
# Velocity S-wave (km/s) = 3.83457 4.10184 3.97046
# Velocity P-wave (km/s) = 5.85332 6.75557 6.32056
#
# Compressibility (1/GPa) = 0.02914816
#
# Stress axis : x y z
#
# Youngs Moduli (GPa) = 142.13438 114.22860 47.95813
#
# Poissons Ratio (x) = 0.36504 -0.03305
# Poissons Ratio (y) = 0.45422 0.05947
# Poissons Ratio (z) = -0.09795 0.14165
#
# Static dielectric constant tensor:
#      x y z
#    x 4.319370 0.000000 0.000000 
#    y 0.000000 4.550780 0.000000 
#    z 0.000000 0.000000 4.537740 
# 
# 
# High freq. dielectric constant tensor:
#      x y z
#    x 1.914460 0.000000 0.000000 
#    y 0.000000 1.933060 0.000000 
#    z 0.000000 0.000000 1.955540 
# 
# From -- ./inp_files/5155.got.cif
#   From: 2010.03.12/outbox.cif.g09.slc.cpg/sg54_3_cif.got.tgz:5155.got - 2010.04.16 15:00:50.
