data_PCOD8224803
_publ_section_title
;
Structure prediction by ZEFSAII (Michael W. Deem and Ramdas Pophale) SiO2 
 PCOD8224803
Probable space group: P B A M
;
_chemical_formula_sum "Si O2"
_cell_formula_units_Z 64
_cell_length_a 19.605676
_cell_length_b 19.710709
_cell_length_c 9.803356
_cell_angle_alpha 90.000000
_cell_angle_beta 90.000000
_cell_angle_gamma 90.000000
_cell_volume 3788.426288
_symmetry_space_group_name_H-M "P B A M"
_symmetry_group_IT_number 55
_symmetry_cell_setting 'orthorhombic'
loop_
_space_group_symop_operation_xyz
x,y,z
-x,-y,z
1/2+x,1/2-y,-z
1/2-x,1/2+y,-z
-x,-y,-z
x,y,-z
1/2-x,1/2+y,z
1/2+x,1/2-y,z
loop_
_atom_site_type_symbol
_atom_site_label
_atom_site_fract_x
_atom_site_fract_y
_atom_site_fract_z
Si Si1 0.660811 0.143721 0.659618
Si Si2 0.680735 0.294333 0.348890
Si Si3 0.519712 0.312884 0.650474
Si Si4 0.466317 0.569669 0.842357
Si Si5 0.196899 0.478329 0.158131
Si Si6 0.004045 0.338122 0.341378
Si Si7 0.691335 0.412900 0.156716
Si Si8 0.057835 0.553585 0.842487
O O1 0.668631 0.126552 0.500000
O O2 0.695680 0.216428 0.693042
O O3 0.700217 0.088442 0.749311
O O4 0.581387 0.144305 0.701659
O O5 0.710293 0.309040 0.500000
O O6 0.600190 0.303265 0.350474
O O7 0.714287 0.347180 0.243676
O O8 0.495104 0.335829 0.500000
O O9 0.497845 0.369655 0.759067
O O10 0.486710 0.240576 0.688779
O O11 0.500000 0.500000 0.792928
O O12 0.386016 0.565631 0.812059
O O13 0.481763 0.583745 0.000000
O O14 0.262558 0.523059 0.195742
O O15 0.130520 0.522059 0.193187
O O16 0.196903 0.456148 0.000000
O O17 0.992733 0.355213 0.500000
O O18 0.951556 0.380413 0.250403
O O19 0.701715 0.392209 0.000000
O O20 0.000000 0.500000 0.803471
O O21 0.052610 0.575473 0.000000
#
# Coordination Sequence:
#
# PCOD8224803 Si02
#       8
#     8   8   8   8   8   8   8   8
#     4   9  17  29  47  71  94 119 154 195 233 269
#     4   8  15  29  48  69  92 116 149 193 231 267
#     4   8  15  28  46  70  95 118 148 187 230 273
#     4   9  17  30  50  74  95 116 149 191 234 281
#     4  10  20  32  46  67  96 126 157 193 232 274
#     4   9  17  29  46  68  94 122 156 195 230 269
#     4   9  18  32  49  69  93 121 153 190 232 279
#     4  10  19  30  44  66  95 126 160 195 227 264
#
# _framework density 16.893557000000001
#
# number of rings (size 3 to 8) (size 9 to 14) (size 15 to 20)
#    0.000    3.000    1.250    1.500    0.000    2.500 
#    0.000    2.500    2.750    0.000    0.000    0.000 
#    0.000    0.000    0.000    0.000    0.000    0.000 
#
# Total GULP energy -793489.600999 kJ/mol
# GULP energy per Si atom -12398.275016 kJ/mol
# Density = 1.685511 g / cm^3
# Si number density = 16.893557 Si / 1000 Ang^3
#
#
#
# Elastic Constant Matrix: (Units=GPa)
#
#
# Indices 1 2 3 4 5 6 
#
# 1 37.5656 37.8551 28.7211 0.0000 0.0000 0.0000
# 2 37.8551 150.0286 89.8856 0.0000 0.0000 0.0000
# 3 28.7211 89.8856 87.4075 0.0000 0.0000 0.0000
# 4 0.0000 0.0000 0.0000 40.0733 0.0000 0.0000
# 5 0.0000 0.0000 0.0000 0.0000 15.8957 0.0000
# 6 0.0000 0.0000 0.0000 0.0000 0.0000 23.1546
#
#
#
# Elastic Compliance Matrix: (Units=1/GPa)
#
#
# Indices 1 2 3 4 5 6 
#
# 1 0.037138 -0.005365 -0.006686 0.000000 0.000000 0.000000
# 2 -0.005365 0.018138 -0.016889 0.000000 0.000000 0.000000
# 3 -0.006686 -0.016889 0.031006 0.000000 0.000000 0.000000
# 4 0.000000 0.000000 0.000000 0.024954 0.000000 0.000000
# 5 0.000000 0.000000 0.000000 0.000000 0.062910 0.000000
# 6 0.000000 0.000000 0.000000 0.000000 0.000000 0.043188
#
#
# Mechanical properties :
#
#
# Convention : Reuss Voigt Hill
#
# Bulk Modulus (GPa) = 35.20979 65.32502 50.26741
# Shear Modulus (GPa) = 17.56349 23.72739 20.64544
#
# Velocity S-wave (km/s) = 3.22787 3.75176 3.49963
# Velocity P-wave (km/s) = 5.89742 7.58421 6.79337
#
# Compressibility (1/GPa) = 0.02840119
#
# Stress axis : x y z
#
# Youngs Moduli (GPa) = 26.92635 55.13389 32.25215
#
# Poissons Ratio (x) = 0.29578 0.21565
# Poissons Ratio (y) = 0.14445 0.54471
# Poissons Ratio (z) = 0.18004 0.93116
#
# Static dielectric constant tensor:
#      x y z
#    x 2.849540 0.000000 0.000000 
#    y 0.000000 3.295530 0.000000 
#    z 0.000000 0.000000 3.254500 
# 
# 
# High freq. dielectric constant tensor:
#      x y z
#    x 1.611500 0.000000 0.000000 
#    y 0.000000 1.655920 0.000000 
#    z 0.000000 0.000000 1.653180 
# 
# From -- ./inp_files/9191.got.cif
#   From: 2010.03.12/outbox.cif.g09.slc.cpg/sg55_5_cif.got.tgz:9191.got - 2010.04.16 15:19:21.
