data_PCOD8224353
_publ_section_title
;
Structure prediction by ZEFSAII (Michael W. Deem and Ramdas Pophale) SiO2 
 PCOD8224353
Probable space group: P B A M
;
_chemical_formula_sum "Si O2"
_cell_formula_units_Z 56
_cell_length_a 29.362956
_cell_length_b 13.749581
_cell_length_c 9.194804
_cell_angle_alpha 90.000000
_cell_angle_beta 90.000000
_cell_angle_gamma 90.000000
_cell_volume 3712.202973
_symmetry_space_group_name_H-M "P B A M"
_symmetry_group_IT_number 55
_symmetry_cell_setting 'orthorhombic'
loop_
_space_group_symop_operation_xyz
x,y,z
-x,-y,z
1/2+x,1/2-y,-z
1/2-x,1/2+y,-z
-x,-y,-z
x,y,-z
1/2-x,1/2+y,z
1/2+x,1/2-y,z
loop_
_atom_site_type_symbol
_atom_site_label
_atom_site_fract_x
_atom_site_fract_y
_atom_site_fract_z
Si Si1 0.186747 0.215106 0.327409
Si Si2 0.499342 0.615237 0.658924
Si Si3 0.677609 0.709945 0.165825
Si Si4 0.902421 0.114165 0.326385
Si Si5 0.402086 0.604745 0.673421
Si Si6 0.228711 0.387095 0.169242
Si Si7 0.734893 0.892678 0.167283
O O1 0.190830 0.219869 0.500000
O O2 0.137315 0.177692 0.275572
O O3 0.193683 0.322246 0.261487
O O4 0.223801 0.139291 0.269038
O O5 0.500000 0.500000 0.640429
O O6 0.498937 0.664707 0.500000
O O7 0.547189 0.645774 0.735474
O O8 0.451244 0.641897 0.738799
O O9 0.634557 0.688692 0.265991
O O10 0.719649 0.640828 0.211324
O O11 0.691768 0.822164 0.190373
O O12 0.663628 0.690236 0.000000
O O13 0.902304 0.119600 0.500000
O O14 0.890686 0.004718 0.272646
O O15 0.406376 0.602258 0.500000
O O16 0.219600 0.498877 0.209638
O O17 0.220275 0.364587 0.000000
O O18 0.751676 0.887969 0.000000
#
# Coordination Sequence:
#
# PCOD8224353 Si02
#       7
#     8   8   8   8   8   8   8
#     4  10  18  26  41  65  87 105 129 167 210 242
#     4   7  11  21  37  56  78 105 134 158 184 230
#     4   9  17  27  40  59  80 102 129 164 204 235
#     4   9  15  24  41  61  80 106 136 161 188 232
#     4   8  14  24  38  59  85 108 130 158 195 237
#     4   9  18  32  45  56  77 111 145 169 193 236
#     4   9  18  32  45  56  77 112 145 167 193 237
#
# _framework density 15.085381
#
# number of rings (size 3 to 8) (size 9 to 14) (size 15 to 20)
#    0.000    3.286    0.000    3.857    0.000    2.857 
#    0.000    0.714    0.000    5.571    0.000    1.000 
#    0.000    8.000    0.000    0.000    0.000    0.000 
#
# Total GULP energy -693839.819542 kJ/mol
# GULP energy per Si atom -12389.996778 kJ/mol
# Density = 1.505105 g / cm^3
# Si number density = 15.085381 Si / 1000 Ang^3
#
#
#
# Elastic Constant Matrix: (Units=GPa)
#
#
# Indices 1 2 3 4 5 6 
#
# 1 132.2239 58.2589 37.1618 0.0000 0.0000 0.0000
# 2 58.2589 98.6292 27.6761 0.0000 0.0000 0.0000
# 3 37.1618 27.6761 35.0651 0.0000 0.0000 0.0000
# 4 0.0000 0.0000 0.0000 20.0684 0.0000 0.0000
# 5 0.0000 0.0000 0.0000 0.0000 6.4204 0.0000
# 6 0.0000 0.0000 0.0000 0.0000 0.0000 22.0129
#
#
#
# Elastic Compliance Matrix: (Units=1/GPa)
#
#
# Indices 1 2 3 4 5 6 
#
# 1 0.012204 -0.004598 -0.009305 0.000000 0.000000 0.000000
# 2 -0.004598 0.014755 -0.006774 0.000000 0.000000 0.000000
# 3 -0.009305 -0.006774 0.043726 0.000000 0.000000 0.000000
# 4 0.000000 0.000000 0.000000 0.049830 0.000000 0.000000
# 5 0.000000 0.000000 0.000000 0.000000 0.155753 0.000000
# 6 0.000000 0.000000 0.000000 0.000000 0.000000 0.045428
#
#
# Mechanical properties :
#
#
# Convention : Reuss Voigt Hill
#
# Bulk Modulus (GPa) = 34.09116 56.90130 45.49623
# Shear Modulus (GPa) = 13.41111 19.22178 16.31644
#
# Velocity S-wave (km/s) = 2.98487 3.57346 3.29235
# Velocity P-wave (km/s) = 5.87598 7.40456 6.68411
#
# Compressibility (1/GPa) = 0.02933312
#
# Stress axis : x y z
#
# Youngs Moduli (GPa) = 81.94180 67.77151 22.86983
#
# Poissons Ratio (x) = 0.31159 0.21280
# Poissons Ratio (y) = 0.37674 0.15491
# Poissons Ratio (z) = 0.76244 0.45906
#
# Static dielectric constant tensor:
#      x y z
#    x 3.165730 0.000000 0.000000 
#    y 0.000000 2.798750 0.000000 
#    z 0.000000 0.000000 2.652440 
# 
# 
# High freq. dielectric constant tensor:
#      x y z
#    x 1.578560 0.000000 0.000000 
#    y 0.000000 1.551900 0.000000 
#    z 0.000000 0.000000 1.553280 
# 
# From -- ./inp_files/6845.got.cif
#   From: 2010.03.12/outbox.cif.g09.slc.cpg/sg55_4_cif.got.tgz:6845.got - 2010.04.16 15:19:21.
