data_PCOD8224715
_publ_section_title
;
Structure prediction by ZEFSAII (Michael W. Deem and Ramdas Pophale) SiO2 
 PCOD8224715
Probable space group: P B A M
;
_chemical_formula_sum "Si O2"
_cell_formula_units_Z 64
_cell_length_a 19.994316
_cell_length_b 18.825031
_cell_length_c 9.021009
_cell_angle_alpha 90.000000
_cell_angle_beta 90.000000
_cell_angle_gamma 90.000000
_cell_volume 3395.450220
_symmetry_space_group_name_H-M "P B A M"
_symmetry_group_IT_number 55
_symmetry_cell_setting 'orthorhombic'
loop_
_space_group_symop_operation_xyz
x,y,z
-x,-y,z
1/2+x,1/2-y,-z
1/2-x,1/2+y,-z
-x,-y,-z
x,y,-z
1/2-x,1/2+y,z
1/2+x,1/2-y,z
loop_
_atom_site_type_symbol
_atom_site_label
_atom_site_fract_x
_atom_site_fract_y
_atom_site_fract_z
Si Si1 0.705294 0.037642 0.324433
Si Si2 0.154970 0.198094 0.676149
Si Si3 0.738508 0.687757 0.324215
Si Si4 0.411103 0.309622 0.675234
Si Si5 0.814057 0.949356 0.825912
Si Si6 0.053731 0.444296 0.323949
Si Si7 0.438181 0.452910 0.827209
Si Si8 0.528868 0.212273 0.675344
O O1 0.714783 0.030334 0.500000
O O2 0.733445 0.112817 0.264655
O O3 0.627867 0.031205 0.277879
O O4 0.744130 0.973410 0.245790
O O5 0.156112 0.186620 0.500000
O O6 0.215558 0.247968 0.731232
O O7 0.161288 0.123511 0.756048
O O8 0.086698 0.234886 0.731725
O O9 0.739733 0.685196 0.500000
O O10 0.663821 0.701396 0.262566
O O11 0.410052 0.318180 0.500000
O O12 0.443846 0.379970 0.739982
O O13 0.456548 0.242648 0.723361
O O14 0.868984 0.008677 0.787810
O O15 0.804721 0.938907 0.000000
O O16 0.047816 0.440960 0.500000
O O17 0.038103 0.366341 0.256321
O O18 0.000000 0.500000 0.258497
O O19 0.500000 0.500000 0.772235
O O20 0.444111 0.436220 0.000000
O O21 0.535509 0.206719 0.500000
#
# Coordination Sequence:
#
# PCOD8224715 Si02
#       8
#     8   8   8   8   8   8   8   8
#     4  10  18  34  58  80 108 145 180 220 272 327
#     4  10  19  34  55  77 105 142 178 218 270 324
#     4   9  17  31  53  78 104 137 176 217 263 317
#     4  10  19  31  52  79 106 135 173 220 263 315
#     4  11  23  36  52  79 110 139 181 230 268 317
#     4   9  17  30  54  86 113 140 178 223 272 323
#     4  10  21  36  51  70 104 144 178 218 266 317
#     4   9  17  30  49  77 110 138 173 223 269 315
#
# _framework density 18.848752000000001
#
# number of rings (size 3 to 8) (size 9 to 14) (size 15 to 20)
#    0.000    2.250    2.500    1.125    0.000    1.750 
#    0.000    5.000    0.000    1.125    0.000    0.000 
#    0.000    0.000    0.000    0.000    0.000    0.000 
#
# Total GULP energy -793632.251329 kJ/mol
# GULP energy per Si atom -12400.503927 kJ/mol
# Density = 1.880585 g / cm^3
# Si number density = 18.848752 Si / 1000 Ang^3
#
#
#
# Elastic Constant Matrix: (Units=GPa)
#
#
# Indices 1 2 3 4 5 6 
#
# 1 148.4789 55.9399 28.5120 0.0000 0.0000 0.0000
# 2 55.9399 116.8988 30.1035 0.0000 0.0000 0.0000
# 3 28.5120 30.1035 28.7125 0.0000 0.0000 0.0000
# 4 0.0000 0.0000 0.0000 1.9461 0.0000 0.0000
# 5 0.0000 0.0000 0.0000 0.0000 13.4216 0.0000
# 6 0.0000 0.0000 0.0000 0.0000 0.0000 36.6870
#
#
#
# Elastic Compliance Matrix: (Units=1/GPa)
#
#
# Indices 1 2 3 4 5 6 
#
# 1 0.008911 -0.002720 -0.005997 0.000000 0.000000 0.000000
# 2 -0.002720 0.012548 -0.010455 0.000000 0.000000 0.000000
# 3 -0.005997 -0.010455 0.051746 0.000000 0.000000 0.000000
# 4 0.000000 0.000000 0.000000 0.513850 0.000000 0.000000
# 5 0.000000 0.000000 0.000000 0.000000 0.074507 0.000000
# 6 0.000000 0.000000 0.000000 0.000000 0.000000 0.027258
#
#
# Mechanical properties :
#
#
# Convention : Reuss Voigt Hill
#
# Bulk Modulus (GPa) = 28.68634 58.13345 43.40989
# Shear Modulus (GPa) = 6.76786 22.37992 14.57389
#
# Velocity S-wave (km/s) = 1.89695 3.44952 2.78367
# Velocity P-wave (km/s) = 4.47774 6.83920 5.78034
#
# Compressibility (1/GPa) = 0.03485980
#
# Stress axis : x y z
#
# Youngs Moduli (GPa) = 112.21601 79.69122 19.32531
#
# Poissons Ratio (x) = 0.21676 0.11590
# Poissons Ratio (y) = 0.30522 0.20205
# Poissons Ratio (z) = 0.67301 0.83320
#
# Static dielectric constant tensor:
#      x y z
#    x 3.774280 0.000000 0.000000 
#    y 0.000000 3.534450 0.000000 
#    z 0.000000 0.000000 2.954630 
# 
# 
# High freq. dielectric constant tensor:
#      x y z
#    x 1.748990 0.000000 0.000000 
#    y 0.000000 1.737800 0.000000 
#    z 0.000000 0.000000 1.681060 
# 
# From -- ./inp_files/8087.got.cif
#   From: 2010.03.12/outbox.cif.g09.slc.cpg/sg55_5_cif.got.tgz:8087.got - 2010.04.16 15:19:21.
