data_PCOD8224645
_publ_section_title
;
Structure prediction by ZEFSAII (Michael W. Deem and Ramdas Pophale) SiO2 
 PCOD8224645
Probable space group: P B A M
;
_chemical_formula_sum "Si O2"
_cell_formula_units_Z 52
_cell_length_a 14.196401
_cell_length_b 20.551145
_cell_length_c 9.510042
_cell_angle_alpha 90.000000
_cell_angle_beta 90.000000
_cell_angle_gamma 90.000000
_cell_volume 2774.576583
_symmetry_space_group_name_H-M "P B A M"
_symmetry_group_IT_number 55
_symmetry_cell_setting 'orthorhombic'
loop_
_space_group_symop_operation_xyz
x,y,z
-x,-y,z
1/2+x,1/2-y,-z
1/2-x,1/2+y,-z
-x,-y,-z
x,y,-z
1/2-x,1/2+y,z
1/2+x,1/2-y,z
loop_
_atom_site_type_symbol
_atom_site_label
_atom_site_fract_x
_atom_site_fract_y
_atom_site_fract_z
Si Si1 0.000000 0.000000 0.756059
Si Si2 0.821757 0.424122 0.835206
Si Si3 0.143852 0.101256 0.654657
Si Si4 0.168373 0.431402 0.833742
Si Si5 0.001909 0.339234 0.833909
Si Si6 0.872515 0.113371 0.841834
Si Si7 0.008254 0.792161 0.336735
O O1 0.941193 0.050828 0.850008
O O2 0.073432 0.039852 0.661169
O O3 0.725172 0.399429 0.768950
O O4 0.848407 0.495570 0.775942
O O5 0.904577 0.374771 0.798067
O O6 0.802761 0.427667 0.000000
O O7 0.189703 0.100719 0.500000
O O8 0.087666 0.167800 0.679626
O O9 0.270294 0.406854 0.783780
O O10 0.086777 0.384306 0.777511
O O11 0.162612 0.433225 0.000000
O O12 0.006973 0.274372 0.744554
O O13 0.010761 0.324026 0.000000
O O14 0.906836 0.168630 0.735556
O O15 0.866257 0.142014 0.000000
O O16 0.033856 0.780123 0.500000
#
# Coordination Sequence:
#
# PCOD8224645 Si02
#       7
#     4   8   8   8   8   8   8
#     4  10  18  32  56  86 116 144 178 228 280 332
#     4  10  20  36  59  88 113 142 184 235 285 330
#     4  10  21  36  56  82 114 150 186 227 279 337
#     4   9  18  35  58  87 114 142 181 231 283 332
#     4  10  21  38  60  80 110 151 192 231 273 330
#     4  10  19  33  58  88 115 142 182 229 281 334
#     4  10  23  40  55  78 115 154 190 228 277 332
#
# _framework density 18.741598
#
# number of rings (size 3 to 8) (size 9 to 14) (size 15 to 20)
#    0.000    2.154    1.538    1.385    0.000    7.385 
#    0.000    6.154    0.000    1.846    0.000    0.000 
#    0.000    0.000    0.000    0.000    0.000    0.000 
#
# Total GULP energy -644784.432612 kJ/mol
# GULP energy per Si atom -12399.700627 kJ/mol
# Density = 1.869894 g / cm^3
# Si number density = 18.741598 Si / 1000 Ang^3
#
#
#
# Elastic Constant Matrix: (Units=GPa)
#
#
# Indices 1 2 3 4 5 6 
#
# 1 119.5154 56.9734 45.3740 0.0000 0.0000 0.0000
# 2 56.9734 131.6945 58.4492 0.0000 0.0000 0.0000
# 3 45.3740 58.4492 72.5992 0.0000 0.0000 0.0000
# 4 0.0000 0.0000 0.0000 11.8931 0.0000 0.0000
# 5 0.0000 0.0000 0.0000 0.0000 11.9286 0.0000
# 6 0.0000 0.0000 0.0000 0.0000 0.0000 20.0924
#
#
#
# Elastic Compliance Matrix: (Units=1/GPa)
#
#
# Indices 1 2 3 4 5 6 
#
# 1 0.011598 -0.002801 -0.004993 0.000000 0.000000 0.000000
# 2 -0.002801 0.012492 -0.008306 0.000000 0.000000 0.000000
# 3 -0.004993 -0.008306 0.023582 0.000000 0.000000 0.000000
# 4 0.000000 0.000000 0.000000 0.084082 0.000000 0.000000
# 5 0.000000 0.000000 0.000000 0.000000 0.083832 0.000000
# 6 0.000000 0.000000 0.000000 0.000000 0.000000 0.049770
#
#
# Mechanical properties :
#
#
# Convention : Reuss Voigt Hill
#
# Bulk Modulus (GPa) = 64.63974 71.71136 68.17555
# Shear Modulus (GPa) = 16.51715 19.65034 18.08374
#
# Velocity S-wave (km/s) = 2.97191 3.24155 3.10965
# Velocity P-wave (km/s) = 6.80743 7.23578 7.02487
#
# Compressibility (1/GPa) = 0.01547036
#
# Stress axis : x y z
#
# Youngs Moduli (GPa) = 86.21921 80.05282 42.40446
#
# Poissons Ratio (x) = 0.22426 0.21175
# Poissons Ratio (y) = 0.24154 0.35222
# Poissons Ratio (z) = 0.43053 0.66493
#
# Static dielectric constant tensor:
#      x y z
#    x 3.543370 0.000000 0.000000 
#    y 0.000000 3.528910 0.000000 
#    z 0.000000 0.000000 3.234130 
# 
# 
# High freq. dielectric constant tensor:
#      x y z
#    x 1.732330 0.000000 0.000000 
#    y 0.000000 1.732540 0.000000 
#    z 0.000000 0.000000 1.708520 
# 
# From -- ./inp_files/5928.got.cif
#   From: 2010.03.12/outbox.cif.g09.slc.cpg/sg55_3_cif.got.tgz:5928.got - 2010.04.16 15:19:21.
