data_PCOD8224221
_publ_section_title
;
Structure prediction by ZEFSAII (Michael W. Deem and Ramdas Pophale) SiO2 
 PCOD8224221
Probable space group: P B A M
;
_chemical_formula_sum "Si O2"
_cell_formula_units_Z 60
_cell_length_a 5.260808
_cell_length_b 35.223661
_cell_length_c 26.249721
_cell_angle_alpha 90.000000
_cell_angle_beta 90.000000
_cell_angle_gamma 90.000000
_cell_volume 4864.202386
_symmetry_space_group_name_H-M "P B A M"
_symmetry_group_IT_number 55
_symmetry_cell_setting 'orthorhombic'
loop_
_space_group_symop_operation_xyz
x,y,z
-x,-y,z
1/2+x,1/2-y,-z
1/2-x,1/2+y,-z
-x,-y,-z
x,y,-z
1/2-x,1/2+y,z
1/2+x,1/2-y,z
loop_
_atom_site_type_symbol
_atom_site_label
_atom_site_fract_x
_atom_site_fract_y
_atom_site_fract_z
Si Si1 0.751568 0.650332 0.439445
Si Si2 0.217649 0.726968 0.000000
Si Si3 0.249989 0.021327 0.439249
Si Si4 0.276641 0.774763 0.377023
Si Si5 0.751300 0.893026 0.439443
Si Si6 0.235301 0.207251 0.112132
Si Si7 0.289105 0.273039 0.265365
Si Si8 0.735340 0.206377 0.155308
O O1 0.751915 0.653246 0.500000
O O2 0.746931 0.692642 0.418257
O O3 0.503321 0.628101 0.419499
O O4 0.001415 0.628597 0.419235
O O5 0.265706 0.703428 0.051181
O O6 0.423823 0.760662 0.000000
O O7 0.249885 0.021401 0.500000
O O8 0.250050 0.064189 0.417963
O O9 0.500000 0.000000 0.418504
O O10 0.000000 0.000000 0.418491
O O11 0.550670 0.755434 0.385052
O O12 0.257827 0.793070 0.320034
O O13 0.749845 0.893981 0.500000
O O14 0.483600 0.185882 0.133937
O O15 0.236461 0.250168 0.134569
O O16 0.984389 0.185894 0.132500
O O17 0.583905 0.260986 0.261963
O O18 0.235571 0.298992 0.216355
#
# Coordination Sequence:
#
# PCOD8224221 Si02
#       8
#     8   4   8   8   8   8   8   8
#     4  10  19  31  43  53  69  90 112 133 162 208
#     4  12  16  20  24  38  56  72  88 108 124 158
#     4   9  15  23  37  58  80  95 109 127 143 163
#     4  10  21  31  41  55  65  79 105 145 184 207
#     4   9  17  28  42  57  73  95 113 125 147 185
#     4  10  16  20  29  40  55  72  90 106 133 173
#     4  10  16  25  37  47  59  69  90 125 164 200
#     4  10  14  22  31  41  51  70  89 109 141 182
#
# _framework density 12.335012000000001
#
# number of rings (size 3 to 8) (size 9 to 14) (size 15 to 20)
#    0.000    2.133    5.333    1.600    0.000    3.733 
#    0.000    0.000    0.000    0.000    0.000    0.000 
#    0.000    0.000    0.000    0.000    0.000    0.000 
#
# Total GULP energy -743432.322625 kJ/mol
# GULP energy per Si atom -12390.538710 kJ/mol
# Density = 1.230694 g / cm^3
# Si number density = 12.335012 Si / 1000 Ang^3
#
#
#
# Elastic Constant Matrix: (Units=GPa)
#
#
# Indices 1 2 3 4 5 6 
#
# 1 113.5499 23.0164 21.2008 0.0000 0.0000 0.0000
# 2 23.0164 43.4278 19.4928 0.0000 0.0000 0.0000
# 3 21.2008 19.4928 39.8391 0.0000 0.0000 0.0000
# 4 0.0000 0.0000 0.0000 0.1563 0.0000 0.0000
# 5 0.0000 0.0000 0.0000 0.0000 14.2620 0.0000
# 6 0.0000 0.0000 0.0000 0.0000 0.0000 14.4168
#
#
#
# Elastic Compliance Matrix: (Units=1/GPa)
#
#
# Indices 1 2 3 4 5 6 
#
# 1 0.010251 -0.003824 -0.003584 0.000000 0.000000 0.000000
# 2 -0.003824 0.030934 -0.013100 0.000000 0.000000 0.000000
# 3 -0.003584 -0.013100 0.033418 0.000000 0.000000 0.000000
# 4 0.000000 0.000000 0.000000 6.397706 0.000000 0.000000
# 5 0.000000 0.000000 0.000000 0.000000 0.070116 0.000000
# 6 0.000000 0.000000 0.000000 0.000000 0.000000 0.069364
#
#
# Mechanical properties :
#
#
# Convention : Reuss Voigt Hill
#
# Bulk Modulus (GPa) = 29.77473 36.02630 32.90051
# Shear Modulus (GPa) = 0.75030 14.64081 7.69556
#
# Velocity S-wave (km/s) = 0.78076 3.44892 2.50047
# Velocity P-wave (km/s) = 5.00036 6.71789 5.92172
#
# Compressibility (1/GPa) = 0.03358552
#
# Stress axis : x y z
#
# Youngs Moduli (GPa) = 97.55104 32.32725 29.92397
#
# Poissons Ratio (x) = 0.12363 0.10725
# Poissons Ratio (y) = 0.37306 0.39201
# Poissons Ratio (z) = 0.34963 0.42350
#
# Static dielectric constant tensor:
#      x y z
#    x 3.424530 0.000000 0.000000 
#    y 0.000000 2.103100 0.000000 
#    z 0.000000 0.000000 2.505660 
# 
# 
# High freq. dielectric constant tensor:
#      x y z
#    x 1.504300 0.000000 0.000000 
#    y 0.000000 1.395250 0.000000 
#    z 0.000000 0.000000 1.446680 
# 
# From -- ./inp_files/23397.got.cif
#   From: 2010.03.12/outbox.cif.g09.slc.cpg/sg55_12_cif.got.tgz:23397.got - 2010.04.16 15:19:21.
