data_PCOD8224180
_publ_section_title
;
Structure prediction by ZEFSAII (Michael W. Deem and Ramdas Pophale) SiO2 
 PCOD8224180
Probable space group: P C C A
;
_chemical_formula_sum "Si O2"
_cell_formula_units_Z 20
_cell_length_a 13.624623
_cell_length_b 5.716126
_cell_length_c 9.205322
_cell_angle_alpha 90.000000
_cell_angle_beta 90.000000
_cell_angle_gamma 90.000000
_cell_volume 716.911046
_symmetry_space_group_name_H-M "P C C A"
_symmetry_group_IT_number 54
_symmetry_cell_setting 'orthorhombic'
loop_
_space_group_symop_operation_xyz
x,y,z
1/2-x,-y,z
1/2+x,-y,1/2-z
-x,y,1/2-z
-x,-y,-z
1/2+x,y,-z
1/2-x,y,1/2+z
x,-y,1/2+z
loop_
_atom_site_type_symbol
_atom_site_label
_atom_site_fract_x
_atom_site_fract_y
_atom_site_fract_z
Si Si1 0.666514 0.193687 0.188099
Si Si2 0.606197 0.456854 0.931614
Si Si3 0.500000 0.901600 0.250000
O O1 0.655542 0.326871 0.343951
O O2 0.750000 0.000000 0.198532
O O3 0.562876 0.069926 0.144098
O O4 0.682615 0.380077 0.058103
O O5 0.587953 0.246667 0.819910
O O6 0.500000 0.500000 0.000000
#
# Coordination Sequence:
#
# PCOD8224180 Si02
#       3
#     8   8   4
#     4  12  29  52  87 130 170 229 291 363 433 517
#     4  12  24  55  85 119 174 225 294 352 435 525
#     4  12  24  50  88 124 170 232 278 366 434 518
#
# _framework density 27.897463999999999
#
# number of rings (size 3 to 8) (size 9 to 14) (size 15 to 20)
#    0.000    0.000    8.000    1.200    0.000    3.200 
#    7.200    2.000    0.000    0.000    0.000    0.000 
#    0.000    0.000    0.000    0.000    0.000    0.000 
#
# Total GULP energy -247807.618883 kJ/mol
# GULP energy per Si atom -12390.380944 kJ/mol
# Density = 2.783397 g / cm^3
# Si number density = 27.897464 Si / 1000 Ang^3
#
#
#
# Elastic Constant Matrix: (Units=GPa)
#
#
# Indices 1 2 3 4 5 6 
#
# 1 132.6820 90.1047 65.4108 0.0000 0.0000 0.0000
# 2 90.1047 166.7765 84.8628 0.0000 0.0000 0.0000
# 3 65.4108 84.8628 158.3673 0.0000 0.0000 0.0000
# 4 0.0000 0.0000 0.0000 39.3645 0.0000 0.0000
# 5 0.0000 0.0000 0.0000 0.0000 29.5477 0.0000
# 6 0.0000 0.0000 0.0000 0.0000 0.0000 86.4753
#
#
#
# Elastic Compliance Matrix: (Units=1/GPa)
#
#
# Indices 1 2 3 4 5 6 
#
# 1 0.012395 -0.005625 -0.002105 0.000000 0.000000 0.000000
# 2 -0.005625 0.010797 -0.003462 0.000000 0.000000 0.000000
# 3 -0.002105 -0.003462 0.009039 0.000000 0.000000 0.000000
# 4 0.000000 0.000000 0.000000 0.025404 0.000000 0.000000
# 5 0.000000 0.000000 0.000000 0.000000 0.033844 0.000000
# 6 0.000000 0.000000 0.000000 0.000000 0.000000 0.011564
#
#
# Mechanical properties :
#
#
# Convention : Reuss Voigt Hill
#
# Bulk Modulus (GPa) = 101.56769 104.28692 102.92731
# Shear Modulus (GPa) = 38.84721 45.57401 42.21061
#
# Velocity S-wave (km/s) = 3.73567 4.04620 3.89403
# Velocity P-wave (km/s) = 7.42250 7.70015 7.56260
#
# Compressibility (1/GPa) = 0.00984565
#
# Stress axis : x y z
#
# Youngs Moduli (GPa) = 80.67881 92.61793 110.63014
#
# Poissons Ratio (x) = 0.52102 0.23288
# Poissons Ratio (y) = 0.45386 0.38302
# Poissons Ratio (z) = 0.16983 0.32066
#
# Static dielectric constant tensor:
#      x y z
#    x 4.960070 0.000000 0.000000 
#    y 0.000000 5.765890 0.000000 
#    z 0.000000 0.000000 5.914790 
# 
# 
# High freq. dielectric constant tensor:
#      x y z
#    x 2.142590 0.000000 0.000000 
#    y 0.000000 2.152030 0.000000 
#    z 0.000000 0.000000 2.115900 
# 
# From -- ./inp_files/3802.got.cif
#   From: 2010.03.12/outbox.cif.g09.slc.cpg/sg54_2_cif.got.tgz:3802.got - 2010.04.16 15:00:50.
