data_PCOD8224518
_publ_section_title
;
Structure prediction by ZEFSAII (Michael W. Deem and Ramdas Pophale) SiO2 
 PCOD8224518
Probable space group: P B A M
;
_chemical_formula_sum "Si O2"
_cell_formula_units_Z 48
_cell_length_a 16.714505
_cell_length_b 18.246875
_cell_length_c 8.785403
_cell_angle_alpha 90.000000
_cell_angle_beta 90.000000
_cell_angle_gamma 90.000000
_cell_volume 2679.437952
_symmetry_space_group_name_H-M "P B A M"
_symmetry_group_IT_number 55
_symmetry_cell_setting 'orthorhombic'
loop_
_space_group_symop_operation_xyz
x,y,z
-x,-y,z
1/2+x,1/2-y,-z
1/2-x,1/2+y,-z
-x,-y,-z
x,y,-z
1/2-x,1/2+y,z
1/2+x,1/2-y,z
loop_
_atom_site_type_symbol
_atom_site_label
_atom_site_fract_x
_atom_site_fract_y
_atom_site_fract_z
Si Si1 0.639212 0.670971 0.318724
Si Si2 0.005805 0.084040 0.178664
Si Si3 0.330543 0.595088 0.321324
Si Si4 0.243654 0.449999 0.319911
Si Si5 0.668547 0.831844 0.320425
Si Si6 0.586177 0.977433 0.681939
O O1 0.636814 0.671907 0.500000
O O2 0.560128 0.632483 0.260521
O O3 0.718416 0.626453 0.262361
O O4 0.643994 0.753198 0.250810
O O5 0.091285 0.117059 0.226720
O O6 0.993229 0.090473 0.000000
O O7 0.000000 0.000000 0.234688
O O8 0.350700 0.596162 0.500000
O O9 0.302006 0.515056 0.265692
O O10 0.261009 0.652834 0.279914
O O11 0.239691 0.452892 0.500000
O O12 0.153094 0.463935 0.259563
O O13 0.658476 0.830025 0.500000
O O14 0.610936 0.896507 0.257213
O O15 0.583237 0.976989 0.500000
O O16 0.500000 0.000000 0.750233
#
# Coordination Sequence:
#
# PCOD8224518 Si02
#       6
#     8   8   8   8   8   8
#     4  10  18  31  49  72 101 128 159 200 250 293
#     4  11  22  33  48  73 101 129 169 207 240 291
#     4   9  16  31  51  70  95 128 162 194 240 294
#     4   8  14  24  43  65  90 125 156 183 230 294
#     4   8  16  29  46  71  98 124 160 204 240 286
#     4   8  13  24  41  64  96 127 154 190 239 288
#
# _framework density 17.914204999999999
#
# number of rings (size 3 to 8) (size 9 to 14) (size 15 to 20)
#    0.000    3.000    1.667    2.500    0.000    0.667 
#    3.000    0.833    0.000    0.000    0.000    0.000 
#    0.000    4.667    0.000    0.000    0.000    0.000 
#
# Total GULP energy -594856.533533 kJ/mol
# GULP energy per Si atom -12392.844449 kJ/mol
# Density = 1.787343 g / cm^3
# Si number density = 17.914205 Si / 1000 Ang^3
#
#
#
# Elastic Constant Matrix: (Units=GPa)
#
#
# Indices 1 2 3 4 5 6 
#
# 1 156.0789 80.4965 7.8306 0.0000 0.0000 0.0000
# 2 80.4965 140.2808 12.0234 0.0000 0.0000 0.0000
# 3 7.8306 12.0234 7.1189 0.0000 0.0000 0.0000
# 4 0.0000 0.0000 0.0000 9.2969 0.0000 0.0000
# 5 0.0000 0.0000 0.0000 0.0000 0.9962 0.0000
# 6 0.0000 0.0000 0.0000 0.0000 0.0000 24.3758
#
#
#
# Elastic Compliance Matrix: (Units=1/GPa)
#
#
# Indices 1 2 3 4 5 6 
#
# 1 0.009112 -0.005109 -0.001394 0.000000 0.000000 0.000000
# 2 -0.005109 0.011200 -0.013296 0.000000 0.000000 0.000000
# 3 -0.001394 -0.013296 0.164461 0.000000 0.000000 0.000000
# 4 0.000000 0.000000 0.000000 0.107563 0.000000 0.000000
# 5 0.000000 0.000000 0.000000 0.000000 1.003785 0.000000
# 6 0.000000 0.000000 0.000000 0.000000 0.000000 0.041024
#
#
# Mechanical properties :
#
#
# Convention : Reuss Voigt Hill
#
# Bulk Modulus (GPa) = 6.88824 56.01996 31.45410
# Shear Modulus (GPa) = 3.50844 20.47565 11.99204
#
# Velocity S-wave (km/s) = 1.40097 3.38447 2.59011
# Velocity P-wave (km/s) = 2.54370 6.82730 5.15182
#
# Compressibility (1/GPa) = 0.14517501
#
# Stress axis : x y z
#
# Youngs Moduli (GPa) = 109.74555 89.28591 6.08046
#
# Poissons Ratio (x) = 0.45618 0.00847
# Poissons Ratio (y) = 0.56071 0.08085
# Poissons Ratio (z) = 0.15295 1.18716
#
# Static dielectric constant tensor:
#      x y z
#    x 3.570810 0.000000 0.000000 
#    y 0.000000 3.706380 0.000000 
#    z 0.000000 0.000000 2.729850 
# 
# 
# High freq. dielectric constant tensor:
#      x y z
#    x 1.702920 0.000000 0.000000 
#    y 0.000000 1.686140 0.000000 
#    z 0.000000 0.000000 1.635150 
# 
# From -- ./inp_files/5576.got.cif
#   From: 2010.03.12/outbox.cif.g09.slc.cpg/sg55_3_cif.got.tgz:5576.got - 2010.04.16 15:19:21.
