data_PCOD8224214
_publ_section_title
;
Structure prediction by ZEFSAII (Michael W. Deem and Ramdas Pophale) SiO2 
 PCOD8224214
Probable space group: P C C A
;
_chemical_formula_sum "Si O2"
_cell_formula_units_Z 32
_cell_length_a 15.548308
_cell_length_b 8.377678
_cell_length_c 9.045864
_cell_angle_alpha 90.000000
_cell_angle_beta 90.000000
_cell_angle_gamma 90.000000
_cell_volume 1178.302647
_symmetry_space_group_name_H-M "P C C A"
_symmetry_group_IT_number 54
_symmetry_cell_setting 'orthorhombic'
loop_
_space_group_symop_operation_xyz
x,y,z
1/2-x,-y,z
1/2+x,-y,1/2-z
-x,y,1/2-z
-x,-y,-z
1/2+x,y,-z
1/2-x,y,1/2+z
x,-y,1/2+z
loop_
_atom_site_type_symbol
_atom_site_label
_atom_site_fract_x
_atom_site_fract_y
_atom_site_fract_z
Si Si1 0.406009 0.179605 0.675275
Si Si2 0.261052 0.317732 0.862138
Si Si3 0.003285 0.329499 0.926136
Si Si4 0.837926 0.162420 0.879802
O O1 0.500000 0.153420 0.750000
O O2 0.349528 0.306386 0.766816
O O3 0.416919 0.239594 0.504991
O O4 0.348649 0.019225 0.671376
O O5 0.250000 0.500000 0.916349
O O6 0.178579 0.268571 0.765581
O O7 0.261267 0.196980 0.003052
O O8 0.920742 0.224209 0.968748
O O9 0.000000 0.339349 0.750000
O O10 0.000000 0.500000 0.000000
#
# Coordination Sequence:
#
# PCOD8224214 Si02
#       4
#     8   8   8   8
#     4  12  27  55  84 121 165 217 284 346 424 497
#     4  12  29  53  82 119 168 220 277 343 424 503
#     4  12  28  49  84 118 161 214 278 345 415 496
#     4  12  29  50  83 117 169 214 276 343 420 505
#
# _framework density 27.157710000000002
#
# number of rings (size 3 to 8) (size 9 to 14) (size 15 to 20)
#    0.000    0.000    2.500    5.250   10.500    2.000 
#    0.000    0.000    0.000    0.000    0.000    0.000 
#    0.000    0.000    0.000    0.000    0.000    0.000 
#
# Total GULP energy -396785.204854 kJ/mol
# GULP energy per Si atom -12399.537652 kJ/mol
# Density = 2.709590 g / cm^3
# Si number density = 27.157710 Si / 1000 Ang^3
#
#
#
# Elastic Constant Matrix: (Units=GPa)
#
#
# Indices 1 2 3 4 5 6 
#
# 1 58.3726 34.4620 4.4692 0.0000 0.0000 0.0000
# 2 34.4620 148.9315 40.5407 0.0000 0.0000 0.0000
# 3 4.4692 40.5407 143.8984 0.0000 0.0000 0.0000
# 4 0.0000 0.0000 0.0000 40.6998 0.0000 0.0000
# 5 0.0000 0.0000 0.0000 0.0000 46.2180 0.0000
# 6 0.0000 0.0000 0.0000 0.0000 0.0000 52.6702
#
#
#
# Elastic Compliance Matrix: (Units=1/GPa)
#
#
# Indices 1 2 3 4 5 6 
#
# 1 0.019914 -0.004808 0.000736 0.000000 0.000000 0.000000
# 2 -0.004808 0.008433 -0.002227 0.000000 0.000000 0.000000
# 3 0.000736 -0.002227 0.007554 0.000000 0.000000 0.000000
# 4 0.000000 0.000000 0.000000 0.024570 0.000000 0.000000
# 5 0.000000 0.000000 0.000000 0.000000 0.021637 0.000000
# 6 0.000000 0.000000 0.000000 0.000000 0.000000 0.018986
#
#
# Mechanical properties :
#
#
# Convention : Reuss Voigt Hill
#
# Bulk Modulus (GPa) = 42.91244 56.68292 49.79768
# Shear Modulus (GPa) = 41.16628 46.03300 43.59964
#
# Velocity S-wave (km/s) = 3.89758 4.12153 4.01112
# Velocity P-wave (km/s) = 6.00752 6.60049 6.31098
#
# Compressibility (1/GPa) = 0.02330326
#
# Stress axis : x y z
#
# Youngs Moduli (GPa) = 50.21668 118.57878 132.38414
#
# Poissons Ratio (x) = 0.57017 -0.09746
# Poissons Ratio (y) = 0.24146 0.29476
# Poissons Ratio (z) = -0.03697 0.26402
#
# Static dielectric constant tensor:
#      x y z
#    x 5.288340 0.000000 0.000000 
#    y 0.000000 4.542670 0.000000 
#    z 0.000000 0.000000 5.234770 
# 
# 
# High freq. dielectric constant tensor:
#      x y z
#    x 2.119630 0.000000 0.000000 
#    y 0.000000 2.079640 0.000000 
#    z 0.000000 0.000000 2.119690 
# 
# From -- ./inp_files/4484.got.cif
#   From: 2010.03.12/outbox.cif.g09.slc.cpg/sg54_3_cif.got.tgz:4484.got - 2010.04.16 15:00:50.
