data_PCOD8224438
_publ_section_title
;
Structure prediction by ZEFSAII (Michael W. Deem and Ramdas Pophale) SiO2 
 PCOD8224438
Probable space group: P B A M
;
_chemical_formula_sum "Si O2"
_cell_formula_units_Z 48
_cell_length_a 9.290235
_cell_length_b 17.208249
_cell_length_c 15.162459
_cell_angle_alpha 90.000000
_cell_angle_beta 90.000000
_cell_angle_gamma 90.000000
_cell_volume 2424.002263
_symmetry_space_group_name_H-M "P B A M"
_symmetry_group_IT_number 55
_symmetry_cell_setting 'orthorhombic'
loop_
_space_group_symop_operation_xyz
x,y,z
-x,-y,z
1/2+x,1/2-y,-z
1/2-x,1/2+y,-z
-x,-y,-z
x,y,-z
1/2-x,1/2+y,z
1/2+x,1/2-y,z
loop_
_atom_site_type_symbol
_atom_site_label
_atom_site_fract_x
_atom_site_fract_y
_atom_site_fract_z
Si Si1 0.685541 0.584443 0.692438
Si Si2 0.752709 0.322515 0.897777
Si Si3 0.971996 0.673292 0.319577
Si Si4 0.141781 0.549893 0.770288
Si Si5 0.458738 0.301214 0.187368
Si Si6 0.903235 0.730771 0.500000
Si Si7 0.886396 0.140443 0.500000
O O1 0.730339 0.497721 0.722203
O O2 0.577202 0.615836 0.767483
O O3 0.631402 0.588202 0.589665
O O4 0.820324 0.639061 0.706877
O O5 0.805874 0.404382 0.856946
O O6 0.828416 0.245773 0.857692
O O7 0.581846 0.314553 0.885029
O O8 0.790063 0.326633 0.000000
O O9 0.101624 0.614848 0.300928
O O10 0.980727 0.753529 0.269012
O O11 0.983841 0.689136 0.421353
O O12 0.000000 0.500000 0.795866
O O13 0.731815 0.711577 0.500000
O O14 0.952371 0.821917 0.500000
#
# Coordination Sequence:
#
# PCOD8224438 Si02
#       7
#     8   8   8   8   8   4   4
#     4  10  19  36  58  87 119 158 194 237 289 346
#     4  11  24  41  63  90 114 150 199 249 299 353
#     4   9  18  34  56  86 117 157 199 234 287 344
#     4   9  21  39  60  84 121 163 192 233 299 356
#     4  11  20  37  63  86 120 149 194 248 296 348
#     4  10  18  29  53  89 114 153 196 245 272 339
#     4  10  20  31  57  88 121 150 202 240 277 344
#
# _framework density 19.801962
#
# number of rings (size 3 to 8) (size 9 to 14) (size 15 to 20)
#    0.000    2.000    3.333    0.500    0.000    1.667 
#    0.000    5.833    0.000    3.000    0.000    0.000 
#    0.000    0.000    0.000    0.000    0.000    0.000 
#
# Total GULP energy -594775.878322 kJ/mol
# GULP energy per Si atom -12391.164132 kJ/mol
# Density = 1.975689 g / cm^3
# Si number density = 19.801962 Si / 1000 Ang^3
#
#
#
# Elastic Constant Matrix: (Units=GPa)
#
#
# Indices 1 2 3 4 5 6 
#
# 1 48.1334 15.3049 23.6639 0.0000 0.0000 0.0000
# 2 15.3049 62.3623 20.1452 0.0000 0.0000 0.0000
# 3 23.6639 20.1452 119.5123 0.0000 0.0000 0.0000
# 4 0.0000 0.0000 0.0000 18.7000 0.0000 0.0000
# 5 0.0000 0.0000 0.0000 0.0000 45.3606 0.0000
# 6 0.0000 0.0000 0.0000 0.0000 0.0000 30.2063
#
#
#
# Elastic Compliance Matrix: (Units=1/GPa)
#
#
# Indices 1 2 3 4 5 6 
#
# 1 0.024227 -0.004649 -0.004013 0.000000 0.000000 0.000000
# 2 -0.004649 0.017851 -0.002088 0.000000 0.000000 0.000000
# 3 -0.004013 -0.002088 0.009514 0.000000 0.000000 0.000000
# 4 0.000000 0.000000 0.000000 0.053476 0.000000 0.000000
# 5 0.000000 0.000000 0.000000 0.000000 0.022046 0.000000
# 6 0.000000 0.000000 0.000000 0.000000 0.000000 0.033106
#
#
# Mechanical properties :
#
#
# Convention : Reuss Voigt Hill
#
# Bulk Modulus (GPa) = 33.23376 38.69289 35.96333
# Shear Modulus (GPa) = 26.07545 30.24633 28.16089
#
# Velocity S-wave (km/s) = 3.63273 3.91249 3.77520
# Velocity P-wave (km/s) = 5.86644 6.32396 6.09949
#
# Compressibility (1/GPa) = 0.03008988
#
# Stress axis : x y z
#
# Youngs Moduli (GPa) = 41.27623 56.01930 105.10800
#
# Poissons Ratio (x) = 0.26045 0.42183
# Poissons Ratio (y) = 0.19191 0.21951
# Poissons Ratio (z) = 0.16566 0.11699
#
# Static dielectric constant tensor:
#      x y z
#    x 3.678890 0.000000 0.000000 
#    y 0.000000 3.602370 0.000000 
#    z 0.000000 0.000000 3.582930 
# 
# 
# High freq. dielectric constant tensor:
#      x y z
#    x 1.773230 0.000000 0.000000 
#    y 0.000000 1.763380 0.000000 
#    z 0.000000 0.000000 1.769210 
# 
# From -- ./inp_files/17391.got.cif
#   From: 2010.03.12/outbox.cif.g09.slc.cpg/sg55_9_cif.got.tgz:17391.got - 2010.04.16 15:19:21.
