data_PCOD8224666
_publ_section_title
;
Structure prediction by ZEFSAII (Michael W. Deem and Ramdas Pophale) SiO2 
 PCOD8224666
Probable space group: P B A M
;
_chemical_formula_sum "Si O2"
_cell_formula_units_Z 64
_cell_length_a 12.004544
_cell_length_b 30.770190
_cell_length_c 9.166232
_cell_angle_alpha 90.000000
_cell_angle_beta 90.000000
_cell_angle_gamma 90.000000
_cell_volume 3385.842023
_symmetry_space_group_name_H-M "P B A M"
_symmetry_group_IT_number 55
_symmetry_cell_setting 'orthorhombic'
loop_
_space_group_symop_operation_xyz
x,y,z
-x,-y,z
1/2+x,1/2-y,-z
1/2-x,1/2+y,-z
-x,-y,-z
x,y,-z
1/2-x,1/2+y,z
1/2+x,1/2-y,z
loop_
_atom_site_type_symbol
_atom_site_label
_atom_site_fract_x
_atom_site_fract_y
_atom_site_fract_z
Si Si1 0.034972 0.790857 0.167469
Si Si2 0.348480 0.118208 0.826421
Si Si3 0.758599 0.663695 0.832977
Si Si4 0.744636 0.078143 0.328484
Si Si5 0.944439 0.045843 0.169283
Si Si6 0.496585 0.803884 0.826817
Si Si7 0.999542 0.449785 0.671311
Si Si8 0.094113 0.125803 0.173678
O O1 0.166503 0.799089 0.181416
O O2 0.015535 0.743949 0.242922
O O3 0.961349 0.829844 0.237953
O O4 0.997855 0.787662 0.000000
O O5 0.412865 0.161319 0.769938
O O6 0.402694 0.075306 0.756829
O O7 0.221281 0.122012 0.772086
O O8 0.356343 0.113562 0.000000
O O9 0.718550 0.624725 0.731597
O O10 0.875088 0.681621 0.774275
O O11 0.768327 0.647327 0.000000
O O12 0.758869 0.075654 0.500000
O O13 0.828223 0.043709 0.256182
O O14 0.618352 0.069268 0.280370
O O15 0.024707 0.084114 0.229801
O O16 0.917977 0.053459 0.000000
O O17 0.000000 0.000000 0.198632
O O18 0.504920 0.801154 0.000000
O O19 0.977692 0.444112 0.500000
O O20 0.000000 0.500000 0.717039
O O21 0.089597 0.126753 0.000000
#
# Coordination Sequence:
#
# PCOD8224666 Si02
#       8
#     8   8   8   8   8   8   8   8
#     4   9  17  29  50  79 111 141 173 219 271 320
#     4  10  20  34  54  82 111 136 175 224 267 317
#     4  10  18  33  56  79 107 143 183 224 276 327
#     4  11  22  37  58  80 106 141 185 231 272 318
#     4  10  21  37  57  82 112 145 181 222 276 332
#     4   9  18  29  48  82 111 137 176 223 268 318
#     4  10  23  41  57  76 106 144 181 219 271 326
#     4   9  18  32  50  78 112 142 172 218 272 319
#
# _framework density 18.902241
#
# number of rings (size 3 to 8) (size 9 to 14) (size 15 to 20)
#    0.000    2.250    2.500    0.375    3.500    1.000 
#    0.000    0.625    0.000    1.500    0.000    0.000 
#    0.000    0.000    0.000    0.000    0.000    0.000 
#
# Total GULP energy -793547.330103 kJ/mol
# GULP energy per Si atom -12399.177033 kJ/mol
# Density = 1.885922 g / cm^3
# Si number density = 18.902241 Si / 1000 Ang^3
#
#
#
# Elastic Constant Matrix: (Units=GPa)
#
#
# Indices 1 2 3 4 5 6 
#
# 1 114.2397 41.9175 21.3401 0.0000 0.0000 0.0000
# 2 41.9175 125.4860 19.8828 0.0000 0.0000 0.0000
# 3 21.3401 19.8828 25.2751 0.0000 0.0000 0.0000
# 4 0.0000 0.0000 0.0000 9.4196 0.0000 0.0000
# 5 0.0000 0.0000 0.0000 0.0000 16.0222 0.0000
# 6 0.0000 0.0000 0.0000 0.0000 0.0000 27.7762
#
#
#
# Elastic Compliance Matrix: (Units=1/GPa)
#
#
# Indices 1 2 3 4 5 6 
#
# 1 0.011053 -0.002529 -0.007343 0.000000 0.000000 0.000000
# 2 -0.002529 0.009682 -0.005482 0.000000 0.000000 0.000000
# 3 -0.007343 -0.005482 0.050077 0.000000 0.000000 0.000000
# 4 0.000000 0.000000 0.000000 0.106161 0.000000 0.000000
# 5 0.000000 0.000000 0.000000 0.000000 0.062413 0.000000
# 6 0.000000 0.000000 0.000000 0.000000 0.000000 0.036002
#
#
# Mechanical properties :
#
#
# Convention : Reuss Voigt Hill
#
# Bulk Modulus (GPa) = 24.93436 47.92017 36.42727
# Shear Modulus (GPa) = 15.65123 22.76764 19.20943
#
# Velocity S-wave (km/s) = 2.88064 3.47435 3.19133
# Velocity P-wave (km/s) = 4.92787 6.44216 5.73521
#
# Compressibility (1/GPa) = 0.04010530
#
# Stress axis : x y z
#
# Youngs Moduli (GPa) = 90.47275 103.28192 19.96941
#
# Poissons Ratio (x) = 0.26117 0.14664
# Poissons Ratio (y) = 0.22878 0.10946
# Poissons Ratio (z) = 0.66434 0.56615
#
# Static dielectric constant tensor:
#      x y z
#    x 3.662950 0.000000 0.000000 
#    y 0.000000 3.664720 0.000000 
#    z 0.000000 0.000000 2.966580 
# 
# 
# High freq. dielectric constant tensor:
#      x y z
#    x 1.749390 0.000000 0.000000 
#    y 0.000000 1.745140 0.000000 
#    z 0.000000 0.000000 1.678710 
# 
# From -- ./inp_files/4649.got.cif
#   From: 2010.03.12/outbox.cif.g09.slc.cpg/sg55_3_cif.got.tgz:4649.got - 2010.04.16 15:19:21.
