data_PCOD8224285
_publ_section_title
;
Structure prediction by ZEFSAII (Michael W. Deem and Ramdas Pophale) SiO2 
 PCOD8224285
Probable space group: P B A M
;
_chemical_formula_sum "Si O2"
_cell_formula_units_Z 48
_cell_length_a 30.099814
_cell_length_b 8.399045
_cell_length_c 10.342872
_cell_angle_alpha 90.000000
_cell_angle_beta 90.000000
_cell_angle_gamma 90.000000
_cell_volume 2614.778288
_symmetry_space_group_name_H-M "P B A M"
_symmetry_group_IT_number 55
_symmetry_cell_setting 'orthorhombic'
loop_
_space_group_symop_operation_xyz
x,y,z
-x,-y,z
1/2+x,1/2-y,-z
1/2-x,1/2+y,-z
-x,-y,-z
x,y,-z
1/2-x,1/2+y,z
1/2+x,1/2-y,z
loop_
_atom_site_type_symbol
_atom_site_label
_atom_site_fract_x
_atom_site_fract_y
_atom_site_fract_z
Si Si1 0.449446 0.969723 0.645865
Si Si2 0.736638 0.661910 0.856193
Si Si3 0.377695 0.229501 0.641418
Si Si4 0.144743 0.978227 0.852869
Si Si5 0.187904 0.526799 0.224154
Si Si6 0.609062 0.177180 0.856379
O O1 0.445880 0.898140 0.500000
O O2 0.429070 0.848303 0.749981
O O3 0.500000 0.000000 0.685011
O O4 0.423812 0.136443 0.652565
O O5 0.697578 0.533882 0.834176
O O6 0.716497 0.837984 0.847390
O O7 0.776456 0.617601 0.754385
O O8 0.757149 0.644213 0.000000
O O9 0.373891 0.310692 0.500000
O O10 0.379406 0.359528 0.753991
O O11 0.335133 0.107988 0.650876
O O12 0.131783 0.156994 0.819200
O O13 0.131296 0.931308 0.000000
O O14 0.146271 0.461095 0.142044
O O15 0.587786 0.182559 0.000000
#
# Coordination Sequence:
#
# PCOD8224285 Si02
#       6
#     8   8   8   8   8   8
#     4   9  19  36  56  76  98 128 168 209 249 303
#     4  10  17  27  45  70 100 134 169 201 237 284
#     4   9  19  36  55  74  99 132 169 207 253 302
#     4   9  19  33  51  77 106 136 170 208 248 295
#     4  10  19  30  47  73 102 133 169 209 246 287
#     4  10  19  32  51  77 106 132 163 206 256 302
#
# _framework density 18.357195000000001
#
# number of rings (size 3 to 8) (size 9 to 14) (size 15 to 20)
#    0.000    2.500    0.000    2.500    0.000    7.000 
#    0.000    4.167    0.000    9.000    0.000    0.000 
#    0.000    0.000    0.000    0.000    0.000    0.000 
#
# Total GULP energy -594696.308142 kJ/mol
# GULP energy per Si atom -12389.506420 kJ/mol
# Density = 1.831541 g / cm^3
# Si number density = 18.357195 Si / 1000 Ang^3
#
#
#
# Elastic Constant Matrix: (Units=GPa)
#
#
# Indices 1 2 3 4 5 6 
#
# 1 110.6297 39.7305 46.9588 0.0000 0.0000 0.0000
# 2 39.7305 78.9335 42.5058 0.0000 0.0000 0.0000
# 3 46.9588 42.5058 101.6109 0.0000 0.0000 0.0000
# 4 0.0000 0.0000 0.0000 24.4196 0.0000 0.0000
# 5 0.0000 0.0000 0.0000 0.0000 20.2263 0.0000
# 6 0.0000 0.0000 0.0000 0.0000 0.0000 20.4728
#
#
#
# Elastic Compliance Matrix: (Units=1/GPa)
#
#
# Indices 1 2 3 4 5 6 
#
# 1 0.012146 -0.003990 -0.003944 0.000000 0.000000 0.000000
# 2 -0.003990 0.017663 -0.005545 0.000000 0.000000 0.000000
# 3 -0.003944 -0.005545 0.013984 0.000000 0.000000 0.000000
# 4 0.000000 0.000000 0.000000 0.040951 0.000000 0.000000
# 5 0.000000 0.000000 0.000000 0.000000 0.049441 0.000000
# 6 0.000000 0.000000 0.000000 0.000000 0.000000 0.048845
#
#
# Mechanical properties :
#
#
# Convention : Reuss Voigt Hill
#
# Bulk Modulus (GPa) = 59.39952 61.06271 60.23111
# Shear Modulus (GPa) = 23.19116 23.82234 23.50675
#
# Velocity S-wave (km/s) = 3.55819 3.60628 3.58232
# Velocity P-wave (km/s) = 7.02202 7.11872 7.07054
#
# Compressibility (1/GPa) = 0.01683515
#
# Stress axis : x y z
#
# Youngs Moduli (GPa) = 82.33008 56.61538 71.51085
#
# Poissons Ratio (x) = 0.22588 0.28206
# Poissons Ratio (y) = 0.32847 0.39653
# Poissons Ratio (z) = 0.32474 0.31393
#
# Static dielectric constant tensor:
#      x y z
#    x 3.342750 0.000000 0.000000 
#    y 0.000000 3.360790 0.000000 
#    z 0.000000 0.000000 3.351760 
# 
# 
# High freq. dielectric constant tensor:
#      x y z
#    x 1.702300 0.000000 0.000000 
#    y 0.000000 1.708090 0.000000 
#    z 0.000000 0.000000 1.696360 
# 
# From -- ./inp_files/10496.got.cif
#   From: 2010.03.12/outbox.cif.g09.slc.cpg/sg55_6_cif.got.tgz:10496.got - 2010.04.16 15:19:21.
