data_PCOD8224405
_publ_section_title
;
Structure prediction by ZEFSAII (Michael W. Deem and Ramdas Pophale) SiO2 
 PCOD8224405
Probable space group: P B A M
;
_chemical_formula_sum "Si O2"
_cell_formula_units_Z 56
_cell_length_a 20.341745
_cell_length_b 14.406546
_cell_length_c 13.102576
_cell_angle_alpha 90.000000
_cell_angle_beta 90.000000
_cell_angle_gamma 90.000000
_cell_volume 3839.766042
_symmetry_space_group_name_H-M "P B A M"
_symmetry_group_IT_number 55
_symmetry_cell_setting 'orthorhombic'
loop_
_space_group_symop_operation_xyz
x,y,z
-x,-y,z
1/2+x,1/2-y,-z
1/2-x,1/2+y,-z
-x,-y,-z
x,y,-z
1/2-x,1/2+y,z
1/2+x,1/2-y,z
loop_
_atom_site_type_symbol
_atom_site_label
_atom_site_fract_x
_atom_site_fract_y
_atom_site_fract_z
Si Si1 0.177792 0.811561 0.118643
Si Si2 0.427551 0.181902 0.801488
Si Si3 0.315023 0.710186 0.880596
Si Si4 0.724620 0.490099 0.879788
Si Si5 0.429145 0.826080 0.213294
Si Si6 0.006938 0.610329 0.615022
Si Si7 0.369958 0.001422 0.883450
O O1 0.120473 0.770044 0.189499
O O2 0.246733 0.761655 0.141276
O O3 0.182080 0.919862 0.149451
O O4 0.159096 0.799512 0.000000
O O5 0.501803 0.209653 0.836410
O O6 0.430391 0.142292 0.684612
O O7 0.400296 0.103395 0.876864
O O8 0.310719 0.603885 0.842267
O O9 0.371174 0.755296 0.810914
O O10 0.333891 0.719084 0.000000
O O11 0.797473 0.498882 0.832047
O O12 0.734112 0.481141 0.000000
O O13 0.441649 0.841021 0.335315
O O14 0.416065 0.928513 0.171745
O O15 0.016332 0.646914 0.500000
O O16 0.000000 0.500000 0.617159
O O17 0.364630 0.969773 0.000000
#
# Coordination Sequence:
#
# PCOD8224405 Si02
#       7
#     8   8   8   8   8   8   8
#     4  10  18  29  45  67 101 135 160 186 220 276
#     4  10  19  30  45  73  92 126 159 192 243 278
#     4  10  18  29  45  67 101 135 160 186 220 276
#     4   9  18  29  43  65  96 140 168 179 213 267
#     4  10  19  30  45  73  92 126 159 192 243 278
#     4   9  18  34  50  69  96 119 151 204 257 295
#     4  11  17  26  43  71 106 125 152 191 225 276
#
# _framework density 14.584222
#
# number of rings (size 3 to 8) (size 9 to 14) (size 15 to 20)
#    0.857    1.286    4.286    1.286    0.000    2.857 
#    0.000    0.714    0.000    3.429    0.000    2.000 
#    0.000    0.000    0.000    0.000    0.000    0.000 
#
# Total GULP energy -693898.062940 kJ/mol
# GULP energy per Si atom -12391.036838 kJ/mol
# Density = 1.455103 g / cm^3
# Si number density = 14.584222 Si / 1000 Ang^3
#
#
#
# Elastic Constant Matrix: (Units=GPa)
#
#
# Indices 1 2 3 4 5 6 
#
# 1 88.3675 38.2328 30.3289 0.0000 0.0000 0.0000
# 2 38.2328 94.0098 23.7860 0.0000 0.0000 0.0000
# 3 30.3289 23.7860 58.6934 0.0000 0.0000 0.0000
# 4 0.0000 0.0000 0.0000 15.1137 0.0000 0.0000
# 5 0.0000 0.0000 0.0000 0.0000 2.6390 0.0000
# 6 0.0000 0.0000 0.0000 0.0000 0.0000 32.4273
#
#
#
# Elastic Compliance Matrix: (Units=1/GPa)
#
#
# Indices 1 2 3 4 5 6 
#
# 1 0.015451 -0.004751 -0.006059 0.000000 0.000000 0.000000
# 2 -0.004751 0.013313 -0.002940 0.000000 0.000000 0.000000
# 3 -0.006059 -0.002940 0.021360 0.000000 0.000000 0.000000
# 4 0.000000 0.000000 0.000000 0.066165 0.000000 0.000000
# 5 0.000000 0.000000 0.000000 0.000000 0.378926 0.000000
# 6 0.000000 0.000000 0.000000 0.000000 0.000000 0.030838
#
#
# Mechanical properties :
#
#
# Convention : Reuss Voigt Hill
#
# Bulk Modulus (GPa) = 44.19998 47.30734 45.75366
# Shear Modulus (GPa) = 8.91112 19.95087 14.43100
#
# Velocity S-wave (km/s) = 2.47455 3.70263 3.14903
# Velocity P-wave (km/s) = 6.20782 7.12650 6.68297
#
# Compressibility (1/GPa) = 0.02262445
#
# Stress axis : x y z
#
# Youngs Moduli (GPa) = 64.71914 75.11288 46.81617
#
# Poissons Ratio (x) = 0.35685 0.28365
# Poissons Ratio (y) = 0.30748 0.13766
# Poissons Ratio (z) = 0.39213 0.22086
#
# Static dielectric constant tensor:
#      x y z
#    x 2.790610 0.000000 0.000000 
#    y 0.000000 2.882500 0.000000 
#    z 0.000000 0.000000 2.548350 
# 
# 
# High freq. dielectric constant tensor:
#      x y z
#    x 1.553910 0.000000 0.000000 
#    y 0.000000 1.557590 0.000000 
#    z 0.000000 0.000000 1.512270 
# 
# From -- ./inp_files/19550.got.cif
#   From: 2010.03.12/outbox.cif.g09.slc.cpg/sg55_10_cif.got.tgz:19550.got - 2010.04.16 15:19:21.
