data_PCOD8224781
_publ_section_title
;
Structure prediction by ZEFSAII (Michael W. Deem and Ramdas Pophale) SiO2 
 PCOD8224781
Probable space group: P B A M
;
_chemical_formula_sum "Si O2"
_cell_formula_units_Z 56
_cell_length_a 18.458252
_cell_length_b 20.973476
_cell_length_c 8.633865
_cell_angle_alpha 90.000000
_cell_angle_beta 90.000000
_cell_angle_gamma 90.000000
_cell_volume 3342.460149
_symmetry_space_group_name_H-M "P B A M"
_symmetry_group_IT_number 55
_symmetry_cell_setting 'orthorhombic'
loop_
_space_group_symop_operation_xyz
x,y,z
-x,-y,z
1/2+x,1/2-y,-z
1/2-x,1/2+y,-z
-x,-y,-z
x,y,-z
1/2-x,1/2+y,z
1/2+x,1/2-y,z
loop_
_atom_site_type_symbol
_atom_site_label
_atom_site_fract_x
_atom_site_fract_y
_atom_site_fract_z
Si Si1 0.846709 0.617313 0.316198
Si Si2 0.917049 0.740324 0.822523
Si Si3 0.083159 0.506436 0.180611
Si Si4 0.293126 0.319068 0.679185
Si Si5 0.931296 0.244260 0.316848
Si Si6 0.772833 0.801074 0.823226
Si Si7 0.345298 0.128978 0.319736
O O1 0.850336 0.604571 0.500000
O O2 0.894988 0.679420 0.279962
O O3 0.875768 0.558150 0.221179
O O4 0.763143 0.628178 0.254400
O O5 0.860121 0.799309 0.803920
O O6 0.993914 0.767575 0.770030
O O7 0.920712 0.717472 0.000000
O O8 0.117164 0.563283 0.277452
O O9 0.000000 0.500000 0.230658
O O10 0.090958 0.521412 0.000000
O O11 0.297954 0.332657 0.500000
O O12 0.376026 0.312628 0.741340
O O13 0.257711 0.250687 0.705229
O O14 0.943732 0.240434 0.500000
O O15 0.898768 0.313304 0.271065
O O16 0.732371 0.866145 0.771077
O O17 0.752024 0.784569 0.000000
O O18 0.328163 0.129993 0.500000
#
# Coordination Sequence:
#
# PCOD8224781 Si02
#       7
#     8   8   8   8   8   8   8
#     4  10  19  32  49  66  89 122 157 191 225 265
#     4  10  19  29  44  69  97 122 150 185 227 272
#     4  11  23  35  47  66  93 124 156 188 222 264
#     4   8  16  30  46  65  88 116 151 188 226 269
#     4   9  17  29  46  68  93 119 148 185 227 269
#     4   9  17  29  45  65  90 119 150 186 226 268
#     4  10  20  33  48  66  90 122 158 191 224 266
#
# _framework density 16.754127
#
# number of rings (size 3 to 8) (size 9 to 14) (size 15 to 20)
#    0.000    2.429    0.000    3.857    0.000    8.571 
#    0.000    0.000    0.000    0.000    0.000    1.000 
#    0.000    8.000    0.000    0.000    0.000    0.000 
#
# Total GULP energy -693785.975687 kJ/mol
# GULP energy per Si atom -12389.035280 kJ/mol
# Density = 1.671599 g / cm^3
# Si number density = 16.754127 Si / 1000 Ang^3
#
#
#
# Elastic Constant Matrix: (Units=GPa)
#
#
# Indices 1 2 3 4 5 6 
#
# 1 140.6088 49.5638 34.5104 0.0000 0.0000 0.0000
# 2 49.5638 56.0953 14.0046 0.0000 0.0000 0.0000
# 3 34.5104 14.0046 27.6735 0.0000 0.0000 0.0000
# 4 0.0000 0.0000 0.0000 21.4699 0.0000 0.0000
# 5 0.0000 0.0000 0.0000 0.0000 23.2679 0.0000
# 6 0.0000 0.0000 0.0000 0.0000 0.0000 25.7990
#
#
#
# Elastic Compliance Matrix: (Units=1/GPa)
#
#
# Indices 1 2 3 4 5 6 
#
# 1 0.013064 -0.008556 -0.011961 0.000000 0.000000 0.000000
# 2 -0.008556 0.026009 -0.002492 0.000000 0.000000 0.000000
# 3 -0.011961 -0.002492 0.052313 0.000000 0.000000 0.000000
# 4 0.000000 0.000000 0.000000 0.046577 0.000000 0.000000
# 5 0.000000 0.000000 0.000000 0.000000 0.042978 0.000000
# 6 0.000000 0.000000 0.000000 0.000000 0.000000 0.038761
#
#
# Mechanical properties :
#
#
# Convention : Reuss Voigt Hill
#
# Bulk Modulus (GPa) = 22.04257 46.72614 34.38435
# Shear Modulus (GPa) = 17.80357 22.52728 20.16542
#
# Velocity S-wave (km/s) = 3.26335 3.67083 3.47307
# Velocity P-wave (km/s) = 5.23300 6.77617 6.05396
#
# Compressibility (1/GPa) = 0.04536677
#
# Stress axis : x y z
#
# Youngs Moduli (GPa) = 76.54806 38.44806 19.11575
#
# Poissons Ratio (x) = 0.32898 0.22864
# Poissons Ratio (y) = 0.65498 0.04764
# Poissons Ratio (z) = 0.91559 0.09581
#
# Static dielectric constant tensor:
#      x y z
#    x 3.581680 0.000000 0.000000 
#    y 0.000000 2.920190 0.000000 
#    z 0.000000 0.000000 3.162990 
# 
# 
# High freq. dielectric constant tensor:
#      x y z
#    x 1.655640 0.000000 0.000000 
#    y 0.000000 1.598770 0.000000 
#    z 0.000000 0.000000 1.653840 
# 
# From -- ./inp_files/7849.got.cif
#   From: 2010.03.12/outbox.cif.g09.slc.cpg/sg55_4_cif.got.tgz:7849.got - 2010.04.16 15:19:21.
