data_PCOD8224073
_publ_section_title
;
Structure prediction by ZEFSAII (Michael W. Deem and Ramdas Pophale) SiO2 
 PCOD8224073
Probable space group: P C C A
;
_chemical_formula_sum "Si O2"
_cell_formula_units_Z 40
_cell_length_a 14.424697
_cell_length_b 8.677424
_cell_length_c 14.262277
_cell_angle_alpha 90.000000
_cell_angle_beta 90.000000
_cell_angle_gamma 90.000000
_cell_volume 1785.197973
_symmetry_space_group_name_H-M "P C C A"
_symmetry_group_IT_number 54
_symmetry_cell_setting 'orthorhombic'
loop_
_space_group_symop_operation_xyz
x,y,z
1/2-x,-y,z
1/2+x,-y,1/2-z
-x,y,1/2-z
-x,-y,-z
1/2+x,y,-z
1/2-x,y,1/2+z
x,-y,1/2+z
loop_
_atom_site_type_symbol
_atom_site_label
_atom_site_fract_x
_atom_site_fract_y
_atom_site_fract_z
Si Si1 0.359795 0.829049 0.113759
Si Si2 0.478268 0.678243 0.488692
Si Si3 0.232651 0.675742 0.251102
Si Si4 0.765260 0.325186 0.036798
Si Si5 0.934630 0.849092 0.334399
O O1 0.319866 0.773605 0.213511
O O2 0.377347 0.010630 0.120765
O O3 0.456275 0.744453 0.092362
O O4 0.284259 0.792636 0.033450
O O5 0.500000 0.500000 0.500000
O O6 0.373655 0.710159 0.457536
O O7 0.497670 0.767868 0.586159
O O8 0.250000 0.500000 0.224644
O O9 0.220968 0.700671 0.361579
O O10 0.137506 0.722239 0.201441
O O11 0.750000 0.500000 0.001281
O O12 0.000000 0.907094 0.250000
#
# Coordination Sequence:
#
# PCOD8224073 Si02
#       5
#     8   8   8   8   8
#     4  12  25  49  69 109 151 192 239 305 377 439
#     4  12  25  45  77 103 144 199 254 305 367 446
#     4  11  25  47  75 103 144 192 245 308 363 435
#     4  11  24  46  76 109 144 198 251 307 368 432
#     4  12  28  48  71 110 149 193 243 309 374 449
#
# _framework density 22.406479000000001
#
# number of rings (size 3 to 8) (size 9 to 14) (size 15 to 20)
#    0.000    0.400    4.000    4.200    5.600    0.000 
#    3.600    0.000    0.000    0.000    0.000    0.000 
#    0.000    0.000    0.000    0.000    0.000    0.000 
#
# Total GULP energy -496284.142451 kJ/mol
# GULP energy per Si atom -12407.103561 kJ/mol
# Density = 2.235548 g / cm^3
# Si number density = 22.406479 Si / 1000 Ang^3
#
#
#
# Elastic Constant Matrix: (Units=GPa)
#
#
# Indices 1 2 3 4 5 6 
#
# 1 120.7966 29.1595 13.2419 0.0000 0.0000 0.0000
# 2 29.1595 140.2741 52.4235 0.0000 0.0000 0.0000
# 3 13.2419 52.4235 91.7235 0.0000 0.0000 0.0000
# 4 0.0000 0.0000 0.0000 32.1766 0.0000 0.0000
# 5 0.0000 0.0000 0.0000 0.0000 43.2160 0.0000
# 6 0.0000 0.0000 0.0000 0.0000 0.0000 44.3120
#
#
#
# Elastic Compliance Matrix: (Units=1/GPa)
#
#
# Indices 1 2 3 4 5 6 
#
# 1 0.008722 -0.001707 -0.000283 0.000000 0.000000 0.000000
# 2 -0.001707 0.009399 -0.005126 0.000000 0.000000 0.000000
# 3 -0.000283 -0.005126 0.013873 0.000000 0.000000 0.000000
# 4 0.000000 0.000000 0.000000 0.031078 0.000000 0.000000
# 5 0.000000 0.000000 0.000000 0.000000 0.023140 0.000000
# 6 0.000000 0.000000 0.000000 0.000000 0.000000 0.022567
#
#
# Mechanical properties :
#
#
# Convention : Reuss Voigt Hill
#
# Bulk Modulus (GPa) = 56.30217 60.27155 58.28686
# Shear Modulus (GPa) = 38.78026 41.13887 39.95957
#
# Velocity S-wave (km/s) = 4.16475 4.28954 4.22761
# Velocity P-wave (km/s) = 6.95047 7.17573 7.06400
#
# Compressibility (1/GPa) = 0.01776130
#
# Stress axis : x y z
#
# Youngs Moduli (GPa) = 114.65884 106.39076 72.08381
#
# Poissons Ratio (x) = 0.18161 0.02043
# Poissons Ratio (y) = 0.19573 0.36947
# Poissons Ratio (z) = 0.03250 0.54532
#
# Static dielectric constant tensor:
#      x y z
#    x 4.260540 0.000000 0.000000 
#    y 0.000000 4.049460 0.000000 
#    z 0.000000 0.000000 4.238040 
# 
# 
# High freq. dielectric constant tensor:
#      x y z
#    x 1.896810 0.000000 0.000000 
#    y 0.000000 1.885730 0.000000 
#    z 0.000000 0.000000 1.889870 
# 
# From -- ./inp_files/13181.got.cif
#   From: 2010.03.12/outbox.cif.g09.slc.cpg/sg54_7_cif.got.tgz:13181.got - 2010.04.16 15:00:50.
