data_PCOD8224583
_publ_section_title
;
Structure prediction by ZEFSAII (Michael W. Deem and Ramdas Pophale) SiO2 
 PCOD8224583
Probable space group: P B A M
;
_chemical_formula_sum "Si O2"
_cell_formula_units_Z 64
_cell_length_a 24.662812
_cell_length_b 15.347286
_cell_length_c 8.794724
_cell_angle_alpha 90.000000
_cell_angle_beta 90.000000
_cell_angle_gamma 90.000000
_cell_volume 3328.866614
_symmetry_space_group_name_H-M "P B A M"
_symmetry_group_IT_number 55
_symmetry_cell_setting 'orthorhombic'
loop_
_space_group_symop_operation_xyz
x,y,z
-x,-y,z
1/2+x,1/2-y,-z
1/2-x,1/2+y,-z
-x,-y,-z
x,y,-z
1/2-x,1/2+y,z
1/2+x,1/2-y,z
loop_
_atom_site_type_symbol
_atom_site_label
_atom_site_fract_x
_atom_site_fract_y
_atom_site_fract_z
Si Si1 0.888138 0.492756 0.679502
Si Si2 0.433446 0.825146 0.318923
Si Si3 0.142003 0.819376 0.680237
Si Si4 0.554864 0.820567 0.319572
Si Si5 0.658379 0.499247 0.820349
Si Si6 0.649464 0.321478 0.680549
Si Si7 0.219444 0.468874 0.826574
Si Si8 0.753916 0.726654 0.176655
O O1 0.892540 0.493169 0.500000
O O2 0.913112 0.582092 0.746798
O O3 0.920840 0.410651 0.747308
O O4 0.825151 0.484013 0.723790
O O5 0.432574 0.827598 0.500000
O O6 0.494007 0.807418 0.256934
O O7 0.394469 0.748329 0.259897
O O8 0.146817 0.828107 0.500000
O O9 0.091251 0.760766 0.732133
O O10 0.195910 0.773180 0.742281
O O11 0.131610 0.913961 0.752310
O O12 0.554220 0.827123 0.500000
O O13 0.630649 0.415269 0.743936
O O14 0.721787 0.497064 0.777165
O O15 0.649233 0.499382 0.000000
O O16 0.652866 0.323484 0.500000
O O17 0.708509 0.299764 0.748096
O O18 0.216509 0.365458 0.800323
O O19 0.207369 0.493042 0.000000
O O20 0.744944 0.748272 0.000000
#
# Coordination Sequence:
#
# PCOD8224583 Si02
#       8
#     8   8   8   8   8   8   8   8
#     4  10  18  31  55  84 112 146 182 223 270 327
#     4   9  18  34  55  83 116 146 184 232 284 334
#     4  10  20  36  57  83 112 145 192 244 282 330
#     4   9  19  34  55  83 113 146 186 234 287 333
#     4  10  22  39  56  78 112 154 187 229 293 351
#     4  11  21  34  57  87 112 144 192 240 280 331
#     4   9  19  34  51  75 109 147 181 217 270 330
#     4  10  20  35  54  77 114 155 184 224 284 342
#
# _framework density 19.225762
#
# number of rings (size 3 to 8) (size 9 to 14) (size 15 to 20)
#    0.000    2.250    1.250    2.625    1.750    4.000 
#    0.000    1.250    0.000   11.250    0.000    0.000 
#    0.000    0.000    0.000    0.000    0.000    0.000 
#
# Total GULP energy -793679.599462 kJ/mol
# GULP energy per Si atom -12401.243742 kJ/mol
# Density = 1.918200 g / cm^3
# Si number density = 19.225762 Si / 1000 Ang^3
#
#
#
# Elastic Constant Matrix: (Units=GPa)
#
#
# Indices 1 2 3 4 5 6 
#
# 1 92.2709 64.1202 23.3726 0.0000 0.0000 0.0000
# 2 64.1202 153.8300 37.7554 0.0000 0.0000 0.0000
# 3 23.3726 37.7554 53.1258 0.0000 0.0000 0.0000
# 4 0.0000 0.0000 0.0000 23.6688 0.0000 0.0000
# 5 0.0000 0.0000 0.0000 0.0000 7.3584 0.0000
# 6 0.0000 0.0000 0.0000 0.0000 0.0000 26.3118
#
#
#
# Elastic Compliance Matrix: (Units=1/GPa)
#
#
# Indices 1 2 3 4 5 6 
#
# 1 0.015573 -0.005826 -0.002711 0.000000 0.000000 0.000000
# 2 -0.005826 0.010054 -0.004582 0.000000 0.000000 0.000000
# 3 -0.002711 -0.004582 0.023272 0.000000 0.000000 0.000000
# 4 0.000000 0.000000 0.000000 0.042250 0.000000 0.000000
# 5 0.000000 0.000000 0.000000 0.000000 0.135899 0.000000
# 6 0.000000 0.000000 0.000000 0.000000 0.000000 0.038006
#
#
# Mechanical properties :
#
#
# Convention : Reuss Voigt Hill
#
# Bulk Modulus (GPa) = 44.12799 61.08034 52.60416
# Shear Modulus (GPa) = 16.73117 23.06639 19.89878
#
# Velocity S-wave (km/s) = 2.95320 3.46752 3.22064
# Velocity P-wave (km/s) = 5.88480 6.91886 6.42267
#
# Compressibility (1/GPa) = 0.02266135
#
# Stress axis : x y z
#
# Youngs Moduli (GPa) = 64.21486 99.46748 42.96991
#
# Poissons Ratio (x) = 0.57947 0.11649
# Poissons Ratio (y) = 0.37410 0.19688
# Poissons Ratio (z) = 0.17408 0.45574
#
# Static dielectric constant tensor:
#      x y z
#    x 3.507000 0.000000 0.000000 
#    y 0.000000 3.695450 0.000000 
#    z 0.000000 0.000000 3.219250 
# 
# 
# High freq. dielectric constant tensor:
#      x y z
#    x 1.737480 0.000000 0.000000 
#    y 0.000000 1.756850 0.000000 
#    z 0.000000 0.000000 1.725100 
# 
# From -- ./inp_files/9724.got.cif
#   From: 2010.03.12/outbox.cif.g09.slc.cpg/sg55_5_cif.got.tgz:9724.got - 2010.04.16 15:19:21.
