data_PCOD8224009
_publ_section_title
;
Structure prediction by ZEFSAII (Michael W. Deem and Ramdas Pophale) SiO2 
 PCOD8224009
Probable space group: P C C A
;
_chemical_formula_sum "Si O2"
_cell_formula_units_Z 48
_cell_length_a 14.356854
_cell_length_b 9.308172
_cell_length_c 17.321284
_cell_angle_alpha 90.000000
_cell_angle_beta 90.000000
_cell_angle_gamma 90.000000
_cell_volume 2314.748259
_symmetry_space_group_name_H-M "P C C A"
_symmetry_group_IT_number 54
_symmetry_cell_setting 'orthorhombic'
loop_
_space_group_symop_operation_xyz
x,y,z
1/2-x,-y,z
1/2+x,-y,1/2-z
-x,y,1/2-z
-x,-y,-z
1/2+x,y,-z
1/2-x,y,1/2+z
x,-y,1/2+z
loop_
_atom_site_type_symbol
_atom_site_label
_atom_site_fract_x
_atom_site_fract_y
_atom_site_fract_z
Si Si1 0.111068 0.865606 0.937129
Si Si2 0.253685 0.661860 0.170925
Si Si3 0.773438 0.659714 0.006998
Si Si4 0.396666 0.859130 0.257281
Si Si5 0.930798 0.837359 0.314762
Si Si6 0.554947 0.169379 0.034447
O O1 0.191928 0.767486 0.970765
O O2 0.125738 0.886138 0.846497
O O3 0.114397 0.022762 0.977583
O O4 0.009967 0.798066 0.959538
O O5 0.250000 0.500000 0.202551
O O6 0.322271 0.748555 0.225585
O O7 0.150759 0.724953 0.173940
O O8 0.291510 0.664995 0.084138
O O9 0.750000 0.500000 0.036071
O O10 0.871225 0.702946 0.046769
O O11 0.500000 0.792884 0.250000
O O12 0.389876 0.008398 0.210640
O O13 0.000000 0.776107 0.250000
O O14 0.987541 0.852274 0.393229
#
# Coordination Sequence:
#
# PCOD8224009 Si02
#       6
#     8   8   8   8   8   8
#     4  11  23  42  70 101 125 168 226 272 329 385
#     4  11  26  46  65  95 138 179 215 265 335 398
#     4  11  26  44  64  97 135 177 217 268 331 397
#     4  11  23  43  69  99 128 168 221 277 324 388
#     4  11  23  44  67  99 130 172 218 278 328 386
#     4  11  23  43  70  97 130 169 222 277 328 388
#
# _framework density 20.736597
#
# number of rings (size 3 to 8) (size 9 to 14) (size 15 to 20)
#    0.000    1.000    5.000    2.000    4.667    4.667 
#    3.000    0.000    0.000    0.000    0.000    0.000 
#    0.000    0.000    0.000    0.000    0.000    0.000 
#
# Total GULP energy -595299.008610 kJ/mol
# GULP energy per Si atom -12402.062679 kJ/mol
# Density = 2.068940 g / cm^3
# Si number density = 20.736597 Si / 1000 Ang^3
#
#
#
# Elastic Constant Matrix: (Units=GPa)
#
#
# Indices 1 2 3 4 5 6 
#
# 1 105.9498 81.2769 30.5380 0.0000 0.0000 0.0000
# 2 81.2769 127.4267 50.3087 0.0000 0.0000 0.0000
# 3 30.5380 50.3087 93.0692 0.0000 0.0000 0.0000
# 4 0.0000 0.0000 0.0000 37.6832 0.0000 0.0000
# 5 0.0000 0.0000 0.0000 0.0000 24.8194 0.0000
# 6 0.0000 0.0000 0.0000 0.0000 0.0000 21.0633
#
#
#
# Elastic Compliance Matrix: (Units=1/GPa)
#
#
# Indices 1 2 3 4 5 6 
#
# 1 0.018493 -0.011950 0.000392 0.000000 0.000000 0.000000
# 2 -0.011950 0.017699 -0.005646 0.000000 0.000000 0.000000
# 3 0.000392 -0.005646 0.013668 0.000000 0.000000 0.000000
# 4 0.000000 0.000000 0.000000 0.026537 0.000000 0.000000
# 5 0.000000 0.000000 0.000000 0.000000 0.040291 0.000000
# 6 0.000000 0.000000 0.000000 0.000000 0.000000 0.047476
#
#
# Mechanical properties :
#
#
# Convention : Reuss Voigt Hill
#
# Bulk Modulus (GPa) = 64.72058 72.29922 68.50990
# Shear Modulus (GPa) = 24.54321 27.66797 26.10559
#
# Velocity S-wave (km/s) = 3.44404 3.65671 3.55197
# Velocity P-wave (km/s) = 6.86249 7.26429 7.06625
#
# Compressibility (1/GPa) = 0.01545104
#
# Stress axis : x y z
#
# Youngs Moduli (GPa) = 54.07583 56.50125 73.16267
#
# Poissons Ratio (x) = 0.67518 -0.02866
# Poissons Ratio (y) = 0.64619 0.41308
# Poissons Ratio (z) = -0.02118 0.31901
#
# Static dielectric constant tensor:
#      x y z
#    x 4.210210 0.000000 0.000000 
#    y 0.000000 3.784410 0.000000 
#    z 0.000000 0.000000 3.864080 
# 
# 
# High freq. dielectric constant tensor:
#      x y z
#    x 1.824410 0.000000 0.000000 
#    y 0.000000 1.800720 0.000000 
#    z 0.000000 0.000000 1.819320 
# 
# From -- ./inp_files/18055.got.cif
#   From: 2010.03.12/outbox.cif.g09.slc.cpg/sg54_10_cif.got.tgz:18055.got - 2010.04.16 15:00:50.
