data_PCOD8224479
_publ_section_title
;
Structure prediction by ZEFSAII (Michael W. Deem and Ramdas Pophale) SiO2 
 PCOD8224479
Probable space group: P B A M
;
_chemical_formula_sum "Si O2"
_cell_formula_units_Z 48
_cell_length_a 15.021420
_cell_length_b 20.277209
_cell_length_c 8.705552
_cell_angle_alpha 90.000000
_cell_angle_beta 90.000000
_cell_angle_gamma 90.000000
_cell_volume 2651.645611
_symmetry_space_group_name_H-M "P B A M"
_symmetry_group_IT_number 55
_symmetry_cell_setting 'orthorhombic'
loop_
_space_group_symop_operation_xyz
x,y,z
-x,-y,z
1/2+x,1/2-y,-z
1/2-x,1/2+y,-z
-x,-y,-z
x,y,-z
1/2-x,1/2+y,z
1/2+x,1/2-y,z
loop_
_atom_site_type_symbol
_atom_site_label
_atom_site_fract_x
_atom_site_fract_y
_atom_site_fract_z
Si Si1 0.192377 0.661933 0.682008
Si Si2 0.499284 0.192452 0.317475
Si Si3 0.777942 0.485692 0.680402
Si Si4 0.614966 0.312560 0.683458
Si Si5 0.580833 0.458030 0.681466
Si Si6 0.566020 0.057915 0.820027
O O1 0.194688 0.661876 0.500000
O O2 0.103039 0.697863 0.742765
O O3 0.190180 0.586223 0.736987
O O4 0.282652 0.697534 0.741409
O O5 0.501627 0.194338 0.500000
O O6 0.554088 0.254172 0.248147
O O7 0.542959 0.124942 0.265066
O O8 0.795068 0.495834 0.500000
O O9 0.673717 0.494066 0.721400
O O10 0.833107 0.539614 0.774940
O O11 0.612444 0.311996 0.500000
O O12 0.579402 0.383068 0.745601
O O13 0.500000 0.500000 0.755473
O O14 0.569292 0.454049 0.500000
O O15 0.500000 0.000000 0.763274
O O16 0.557669 0.069528 0.000000
#
# Coordination Sequence:
#
# PCOD8224479 Si02
#       6
#     8   8   8   8   8   8
#     4   8  14  26  45  68  95 124 154 191 235 281
#     4  10  18  30  50  71  96 129 162 198 239 291
#     4   9  16  29  50  72  97 127 159 196 240 294
#     4   8  15  27  43  69 100 126 156 195 237 283
#     4   8  14  27  48  76 104 126 156 201 246 283
#     4  11  22  33  47  70  99 127 162 208 250 289
#
# _framework density 18.101966000000001
#
# number of rings (size 3 to 8) (size 9 to 14) (size 15 to 20)
#    0.000    3.000    1.667    2.500    0.000    0.667 
#    3.000    0.000    0.000    5.500    0.000    0.000 
#    0.000    0.000    0.000    0.000    0.000    0.000 
#
# Total GULP energy -594879.308341 kJ/mol
# GULP energy per Si atom -12393.318924 kJ/mol
# Density = 1.806076 g / cm^3
# Si number density = 18.101966 Si / 1000 Ang^3
#
#
#
# Elastic Constant Matrix: (Units=GPa)
#
#
# Indices 1 2 3 4 5 6 
#
# 1 174.3153 91.0232 10.7562 0.0000 0.0000 0.0000
# 2 91.0232 110.0688 4.1215 0.0000 0.0000 0.0000
# 3 10.7562 4.1215 5.8803 0.0000 0.0000 0.0000
# 4 0.0000 0.0000 0.0000 4.4892 0.0000 0.0000
# 5 0.0000 0.0000 0.0000 0.0000 6.6612 0.0000
# 6 0.0000 0.0000 0.0000 0.0000 0.0000 37.6091
#
#
#
# Elastic Compliance Matrix: (Units=1/GPa)
#
#
# Indices 1 2 3 4 5 6 
#
# 1 0.011159 -0.008692 -0.014320 0.000000 0.000000 0.000000
# 2 -0.008692 0.016100 0.004615 0.000000 0.000000 0.000000
# 3 -0.014320 0.004615 0.193017 0.000000 0.000000 0.000000
# 4 0.000000 0.000000 0.000000 0.222759 0.000000 0.000000
# 5 0.000000 0.000000 0.000000 0.000000 0.150122 0.000000
# 6 0.000000 0.000000 0.000000 0.000000 0.000000 0.026589
#
#
# Mechanical properties :
#
#
# Convention : Reuss Voigt Hill
#
# Bulk Modulus (GPa) = 5.45012 55.78513 30.61763
# Shear Modulus (GPa) = 6.96668 22.04281 14.50474
#
# Velocity S-wave (km/s) = 1.96391 3.49335 2.83376
# Velocity P-wave (km/s) = 2.85655 6.86698 5.25905
#
# Compressibility (1/GPa) = 0.18348217
#
# Stress axis : x y z
#
# Youngs Moduli (GPa) = 89.61309 62.11014 5.18089
#
# Poissons Ratio (x) = 0.53986 0.07419
# Poissons Ratio (y) = 0.77892 -0.02391
# Poissons Ratio (z) = 1.28324 -0.28661
#
# Static dielectric constant tensor:
#      x y z
#    x 3.905760 0.000000 0.000000 
#    y 0.000000 3.417340 0.000000 
#    z 0.000000 0.000000 2.745920 
# 
# 
# High freq. dielectric constant tensor:
#      x y z
#    x 1.717440 0.000000 0.000000 
#    y 0.000000 1.686720 0.000000 
#    z 0.000000 0.000000 1.642980 
# 
# From -- ./inp_files/5821.got.cif
#   From: 2010.03.12/outbox.cif.g09.slc.cpg/sg55_3_cif.got.tgz:5821.got - 2010.04.16 15:19:21.
