data_PCOD8224292
_publ_section_title
;
Structure prediction by ZEFSAII (Michael W. Deem and Ramdas Pophale) SiO2 
 PCOD8224292
Probable space group: P B A M
;
_chemical_formula_sum "Si O2"
_cell_formula_units_Z 64
_cell_length_a 14.896451
_cell_length_b 28.257441
_cell_length_c 8.375822
_cell_angle_alpha 90.000000
_cell_angle_beta 90.000000
_cell_angle_gamma 90.000000
_cell_volume 3525.681535
_symmetry_space_group_name_H-M "P B A M"
_symmetry_group_IT_number 55
_symmetry_cell_setting 'orthorhombic'
loop_
_space_group_symop_operation_xyz
x,y,z
-x,-y,z
1/2+x,1/2-y,-z
1/2-x,1/2+y,-z
-x,-y,-z
x,y,-z
1/2-x,1/2+y,z
1/2+x,1/2-y,z
loop_
_atom_site_type_symbol
_atom_site_label
_atom_site_fract_x
_atom_site_fract_y
_atom_site_fract_z
Si Si1 0.410029 0.717789 0.689377
Si Si2 0.098988 0.678323 0.311023
Si Si3 0.598843 0.175785 0.311100
Si Si4 0.219922 0.135943 0.311072
Si Si5 0.098762 0.945920 0.309798
Si Si6 0.101898 0.782237 0.184843
Si Si7 0.397160 0.551166 0.309937
Si Si8 0.720467 0.637060 0.313407
O O1 0.423863 0.716146 0.500000
O O2 0.385361 0.770486 0.748882
O O3 0.332835 0.682353 0.749002
O O4 0.502082 0.701320 0.770239
O O5 0.101034 0.687684 0.500000
O O6 0.175700 0.640770 0.258621
O O7 0.119086 0.727775 0.226895
O O8 0.000893 0.658447 0.258043
O O9 0.606326 0.175376 0.500000
O O10 0.677854 0.142046 0.241408
O O11 0.212897 0.133207 0.500000
O O12 0.174952 0.088482 0.237902
O O13 0.100191 0.943541 0.500000
O O14 0.167140 0.907227 0.234409
O O15 0.997322 0.935215 0.250209
O O16 0.128353 0.998300 0.251294
O O17 0.170342 0.813777 0.285318
O O18 0.119927 0.791109 0.000000
O O19 0.395893 0.552618 0.500000
O O20 0.726655 0.627396 0.500000
#
# Coordination Sequence:
#
# PCOD8224292 Si02
#       8
#     8   8   8   8   8   8   8   8
#     4   9  16  28  44  63  84 111 143 175 208 253
#     4   9  17  31  46  61  83 115 148 179 210 250
#     4   8  15  26  42  61  82 108 146 183 208 239
#     4   9  15  24  45  68  86 111 147 181 211 249
#     4   8  14  23  39  62  90 113 134 171 217 256
#     4  11  21  30  41  63  91 116 139 175 219 258
#     4   8  13  22  36  64  94 110 131 173 220 256
#     4  10  17  28  46  64  82 114 152 181 208 251
#
# _framework density 18.152519000000002
#
# number of rings (size 3 to 8) (size 9 to 14) (size 15 to 20)
#    0.000    3.000    0.000    4.125    0.000    4.000 
#    0.000    5.625    0.000    0.750    0.000   13.125 
#    0.000    0.000    0.000    5.625    0.000    6.250 
#
# Total GULP energy -793050.686517 kJ/mol
# GULP energy per Si atom -12391.416977 kJ/mol
# Density = 1.811120 g / cm^3
# Si number density = 18.152519 Si / 1000 Ang^3
#
#
#
# Elastic Constant Matrix: (Units=GPa)
#
#
# Indices 1 2 3 4 5 6 
#
# 1 171.0592 96.2747 1.1587 0.0000 0.0000 0.0000
# 2 96.2747 103.5696 4.2249 0.0000 0.0000 0.0000
# 3 1.1587 4.2249 10.2000 0.0000 0.0000 0.0000
# 4 0.0000 0.0000 0.0000 2.6149 0.0000 0.0000
# 5 0.0000 0.0000 0.0000 0.0000 2.6128 0.0000
# 6 0.0000 0.0000 0.0000 0.0000 0.0000 33.9853
#
#
#
# Elastic Compliance Matrix: (Units=1/GPa)
#
#
# Indices 1 2 3 4 5 6 
#
# 1 0.012376 -0.011644 0.003417 0.000000 0.000000 0.000000
# 2 -0.011644 0.020776 -0.007283 0.000000 0.000000 0.000000
# 3 0.003417 -0.007283 0.100667 0.000000 0.000000 0.000000
# 4 0.000000 0.000000 0.000000 0.382431 0.000000 0.000000
# 5 0.000000 0.000000 0.000000 0.000000 0.382731 0.000000
# 6 0.000000 0.000000 0.000000 0.000000 0.000000 0.029424
#
#
# Mechanical properties :
#
#
# Convention : Reuss Voigt Hill
#
# Bulk Modulus (GPa) = 9.72761 54.23837 31.98299
# Shear Modulus (GPa) = 5.03174 20.05396 12.54285
#
# Velocity S-wave (km/s) = 1.66672 3.32738 2.63148
# Velocity P-wave (km/s) = 3.01237 6.68626 5.18558
#
# Compressibility (1/GPa) = 0.10280019
#
# Stress axis : x y z
#
# Youngs Moduli (GPa) = 80.80110 48.13229 9.93373
#
# Poissons Ratio (x) = 0.56044 -0.03394
# Poissons Ratio (y) = 0.94083 0.07235
# Poissons Ratio (z) = -0.27610 0.35054
#
# Static dielectric constant tensor:
#      x y z
#    x 3.841380 0.000000 0.000000 
#    y 0.000000 3.500840 0.000000 
#    z 0.000000 0.000000 2.755860 
# 
# 
# High freq. dielectric constant tensor:
#      x y z
#    x 1.710150 0.000000 0.000000 
#    y 0.000000 1.682350 0.000000 
#    z 0.000000 0.000000 1.647280 
# 
# From -- ./inp_files/6938.got.cif
#   From: 2010.03.12/outbox.cif.g09.slc.cpg/sg55_4_cif.got.tgz:6938.got - 2010.04.16 15:19:21.
