data_PCOD8224711
_publ_section_title
;
Structure prediction by ZEFSAII (Michael W. Deem and Ramdas Pophale) SiO2 
 PCOD8224711
Probable space group: P B A M
;
_chemical_formula_sum "Si O2"
_cell_formula_units_Z 40
_cell_length_a 7.826666
_cell_length_b 28.554987
_cell_length_c 8.824261
_cell_angle_alpha 90.000000
_cell_angle_beta 90.000000
_cell_angle_gamma 90.000000
_cell_volume 1972.137143
_symmetry_space_group_name_H-M "P B A M"
_symmetry_group_IT_number 55
_symmetry_cell_setting 'orthorhombic'
loop_
_space_group_symop_operation_xyz
x,y,z
-x,-y,z
1/2+x,1/2-y,-z
1/2-x,1/2+y,-z
-x,-y,-z
x,y,-z
1/2-x,1/2+y,z
1/2+x,1/2-y,z
loop_
_atom_site_type_symbol
_atom_site_label
_atom_site_fract_x
_atom_site_fract_y
_atom_site_fract_z
Si Si1 0.208241 0.301508 0.821104
Si Si2 0.321988 0.201146 0.179743
Si Si3 0.532773 0.054137 0.675778
Si Si4 0.147378 0.898519 0.820462
Si Si5 0.800928 0.889837 0.679127
O O1 0.276653 0.252503 0.754846
O O2 0.316869 0.345494 0.761795
O O3 0.014320 0.309989 0.770925
O O4 0.221578 0.298379 0.000000
O O5 0.201527 0.163115 0.258579
O O6 0.292118 0.198312 0.000000
O O7 0.566973 0.064896 0.500000
O O8 0.699540 0.068009 0.769711
O O9 0.367235 0.082507 0.734863
O O10 0.500000 0.000000 0.705616
O O11 0.969130 0.915159 0.746651
O O12 0.132243 0.900951 0.000000
O O13 0.814532 0.890260 0.500000
#
# Coordination Sequence:
#
# PCOD8224711 Si02
#       5
#     8   8   8   8   8
#     4   9  18  32  56  86 118 157 199 244 292 352
#     4  10  18  34  57  84 118 157 203 243 289 352
#     4  10  23  44  66  87 119 163 206 252 310 370
#     4  11  22  39  64  92 122 158 202 253 303 358
#     4  11  23  39  60  88 122 159 199 247 304 363
#
# _framework density 20.282565999999999
#
# number of rings (size 3 to 8) (size 9 to 14) (size 15 to 20)
#    0.000    1.800    2.000    2.400    0.000    5.200 
#    0.000    9.000    0.000    0.000    0.000    0.000 
#    0.000    0.000    0.000    0.000    0.000    0.000 
#
# Total GULP energy -496086.172124 kJ/mol
# GULP energy per Si atom -12402.154303 kJ/mol
# Density = 2.023640 g / cm^3
# Si number density = 20.282566 Si / 1000 Ang^3
#
#
#
# Elastic Constant Matrix: (Units=GPa)
#
#
# Indices 1 2 3 4 5 6 
#
# 1 115.9898 29.5765 32.4364 0.0000 0.0000 0.0000
# 2 29.5765 85.0940 24.9341 0.0000 0.0000 0.0000
# 3 32.4364 24.9341 53.6937 0.0000 0.0000 0.0000
# 4 0.0000 0.0000 0.0000 24.7435 0.0000 0.0000
# 5 0.0000 0.0000 0.0000 0.0000 32.7220 0.0000
# 6 0.0000 0.0000 0.0000 0.0000 0.0000 27.0613
#
#
#
# Elastic Compliance Matrix: (Units=1/GPa)
#
#
# Indices 1 2 3 4 5 6 
#
# 1 0.010692 -0.002111 -0.005479 0.000000 0.000000 0.000000
# 2 -0.002111 0.014019 -0.005235 0.000000 0.000000 0.000000
# 3 -0.005479 -0.005235 0.024365 0.000000 0.000000 0.000000
# 4 0.000000 0.000000 0.000000 0.040415 0.000000 0.000000
# 5 0.000000 0.000000 0.000000 0.000000 0.030560 0.000000
# 6 0.000000 0.000000 0.000000 0.000000 0.000000 0.036953
#
#
# Mechanical properties :
#
#
# Convention : Reuss Voigt Hill
#
# Bulk Modulus (GPa) = 42.68621 47.63018 45.15820
# Shear Modulus (GPa) = 26.25188 28.09407 27.17298
#
# Velocity S-wave (km/s) = 3.60155 3.72578 3.66419
# Velocity P-wave (km/s) = 6.19567 6.48404 6.34150
#
# Compressibility (1/GPa) = 0.02342677
#
# Stress axis : x y z
#
# Youngs Moduli (GPa) = 93.52959 71.32994 41.04265
#
# Poissons Ratio (x) = 0.15057 0.22486
# Poissons Ratio (y) = 0.19742 0.21486
# Poissons Ratio (z) = 0.51242 0.37342
#
# Static dielectric constant tensor:
#      x y z
#    x 3.860410 0.000000 0.000000 
#    y 0.000000 3.764940 0.000000 
#    z 0.000000 0.000000 3.365260 
# 
# 
# High freq. dielectric constant tensor:
#      x y z
#    x 1.809380 0.000000 0.000000 
#    y 0.000000 1.792430 0.000000 
#    z 0.000000 0.000000 1.764300 
# 
# From -- ./inp_files/2292.got.cif
#   From: 2010.03.12/outbox.cif.g09.slc.cpg/sg55_2_cif.got.tgz:2292.got - 2010.04.16 15:19:21.
