data_PCOD8224399
_publ_section_title
;
Structure prediction by ZEFSAII (Michael W. Deem and Ramdas Pophale) SiO2 
 PCOD8224399
Probable space group: P B A M
;
_chemical_formula_sum "Si O2"
_cell_formula_units_Z 56
_cell_length_a 18.377708
_cell_length_b 21.283613
_cell_length_c 8.479957
_cell_angle_alpha 90.000000
_cell_angle_beta 90.000000
_cell_angle_gamma 90.000000
_cell_volume 3316.884512
_symmetry_space_group_name_H-M "P B A M"
_symmetry_group_IT_number 55
_symmetry_cell_setting 'orthorhombic'
loop_
_space_group_symop_operation_xyz
x,y,z
-x,-y,z
1/2+x,1/2-y,-z
1/2-x,1/2+y,-z
-x,-y,-z
x,y,-z
1/2-x,1/2+y,z
1/2+x,1/2-y,z
loop_
_atom_site_type_symbol
_atom_site_label
_atom_site_fract_x
_atom_site_fract_y
_atom_site_fract_z
Si Si1 0.419891 0.747569 0.684690
Si Si2 0.345071 0.871109 0.186966
Si Si3 0.847628 0.375903 0.816198
Si Si4 0.210824 0.812582 0.317426
Si Si5 0.787942 0.805037 0.183351
Si Si6 0.423027 0.251398 0.185285
Si Si7 0.417543 0.998552 0.188054
O O1 0.407315 0.745769 0.500000
O O2 0.395825 0.815086 0.750744
O O3 0.372460 0.690811 0.765737
O O4 0.503092 0.733936 0.724273
O O5 0.261621 0.868061 0.247897
O O6 0.378420 0.936114 0.251615
O O7 0.345860 0.868267 0.000000
O O8 0.760424 0.367557 0.784605
O O9 0.891205 0.315171 0.751309
O O10 0.875952 0.440555 0.739185
O O11 0.863933 0.379399 0.000000
O O12 0.195280 0.824924 0.500000
O O13 0.256291 0.749336 0.293288
O O14 0.134011 0.806971 0.226199
O O15 0.780241 0.785414 0.000000
O O16 0.437658 0.249909 0.000000
O O17 0.500000 0.000000 0.250344
O O18 0.415502 0.999403 0.000000
#
# Coordination Sequence:
#
# PCOD8224399 Si02
#       7
#     8   8   8   8   8   8   8
#     4  11  20  29  43  65  93 119 147 185 230 270
#     4  10  18  29  46  65  89 123 158 186 216 260
#     4   8  15  27  44  66  89 115 149 188 221 256
#     4  10  18  29  44  63  90 118 147 184 226 267
#     4   9  16  28  45  63  86 117 153 187 222 266
#     4  10  18  30  48  68  90 115 148 185 226 274
#     4   9  16  26  43  68  93 118 152 190 222 251
#
# _framework density 16.883313999999999
#
# number of rings (size 3 to 8) (size 9 to 14) (size 15 to 20)
#    0.000    2.429    0.000    7.286    0.000    2.286 
#    0.000    0.000    0.000   16.286    0.000    1.000 
#    0.000    8.000    0.000    0.000    0.000    0.000 
#
# Total GULP energy -694019.445233 kJ/mol
# GULP energy per Si atom -12393.204379 kJ/mol
# Density = 1.684489 g / cm^3
# Si number density = 16.883314 Si / 1000 Ang^3
#
#
#
# Elastic Constant Matrix: (Units=GPa)
#
#
# Indices 1 2 3 4 5 6 
#
# 1 136.7247 66.5871 18.9042 0.0000 0.0000 0.0000
# 2 66.5871 82.7326 18.5226 0.0000 0.0000 0.0000
# 3 18.9042 18.5226 59.4242 0.0000 0.0000 0.0000
# 4 0.0000 0.0000 0.0000 2.0902 0.0000 0.0000
# 5 0.0000 0.0000 0.0000 0.0000 24.3566 0.0000
# 6 0.0000 0.0000 0.0000 0.0000 0.0000 30.4130
#
#
#
# Elastic Compliance Matrix: (Units=1/GPa)
#
#
# Indices 1 2 3 4 5 6 
#
# 1 0.012071 -0.009520 -0.000873 0.000000 0.000000 0.000000
# 2 -0.009520 0.020502 -0.003362 0.000000 0.000000 0.000000
# 3 -0.000873 -0.003362 0.018154 0.000000 0.000000 0.000000
# 4 0.000000 0.000000 0.000000 0.478423 0.000000 0.000000
# 5 0.000000 0.000000 0.000000 0.000000 0.041057 0.000000
# 6 0.000000 0.000000 0.000000 0.000000 0.000000 0.032881
#
#
# Mechanical properties :
#
#
# Convention : Reuss Voigt Hill
#
# Bulk Modulus (GPa) = 43.07104 54.10104 48.58604
# Shear Modulus (GPa) = 7.83287 23.02981 15.43134
#
# Velocity S-wave (km/s) = 2.15627 3.69732 3.02652
# Velocity P-wave (km/s) = 5.63611 7.09511 6.40727
#
# Compressibility (1/GPa) = 0.02321746
#
# Stress axis : x y z
#
# Youngs Moduli (GPa) = 82.84341 48.77598 55.08514
#
# Poissons Ratio (x) = 0.46434 0.04807
# Poissons Ratio (y) = 0.78866 0.18520
# Poissons Ratio (z) = 0.07230 0.16398
#
# Static dielectric constant tensor:
#      x y z
#    x 3.517210 0.000000 0.000000 
#    y 0.000000 3.172320 0.000000 
#    z 0.000000 0.000000 2.966860 
# 
# 
# High freq. dielectric constant tensor:
#      x y z
#    x 1.659970 0.000000 0.000000 
#    y 0.000000 1.605450 0.000000 
#    z 0.000000 0.000000 1.640950 
# 
# From -- ./inp_files/7894.got.cif
#   From: 2010.03.12/outbox.cif.g09.slc.cpg/sg55_4_cif.got.tgz:7894.got - 2010.04.16 15:19:21.
