data_PCOD8224439
_publ_section_title
;
Structure prediction by ZEFSAII (Michael W. Deem and Ramdas Pophale) SiO2 
 PCOD8224439
Probable space group: P B A M
;
_chemical_formula_sum "Si O2"
_cell_formula_units_Z 40
_cell_length_a 18.345917
_cell_length_b 5.352817
_cell_length_c 19.303930
_cell_angle_alpha 90.000000
_cell_angle_beta 90.000000
_cell_angle_gamma 90.000000
_cell_volume 1895.691028
_symmetry_space_group_name_H-M "P B A M"
_symmetry_group_IT_number 55
_symmetry_cell_setting 'orthorhombic'
loop_
_space_group_symop_operation_xyz
x,y,z
-x,-y,z
1/2+x,1/2-y,-z
1/2-x,1/2+y,-z
-x,-y,-z
x,y,-z
1/2-x,1/2+y,z
1/2+x,1/2-y,z
loop_
_atom_site_type_symbol
_atom_site_label
_atom_site_fract_x
_atom_site_fract_y
_atom_site_fract_z
Si Si1 0.418112 0.592453 0.139102
Si Si2 0.917322 0.748489 0.709825
Si Si3 0.294009 0.317723 0.080274
Si Si4 0.546689 0.245742 0.000000
Si Si5 0.416840 0.250687 0.347535
Si Si6 0.046227 0.749986 0.500000
O O1 0.500000 0.500000 0.141327
O O2 0.407870 0.757358 0.207529
O O3 0.363590 0.356618 0.131224
O O4 0.404172 0.761793 0.069864
O O5 0.877771 0.498974 0.681537
O O6 0.000015 0.749751 0.680726
O O7 0.878064 0.999343 0.681327
O O8 0.259977 0.049303 0.097600
O O9 0.319196 0.330089 0.000000
O O10 0.500000 0.500000 0.000000
O O11 0.500000 0.000000 0.000000
O O12 0.406677 0.249942 0.430254
O O13 0.000000 0.500000 0.500000
O O14 0.000000 0.000000 0.500000
#
# Coordination Sequence:
#
# PCOD8224439 Si02
#       6
#     8   8   8   4   8   4
#     4  11  22  39  60  85 112 147 190 244 282 343
#     4  10  19  29  46  69 106 132 175 219 280 311
#     4  10  23  43  60  79 109 148 190 238 291 344
#     4  10  24  34  48  80 108 132 179 230 275 312
#     4  10  18  30  41  70 103 144 176 211 268 331
#     4  12  16  26  44  60  96 154 184 200 246 346
#
# _framework density 21.100484000000002
#
# number of rings (size 3 to 8) (size 9 to 14) (size 15 to 20)
#    0.000    1.600    7.000    0.000    2.800    4.800 
#    0.000    0.000    0.000    0.000    0.000    0.000 
#    0.000    0.000    0.000   30.600    0.000    0.200 
#
# Total GULP energy -495590.302534 kJ/mol
# GULP energy per Si atom -12389.757563 kJ/mol
# Density = 2.105246 g / cm^3
# Si number density = 21.100484 Si / 1000 Ang^3
#
#
#
# Elastic Constant Matrix: (Units=GPa)
#
#
# Indices 1 2 3 4 5 6 
#
# 1 37.7628 0.9955 1.7233 0.0000 0.0000 0.0000
# 2 0.9955 174.1040 52.5749 0.0000 0.0000 0.0000
# 3 1.7233 52.5749 198.8615 0.0000 0.0000 0.0000
# 4 0.0000 0.0000 0.0000 26.4579 0.0000 0.0000
# 5 0.0000 0.0000 0.0000 0.0000 1.2844 0.0000
# 6 0.0000 0.0000 0.0000 0.0000 0.0000 13.2846
#
#
#
# Elastic Compliance Matrix: (Units=1/GPa)
#
#
# Indices 1 2 3 4 5 6 
#
# 1 0.026493 -0.000089 -0.000206 0.000000 0.000000 0.000000
# 2 -0.000089 0.006242 -0.001650 0.000000 0.000000 0.000000
# 3 -0.000206 -0.001650 0.005467 0.000000 0.000000 0.000000
# 4 0.000000 0.000000 0.000000 0.037796 0.000000 0.000000
# 5 0.000000 0.000000 0.000000 0.000000 0.778591 0.000000
# 6 0.000000 0.000000 0.000000 0.000000 0.000000 0.075275
#
#
# Mechanical properties :
#
#
# Convention : Reuss Voigt Hill
#
# Bulk Modulus (GPa) = 29.14430 57.92396 43.53413
# Shear Modulus (GPa) = 5.28994 31.90102 18.59548
#
# Velocity S-wave (km/s) = 1.58508 3.89248 2.97186
# Velocity P-wave (km/s) = 4.14633 6.90746 5.69671
#
# Compressibility (1/GPa) = 0.03431203
#
# Stress axis : x y z
#
# Youngs Moduli (GPa) = 37.74606 160.19656 182.93168
#
# Poissons Ratio (x) = 0.01430 0.03768
# Poissons Ratio (y) = 0.00337 0.30176
# Poissons Ratio (z) = 0.00778 0.26426
#
# Static dielectric constant tensor:
#      x y z
#    x 3.103360 0.000000 0.000000 
#    y 0.000000 4.873170 0.000000 
#    z 0.000000 0.000000 4.893550 
# 
# 
# High freq. dielectric constant tensor:
#      x y z
#    x 1.739010 0.000000 0.000000 
#    y 0.000000 1.855690 0.000000 
#    z 0.000000 0.000000 1.834060 
# 
# From -- ./inp_files/21875.got.cif
#   From: 2010.03.12/outbox.cif.g09.slc.cpg/sg55_11_cif.got.tgz:21875.got - 2010.04.16 15:19:21.
