data_PCOD8224133
_publ_section_title
;
Structure prediction by ZEFSAII (Michael W. Deem and Ramdas Pophale) SiO2 
 PCOD8224133
Probable space group: P C C A
;
_chemical_formula_sum "Si O2"
_cell_formula_units_Z 44
_cell_length_a 5.043641
_cell_length_b 13.353484
_cell_length_c 30.795928
_cell_angle_alpha 90.000000
_cell_angle_beta 90.000000
_cell_angle_gamma 90.000000
_cell_volume 2074.111275
_symmetry_space_group_name_H-M "P C C A"
_symmetry_group_IT_number 54
_symmetry_cell_setting 'orthorhombic'
loop_
_space_group_symop_operation_xyz
x,y,z
1/2-x,-y,z
1/2+x,-y,1/2-z
-x,y,1/2-z
-x,-y,-z
1/2+x,y,-z
1/2-x,y,1/2+z
x,-y,1/2+z
loop_
_atom_site_type_symbol
_atom_site_label
_atom_site_fract_x
_atom_site_fract_y
_atom_site_fract_z
Si Si1 0.869738 0.208051 0.882756
Si Si2 0.500000 0.823989 0.250000
Si Si3 0.750000 0.000000 0.214108
Si Si4 0.250000 0.500000 0.863886
Si Si5 0.383957 0.711140 0.337217
Si Si6 0.750000 0.000000 0.845496
Si Si7 0.706276 0.706542 0.972641
Si Si8 0.250000 0.500000 0.074085
O O1 0.640541 0.286286 0.868316
O O2 0.898575 0.222839 0.933953
O O3 0.144753 0.222727 0.856739
O O4 0.774477 0.095524 0.876001
O O5 0.753902 0.900795 0.245568
O O6 0.496942 0.752001 0.291606
O O7 0.501060 0.983416 0.184212
O O8 0.227271 0.597839 0.832989
O O9 0.499033 0.499162 0.894971
O O10 0.707765 0.592268 0.957827
O O11 0.504700 0.729174 0.012015
#
# Coordination Sequence:
#
# PCOD8224133 Si02
#       8
#     8   4   4   4   8   4   8   4
#     4  12  24  46  68 100 138 186 224 283 353 419
#     4  12  26  44  70 110 136 180 222 304 336 400
#     4  12  25  40  72 103 142 160 236 297 342 390
#     4  12  22  45  67 102 136 196 230 274 331 443
#     4  12  25  43  71  97 143 184 229 279 349 407
#     4  12  23  46  70 103 128 188 228 277 352 420
#     4  12  24  41  67 105 138 174 233 295 346 409
#     4  12  22  41  71  98 140 174 242 282 357 397
#
# _framework density 21.213903999999999
#
# number of rings (size 3 to 8) (size 9 to 14) (size 15 to 20)
#    0.000    0.000    7.273    3.273    0.000    2.182 
#    0.000    3.636    0.000    0.000    0.000    0.000 
#    0.000    0.000    0.000    0.000    0.000    0.000 
#
# Total GULP energy -545355.821111 kJ/mol
# GULP energy per Si atom -12394.450480 kJ/mol
# Density = 2.116562 g / cm^3
# Si number density = 21.213904 Si / 1000 Ang^3
#
#
#
# Elastic Constant Matrix: (Units=GPa)
#
#
# Indices 1 2 3 4 5 6 
#
# 1 121.1912 22.4727 42.1179 0.0000 0.0000 0.0000
# 2 22.4727 115.7522 57.1574 0.0000 0.0000 0.0000
# 3 42.1179 57.1574 120.8413 0.0000 0.0000 0.0000
# 4 0.0000 0.0000 0.0000 35.8830 0.0000 0.0000
# 5 0.0000 0.0000 0.0000 0.0000 39.5489 0.0000
# 6 0.0000 0.0000 0.0000 0.0000 0.0000 26.6469
#
#
#
# Elastic Compliance Matrix: (Units=1/GPa)
#
#
# Indices 1 2 3 4 5 6 
#
# 1 0.009395 -0.000270 -0.003147 0.000000 0.000000 0.000000
# 2 -0.000270 0.011280 -0.005241 0.000000 0.000000 0.000000
# 3 -0.003147 -0.005241 0.011851 0.000000 0.000000 0.000000
# 4 0.000000 0.000000 0.000000 0.027868 0.000000 0.000000
# 5 0.000000 0.000000 0.000000 0.000000 0.025285 0.000000
# 6 0.000000 0.000000 0.000000 0.000000 0.000000 0.037528
#
#
# Mechanical properties :
#
#
# Convention : Reuss Voigt Hill
#
# Bulk Modulus (GPa) = 65.74693 66.80895 66.27794
# Shear Modulus (GPa) = 34.34230 36.15153 35.24691
#
# Velocity S-wave (km/s) = 4.02787 4.13261 4.08057
# Velocity P-wave (km/s) = 7.25888 7.37107 7.31519
#
# Compressibility (1/GPa) = 0.01520984
#
# Stress axis : x y z
#
# Youngs Moduli (GPa) = 106.43806 88.65592 84.38052
#
# Poissons Ratio (x) = 0.02395 0.26553
# Poissons Ratio (y) = 0.02876 0.44224
# Poissons Ratio (z) = 0.33494 0.46465
#
# Static dielectric constant tensor:
#      x y z
#    x 4.089230 0.000000 0.000000 
#    y 0.000000 4.049140 0.000000 
#    z 0.000000 0.000000 4.618890 
# 
# 
# High freq. dielectric constant tensor:
#      x y z
#    x 1.853240 0.000000 0.000000 
#    y 0.000000 1.831050 0.000000 
#    z 0.000000 0.000000 1.827980 
# 
# From -- ./inp_files/25348.got.cif
#   From: 2010.03.12/outbox.cif.g09.slc.cpg/sg54_13_cif.got.tgz:25348.got - 2010.04.16 15:00:50.
