data_PCOD8224783
_publ_section_title
;
Structure prediction by ZEFSAII (Michael W. Deem and Ramdas Pophale) SiO2 
 PCOD8224783
Probable space group: P B A M
;
_chemical_formula_sum "Si O2"
_cell_formula_units_Z 32
_cell_length_a 24.201792
_cell_length_b 5.109001
_cell_length_c 12.412785
_cell_angle_alpha 90.000000
_cell_angle_beta 90.000000
_cell_angle_gamma 90.000000
_cell_volume 1534.803373
_symmetry_space_group_name_H-M "P B A M"
_symmetry_group_IT_number 55
_symmetry_cell_setting 'orthorhombic'
loop_
_space_group_symop_operation_xyz
x,y,z
-x,-y,z
1/2+x,1/2-y,-z
1/2-x,1/2+y,-z
-x,-y,-z
x,y,-z
1/2-x,1/2+y,z
1/2+x,1/2-y,z
loop_
_atom_site_type_symbol
_atom_site_label
_atom_site_fract_x
_atom_site_fract_y
_atom_site_fract_z
Si Si1 0.213610 0.905946 0.375545
Si Si2 0.561855 0.080614 0.873200
Si Si3 0.621488 0.559931 0.200686
Si Si4 0.274532 0.670634 0.880161
O O1 0.196479 0.890156 0.500000
O O2 0.255365 0.673423 0.346040
O O3 0.154936 0.903073 0.312084
O O4 0.572884 0.340831 0.799724
O O5 0.500000 0.000000 0.844426
O O6 0.601926 0.841313 0.840898
O O7 0.568107 0.144264 0.000000
O O8 0.662529 0.419751 0.115295
O O9 0.262035 0.945199 0.819559
O O10 0.251768 0.726053 0.000000
#
# Coordination Sequence:
#
# PCOD8224783 Si02
#       4
#     8   8   8   8
#     4  10  21  38  61  90 121 152 189 232 282 346
#     4  11  24  40  58  82 112 150 198 245 288 338
#     4  12  21  36  60  81 111 151 193 235 285 339
#     4  10  19  29  44  72 107 137 167 207 263 332
#
# _framework density 20.849575000000002
#
# number of rings (size 3 to 8) (size 9 to 14) (size 15 to 20)
#    0.000    1.250    0.000    7.500    0.000    4.000 
#    0.000    0.000    0.000    4.500    0.000    0.000 
#    0.000    0.000    0.000    0.000    0.000    0.000 
#
# Total GULP energy -396517.875252 kJ/mol
# GULP energy per Si atom -12391.183602 kJ/mol
# Density = 2.080212 g / cm^3
# Si number density = 20.849575 Si / 1000 Ang^3
#
#
#
# Elastic Constant Matrix: (Units=GPa)
#
#
# Indices 1 2 3 4 5 6 
#
# 1 74.2812 -8.6299 21.2655 0.0000 0.0000 0.0000
# 2 -8.6299 59.3342 10.5757 0.0000 0.0000 0.0000
# 3 21.2655 10.5757 77.7714 0.0000 0.0000 0.0000
# 4 0.0000 0.0000 0.0000 31.4683 0.0000 0.0000
# 5 0.0000 0.0000 0.0000 0.0000 30.6526 0.0000
# 6 0.0000 0.0000 0.0000 0.0000 0.0000 41.4256
#
#
#
# Elastic Compliance Matrix: (Units=1/GPa)
#
#
# Indices 1 2 3 4 5 6 
#
# 1 0.015112 0.003007 -0.004541 0.000000 0.000000 0.000000
# 2 0.003007 0.017871 -0.003252 0.000000 0.000000 0.000000
# 3 -0.004541 -0.003252 0.014542 0.000000 0.000000 0.000000
# 4 0.000000 0.000000 0.000000 0.031778 0.000000 0.000000
# 5 0.000000 0.000000 0.000000 0.000000 0.032624 0.000000
# 6 0.000000 0.000000 0.000000 0.000000 0.000000 0.024140
#
#
# Mechanical properties :
#
#
# Convention : Reuss Voigt Hill
#
# Bulk Modulus (GPa) = 26.34881 28.64549 27.49715
# Shear Modulus (GPa) = 31.58776 33.25435 32.42105
#
# Velocity S-wave (km/s) = 3.89656 3.99803 3.94762
# Velocity P-wave (km/s) = 5.73666 5.92295 5.83055
#
# Compressibility (1/GPa) = 0.03795238
#
# Stress axis : x y z
#
# Youngs Moduli (GPa) = 66.17359 55.95719 68.76558
#
# Poissons Ratio (x) = -0.16828 0.31227
# Poissons Ratio (y) = -0.19901 0.22366
# Poissons Ratio (z) = 0.30050 0.18200
#
# Static dielectric constant tensor:
#      x y z
#    x 3.718430 0.000000 0.000000 
#    y 0.000000 4.205210 0.000000 
#    z 0.000000 0.000000 3.803740 
# 
# 
# High freq. dielectric constant tensor:
#      x y z
#    x 1.799960 0.000000 0.000000 
#    y 0.000000 1.855240 0.000000 
#    z 0.000000 0.000000 1.809150 
# 
# From -- ./inp_files/19599.got.cif
#   From: 2010.03.12/outbox.cif.g09.slc.cpg/sg55_10_cif.got.tgz:19599.got - 2010.04.16 15:19:21.
