data_PCOD8224735
_publ_section_title
;
Structure prediction by ZEFSAII (Michael W. Deem and Ramdas Pophale) SiO2 
 PCOD8224735
Probable space group: P B A M
;
_chemical_formula_sum "Si O2"
_cell_formula_units_Z 64
_cell_length_a 23.678031
_cell_length_b 15.268714
_cell_length_c 8.975418
_cell_angle_alpha 90.000000
_cell_angle_beta 90.000000
_cell_angle_gamma 90.000000
_cell_volume 3244.910545
_symmetry_space_group_name_H-M "P B A M"
_symmetry_group_IT_number 55
_symmetry_cell_setting 'orthorhombic'
loop_
_space_group_symop_operation_xyz
x,y,z
-x,-y,z
1/2+x,1/2-y,-z
1/2-x,1/2+y,-z
-x,-y,-z
x,y,-z
1/2-x,1/2+y,z
1/2+x,1/2-y,z
loop_
_atom_site_type_symbol
_atom_site_label
_atom_site_fract_x
_atom_site_fract_y
_atom_site_fract_z
Si Si1 0.552474 0.254780 0.823557
Si Si2 0.746755 0.343380 0.830077
Si Si3 0.932300 0.239983 0.323752
Si Si4 0.371214 0.102097 0.827861
Si Si5 0.753738 0.641669 0.172496
Si Si6 0.134532 0.112302 0.328914
Si Si7 0.146279 0.916012 0.670685
Si Si8 0.624546 0.093840 0.175580
O O1 0.493206 0.270661 0.747201
O O2 0.595090 0.331367 0.777876
O O3 0.577230 0.161523 0.766341
O O4 0.544777 0.256202 0.000000
O O5 0.804012 0.397030 0.800752
O O6 0.760801 0.242499 0.798057
O O7 0.699641 0.377031 0.717286
O O8 0.725493 0.355502 0.000000
O O9 0.938809 0.238140 0.500000
O O10 0.903619 0.330429 0.276046
O O11 0.895332 0.158280 0.264420
O O12 0.392991 0.005198 0.783276
O O13 0.385005 0.124110 0.000000
O O14 0.705763 0.582436 0.245402
O O15 0.814550 0.619028 0.245106
O O16 0.753774 0.617086 0.000000
O O17 0.127358 0.142364 0.500000
O O18 0.117134 0.010676 0.310252
O O19 0.159451 0.894762 0.500000
O O20 0.630090 0.105432 0.000000
#
# Coordination Sequence:
#
# PCOD8224735 Si02
#       8
#     8   8   8   8   8   8   8   8
#     4  11  23  42  63  84 113 151 199 247 292 346
#     4  10  19  34  60  91 121 151 190 237 285 342
#     4  11  24  42  60  82 115 153 195 245 296 345
#     4  10  20  37  61  88 116 153 194 233 284 344
#     4  10  18  34  61  90 118 150 190 236 285 340
#     4  11  23  39  60  87 119 156 193 234 291 351
#     4  10  23  40  58  84 120 157 191 233 291 351
#     4   9  19  36  59  86 118 151 186 234 291 343
#
# _framework density 19.723195
#
# number of rings (size 3 to 8) (size 9 to 14) (size 15 to 20)
#    0.000    1.750    2.500    1.875    0.000    4.500 
#    0.000    6.875    0.000    0.000    0.000    0.000 
#    0.000    0.000    0.000    0.000    0.000    0.000 
#
# Total GULP energy -793787.046200 kJ/mol
# GULP energy per Si atom -12402.922597 kJ/mol
# Density = 1.967830 g / cm^3
# Si number density = 19.723195 Si / 1000 Ang^3
#
#
#
# Elastic Constant Matrix: (Units=GPa)
#
#
# Indices 1 2 3 4 5 6 
#
# 1 81.0221 25.9717 23.8819 0.0000 0.0000 0.0000
# 2 25.9717 88.5747 24.5453 0.0000 0.0000 0.0000
# 3 23.8819 24.5453 52.2234 0.0000 0.0000 0.0000
# 4 0.0000 0.0000 0.0000 28.4504 0.0000 0.0000
# 5 0.0000 0.0000 0.0000 0.0000 21.7686 0.0000
# 6 0.0000 0.0000 0.0000 0.0000 0.0000 14.0964
#
#
#
# Elastic Compliance Matrix: (Units=1/GPa)
#
#
# Indices 1 2 3 4 5 6 
#
# 1 0.014864 -0.002845 -0.005460 0.000000 0.000000 0.000000
# 2 -0.002845 0.013525 -0.005056 0.000000 0.000000 0.000000
# 3 -0.005460 -0.005056 0.024022 0.000000 0.000000 0.000000
# 4 0.000000 0.000000 0.000000 0.035149 0.000000 0.000000
# 5 0.000000 0.000000 0.000000 0.000000 0.045938 0.000000
# 6 0.000000 0.000000 0.000000 0.000000 0.000000 0.070940
#
#
# Mechanical properties :
#
#
# Convention : Reuss Voigt Hill
#
# Bulk Modulus (GPa) = 38.92784 41.17979 40.05381
# Shear Modulus (GPa) = 20.85746 22.69115 21.77431
#
# Velocity S-wave (km/s) = 3.25546 3.39555 3.32625
# Velocity P-wave (km/s) = 5.82329 6.02472 5.92486
#
# Compressibility (1/GPa) = 0.02568856
#
# Stress axis : x y z
#
# Youngs Moduli (GPa) = 67.27787 73.93595 41.62921
#
# Poissons Ratio (x) = 0.21037 0.22729
# Poissons Ratio (y) = 0.19143 0.21047
# Poissons Ratio (z) = 0.36733 0.37380
#
# Static dielectric constant tensor:
#      x y z
#    x 3.630150 0.000000 0.000000 
#    y 0.000000 3.756740 0.000000 
#    z 0.000000 0.000000 3.407540 
# 
# 
# High freq. dielectric constant tensor:
#      x y z
#    x 1.765890 0.000000 0.000000 
#    y 0.000000 1.783680 0.000000 
#    z 0.000000 0.000000 1.750340 
# 
# From -- ./inp_files/6643.got.cif
#   From: 2010.03.12/outbox.cif.g09.slc.cpg/sg55_4_cif.got.tgz:6643.got - 2010.04.16 15:19:21.
