data_PCOD8224824
_publ_section_title
;
Structure prediction by ZEFSAII (Michael W. Deem and Ramdas Pophale) SiO2 
 PCOD8224824
Probable space group: P B A M
;
_chemical_formula_sum "Si O2"
_cell_formula_units_Z 64
_cell_length_a 25.509348
_cell_length_b 12.266928
_cell_length_c 10.940692
_cell_angle_alpha 90.000000
_cell_angle_beta 90.000000
_cell_angle_gamma 90.000000
_cell_volume 3423.575949
_symmetry_space_group_name_H-M "P B A M"
_symmetry_group_IT_number 55
_symmetry_cell_setting 'orthorhombic'
loop_
_space_group_symop_operation_xyz
x,y,z
-x,-y,z
1/2+x,1/2-y,-z
1/2-x,1/2+y,-z
-x,-y,-z
x,y,-z
1/2-x,1/2+y,z
1/2+x,1/2-y,z
loop_
_atom_site_type_symbol
_atom_site_label
_atom_site_fract_x
_atom_site_fract_y
_atom_site_fract_z
Si Si1 0.939126 0.979665 0.640107
Si Si2 0.791764 0.209426 0.790014
Si Si3 0.196090 0.156782 0.209719
Si Si4 0.849953 0.385570 0.361099
Si Si5 0.443767 0.972869 0.645273
Si Si6 0.608396 0.245927 0.640124
Si Si7 0.751249 0.522238 0.363538
Si Si8 0.631033 0.532976 0.130866
O O1 0.925343 0.019861 0.500000
O O2 0.928492 0.851710 0.651014
O O3 0.904923 0.040945 0.746376
O O4 0.000000 0.000000 0.668057
O O5 0.746267 0.283600 0.855862
O O6 0.833012 0.286175 0.722400
O O7 0.757919 0.137928 0.697514
O O8 0.825992 0.130523 0.874728
O O9 0.159787 0.245556 0.276376
O O10 0.215716 0.074565 0.313377
O O11 0.161637 0.082607 0.119253
O O12 0.852822 0.342886 0.500000
O O13 0.905601 0.429391 0.313270
O O14 0.811913 0.490072 0.351748
O O15 0.446920 0.968853 0.500000
O O16 0.500000 0.000000 0.703857
O O17 0.424732 0.855387 0.692702
O O18 0.625908 0.226109 0.500000
O O19 0.732208 0.537115 0.500000
O O20 0.599946 0.542501 0.000000
#
# Coordination Sequence:
#
# PCOD8224824 Si02
#       8
#     8   8   8   8   8   8   8   8
#     4   9  19  36  58  83 108 135 171 217 267 315
#     4  10  19  30  47  69  96 132 171 212 258 302
#     4   9  18  31  47  68  96 133 175 211 250 303
#     4   9  17  27  41  65  95 127 165 207 252 303
#     4   9  17  27  39  60  93 131 167 200 239 294
#     4   9  16  28  47  70 101 138 170 205 253 307
#     4   9  16  26  42  68  99 127 161 209 261 308
#     4  10  22  37  53  77 107 138 175 217 260 311
#
# _framework density 18.693904
#
# number of rings (size 3 to 8) (size 9 to 14) (size 15 to 20)
#    0.000    2.750    0.000    1.500    0.000    7.750 
#    0.000    2.500    0.000    0.000    0.000    0.875 
#    0.000    9.500    0.000    0.000    0.000    0.000 
#
# Total GULP energy -792926.318131 kJ/mol
# GULP energy per Si atom -12389.473721 kJ/mol
# Density = 1.865136 g / cm^3
# Si number density = 18.693904 Si / 1000 Ang^3
#
#
#
# Elastic Constant Matrix: (Units=GPa)
#
#
# Indices 1 2 3 4 5 6 
#
# 1 111.0783 40.4812 32.9989 0.0000 0.0000 0.0000
# 2 40.4812 80.6060 16.9558 0.0000 0.0000 0.0000
# 3 32.9989 16.9558 82.7471 0.0000 0.0000 0.0000
# 4 0.0000 0.0000 0.0000 -7.1028 0.0000 0.0000
# 5 0.0000 0.0000 0.0000 0.0000 -9.5527 0.0000
# 6 0.0000 0.0000 0.0000 0.0000 0.0000 29.6353
#
#
#
# Elastic Compliance Matrix: (Units=1/GPa)
#
#
# Indices 1 2 3 4 5 6 
#
# 1 0.012022 -0.005256 -0.003717 0.000000 0.000000 0.000000
# 2 -0.005256 0.015263 -0.001031 0.000000 0.000000 0.000000
# 3 -0.003717 -0.001031 0.013779 0.000000 0.000000 0.000000
# 4 0.000000 0.000000 0.000000 -0.140789 0.000000 0.000000
# 5 0.000000 0.000000 0.000000 0.000000 -0.104682 0.000000
# 6 0.000000 0.000000 0.000000 0.000000 0.000000 0.033744
#
#
# Mechanical properties :
#
#
# Convention : Reuss Voigt Hill
#
# Bulk Modulus (GPa) = 47.49623 50.58923 49.04273
# Shear Modulus (GPa) = -34.81015 14.86232 -9.97391
#
# Velocity S-wave (km/s) = -4.31990 2.82270 -2.31235
# Velocity P-wave (km/s) = 0.76186 6.14362 4.37747
#
# Compressibility (1/GPa) = 0.02105430
#
# Stress axis : x y z
#
# Youngs Moduli (GPa) = 83.17757 65.51990 72.57484
#
# Poissons Ratio (x) = 0.34436 0.26980
# Poissons Ratio (y) = 0.43717 0.07486
# Poissons Ratio (z) = 0.30921 0.06758
#
# Static dielectric constant tensor:
#      x y z
#    x 3.702600 0.000000 0.000000 
#    y 0.000000 3.472890 0.000000 
#    z 0.000000 0.000000 3.060040 
# 
# 
# High freq. dielectric constant tensor:
#      x y z
#    x 1.724830 0.000000 0.000000 
#    y 0.000000 1.731950 0.000000 
#    z 0.000000 0.000000 1.680800 
# 
# From -- ./inp_files/16048.got.cif
#   From: 2010.03.12/outbox.cif.g09.slc.cpg/sg55_9_cif.got.tgz:16048.got - 2010.04.16 15:19:21.
