data_PCOD8224584
_publ_section_title
;
Structure prediction by ZEFSAII (Michael W. Deem and Ramdas Pophale) SiO2 
 PCOD8224584
Probable space group: P B A M
;
_chemical_formula_sum "Si O2"
_cell_formula_units_Z 64
_cell_length_a 24.760558
_cell_length_b 14.121789
_cell_length_c 9.201099
_cell_angle_alpha 90.000000
_cell_angle_beta 90.000000
_cell_angle_gamma 90.000000
_cell_volume 3217.287336
_symmetry_space_group_name_H-M "P B A M"
_symmetry_group_IT_number 55
_symmetry_cell_setting 'orthorhombic'
loop_
_space_group_symop_operation_xyz
x,y,z
-x,-y,z
1/2+x,1/2-y,-z
1/2-x,1/2+y,-z
-x,-y,-z
x,y,-z
1/2-x,1/2+y,z
1/2+x,1/2-y,z
loop_
_atom_site_type_symbol
_atom_site_label
_atom_site_fract_x
_atom_site_fract_y
_atom_site_fract_z
Si Si1 0.673167 0.990347 0.672974
Si Si2 0.299575 0.825355 0.827129
Si Si3 0.086540 0.238226 0.169763
Si Si4 0.796150 0.276196 0.328687
Si Si5 0.986840 0.271949 0.339425
Si Si6 0.055244 0.530113 0.337727
Si Si7 0.939178 0.974991 0.828937
Si Si8 0.605680 0.641495 0.671780
O O1 0.676242 0.005927 0.500000
O O2 0.707643 0.070398 0.755711
O O3 0.693740 0.885685 0.712919
O O4 0.611545 0.002437 0.733498
O O5 0.356278 0.778883 0.779100
O O6 0.255041 0.755625 0.763692
O O7 0.293708 0.833785 0.000000
O O8 0.038530 0.298861 0.242459
O O9 0.077588 0.130227 0.220013
O O10 0.079586 0.249164 0.000000
O O11 0.784993 0.265409 0.500000
O O12 0.845459 0.209063 0.278935
O O13 0.008511 0.248244 0.500000
O O14 0.943603 0.356727 0.345520
O O15 0.951680 0.185589 0.277353
O O16 0.052806 0.485266 0.500000
O O17 0.000000 0.500000 0.253010
O O18 0.893792 0.040904 0.752871
O O19 0.933740 0.988944 0.000000
O O20 0.000000 0.000000 0.776676
O O21 0.607796 0.626066 0.500000
#
# Coordination Sequence:
#
# PCOD8224584 Si02
#       8
#     8   8   8   8   8   8   8   8
#     4  10  20  39  65  90 118 153 195 243 294 351
#     4  11  25  42  60  86 121 158 199 247 295 349
#     4  10  22  39  55  79 118 158 197 242 290 346
#     4  10  22  42  65  88 117 153 198 250 298 348
#     4  10  18  31  55  86 115 145 186 236 291 349
#     4   9  16  28  52  86 118 149 185 228 286 351
#     4  10  20  35  56  81 115 162 202 233 285 353
#     4  10  20  35  57  87 117 144 186 245 296 341
#
# _framework density 19.892533
#
# number of rings (size 3 to 8) (size 9 to 14) (size 15 to 20)
#    0.000    2.000    2.500    1.125    0.000    4.750 
#    0.000    3.125    0.000    2.250    0.000    0.000 
#    0.000    0.000    0.000    0.000    0.000    0.000 
#
# Total GULP energy -793344.492040 kJ/mol
# GULP energy per Si atom -12396.007688 kJ/mol
# Density = 1.984726 g / cm^3
# Si number density = 19.892533 Si / 1000 Ang^3
#
#
#
# Elastic Constant Matrix: (Units=GPa)
#
#
# Indices 1 2 3 4 5 6 
#
# 1 107.1973 42.0216 39.4078 0.0000 0.0000 0.0000
# 2 42.0216 92.7749 28.7860 0.0000 0.0000 0.0000
# 3 39.4078 28.7860 36.7700 0.0000 0.0000 0.0000
# 4 0.0000 0.0000 0.0000 22.6018 0.0000 0.0000
# 5 0.0000 0.0000 0.0000 0.0000 24.2740 0.0000
# 6 0.0000 0.0000 0.0000 0.0000 0.0000 32.7759
#
#
#
# Elastic Compliance Matrix: (Units=1/GPa)
#
#
# Indices 1 2 3 4 5 6 
#
# 1 0.015826 -0.002517 -0.014991 0.000000 0.000000 0.000000
# 2 -0.002517 0.014637 -0.008762 0.000000 0.000000 0.000000
# 3 -0.014991 -0.008762 0.050122 0.000000 0.000000 0.000000
# 4 0.000000 0.000000 0.000000 0.044244 0.000000 0.000000
# 5 0.000000 0.000000 0.000000 0.000000 0.041196 0.000000
# 6 0.000000 0.000000 0.000000 0.000000 0.000000 0.030510
#
#
# Mechanical properties :
#
#
# Convention : Reuss Voigt Hill
#
# Bulk Modulus (GPa) = 35.65566 50.79699 43.22633
# Shear Modulus (GPa) = 19.34803 24.36547 21.85675
#
# Velocity S-wave (km/s) = 3.12208 3.50359 3.31832
# Velocity P-wave (km/s) = 5.56413 6.47750 6.03811
#
# Compressibility (1/GPa) = 0.02804603
#
# Stress axis : x y z
#
# Youngs Moduli (GPa) = 63.18601 68.31853 19.95141
#
# Poissons Ratio (x) = 0.17195 0.29910
# Poissons Ratio (y) = 0.15904 0.17480
# Poissons Ratio (z) = 0.94723 0.59857
#
# Static dielectric constant tensor:
#      x y z
#    x 3.627830 0.000000 0.000000 
#    y 0.000000 3.688800 0.000000 
#    z 0.000000 0.000000 3.279800 
# 
# 
# High freq. dielectric constant tensor:
#      x y z
#    x 1.773990 0.000000 0.000000 
#    y 0.000000 1.789240 0.000000 
#    z 0.000000 0.000000 1.746300 
# 
# From -- ./inp_files/9807.got.cif
#   From: 2010.03.12/outbox.cif.g09.slc.cpg/sg55_5_cif.got.tgz:9807.got - 2010.04.16 15:19:21.
