data_PCOD8224675
_publ_section_title
;
Structure prediction by ZEFSAII (Michael W. Deem and Ramdas Pophale) SiO2 
 PCOD8224675
Probable space group: P B A M
;
_chemical_formula_sum "Si O2"
_cell_formula_units_Z 64
_cell_length_a 15.522039
_cell_length_b 24.005673
_cell_length_c 8.915981
_cell_angle_alpha 90.000000
_cell_angle_beta 90.000000
_cell_angle_gamma 90.000000
_cell_volume 3322.246026
_symmetry_space_group_name_H-M "P B A M"
_symmetry_group_IT_number 55
_symmetry_cell_setting 'orthorhombic'
loop_
_space_group_symop_operation_xyz
x,y,z
-x,-y,z
1/2+x,1/2-y,-z
1/2-x,1/2+y,-z
-x,-y,-z
x,y,-z
1/2-x,1/2+y,z
1/2+x,1/2-y,z
loop_
_atom_site_type_symbol
_atom_site_label
_atom_site_fract_x
_atom_site_fract_y
_atom_site_fract_z
Si Si1 0.656731 0.362942 0.178189
Si Si2 0.156040 0.368083 0.323064
Si Si3 0.595002 0.253153 0.323544
Si Si4 0.494337 0.935998 0.177283
Si Si5 0.000429 0.937102 0.821530
Si Si6 0.085742 0.751650 0.826858
Si Si7 0.846206 0.366617 0.823546
Si Si8 0.166196 0.868979 0.173623
O O1 0.647867 0.301327 0.242848
O O2 0.583494 0.404552 0.241237
O O3 0.750845 0.385375 0.230073
O O4 0.650212 0.358115 0.000000
O O5 0.150856 0.373248 0.500000
O O6 0.133235 0.305779 0.268864
O O7 0.250622 0.385561 0.268498
O O8 0.089823 0.410986 0.251951
O O9 0.604016 0.260595 0.500000
O O10 0.495949 0.257758 0.278694
O O11 0.579596 0.905976 0.245060
O O12 0.500000 0.000000 0.222602
O O13 0.486745 0.927321 0.000000
O O14 0.086132 0.905638 0.766191
O O15 0.996848 0.937272 0.000000
O O16 0.000000 0.000000 0.758049
O O17 0.137958 0.697213 0.776044
O O18 0.147375 0.804034 0.801280
O O19 0.054976 0.748368 0.000000
O O20 0.851005 0.372586 0.000000
O O21 0.184001 0.882369 0.000000
#
# Coordination Sequence:
#
# PCOD8224675 Si02
#       8
#     8   8   8   8   8   8   8   8
#     4  10  19  35  58  82 111 147 185 228 279 336
#     4  11  24  39  56  82 115 155 190 228 285 340
#     4  11  22  35  54  82 113 147 186 229 281 337
#     4  10  21  38  61  88 114 145 190 241 284 329
#     4   9  18  33  56  86 115 144 183 233 282 327
#     4  10  18  33  57  84 111 143 183 229 288 342
#     4   9  18  32  56  86 112 139 179 231 281 330
#     4  10  20  35  58  88 113 144 188 233 282 336
#
# _framework density 19.264077
#
# number of rings (size 3 to 8) (size 9 to 14) (size 15 to 20)
#    0.000    2.000    2.500    1.500    0.000    4.250 
#    0.000    5.000    0.000    3.000    0.000    0.000 
#    0.000    0.000    0.000    0.000    0.000    0.000 
#
# Total GULP energy -793666.398368 kJ/mol
# GULP energy per Si atom -12401.037475 kJ/mol
# Density = 1.922023 g / cm^3
# Si number density = 19.264077 Si / 1000 Ang^3
#
#
#
# Elastic Constant Matrix: (Units=GPa)
#
#
# Indices 1 2 3 4 5 6 
#
# 1 166.2393 81.1338 26.4702 0.0000 0.0000 0.0000
# 2 81.1338 149.7880 32.2623 0.0000 0.0000 0.0000
# 3 26.4702 32.2623 25.4740 0.0000 0.0000 0.0000
# 4 0.0000 0.0000 0.0000 14.5734 0.0000 0.0000
# 5 0.0000 0.0000 0.0000 0.0000 4.6053 0.0000
# 6 0.0000 0.0000 0.0000 0.0000 0.0000 16.0067
#
#
#
# Elastic Compliance Matrix: (Units=1/GPa)
#
#
# Indices 1 2 3 4 5 6 
#
# 1 0.008480 -0.003706 -0.004118 0.000000 0.000000 0.000000
# 2 -0.003706 0.010800 -0.009827 0.000000 0.000000 0.000000
# 3 -0.004118 -0.009827 0.055980 0.000000 0.000000 0.000000
# 4 0.000000 0.000000 0.000000 0.068618 0.000000 0.000000
# 5 0.000000 0.000000 0.000000 0.000000 0.217143 0.000000
# 6 0.000000 0.000000 0.000000 0.000000 0.000000 0.062474
#
#
# Mechanical properties :
#
#
# Convention : Reuss Voigt Hill
#
# Bulk Modulus (GPa) = 25.02607 69.02597 47.02602
# Shear Modulus (GPa) = 10.59060 20.47940 15.53500
#
# Velocity S-wave (km/s) = 2.34724 3.26404 2.84284
# Velocity P-wave (km/s) = 4.51279 7.07916 5.93632
#
# Compressibility (1/GPa) = 0.03995833
#
# Stress axis : x y z
#
# Youngs Moduli (GPa) = 117.92496 92.59015 17.86356
#
# Poissons Ratio (x) = 0.34317 0.07355
# Poissons Ratio (y) = 0.43707 0.17555
# Poissons Ratio (z) = 0.48556 0.90988
#
# Static dielectric constant tensor:
#      x y z
#    x 3.306730 0.000000 0.000000 
#    y 0.000000 3.732330 0.000000 
#    z 0.000000 0.000000 3.141690 
# 
# 
# High freq. dielectric constant tensor:
#      x y z
#    x 1.765020 0.000000 0.000000 
#    y 0.000000 1.751160 0.000000 
#    z 0.000000 0.000000 1.711010 
# 
# From -- ./inp_files/6517.got.cif
#   From: 2010.03.12/outbox.cif.g09.slc.cpg/sg55_4_cif.got.tgz:6517.got - 2010.04.16 15:19:21.
