data_PCOD8224724
_publ_section_title
;
Structure prediction by ZEFSAII (Michael W. Deem and Ramdas Pophale) SiO2 
 PCOD8224724
Probable space group: P B A M
;
_chemical_formula_sum "Si O2"
_cell_formula_units_Z 56
_cell_length_a 17.348537
_cell_length_b 19.035063
_cell_length_c 8.930905
_cell_angle_alpha 90.000000
_cell_angle_beta 90.000000
_cell_angle_gamma 90.000000
_cell_volume 2949.257177
_symmetry_space_group_name_H-M "P B A M"
_symmetry_group_IT_number 55
_symmetry_cell_setting 'orthorhombic'
loop_
_space_group_symop_operation_xyz
x,y,z
-x,-y,z
1/2+x,1/2-y,-z
1/2-x,1/2+y,-z
-x,-y,-z
x,y,-z
1/2-x,1/2+y,z
1/2+x,1/2-y,z
loop_
_atom_site_type_symbol
_atom_site_label
_atom_site_fract_x
_atom_site_fract_y
_atom_site_fract_z
Si Si1 0.056019 0.903136 0.323221
Si Si2 0.757426 0.462629 0.823497
Si Si3 0.130792 0.640733 0.675035
Si Si4 0.824185 0.207468 0.677005
Si Si5 0.695982 0.102551 0.677252
Si Si6 0.973983 0.575092 0.674294
Si Si7 0.606626 0.444252 0.676245
O O1 0.065702 0.904014 0.500000
O O2 0.107711 0.840984 0.253439
O O3 0.965386 0.893198 0.282953
O O4 0.085618 0.978032 0.265144
O O5 0.832634 0.422605 0.766818
O O6 0.756375 0.540177 0.753492
O O7 0.682256 0.419904 0.766234
O O8 0.758225 0.467627 0.000000
O O9 0.150218 0.631095 0.500000
O O10 0.163848 0.714022 0.740391
O O11 0.038655 0.634681 0.702537
O O12 0.834781 0.211350 0.500000
O O13 0.740165 0.175439 0.719241
O O14 0.699823 0.090797 0.500000
O O15 0.607941 0.103033 0.739501
O O16 0.960528 0.562020 0.500000
O O17 0.000000 0.500000 0.746016
O O18 0.624313 0.441838 0.500000
#
# Coordination Sequence:
#
# PCOD8224724 Si02
#       7
#     8   8   8   8   8   8   8
#     4   8  14  27  52  83 104 128 168 217 269 321
#     4  12  23  34  51  78 108 144 187 226 263 315
#     4  10  20  36  55  78 109 143 178 224 279 327
#     4   9  17  31  55  84 109 135 174 223 275 330
#     4  10  18  34  59  82 106 137 177 225 276 326
#     4   9  16  29  54  82 103 131 172 221 272 321
#     4   9  16  30  54  79 105 134 170 218 268 314
#
# _framework density 18.987832999999998
#
# number of rings (size 3 to 8) (size 9 to 14) (size 15 to 20)
#    0.000    2.429    2.857    2.143    0.000    0.000 
#    2.571    3.571    0.000    0.000    0.000    0.000 
#    0.000    0.000    0.000    0.000    0.000    0.000 
#
# Total GULP energy -694032.067626 kJ/mol
# GULP energy per Si atom -12393.429779 kJ/mol
# Density = 1.894462 g / cm^3
# Si number density = 18.987833 Si / 1000 Ang^3
#
#
#
# Elastic Constant Matrix: (Units=GPa)
#
#
# Indices 1 2 3 4 5 6 
#
# 1 136.9541 38.3729 26.8797 0.0000 0.0000 0.0000
# 2 38.3729 89.9864 16.2289 0.0000 0.0000 0.0000
# 3 26.8797 16.2289 42.3462 0.0000 0.0000 0.0000
# 4 0.0000 0.0000 0.0000 4.8000 0.0000 0.0000
# 5 0.0000 0.0000 0.0000 0.0000 4.8521 0.0000
# 6 0.0000 0.0000 0.0000 0.0000 0.0000 30.6770
#
#
#
# Elastic Compliance Matrix: (Units=1/GPa)
#
#
# Indices 1 2 3 4 5 6 
#
# 1 0.009051 -0.003033 -0.004583 0.000000 0.000000 0.000000
# 2 -0.003033 0.012954 -0.003039 0.000000 0.000000 0.000000
# 3 -0.004583 -0.003039 0.027689 0.000000 0.000000 0.000000
# 4 0.000000 0.000000 0.000000 0.208334 0.000000 0.000000
# 5 0.000000 0.000000 0.000000 0.000000 0.206098 0.000000
# 6 0.000000 0.000000 0.000000 0.000000 0.000000 0.032598
#
#
# Mechanical properties :
#
#
# Convention : Reuss Voigt Hill
#
# Bulk Modulus (GPa) = 35.23179 48.02775 41.62977
# Shear Modulus (GPa) = 9.47876 20.58615 15.03245
#
# Velocity S-wave (km/s) = 2.23671 3.29625 2.81675
# Velocity P-wave (km/s) = 5.02650 6.31157 5.70533
#
# Compressibility (1/GPa) = 0.02838346
#
# Stress axis : x y z
#
# Youngs Moduli (GPa) = 110.48478 77.19413 36.11583
#
# Poissons Ratio (x) = 0.23414 0.16551
# Poissons Ratio (y) = 0.33511 0.10977
# Poissons Ratio (z) = 0.50633 0.23462
#
# Static dielectric constant tensor:
#      x y z
#    x 3.849580 0.000000 0.000000 
#    y 0.000000 3.482570 0.000000 
#    z 0.000000 0.000000 2.863590 
# 
# 
# High freq. dielectric constant tensor:
#      x y z
#    x 1.759810 0.000000 0.000000 
#    y 0.000000 1.715400 0.000000 
#    z 0.000000 0.000000 1.671700 
# 
# From -- ./inp_files/7891.got.cif
#   From: 2010.03.12/outbox.cif.g09.slc.cpg/sg55_4_cif.got.tgz:7891.got - 2010.04.16 15:19:21.
