data_PCOD8224032
_publ_section_title
;
Structure prediction by ZEFSAII (Michael W. Deem and Ramdas Pophale) SiO2 
 PCOD8224032
Probable space group: P C C A
;
_chemical_formula_sum "Si O2"
_cell_formula_units_Z 48
_cell_length_a 17.459043
_cell_length_b 8.202595
_cell_length_c 14.477788
_cell_angle_alpha 90.000000
_cell_angle_beta 90.000000
_cell_angle_gamma 90.000000
_cell_volume 2073.356184
_symmetry_space_group_name_H-M "P C C A"
_symmetry_group_IT_number 54
_symmetry_cell_setting 'orthorhombic'
loop_
_space_group_symop_operation_xyz
x,y,z
1/2-x,-y,z
1/2+x,-y,1/2-z
-x,y,1/2-z
-x,-y,-z
1/2+x,y,-z
1/2-x,y,1/2+z
x,-y,1/2+z
loop_
_atom_site_type_symbol
_atom_site_label
_atom_site_fract_x
_atom_site_fract_y
_atom_site_fract_z
Si Si1 0.402142 0.672827 0.994612
Si Si2 0.019155 0.776856 0.148354
Si Si3 0.742542 0.812520 0.599128
Si Si4 0.830686 0.665038 0.441772
Si Si5 0.549426 0.851432 0.331846
Si Si6 0.774354 0.817508 0.800771
O O1 0.358826 0.513965 0.031575
O O2 0.454022 0.749620 0.074641
O O3 0.465336 0.660739 0.914261
O O4 0.336733 0.788025 0.953904
O O5 0.106789 0.753505 0.120059
O O6 0.000000 0.712468 0.250000
O O7 0.010492 0.972789 0.145133
O O8 0.814536 0.746398 0.540988
O O9 0.743414 0.742208 0.703662
O O10 0.750000 0.000000 0.616002
O O11 0.752888 0.687276 0.379813
O O12 0.500000 0.769679 0.250000
O O13 0.635270 0.839717 0.295217
O O14 0.750000 0.000000 0.827991
#
# Coordination Sequence:
#
# PCOD8224032 Si02
#       6
#     8   8   8   8   8   8
#     4  12  26  46  69 109 148 194 237 304 385 452
#     4  11  25  46  74 104 148 189 247 305 373 444
#     4  11  25  43  74 102 139 190 252 306 364 433
#     4  12  24  47  71 106 147 190 238 304 379 453
#     4  11  25  43  73 107 145 195 255 307 368 445
#     4  11  23  46  76 105 140 191 254 307 364 436
#
# _framework density 23.150870999999999
#
# number of rings (size 3 to 8) (size 9 to 14) (size 15 to 20)
#    0.000    0.667    3.333    4.000    9.333    0.667 
#    9.000    0.000    0.000    0.000    0.000    0.000 
#    0.000    0.000    0.000    0.000    0.000    0.000 
#
# Total GULP energy -594726.327731 kJ/mol
# GULP energy per Si atom -12390.131828 kJ/mol
# Density = 2.309818 g / cm^3
# Si number density = 23.150871 Si / 1000 Ang^3
#
#
#
# Elastic Constant Matrix: (Units=GPa)
#
#
# Indices 1 2 3 4 5 6 
#
# 1 115.8366 28.3799 47.7231 0.0000 0.0000 0.0000
# 2 28.3799 69.0895 60.7498 0.0000 0.0000 0.0000
# 3 47.7231 60.7498 184.7452 0.0000 0.0000 0.0000
# 4 0.0000 0.0000 0.0000 18.0398 0.0000 0.0000
# 5 0.0000 0.0000 0.0000 0.0000 142.8863 0.0000
# 6 0.0000 0.0000 0.0000 0.0000 0.0000 36.5703
#
#
#
# Elastic Compliance Matrix: (Units=1/GPa)
#
#
# Indices 1 2 3 4 5 6 
#
# 1 0.009977 -0.002577 -0.001730 0.000000 0.000000 0.000000
# 2 -0.002577 0.021027 -0.006249 0.000000 0.000000 0.000000
# 3 -0.001730 -0.006249 0.007914 0.000000 0.000000 0.000000
# 4 0.000000 0.000000 0.000000 0.055433 0.000000 0.000000
# 5 0.000000 0.000000 0.000000 0.000000 0.006999 0.000000
# 6 0.000000 0.000000 0.000000 0.000000 0.000000 0.027345
#
#
# Mechanical properties :
#
#
# Convention : Reuss Voigt Hill
#
# Bulk Modulus (GPa) = 56.15725 71.48631 63.82178
# Shear Modulus (GPa) = 32.10453 55.02050 43.56251
#
# Velocity S-wave (km/s) = 3.72795 4.88033 4.34254
# Velocity P-wave (km/s) = 6.54522 7.91848 7.26437
#
# Compressibility (1/GPa) = 0.01780714
#
# Stress axis : x y z
#
# Youngs Moduli (GPa) = 100.23151 47.55811 126.35222
#
# Poissons Ratio (x) = 0.12257 0.21856
# Poissons Ratio (y) = 0.25832 0.78951
# Poissons Ratio (z) = 0.17337 0.29717
#
# Static dielectric constant tensor:
#      x y z
#    x 1.355350 0.000000 0.000000 
#    y 0.000000 2.924620 0.000000 
#    z 0.000000 0.000000 4.988360 
# 
# 
# High freq. dielectric constant tensor:
#      x y z
#    x 1.928440 0.000000 0.000000 
#    y 0.000000 1.892590 0.000000 
#    z 0.000000 0.000000 1.939980 
# 
# From -- ./inp_files/14097.got.cif
#   From: 2010.03.12/outbox.cif.g09.slc.cpg/sg54_8_cif.got.tgz:14097.got - 2010.04.16 15:00:50.
