data_PCOD8224907
_publ_section_title
;
Structure prediction by ZEFSAII (Michael W. Deem and Ramdas Pophale) SiO2 
 PCOD8224907
Probable space group: P B A M
;
_chemical_formula_sum "Si O2"
_cell_formula_units_Z 48
_cell_length_a 14.660824
_cell_length_b 20.026870
_cell_length_c 9.644151
_cell_angle_alpha 90.000000
_cell_angle_beta 90.000000
_cell_angle_gamma 90.000000
_cell_volume 2831.623190
_symmetry_space_group_name_H-M "P B A M"
_symmetry_group_IT_number 55
_symmetry_cell_setting 'orthorhombic'
loop_
_space_group_symop_operation_xyz
x,y,z
-x,-y,z
1/2+x,1/2-y,-z
1/2-x,1/2+y,-z
-x,-y,-z
x,y,-z
1/2-x,1/2+y,z
1/2+x,1/2-y,z
loop_
_atom_site_type_symbol
_atom_site_label
_atom_site_fract_x
_atom_site_fract_y
_atom_site_fract_z
Si Si1 0.005776 0.312208 0.839717
Si Si2 0.190979 0.649827 0.157873
Si Si3 0.438390 0.936911 0.341261
Si Si4 0.607054 0.320409 0.837709
Si Si5 0.779132 0.472354 0.342917
Si Si6 0.075731 0.052281 0.661208
O O1 0.043243 0.374595 0.755633
O O2 0.056066 0.245921 0.786205
O O3 0.896656 0.302611 0.817842
O O4 0.029303 0.325173 0.000000
O O5 0.284937 0.687940 0.196054
O O6 0.176208 0.584412 0.249035
O O7 0.195335 0.625061 0.000000
O O8 0.458214 0.916322 0.500000
O O9 0.500000 0.000000 0.298313
O O10 0.332577 0.958254 0.319881
O O11 0.564777 0.381396 0.751983
O O12 0.589684 0.333652 0.000000
O O13 0.792317 0.447303 0.500000
O O14 0.672832 0.482816 0.308652
O O15 0.064166 0.071476 0.500000
O O16 0.000000 0.000000 0.709999
#
# Coordination Sequence:
#
# PCOD8224907 Si02
#       6
#     8   8   8   8   8   8
#     4  10  20  33  50  72  99 130 163 203 244 287
#     4   9  17  31  51  69  92 128 164 196 237 286
#     4  10  19  31  49  74 101 128 159 198 244 291
#     4   9  19  35  51  71  99 130 165 201 241 290
#     4   9  17  31  50  71  97 126 158 197 240 287
#     4   9  18  34  55  75  97 127 164 203 243 287
#
# _framework density 16.951409000000002
#
# number of rings (size 3 to 8) (size 9 to 14) (size 15 to 20)
#    0.000    2.667    1.667    0.000    0.000    2.000 
#    3.000    0.000    0.000    0.000    0.000    0.000 
#    0.000    0.000    0.000    0.000    0.000    0.000 
#
# Total GULP energy -595122.581332 kJ/mol
# GULP energy per Si atom -12398.387111 kJ/mol
# Density = 1.691283 g / cm^3
# Si number density = 16.951409 Si / 1000 Ang^3
#
#
#
# Elastic Constant Matrix: (Units=GPa)
#
#
# Indices 1 2 3 4 5 6 
#
# 1 112.1259 80.3971 45.5992 0.0000 0.0000 0.0000
# 2 80.3971 129.2785 60.8468 0.0000 0.0000 0.0000
# 3 45.5992 60.8468 59.6630 0.0000 0.0000 0.0000
# 4 0.0000 0.0000 0.0000 39.0958 0.0000 0.0000
# 5 0.0000 0.0000 0.0000 0.0000 22.1018 0.0000
# 6 0.0000 0.0000 0.0000 0.0000 0.0000 30.0365
#
#
#
# Elastic Compliance Matrix: (Units=1/GPa)
#
#
# Indices 1 2 3 4 5 6 
#
# 1 0.016615 -0.008377 -0.004155 0.000000 0.000000 0.000000
# 2 -0.008377 0.019099 -0.013076 0.000000 0.000000 0.000000
# 3 -0.004155 -0.013076 0.033272 0.000000 0.000000 0.000000
# 4 0.000000 0.000000 0.000000 0.025578 0.000000 0.000000
# 5 0.000000 0.000000 0.000000 0.000000 0.045245 0.000000
# 6 0.000000 0.000000 0.000000 0.000000 0.000000 0.033293
#
#
# Mechanical properties :
#
#
# Convention : Reuss Voigt Hill
#
# Bulk Modulus (GPa) = 56.27500 74.97262 65.62381
# Shear Modulus (GPa) = 21.71640 25.86177 23.78908
#
# Velocity S-wave (km/s) = 3.58312 3.91018 3.75022
# Velocity P-wave (km/s) = 7.09847 8.04425 7.58612
#
# Compressibility (1/GPa) = 0.01776988
#
# Stress axis : x y z
#
# Youngs Moduli (GPa) = 60.18712 52.35879 30.05553
#
# Poissons Ratio (x) = 0.43860 0.12489
# Poissons Ratio (y) = 0.50418 0.39300
# Poissons Ratio (z) = 0.25010 0.68463
#
# Static dielectric constant tensor:
#      x y z
#    x 3.482040 0.000000 0.000000 
#    y 0.000000 2.951910 0.000000 
#    z 0.000000 0.000000 3.183830 
# 
# 
# High freq. dielectric constant tensor:
#      x y z
#    x 1.667840 0.000000 0.000000 
#    y 0.000000 1.626080 0.000000 
#    z 0.000000 0.000000 1.654950 
# 
# From -- ./inp_files/5665.got.cif
#   From: 2010.03.12/outbox.cif.g09.slc.cpg/sg55_3_cif.got.tgz:5665.got - 2010.04.16 15:19:21.
