data_PCOD8224238
_publ_section_title
;
Structure prediction by ZEFSAII (Michael W. Deem and Ramdas Pophale) SiO2 
 PCOD8224238
Probable space group: P B A M
;
_chemical_formula_sum "Si O2"
_cell_formula_units_Z 48
_cell_length_a 18.119644
_cell_length_b 5.258251
_cell_length_c 26.906980
_cell_angle_alpha 90.000000
_cell_angle_beta 90.000000
_cell_angle_gamma 90.000000
_cell_volume 2563.633451
_symmetry_space_group_name_H-M "P B A M"
_symmetry_group_IT_number 55
_symmetry_cell_setting 'orthorhombic'
loop_
_space_group_symop_operation_xyz
x,y,z
-x,-y,z
1/2+x,1/2-y,-z
1/2-x,1/2+y,-z
-x,-y,-z
x,y,-z
1/2-x,1/2+y,z
1/2+x,1/2-y,z
loop_
_atom_site_type_symbol
_atom_site_label
_atom_site_fract_x
_atom_site_fract_y
_atom_site_fract_z
Si Si1 0.834702 0.034419 0.558165
Si Si2 0.914073 0.499102 0.798575
Si Si3 0.296079 0.495982 0.942430
Si Si4 0.914157 0.999088 0.860097
Si Si5 0.671277 0.034226 0.399551
Si Si6 0.703887 0.015795 0.715814
O O1 0.846533 0.002970 0.500000
O O2 0.873314 0.292510 0.578506
O O3 0.748927 0.064516 0.572037
O O4 0.871719 0.794873 0.586868
O O5 0.892054 0.746943 0.830022
O O6 0.870719 0.501131 0.747056
O O7 0.000000 0.500000 0.784828
O O8 0.892051 0.247006 0.828700
O O9 0.250677 0.244508 0.928419
O O10 0.371443 0.497892 0.911891
O O11 0.318596 0.496908 0.000000
O O12 0.000000 0.000000 0.873713
O O13 0.681784 0.003390 0.341366
O O14 0.754968 0.776581 0.729167
#
# Coordination Sequence:
#
# PCOD8224238 Si02
#       6
#     8   8   8   8   8   8
#     4  10  16  25  41  61  97 134 156 192 259 314
#     4  10  23  39  55  77 107 142 180 222 266 311
#     4  10  21  36  57  85 117 145 173 218 269 317
#     4  10  21  39  58  78 106 141 183 225 258 309
#     4  10  16  27  38  63  96 125 155 205 247 302
#     4  12  21  34  52  76 104 136 171 219 264 309
#
# _framework density 18.723426
#
# number of rings (size 3 to 8) (size 9 to 14) (size 15 to 20)
#    0.000    1.667    3.333    4.500    0.000    4.333 
#    0.000    0.000    0.000    6.000    0.000    0.000 
#    0.000    7.333    0.000    0.000    0.000    0.000 
#
# Total GULP energy -595131.793725 kJ/mol
# GULP energy per Si atom -12398.579036 kJ/mol
# Density = 1.868081 g / cm^3
# Si number density = 18.723426 Si / 1000 Ang^3
#
#
#
# Elastic Constant Matrix: (Units=GPa)
#
#
# Indices 1 2 3 4 5 6 
#
# 1 45.2955 18.5803 54.2314 0.0000 0.0000 0.0000
# 2 18.5803 153.4141 41.5892 0.0000 0.0000 0.0000
# 3 54.2314 41.5892 82.1511 0.0000 0.0000 0.0000
# 4 0.0000 0.0000 0.0000 5.0618 0.0000 0.0000
# 5 0.0000 0.0000 0.0000 0.0000 35.3191 0.0000
# 6 0.0000 0.0000 0.0000 0.0000 0.0000 6.6183
#
#
#
# Elastic Compliance Matrix: (Units=1/GPa)
#
#
# Indices 1 2 3 4 5 6 
#
# 1 0.112359 0.007533 -0.077987 0.000000 0.000000 0.000000
# 2 0.007533 0.008060 -0.009054 0.000000 0.000000 0.000000
# 3 -0.077987 -0.009054 0.068238 0.000000 0.000000 0.000000
# 4 0.000000 0.000000 0.000000 0.197556 0.000000 0.000000
# 5 0.000000 0.000000 0.000000 0.000000 0.028313 0.000000
# 6 0.000000 0.000000 0.000000 0.000000 0.000000 0.151096
#
#
# Mechanical properties :
#
#
# Convention : Reuss Voigt Hill
#
# Bulk Modulus (GPa) = 33.73384 56.62913 45.18149
# Shear Modulus (GPa) = 6.80719 20.49717 13.65218
#
# Velocity S-wave (km/s) = 1.90881 3.31227 2.70321
# Velocity P-wave (km/s) = 4.78687 6.70365 5.82464
#
# Compressibility (1/GPa) = 0.02964383
#
# Stress axis : x y z
#
# Youngs Moduli (GPa) = 8.90005 124.06504 14.65450
#
# Poissons Ratio (x) = -0.93464 1.14286
# Poissons Ratio (y) = -0.06705 0.13268
# Poissons Ratio (z) = 0.69409 1.12325
#
# Static dielectric constant tensor:
#      x y z
#    x 2.944920 0.000000 0.000000 
#    y 0.000000 5.331020 0.000000 
#    z 0.000000 0.000000 3.341490 
# 
# 
# High freq. dielectric constant tensor:
#      x y z
#    x 1.671060 0.000000 0.000000 
#    y 0.000000 1.767180 0.000000 
#    z 0.000000 0.000000 1.732960 
# 
# From -- ./inp_files/23639.got.cif
#   From: 2010.03.12/outbox.cif.g09.slc.cpg/sg55_12_cif.got.tgz:23639.got - 2010.04.16 15:19:21.
