data_PCOD8224851
_publ_section_title
;
Structure prediction by ZEFSAII (Michael W. Deem and Ramdas Pophale) SiO2 
 PCOD8224851
Probable space group: P B A M
;
_chemical_formula_sum "Si O2"
_cell_formula_units_Z 64
_cell_length_a 17.184013
_cell_length_b 22.127858
_cell_length_c 9.369569
_cell_angle_alpha 90.000000
_cell_angle_beta 90.000000
_cell_angle_gamma 90.000000
_cell_volume 3562.735508
_symmetry_space_group_name_H-M "P B A M"
_symmetry_group_IT_number 55
_symmetry_cell_setting 'orthorhombic'
loop_
_space_group_symop_operation_xyz
x,y,z
-x,-y,z
1/2+x,1/2-y,-z
1/2-x,1/2+y,-z
-x,-y,-z
x,y,-z
1/2-x,1/2+y,z
1/2+x,1/2-y,z
loop_
_atom_site_type_symbol
_atom_site_label
_atom_site_fract_x
_atom_site_fract_y
_atom_site_fract_z
Si Si1 0.164848 0.787315 0.666738
Si Si2 0.590286 0.932021 0.168119
Si Si3 0.735368 0.123100 0.164383
Si Si4 0.580404 0.067361 0.831913
Si Si5 0.298291 0.153679 0.334410
Si Si6 0.535949 0.619734 0.335259
Si Si7 0.862455 0.903864 0.336223
Si Si8 0.134043 0.973383 0.834311
O O1 0.181665 0.790594 0.500000
O O2 0.233907 0.822095 0.743394
O O3 0.170447 0.718461 0.720215
O O4 0.081873 0.818428 0.706189
O O5 0.504365 0.905585 0.206735
O O6 0.656674 0.896410 0.247558
O O7 0.592275 0.000056 0.228744
O O8 0.606472 0.928258 0.000000
O O9 0.648582 0.110820 0.224152
O O10 0.785782 0.062658 0.185767
O O11 0.735716 0.143235 0.000000
O O12 0.588091 0.060287 0.000000
O O13 0.317711 0.145447 0.500000
O O14 0.206117 0.144398 0.304895
O O15 0.552441 0.603352 0.500000
O O16 0.444452 0.629928 0.306320
O O17 0.564281 0.563169 0.241166
O O18 0.858582 0.926297 0.500000
O O19 0.853937 0.961522 0.235177
O O20 0.112231 0.981267 0.000000
#
# Coordination Sequence:
#
# PCOD8224851 Si02
#       8
#     8   8   8   8   8   8   8   8
#     4   9  19  36  52  68  95 131 170 207 244 286
#     4   9  17  32  54  75  99 133 165 196 246 305
#     4   9  17  31  51  74 100 130 164 202 244 289
#     4   8  15  30  52  77 102 128 163 202 241 298
#     4  10  21  36  50  71 102 131 166 213 253 285
#     4   9  18  34  53  70  95 136 173 197 238 301
#     4  10  20  33  50  72  99 133 167 199 242 303
#     4  10  19  30  50  80 108 129 155 202 253 291
#
# _framework density 17.963725
#
# number of rings (size 3 to 8) (size 9 to 14) (size 15 to 20)
#    0.000    2.750    0.000    2.250    0.000    4.500 
#    2.250    2.500    0.000    0.000    0.000    0.000 
#    0.000    0.000    0.000    0.000    0.000    0.000 
#
# Total GULP energy -793403.045284 kJ/mol
# GULP energy per Si atom -12396.922583 kJ/mol
# Density = 1.792284 g / cm^3
# Si number density = 17.963725 Si / 1000 Ang^3
#
#
#
# Elastic Constant Matrix: (Units=GPa)
#
#
# Indices 1 2 3 4 5 6 
#
# 1 117.1320 35.9018 31.9499 0.0000 0.0000 0.0000
# 2 35.9018 79.2293 31.5438 0.0000 0.0000 0.0000
# 3 31.9499 31.5438 46.5797 0.0000 0.0000 0.0000
# 4 0.0000 0.0000 0.0000 21.8183 0.0000 0.0000
# 5 0.0000 0.0000 0.0000 0.0000 22.8140 0.0000
# 6 0.0000 0.0000 0.0000 0.0000 0.0000 18.4642
#
#
#
# Elastic Compliance Matrix: (Units=1/GPa)
#
#
# Indices 1 2 3 4 5 6 
#
# 1 0.010905 -0.002688 -0.005660 0.000000 0.000000 0.000000
# 2 -0.002688 0.017943 -0.010307 0.000000 0.000000 0.000000
# 3 -0.005660 -0.010307 0.032331 0.000000 0.000000 0.000000
# 4 0.000000 0.000000 0.000000 0.045833 0.000000 0.000000
# 5 0.000000 0.000000 0.000000 0.000000 0.043833 0.000000
# 6 0.000000 0.000000 0.000000 0.000000 0.000000 0.054159
#
#
# Mechanical properties :
#
#
# Convention : Reuss Voigt Hill
#
# Bulk Modulus (GPa) = 41.89548 49.08134 45.48841
# Shear Modulus (GPa) = 19.97836 22.18898 21.08367
#
# Velocity S-wave (km/s) = 3.33851 3.51837 3.42962
# Velocity P-wave (km/s) = 6.18335 6.62473 6.40784
#
# Compressibility (1/GPa) = 0.02386892
#
# Stress axis : x y z
#
# Youngs Moduli (GPa) = 91.70031 55.73055 30.93034
#
# Poissons Ratio (x) = 0.14982 0.17505
# Poissons Ratio (y) = 0.24652 0.31881
# Poissons Ratio (z) = 0.51898 0.57444
#
# Static dielectric constant tensor:
#      x y z
#    x 3.668680 0.000000 0.000000 
#    y 0.000000 3.227870 0.000000 
#    z 0.000000 0.000000 3.198270 
# 
# 
# High freq. dielectric constant tensor:
#      x y z
#    x 1.707770 0.000000 0.000000 
#    y 0.000000 1.676780 0.000000 
#    z 0.000000 0.000000 1.680650 
# 
# From -- ./inp_files/8200.got.cif
#   From: 2010.03.12/outbox.cif.g09.slc.cpg/sg55_5_cif.got.tgz:8200.got - 2010.04.16 15:19:21.
