data_PCOD8224287
_publ_section_title
;
Structure prediction by ZEFSAII (Michael W. Deem and Ramdas Pophale) SiO2 
 PCOD8224287
Probable space group: P B A M
;
_chemical_formula_sum "Si O2"
_cell_formula_units_Z 64
_cell_length_a 16.366158
_cell_length_b 18.274014
_cell_length_c 13.176833
_cell_angle_alpha 90.000000
_cell_angle_beta 90.000000
_cell_angle_gamma 90.000000
_cell_volume 3940.866606
_symmetry_space_group_name_H-M "P B A M"
_symmetry_group_IT_number 55
_symmetry_cell_setting 'orthorhombic'
loop_
_space_group_symop_operation_xyz
x,y,z
-x,-y,z
1/2+x,1/2-y,-z
1/2-x,1/2+y,-z
-x,-y,-z
x,y,-z
1/2-x,1/2+y,z
1/2+x,1/2-y,z
loop_
_atom_site_type_symbol
_atom_site_label
_atom_site_fract_x
_atom_site_fract_y
_atom_site_fract_z
Si Si1 0.647501 0.438096 0.239853
Si Si2 0.971403 0.422403 0.880445
Si Si3 0.737073 0.705714 0.115764
Si Si4 0.125288 0.897824 0.231425
Si Si5 0.520752 0.367584 0.114314
Si Si6 0.572836 0.212625 0.880887
Si Si7 0.791887 0.372510 0.884261
Si Si8 0.513291 0.413642 0.386372
O O1 0.666452 0.523970 0.254338
O O2 0.578264 0.431885 0.154670
O O3 0.728280 0.397205 0.202077
O O4 0.604647 0.400900 0.339469
O O5 0.876604 0.410510 0.854891
O O6 0.000000 0.500000 0.833005
O O7 0.025536 0.356828 0.831976
O O8 0.986130 0.423838 0.000000
O O9 0.697873 0.658533 0.207363
O O10 0.831871 0.708021 0.143517
O O11 0.697051 0.785642 0.121018
O O12 0.724876 0.674736 0.000000
O O13 0.071914 0.894198 0.128462
O O14 0.060694 0.876337 0.321599
O O15 0.538359 0.288334 0.167137
O O16 0.544429 0.356743 0.000000
O O17 0.555373 0.212092 0.000000
O O18 0.764870 0.394349 0.000000
O O19 0.500000 0.500000 0.384997
O O20 0.510935 0.381332 0.500000
#
# Coordination Sequence:
#
# PCOD8224287 Si02
#       8
#     8   8   8   8   8   8   8   8
#     4  10  19  29  45  72  94 114 153 195 237 286
#     4   9  18  29  41  57  81 125 172 199 218 248
#     4  10  19  30  43  64  95 131 162 192 230 274
#     4  10  20  28  45  72  90 115 156 196 233 279
#     4  10  17  28  41  60  94 125 147 176 226 288
#     4   9  17  29  42  56  83 127 169 190 219 271
#     4  10  19  31  44  62  98 135 162 192 229 273
#     4   8  16  33  52  70  95 119 142 185 249 310
#
# _framework density 16.240082999999998
#
# number of rings (size 3 to 8) (size 9 to 14) (size 15 to 20)
#    0.000    2.500    1.250    2.625    1.750    4.500 
#    0.000    0.000    0.000    0.750    0.000    0.000 
#    0.000    0.500    0.000    0.000    0.000    3.000 
#
# Total GULP energy -792866.551277 kJ/mol
# GULP energy per Si atom -12388.539864 kJ/mol
# Density = 1.620312 g / cm^3
# Si number density = 16.240083 Si / 1000 Ang^3
#
#
#
# Elastic Constant Matrix: (Units=GPa)
#
#
# Indices 1 2 3 4 5 6 
#
# 1 42.3688 7.7275 21.4263 0.0000 0.0000 0.0000
# 2 7.7275 46.4581 21.0684 0.0000 0.0000 0.0000
# 3 21.4263 21.0684 63.8573 0.0000 0.0000 0.0000
# 4 0.0000 0.0000 0.0000 11.1318 0.0000 0.0000
# 5 0.0000 0.0000 0.0000 0.0000 18.2325 0.0000
# 6 0.0000 0.0000 0.0000 0.0000 0.0000 29.4437
#
#
#
# Elastic Compliance Matrix: (Units=1/GPa)
#
#
# Indices 1 2 3 4 5 6 
#
# 1 0.028434 -0.000474 -0.009384 0.000000 0.000000 0.000000
# 2 -0.000474 0.025320 -0.008195 0.000000 0.000000 0.000000
# 3 -0.009384 -0.008195 0.021512 0.000000 0.000000 0.000000
# 4 0.000000 0.000000 0.000000 0.089833 0.000000 0.000000
# 5 0.000000 0.000000 0.000000 0.000000 0.054847 0.000000
# 6 0.000000 0.000000 0.000000 0.000000 0.000000 0.033963
#
#
# Mechanical properties :
#
#
# Convention : Reuss Voigt Hill
#
# Bulk Modulus (GPa) = 25.53579 28.12539 26.83059
# Shear Modulus (GPa) = 16.49788 18.59239 17.54513
#
# Velocity S-wave (km/s) = 3.19074 3.38723 3.29045
# Velocity P-wave (km/s) = 5.41594 5.71435 5.56715
#
# Compressibility (1/GPa) = 0.03916072
#
# Stress axis : x y z
#
# Youngs Moduli (GPa) = 35.16855 39.49473 46.48483
#
# Poissons Ratio (x) = 0.01871 0.43623
# Poissons Ratio (y) = 0.01666 0.38093
# Poissons Ratio (z) = 0.33004 0.32365
#
# Static dielectric constant tensor:
#      x y z
#    x 3.136060 0.000000 0.000000 
#    y 0.000000 3.305540 0.000000 
#    z 0.000000 0.000000 2.814130 
# 
# 
# High freq. dielectric constant tensor:
#      x y z
#    x 1.628300 0.000000 0.000000 
#    y 0.000000 1.623360 0.000000 
#    z 0.000000 0.000000 1.562650 
# 
# From -- ./inp_files/19120.got.cif
#   From: 2010.03.12/outbox.cif.g09.slc.cpg/sg55_10_cif.got.tgz:19120.got - 2010.04.16 15:19:21.
