data_PCOD8224338
_publ_section_title
;
Structure prediction by ZEFSAII (Michael W. Deem and Ramdas Pophale) SiO2 
 PCOD8224338
Probable space group: P B A M
;
_chemical_formula_sum "Si O2"
_cell_formula_units_Z 52
_cell_length_a 18.272976
_cell_length_b 13.073567
_cell_length_c 10.971870
_cell_angle_alpha 90.000000
_cell_angle_beta 90.000000
_cell_angle_gamma 90.000000
_cell_volume 2621.102677
_symmetry_space_group_name_H-M "P B A M"
_symmetry_group_IT_number 55
_symmetry_cell_setting 'orthorhombic'
loop_
_space_group_symop_operation_xyz
x,y,z
-x,-y,z
1/2+x,1/2-y,-z
1/2-x,1/2+y,-z
-x,-y,-z
x,y,-z
1/2-x,1/2+y,z
1/2+x,1/2-y,z
loop_
_atom_site_type_symbol
_atom_site_label
_atom_site_fract_x
_atom_site_fract_y
_atom_site_fract_z
Si Si1 0.325454 0.403891 0.239449
Si Si2 0.041218 0.398742 0.141469
Si Si3 0.014266 0.843247 0.500000
Si Si4 0.528779 0.700922 0.765593
Si Si5 0.387501 0.605928 0.860970
Si Si6 0.675748 0.199009 0.756636
Si Si7 0.650261 0.533276 0.500000
Si Si8 0.154451 0.192669 0.500000
O O1 0.394172 0.341341 0.185820
O O2 0.334917 0.519433 0.193420
O O3 0.251026 0.350409 0.196912
O O4 0.320229 0.404649 0.384860
O O5 0.112468 0.386261 0.227192
O O6 0.000000 0.500000 0.185257
O O7 0.986801 0.303575 0.160321
O O8 0.064049 0.405717 0.000000
O O9 0.035296 0.778448 0.379208
O O10 0.060267 0.951758 0.500000
O O11 0.927503 0.851868 0.500000
O O12 0.464169 0.616868 0.787585
O O13 0.341836 0.710251 0.850306
O O14 0.406605 0.582566 0.000000
O O15 0.675567 0.241302 0.618151
O O16 0.689291 0.420966 0.500000
#
# Coordination Sequence:
#
# PCOD8224338 Si02
#       8
#     8   8   4   8   8   8   4   4
#     4  11  23  38  61  91 121 153 194 248 302 358
#     4  10  22  42  63  82 115 164 208 242 286 349
#     4  10  17  32  64  92 114 151 192 236 292 359
#     4  10  20  38  62  91 119 148 199 250 299 356
#     4  11  23  39  59  85 119 159 201 245 297 351
#     4  11  23  39  61  89 122 158 196 244 302 356
#     4  10  20  37  59  92 121 152 193 238 303 363
#     4  12  18  37  65  86 121 158 187 241 305 356
#
# _framework density 19.838977
#
# number of rings (size 3 to 8) (size 9 to 14) (size 15 to 20)
#    0.000    1.385    4.615    3.000    0.000    6.769 
#    0.000    3.077    0.000    0.000    0.000    0.000 
#    0.000    0.000    0.000    0.000    0.000    0.000 
#
# Total GULP energy -644518.170866 kJ/mol
# GULP energy per Si atom -12394.580209 kJ/mol
# Density = 1.979382 g / cm^3
# Si number density = 19.838977 Si / 1000 Ang^3
#
#
#
# Elastic Constant Matrix: (Units=GPa)
#
#
# Indices 1 2 3 4 5 6 
#
# 1 142.1028 71.0113 14.8830 0.0000 0.0000 0.0000
# 2 71.0113 88.9796 9.2129 0.0000 0.0000 0.0000
# 3 14.8830 9.2129 73.0187 0.0000 0.0000 0.0000
# 4 0.0000 0.0000 0.0000 28.6179 0.0000 0.0000
# 5 0.0000 0.0000 0.0000 0.0000 9.1488 0.0000
# 6 0.0000 0.0000 0.0000 0.0000 0.0000 33.9072
#
#
#
# Elastic Compliance Matrix: (Units=1/GPa)
#
#
# Indices 1 2 3 4 5 6 
#
# 1 0.011814 -0.009301 -0.001235 0.000000 0.000000 0.000000
# 2 -0.009301 0.018709 -0.000465 0.000000 0.000000 0.000000
# 3 -0.001235 -0.000465 0.014005 0.000000 0.000000 0.000000
# 4 0.000000 0.000000 0.000000 0.034943 0.000000 0.000000
# 5 0.000000 0.000000 0.000000 0.000000 0.109304 0.000000
# 6 0.000000 0.000000 0.000000 0.000000 0.000000 0.029492
#
#
# Mechanical properties :
#
#
# Convention : Reuss Voigt Hill
#
# Bulk Modulus (GPa) = 44.38794 54.92395 49.65594
# Shear Modulus (GPa) = 20.17941 28.26771 24.22356
#
# Velocity S-wave (km/s) = 3.19275 3.77882 3.49808
# Velocity P-wave (km/s) = 6.00119 6.83991 6.43423
#
# Compressibility (1/GPa) = 0.02252864
#
# Stress axis : x y z
#
# Youngs Moduli (GPa) = 84.64435 53.44983 71.40102
#
# Poissons Ratio (x) = 0.49712 0.08815
# Poissons Ratio (y) = 0.78724 0.03319
# Poissons Ratio (z) = 0.10450 0.02485
#
# Static dielectric constant tensor:
#      x y z
#    x 3.546610 0.000000 0.000000 
#    y 0.000000 3.506740 0.000000 
#    z 0.000000 0.000000 3.642240 
# 
# 
# High freq. dielectric constant tensor:
#      x y z
#    x 1.759840 0.000000 0.000000 
#    y 0.000000 1.762300 0.000000 
#    z 0.000000 0.000000 1.779680 
# 
# From -- ./inp_files/14914.got.cif
#   From: 2010.03.12/outbox.cif.g09.slc.cpg/sg55_8_cif.got.tgz:14914.got - 2010.04.16 15:19:21.
