data_PCOD8224265
_publ_section_title
;
Structure prediction by ZEFSAII (Michael W. Deem and Ramdas Pophale) SiO2 
 PCOD8224265
Probable space group: P B A M
;
_chemical_formula_sum "Si O2"
_cell_formula_units_Z 48
_cell_length_a 8.936963
_cell_length_b 30.973792
_cell_length_c 8.615855
_cell_angle_alpha 90.000000
_cell_angle_beta 90.000000
_cell_angle_gamma 90.000000
_cell_volume 2384.968893
_symmetry_space_group_name_H-M "P B A M"
_symmetry_group_IT_number 55
_symmetry_cell_setting 'orthorhombic'
loop_
_space_group_symop_operation_xyz
x,y,z
-x,-y,z
1/2+x,1/2-y,-z
1/2-x,1/2+y,-z
-x,-y,-z
x,y,-z
1/2-x,1/2+y,z
1/2+x,1/2-y,z
loop_
_atom_site_type_symbol
_atom_site_label
_atom_site_fract_x
_atom_site_fract_y
_atom_site_fract_z
Si Si1 0.166675 0.963975 0.820969
Si Si2 0.846545 0.951511 0.320022
Si Si3 0.730469 0.629052 0.178439
Si Si4 0.714650 0.778760 0.181680
Si Si5 0.399242 0.795651 0.679478
Si Si6 0.614603 0.364022 0.181895
O O1 0.271464 0.921806 0.798304
O O2 0.021316 0.957131 0.715563
O O3 0.243367 0.009066 0.766148
O O4 0.116393 0.966840 0.000000
O O5 0.811780 0.955004 0.500000
O O6 0.797964 0.904208 0.260437
O O7 0.840920 0.656166 0.286335
O O8 0.559221 0.637661 0.229826
O O9 0.753025 0.643197 0.000000
O O10 0.768017 0.737529 0.278083
O O11 0.540758 0.785554 0.213994
O O12 0.807695 0.820242 0.239116
O O13 0.738638 0.770059 0.000000
O O14 0.443106 0.791893 0.500000
O O15 0.632137 0.370547 0.000000
#
# Coordination Sequence:
#
# PCOD8224265 Si02
#       6
#     8   8   8   8   8   8
#     4   9  16  28  47  71 104 143 184 225 260 308
#     4  10  17  25  44  75 110 142 174 219 273 321
#     4   9  18  34  56  81 109 145 187 226 268 322
#     4  11  23  41  63  82 107 146 188 224 265 329
#     4  12  25  39  58  85 115 142 175 227 283 328
#     4   9  19  35  56  80 106 142 186 227 265 314
#
# _framework density 20.126051
#
# number of rings (size 3 to 8) (size 9 to 14) (size 15 to 20)
#    0.000    2.000    0.000    7.000    0.000    6.000 
#    0.000    0.000    0.000    1.000    0.000    7.000 
#    0.000    0.000    0.000    0.000    0.000    0.000 
#
# Total GULP energy -595116.133101 kJ/mol
# GULP energy per Si atom -12398.252773 kJ/mol
# Density = 2.008024 g / cm^3
# Si number density = 20.126051 Si / 1000 Ang^3
#
#
#
# Elastic Constant Matrix: (Units=GPa)
#
#
# Indices 1 2 3 4 5 6 
#
# 1 35.1627 -4.3043 3.4065 0.0000 0.0000 0.0000
# 2 -4.3043 75.9950 27.6452 0.0000 0.0000 0.0000
# 3 3.4065 27.6452 67.8083 0.0000 0.0000 0.0000
# 4 0.0000 0.0000 0.0000 31.0848 0.0000 0.0000
# 5 0.0000 0.0000 0.0000 0.0000 18.1913 0.0000
# 6 0.0000 0.0000 0.0000 0.0000 0.0000 24.0098
#
#
#
# Elastic Compliance Matrix: (Units=1/GPa)
#
#
# Indices 1 2 3 4 5 6 
#
# 1 0.028993 0.002550 -0.002496 0.000000 0.000000 0.000000
# 2 0.002550 0.015675 -0.006519 0.000000 0.000000 0.000000
# 3 -0.002496 -0.006519 0.017530 0.000000 0.000000 0.000000
# 4 0.000000 0.000000 0.000000 0.032170 0.000000 0.000000
# 5 0.000000 0.000000 0.000000 0.000000 0.054971 0.000000
# 6 0.000000 0.000000 0.000000 0.000000 0.000000 0.041650
#
#
# Mechanical properties :
#
#
# Convention : Reuss Voigt Hill
#
# Bulk Modulus (GPa) = 20.29672 25.82897 23.06285
# Shear Modulus (GPa) = 22.69206 24.80509 23.74857
#
# Velocity S-wave (km/s) = 3.36146 3.51449 3.43883
# Velocity P-wave (km/s) = 5.01723 5.41574 5.22029
#
# Compressibility (1/GPa) = 0.04926904
#
# Stress axis : x y z
#
# Youngs Moduli (GPa) = 34.49080 63.79787 57.04362
#
# Poissons Ratio (x) = -0.16270 0.14240
# Poissons Ratio (y) = -0.08796 0.37184
# Poissons Ratio (z) = 0.08610 0.41587
#
# Static dielectric constant tensor:
#      x y z
#    x 3.163890 0.000000 0.000000 
#    y 0.000000 4.364330 0.000000 
#    z 0.000000 0.000000 3.504740 
# 
# 
# High freq. dielectric constant tensor:
#      x y z
#    x 1.728710 0.000000 0.000000 
#    y 0.000000 1.815190 0.000000 
#    z 0.000000 0.000000 1.782290 
# 
# From -- ./inp_files/2897.got.cif
#   From: 2010.03.12/outbox.cif.g09.slc.cpg/sg55_2_cif.got.tgz:2897.got - 2010.04.16 15:19:21.
