data_PCOD8224486
_publ_section_title
;
Structure prediction by ZEFSAII (Michael W. Deem and Ramdas Pophale) SiO2 
 PCOD8224486
Probable space group: P B A M
;
_chemical_formula_sum "Si O2"
_cell_formula_units_Z 48
_cell_length_a 16.571609
_cell_length_b 18.492481
_cell_length_c 8.405758
_cell_angle_alpha 90.000000
_cell_angle_beta 90.000000
_cell_angle_gamma 90.000000
_cell_volume 2575.945922
_symmetry_space_group_name_H-M "P B A M"
_symmetry_group_IT_number 55
_symmetry_cell_setting 'orthorhombic'
loop_
_space_group_symop_operation_xyz
x,y,z
-x,-y,z
1/2+x,1/2-y,-z
1/2-x,1/2+y,-z
-x,-y,-z
x,y,-z
1/2-x,1/2+y,z
1/2+x,1/2-y,z
loop_
_atom_site_type_symbol
_atom_site_label
_atom_site_fract_x
_atom_site_fract_y
_atom_site_fract_z
Si Si1 0.338002 0.341137 0.684233
Si Si2 0.569491 0.287605 0.315158
Si Si3 0.166877 0.331629 0.188292
Si Si4 0.987485 0.579581 0.811013
Si Si5 0.582112 0.787774 0.817453
Si Si6 0.506152 0.581655 0.813534
O O1 0.344389 0.359245 0.500000
O O2 0.250945 0.363819 0.750045
O O3 0.351440 0.254634 0.713124
O O4 0.405259 0.387057 0.776167
O O5 0.549288 0.275084 0.500000
O O6 0.653032 0.248062 0.267441
O O7 0.503022 0.252577 0.199776
O O8 0.565254 0.373101 0.275240
O O9 0.096767 0.386109 0.249400
O O10 0.168559 0.323858 0.000000
O O11 0.000000 0.500000 0.735950
O O12 0.064609 0.629564 0.760934
O O13 0.983830 0.575271 0.000000
O O14 0.610463 0.785211 0.000000
O O15 0.500000 0.500000 0.749695
O O16 0.489891 0.584920 0.000000
#
# Coordination Sequence:
#
# PCOD8224486 Si02
#       6
#     8   8   8   8   8   8
#     4  11  21  33  51  74 102 133 169 215 262 303
#     4  10  18  30  50  74 100 128 163 206 250 298
#     4  10  19  33  53  74 100 133 171 213 255 305
#     4   8  15  29  51  77 100 126 162 203 246 294
#     4   9  16  29  50  72  96 128 165 201 240 296
#     4  10  20  35  55  77 102 135 174 210 251 310
#
# _framework density 18.633932000000001
#
# number of rings (size 3 to 8) (size 9 to 14) (size 15 to 20)
#    0.000    2.333    0.000    7.500    0.000    1.333 
#    0.000    1.667    0.000   26.000    0.000    0.000 
#    0.000    0.000    0.000    0.000    0.000    0.000 
#
# Total GULP energy -594871.560582 kJ/mol
# GULP energy per Si atom -12393.157512 kJ/mol
# Density = 1.859152 g / cm^3
# Si number density = 18.633932 Si / 1000 Ang^3
#
#
#
# Elastic Constant Matrix: (Units=GPa)
#
#
# Indices 1 2 3 4 5 6 
#
# 1 76.0945 33.1002 7.8073 0.0000 0.0000 0.0000
# 2 33.1002 129.4279 16.3178 0.0000 0.0000 0.0000
# 3 7.8073 16.3178 55.3562 0.0000 0.0000 0.0000
# 4 0.0000 0.0000 0.0000 8.1703 0.0000 0.0000
# 5 0.0000 0.0000 0.0000 0.0000 19.2502 0.0000
# 6 0.0000 0.0000 0.0000 0.0000 0.0000 20.0910
#
#
#
# Elastic Compliance Matrix: (Units=1/GPa)
#
#
# Indices 1 2 3 4 5 6 
#
# 1 0.014841 -0.003668 -0.001012 0.000000 0.000000 0.000000
# 2 -0.003668 0.008931 -0.002115 0.000000 0.000000 0.000000
# 3 -0.001012 -0.002115 0.018831 0.000000 0.000000 0.000000
# 4 0.000000 0.000000 0.000000 0.122394 0.000000 0.000000
# 5 0.000000 0.000000 0.000000 0.000000 0.051948 0.000000
# 6 0.000000 0.000000 0.000000 0.000000 0.000000 0.049774
#
#
# Mechanical properties :
#
#
# Convention : Reuss Voigt Hill
#
# Bulk Modulus (GPa) = 34.46766 41.70325 38.08545
# Shear Modulus (GPa) = 17.24259 23.07917 20.16088
#
# Velocity S-wave (km/s) = 3.04523 3.52313 3.29286
# Velocity P-wave (km/s) = 5.55895 6.24330 5.91104
#
# Compressibility (1/GPa) = 0.02901271
#
# Stress axis : x y z
#
# Youngs Moduli (GPa) = 67.38162 111.96914 53.10361
#
# Poissons Ratio (x) = 0.41069 0.05374
# Poissons Ratio (y) = 0.24715 0.11233
# Poissons Ratio (z) = 0.06818 0.23686
#
# Static dielectric constant tensor:
#      x y z
#    x 3.371990 0.000000 0.000000 
#    y 0.000000 3.915850 0.000000 
#    z 0.000000 0.000000 3.233040 
# 
# 
# High freq. dielectric constant tensor:
#      x y z
#    x 1.696950 0.000000 0.000000 
#    y 0.000000 1.717460 0.000000 
#    z 0.000000 0.000000 1.719250 
# 
# From -- ./inp_files/7767.got.cif
#   From: 2010.03.12/outbox.cif.g09.slc.cpg/sg55_4_cif.got.tgz:7767.got - 2010.04.16 15:19:21.
