data_PCOD8224149
_publ_section_title
;
Structure prediction by ZEFSAII (Michael W. Deem and Ramdas Pophale) SiO2 
 PCOD8224149
Probable space group: P C C A
;
_chemical_formula_sum "Si O2"
_cell_formula_units_Z 32
_cell_length_a 7.282042
_cell_length_b 7.268653
_cell_length_c 29.798376
_cell_angle_alpha 90.000000
_cell_angle_beta 90.000000
_cell_angle_gamma 90.000000
_cell_volume 1577.247006
_symmetry_space_group_name_H-M "P C C A"
_symmetry_group_IT_number 54
_symmetry_cell_setting 'orthorhombic'
loop_
_space_group_symop_operation_xyz
x,y,z
1/2-x,-y,z
1/2+x,-y,1/2-z
-x,y,1/2-z
-x,-y,-z
1/2+x,y,-z
1/2-x,y,1/2+z
x,-y,1/2+z
loop_
_atom_site_type_symbol
_atom_site_label
_atom_site_fract_x
_atom_site_fract_y
_atom_site_fract_z
Si Si1 0.098575 0.853831 0.358053
Si Si2 0.612801 0.647644 0.558769
Si Si3 0.250000 0.000000 0.692471
Si Si4 0.250000 0.500000 0.813418
Si Si5 0.000000 0.266230 0.250000
Si Si6 0.750000 0.500000 0.473430
O O1 0.107179 0.837682 0.412735
O O2 0.140023 0.649011 0.342012
O O3 0.899324 0.908635 0.340200
O O4 0.250000 0.000000 0.340997
O O5 0.750000 0.500000 0.582496
O O6 0.677814 0.667199 0.506415
O O7 0.407370 0.567717 0.559528
O O8 0.346889 0.145415 0.724945
O O9 0.401693 0.396806 0.784839
#
# Coordination Sequence:
#
# PCOD8224149 Si02
#       6
#     8   8   4   4   4   4
#     4  12  25  44  64  99 137 169 219 280 332 397
#     4   9  18  37  66  91 131 169 216 271 318 387
#     4  12  26  46  66 100 138 164 222 286 330 398
#     4  12  23  44  69  92 126 174 222 264 331 400
#     4  12  24  44  70  96 126 174 224 272 336 394
#     4   8  17  36  65 100 120 172 230 264 315 392
#
# _framework density 20.288513999999999
#
# number of rings (size 3 to 8) (size 9 to 14) (size 15 to 20)
#    0.750    0.500    3.750    3.000    0.000    4.000 
#    0.000    1.250    0.000    0.000    0.000    0.000 
#    0.000    0.000    0.000    0.000    0.000    0.000 
#
# Total GULP energy -396505.381842 kJ/mol
# GULP energy per Si atom -12390.793183 kJ/mol
# Density = 2.024234 g / cm^3
# Si number density = 20.288514 Si / 1000 Ang^3
#
#
#
# Elastic Constant Matrix: (Units=GPa)
#
#
# Indices 1 2 3 4 5 6 
#
# 1 167.6097 60.3104 43.5027 0.0000 0.0000 0.0000
# 2 60.3104 109.2052 46.0091 0.0000 0.0000 0.0000
# 3 43.5027 46.0091 73.4583 0.0000 0.0000 0.0000
# 4 0.0000 0.0000 0.0000 -9.4527 0.0000 0.0000
# 5 0.0000 0.0000 0.0000 0.0000 5.3246 0.0000
# 6 0.0000 0.0000 0.0000 0.0000 0.0000 40.4803
#
#
#
# Elastic Compliance Matrix: (Units=1/GPa)
#
#
# Indices 1 2 3 4 5 6 
#
# 1 0.007797 -0.003207 -0.002609 0.000000 0.000000 0.000000
# 2 -0.003207 0.013759 -0.006718 0.000000 0.000000 0.000000
# 3 -0.002609 -0.006718 0.019366 0.000000 0.000000 0.000000
# 4 0.000000 0.000000 0.000000 -0.105790 0.000000 0.000000
# 5 0.000000 0.000000 0.000000 0.000000 0.187808 0.000000
# 6 0.000000 0.000000 0.000000 0.000000 0.000000 0.024703
#
#
# Mechanical properties :
#
#
# Convention : Reuss Voigt Hill
#
# Bulk Modulus (GPa) = 63.07731 72.21308 67.64519
# Shear Modulus (GPa) = 28.09039 20.63384 24.36211
#
# Velocity S-wave (km/s) = 3.72499 3.19254 3.46899
# Velocity P-wave (km/s) = 7.04687 7.01855 7.03272
#
# Compressibility (1/GPa) = 0.01585356
#
# Stress axis : x y z
#
# Youngs Moduli (GPa) = 128.24809 72.68151 51.63666
#
# Poissons Ratio (x) = 0.23309 0.13472
# Poissons Ratio (y) = 0.41130 0.34691
# Poissons Ratio (z) = 0.33460 0.48829
#
# Static dielectric constant tensor:
#      x y z
#    x 3.802190 0.000000 0.000000 
#    y 0.000000 3.502870 0.000000 
#    z 0.000000 0.000000 3.739200 
# 
# 
# High freq. dielectric constant tensor:
#      x y z
#    x 1.811370 0.000000 0.000000 
#    y 0.000000 1.766040 0.000000 
#    z 0.000000 0.000000 1.799190 
# 
# From -- ./inp_files/27533.got.cif
#   From: 2010.03.12/outbox.cif.g09.slc.cpg/sg54_14_cif.got.tgz:27533.got - 2010.04.16 15:00:50.
