data_PCOD8224315
_publ_section_title
;
Structure prediction by ZEFSAII (Michael W. Deem and Ramdas Pophale) SiO2 
 PCOD8224315
Probable space group: P B A M
;
_chemical_formula_sum "Si O2"
_cell_formula_units_Z 64
_cell_length_a 18.786406
_cell_length_b 10.083917
_cell_length_c 19.456401
_cell_angle_alpha 90.000000
_cell_angle_beta 90.000000
_cell_angle_gamma 90.000000
_cell_volume 3685.831478
_symmetry_space_group_name_H-M "P B A M"
_symmetry_group_IT_number 55
_symmetry_cell_setting 'orthorhombic'
loop_
_space_group_symop_operation_xyz
x,y,z
-x,-y,z
1/2+x,1/2-y,-z
1/2-x,1/2+y,-z
-x,-y,-z
x,y,-z
1/2-x,1/2+y,z
1/2+x,1/2-y,z
loop_
_atom_site_type_symbol
_atom_site_label
_atom_site_fract_x
_atom_site_fract_y
_atom_site_fract_z
Si Si1 0.424224 0.835463 0.920980
Si Si2 0.843828 0.756384 0.792983
Si Si3 0.412243 0.139920 0.077615
Si Si4 0.333250 0.000441 0.285870
Si Si5 0.175418 0.741317 0.805544
Si Si6 0.685699 0.908121 0.425771
Si Si7 0.680750 0.600927 0.425281
Si Si8 0.663801 0.516026 0.283425
O O1 0.382880 0.742865 0.866714
O O2 0.506937 0.829435 0.901102
O O3 0.395194 0.984628 0.912681
O O4 0.411835 0.787378 0.000000
O O5 0.866553 0.632581 0.745422
O O6 0.760365 0.757844 0.809214
O O7 0.868147 0.881228 0.747221
O O8 0.356851 0.230543 0.118735
O O9 0.399968 0.182967 0.000000
O O10 0.248462 0.991348 0.291297
O O11 0.355924 0.117792 0.235987
O O12 0.362347 0.034526 0.362911
O O13 0.143591 0.871855 0.770983
O O14 0.645563 0.917257 0.500000
O O15 0.706496 0.753296 0.410903
O O16 0.754745 0.999100 0.430728
O O17 0.640433 0.596012 0.500000
O O18 0.632946 0.552393 0.359848
#
# Coordination Sequence:
#
# PCOD8224315 Si02
#       8
#     8   8   8   8   8   8   8   8
#     4   9  18  34  53  73  95 123 160 201 241 284
#     4  10  19  30  48  70  98 128 159 195 242 285
#     4   9  18  33  54  74  94 123 161 201 239 283
#     4   9  16  27  42  63  91 126 160 196 231 277
#     4  10  17  30  48  70  97 125 159 194 236 284
#     4   9  16  24  36  57  89 128 163 194 235 285
#     4   9  16  25  37  57  89 129 164 193 233 285
#     4   9  18  27  40  66  95 127 156 195 242 279
#
# _framework density 17.363789000000001
#
# number of rings (size 3 to 8) (size 9 to 14) (size 15 to 20)
#    0.000    2.750    2.500    0.750    5.250    0.500 
#    0.000    1.250    0.000    1.500    0.000    0.000 
#    0.000    6.000    0.000    0.000    0.000    0.000 
#
# Total GULP energy -792845.483810 kJ/mol
# GULP energy per Si atom -12388.210685 kJ/mol
# Density = 1.732427 g / cm^3
# Si number density = 17.363789 Si / 1000 Ang^3
#
#
#
# Elastic Constant Matrix: (Units=GPa)
#
#
# Indices 1 2 3 4 5 6 
#
# 1 21.1831 18.1314 32.5084 0.0000 0.0000 0.0000
# 2 18.1314 119.3210 61.9775 0.0000 0.0000 0.0000
# 3 32.5084 61.9775 150.3702 0.0000 0.0000 0.0000
# 4 0.0000 0.0000 0.0000 33.9498 0.0000 0.0000
# 5 0.0000 0.0000 0.0000 0.0000 2.9624 0.0000
# 6 0.0000 0.0000 0.0000 0.0000 0.0000 11.0485
#
#
#
# Elastic Compliance Matrix: (Units=1/GPa)
#
#
# Indices 1 2 3 4 5 6 
#
# 1 0.071858 -0.003626 -0.014040 0.000000 0.000000 0.000000
# 2 -0.003626 0.010847 -0.003687 0.000000 0.000000 0.000000
# 3 -0.014040 -0.003687 0.011205 0.000000 0.000000 0.000000
# 4 0.000000 0.000000 0.000000 0.029455 0.000000 0.000000
# 5 0.000000 0.000000 0.000000 0.000000 0.337569 0.000000
# 6 0.000000 0.000000 0.000000 0.000000 0.000000 0.090510
#
#
# Mechanical properties :
#
#
# Convention : Reuss Voigt Hill
#
# Bulk Modulus (GPa) = 19.52995 57.34545 38.43770
# Shear Modulus (GPa) = 8.18037 21.47593 14.82815
#
# Velocity S-wave (km/s) = 2.17288 3.52066 2.92545
# Velocity P-wave (km/s) = 4.19132 7.04446 5.79618
#
# Compressibility (1/GPa) = 0.05120341
#
# Stress axis : x y z
#
# Youngs Moduli (GPa) = 13.91627 92.19377 89.24472
#
# Poissons Ratio (x) = 0.33433 1.25303
# Poissons Ratio (y) = 0.05047 0.32902
# Poissons Ratio (z) = 0.19539 0.33989
#
# Static dielectric constant tensor:
#      x y z
#    x 2.555710 0.000000 0.000000 
#    y 0.000000 3.363620 0.000000 
#    z 0.000000 0.000000 3.821040 
# 
# 
# High freq. dielectric constant tensor:
#      x y z
#    x 1.589550 0.000000 0.000000 
#    y 0.000000 1.675490 0.000000 
#    z 0.000000 0.000000 1.699200 
# 
# From -- ./inp_files/22040.got.cif
#   From: 2010.03.12/outbox.cif.g09.slc.cpg/sg55_12_cif.got.tgz:22040.got - 2010.04.16 15:19:21.
