data_PCOD8224786
_publ_section_title
;
Structure prediction by ZEFSAII (Michael W. Deem and Ramdas Pophale) SiO2 
 PCOD8224786
Probable space group: P B A M
;
_chemical_formula_sum "Si O2"
_cell_formula_units_Z 64
_cell_length_a 14.398358
_cell_length_b 18.664890
_cell_length_c 13.569002
_cell_angle_alpha 90.000000
_cell_angle_beta 90.000000
_cell_angle_gamma 90.000000
_cell_volume 3646.584729
_symmetry_space_group_name_H-M "P B A M"
_symmetry_group_IT_number 55
_symmetry_cell_setting 'orthorhombic'
loop_
_space_group_symop_operation_xyz
x,y,z
-x,-y,z
1/2+x,1/2-y,-z
1/2-x,1/2+y,-z
-x,-y,-z
x,y,-z
1/2-x,1/2+y,z
1/2+x,1/2-y,z
loop_
_atom_site_type_symbol
_atom_site_label
_atom_site_fract_x
_atom_site_fract_y
_atom_site_fract_z
Si Si1 0.845747 0.991280 0.110077
Si Si2 0.727494 0.423553 0.386457
Si Si3 0.502740 0.614928 0.890462
Si Si4 0.388409 0.175649 0.385433
Si Si5 0.528952 0.424741 0.386276
Si Si6 0.396584 0.325206 0.285165
Si Si7 0.555732 0.072802 0.612873
Si Si8 0.759030 0.560444 0.719492
O O1 0.901900 0.918286 0.139044
O O2 0.920630 0.053677 0.111880
O O3 0.760417 0.010515 0.183577
O O4 0.803850 0.983239 0.000000
O O5 0.736596 0.406660 0.500000
O O6 0.812519 0.379325 0.339403
O O7 0.627951 0.397854 0.343289
O O8 0.732518 0.509283 0.371775
O O9 0.537835 0.674119 0.812263
O O10 0.497291 0.649100 0.000000
O O11 0.370618 0.195484 0.500000
O O12 0.378297 0.244868 0.317256
O O13 0.489338 0.140945 0.373192
O O14 0.500000 0.500000 0.333211
O O15 0.544353 0.440986 0.500000
O O16 0.451697 0.365132 0.371880
O O17 0.298816 0.366182 0.272232
O O18 0.595241 0.072202 0.500000
O O19 0.634124 0.081161 0.697704
O O20 0.500000 0.000000 0.631800
#
# Coordination Sequence:
#
# PCOD8224786 Si02
#       8
#     8   8   8   8   8   8   8   8
#     4   8  15  28  49  80 109 131 166 217 262 309
#     4  10  19  32  50  72  99 135 177 216 258 312
#     4   8  15  29  50  75 107 141 168 204 261 324
#     4  10  22  37  50  71 105 140 178 225 264 303
#     4  10  19  29  45  72 107 139 165 202 263 328
#     4  11  21  31  50  79 110 133 169 216 272 322
#     4  10  20  36  56  74  97 139 189 223 251 303
#     4  11  19  30  55  79  97 134 181 220 258 314
#
# _framework density 17.550668999999999
#
# number of rings (size 3 to 8) (size 9 to 14) (size 15 to 20)
#    0.000    2.250    2.500    2.250    1.750    2.500 
#    0.000    2.500    0.000    1.875    0.000    5.250 
#    0.000    0.000    0.000    0.000    0.000    0.000 
#
# Total GULP energy -792885.994038 kJ/mol
# GULP energy per Si atom -12388.843657 kJ/mol
# Density = 1.751072 g / cm^3
# Si number density = 17.550669 Si / 1000 Ang^3
#
#
#
# Elastic Constant Matrix: (Units=GPa)
#
#
# Indices 1 2 3 4 5 6 
#
# 1 100.8556 28.6312 53.1826 0.0000 0.0000 0.0000
# 2 28.6312 79.1729 36.4989 0.0000 0.0000 0.0000
# 3 53.1826 36.4989 81.9881 0.0000 0.0000 0.0000
# 4 0.0000 0.0000 0.0000 19.6067 0.0000 0.0000
# 5 0.0000 0.0000 0.0000 0.0000 24.5654 0.0000
# 6 0.0000 0.0000 0.0000 0.0000 0.0000 20.3883
#
#
#
# Elastic Compliance Matrix: (Units=1/GPa)
#
#
# Indices 1 2 3 4 5 6 
#
# 1 0.015159 -0.001194 -0.009302 0.000000 0.000000 0.000000
# 2 -0.001194 0.015986 -0.006342 0.000000 0.000000 0.000000
# 3 -0.009302 -0.006342 0.021054 0.000000 0.000000 0.000000
# 4 0.000000 0.000000 0.000000 0.051003 0.000000 0.000000
# 5 0.000000 0.000000 0.000000 0.000000 0.040708 0.000000
# 6 0.000000 0.000000 0.000000 0.000000 0.000000 0.049048
#
#
# Mechanical properties :
#
#
# Convention : Reuss Voigt Hill
#
# Bulk Modulus (GPa) = 53.98498 55.40468 54.69483
# Shear Modulus (GPa) = 21.47702 22.49233 21.98468
#
# Velocity S-wave (km/s) = 3.50196 3.58378 3.54311
# Velocity P-wave (km/s) = 6.86862 6.98295 6.92602
#
# Compressibility (1/GPa) = 0.01852367
#
# Stress axis : x y z
#
# Youngs Moduli (GPa) = 65.96774 62.55445 47.49731
#
# Poissons Ratio (x) = 0.07468 0.44180
# Poissons Ratio (y) = 0.07876 0.30124
# Poissons Ratio (z) = 0.61360 0.39673
#
# Static dielectric constant tensor:
#      x y z
#    x 3.427080 0.000000 0.000000 
#    y 0.000000 2.981180 0.000000 
#    z 0.000000 0.000000 3.431420 
# 
# 
# High freq. dielectric constant tensor:
#      x y z
#    x 1.673570 0.000000 0.000000 
#    y 0.000000 1.646860 0.000000 
#    z 0.000000 0.000000 1.664330 
# 
# From -- ./inp_files/19114.got.cif
#   From: 2010.03.12/outbox.cif.g09.slc.cpg/sg55_10_cif.got.tgz:19114.got - 2010.04.16 15:19:21.
