data_PCOD8224928
_publ_section_title
;
Structure prediction by ZEFSAII (Michael W. Deem and Ramdas Pophale) SiO2 
 PCOD8224928
Probable space group: P B A M
;
_chemical_formula_sum "Si O2"
_cell_formula_units_Z 56
_cell_length_a 14.107322
_cell_length_b 23.227394
_cell_length_c 8.620195
_cell_angle_alpha 90.000000
_cell_angle_beta 90.000000
_cell_angle_gamma 90.000000
_cell_volume 2824.633830
_symmetry_space_group_name_H-M "P B A M"
_symmetry_group_IT_number 55
_symmetry_cell_setting 'orthorhombic'
loop_
_space_group_symop_operation_xyz
x,y,z
-x,-y,z
1/2+x,1/2-y,-z
1/2-x,1/2+y,-z
-x,-y,-z
x,y,-z
1/2-x,1/2+y,z
1/2+x,1/2-y,z
loop_
_atom_site_type_symbol
_atom_site_label
_atom_site_fract_x
_atom_site_fract_y
_atom_site_fract_z
Si Si1 0.790112 0.472757 0.682674
Si Si2 0.602699 0.876811 0.178918
Si Si3 0.594374 0.530509 0.315604
Si Si4 0.993385 0.269088 0.315687
Si Si5 0.885466 0.159630 0.684471
Si Si6 0.901556 0.571077 0.178318
Si Si7 0.317913 0.821788 0.320169
O O1 0.801756 0.480547 0.500000
O O2 0.808223 0.406192 0.731456
O O3 0.686354 0.494176 0.738256
O O4 0.872489 0.507068 0.773384
O O5 0.582974 0.813512 0.246779
O O6 0.512315 0.918098 0.205164
O O7 0.629531 0.870292 0.000000
O O8 0.500000 0.500000 0.248917
O O9 0.589935 0.532524 0.500000
O O10 0.597193 0.595737 0.247164
O O11 0.990998 0.276791 0.500000
O O12 0.968261 0.203776 0.266062
O O13 0.098699 0.282152 0.245911
O O14 0.878073 0.154288 0.500000
O O15 0.787180 0.187661 0.749399
O O16 0.841349 0.611683 0.291428
O O17 0.874628 0.583118 0.000000
O O18 0.316168 0.808018 0.500000
#
# Coordination Sequence:
#
# PCOD8224928 Si02
#       7
#     8   8   8   8   8   8   8
#     4  11  20  32  53  80 106 137 173 216 265 315
#     4  10  21  35  50  74 111 143 170 213 263 318
#     4   9  18  33  53  80 108 135 174 223 270 315
#     4   9  18  32  52  78 104 136 177 221 266 314
#     4   9  16  31  53  77 105 134 171 221 267 310
#     4  10  19  31  50  76 104 139 176 210 259 319
#     4   9  16  30  51  75 103 135 175 220 265 316
#
# _framework density 19.825579000000001
#
# number of rings (size 3 to 8) (size 9 to 14) (size 15 to 20)
#    0.000    2.429    1.429    1.714    0.000    3.429 
#    2.571    0.714    0.000    1.714    0.000    0.000 
#    0.000    0.000    0.000    0.000    0.000    0.000 
#
# Total GULP energy -694035.313079 kJ/mol
# GULP energy per Si atom -12393.487734 kJ/mol
# Density = 1.978046 g / cm^3
# Si number density = 19.825579 Si / 1000 Ang^3
#
#
#
# Elastic Constant Matrix: (Units=GPa)
#
#
# Indices 1 2 3 4 5 6 
#
# 1 96.6764 73.4844 22.7550 0.0000 0.0000 0.0000
# 2 73.4844 111.7516 12.4672 0.0000 0.0000 0.0000
# 3 22.7550 12.4672 27.9168 0.0000 0.0000 0.0000
# 4 0.0000 0.0000 0.0000 10.4653 0.0000 0.0000
# 5 0.0000 0.0000 0.0000 0.0000 9.9970 0.0000
# 6 0.0000 0.0000 0.0000 0.0000 0.0000 27.0680
#
#
#
# Elastic Compliance Matrix: (Units=1/GPa)
#
#
# Indices 1 2 3 4 5 6 
#
# 1 0.024773 -0.014773 -0.013595 0.000000 0.000000 0.000000
# 2 -0.014773 0.018228 0.003902 0.000000 0.000000 0.000000
# 3 -0.013595 0.003902 0.045160 0.000000 0.000000 0.000000
# 4 0.000000 0.000000 0.000000 0.095554 0.000000 0.000000
# 5 0.000000 0.000000 0.000000 0.000000 0.100030 0.000000
# 6 0.000000 0.000000 0.000000 0.000000 0.000000 0.036944
#
#
# Mechanical properties :
#
#
# Convention : Reuss Voigt Hill
#
# Bulk Modulus (GPa) = 25.49270 50.41755 37.95513
# Shear Modulus (GPa) = 13.06517 18.01528 15.54023
#
# Velocity S-wave (km/s) = 2.56990 3.01772 2.80276
# Velocity P-wave (km/s) = 4.65749 6.13416 5.44611
#
# Compressibility (1/GPa) = 0.03922691
#
# Stress axis : x y z
#
# Youngs Moduli (GPa) = 40.36664 54.86192 22.14361
#
# Poissons Ratio (x) = 0.81049 0.30104
# Poissons Ratio (y) = 0.59635 -0.08640
# Poissons Ratio (z) = 0.54878 -0.21405
#
# Static dielectric constant tensor:
#      x y z
#    x 3.807790 0.000000 0.000000 
#    y 0.000000 3.596390 0.000000 
#    z 0.000000 0.000000 3.208640 
# 
# 
# High freq. dielectric constant tensor:
#      x y z
#    x 1.769600 0.000000 0.000000 
#    y 0.000000 1.766160 0.000000 
#    z 0.000000 0.000000 1.734770 
# 
# From -- ./inp_files/6050.got.cif
#   From: 2010.03.12/outbox.cif.g09.slc.cpg/sg55_4_cif.got.tgz:6050.got - 2010.04.16 15:19:21.
