data_PCOD8224005
_publ_section_title
;
Structure prediction by ZEFSAII (Michael W. Deem and Ramdas Pophale) SiO2 
 PCOD8224005
Probable space group: P C C A
;
_chemical_formula_sum "Si O2"
_cell_formula_units_Z 48
_cell_length_a 24.863724
_cell_length_b 9.560656
_cell_length_c 9.440140
_cell_angle_alpha 90.000000
_cell_angle_beta 90.000000
_cell_angle_gamma 90.000000
_cell_volume 2244.048834
_symmetry_space_group_name_H-M "P C C A"
_symmetry_group_IT_number 54
_symmetry_cell_setting 'orthorhombic'
loop_
_space_group_symop_operation_xyz
x,y,z
1/2-x,-y,z
1/2+x,-y,1/2-z
-x,y,1/2-z
-x,-y,-z
1/2+x,y,-z
1/2-x,y,1/2+z
x,-y,1/2+z
loop_
_atom_site_type_symbol
_atom_site_label
_atom_site_fract_x
_atom_site_fract_y
_atom_site_fract_z
Si Si1 0.103440 0.550263 0.554081
Si Si2 0.707815 0.386109 0.510574
Si Si3 0.354828 0.155230 0.626116
Si Si4 0.559854 0.663271 0.728325
Si Si5 0.136668 0.090322 0.813147
Si Si6 0.752681 0.784063 0.260482
O O1 0.149032 0.454332 0.481679
O O2 0.128935 0.682145 0.638333
O O3 0.068227 0.463290 0.663236
O O4 0.065126 0.606772 0.430946
O O5 0.750000 0.500000 0.560545
O O6 0.718846 0.340198 0.348730
O O7 0.716351 0.263124 0.625402
O O8 0.374862 0.088023 0.479546
O O9 0.289958 0.143103 0.634129
O O10 0.381222 0.059181 0.748882
O O11 0.500000 0.723278 0.750000
O O12 0.602496 0.786156 0.760148
O O13 0.200379 0.111723 0.787808
#
# Coordination Sequence:
#
# PCOD8224005 Si02
#       6
#     8   8   8   8   8   8
#     4  11  23  42  66  98 126 164 212 275 328 384
#     4  12  22  35  63  97 135 164 207 255 320 385
#     4  11  25  40  61  92 133 169 213 251 322 391
#     4  11  24  45  69  94 123 164 222 278 329 379
#     4  11  25  43  60  93 130 173 213 263 313 386
#     4  12  22  38  61  94 131 175 206 248 312 389
#
# _framework density 21.389907000000001
#
# number of rings (size 3 to 8) (size 9 to 14) (size 15 to 20)
#    0.000    0.667    5.000    3.500    2.333    2.667 
#    0.000    4.167    0.000    0.000    0.000    0.000 
#    0.000    0.000    0.000    0.000    0.000    0.000 
#
# Total GULP energy -595242.463607 kJ/mol
# GULP energy per Si atom -12400.884658 kJ/mol
# Density = 2.134122 g / cm^3
# Si number density = 21.389907 Si / 1000 Ang^3
#
#
#
# Elastic Constant Matrix: (Units=GPa)
#
#
# Indices 1 2 3 4 5 6 
#
# 1 84.4669 25.7056 17.7443 0.0000 0.0000 0.0000
# 2 25.7056 87.9973 33.1112 0.0000 0.0000 0.0000
# 3 17.7443 33.1112 67.9963 0.0000 0.0000 0.0000
# 4 0.0000 0.0000 0.0000 42.0625 0.0000 0.0000
# 5 0.0000 0.0000 0.0000 0.0000 18.5859 0.0000
# 6 0.0000 0.0000 0.0000 0.0000 0.0000 12.4008
#
#
#
# Elastic Compliance Matrix: (Units=1/GPa)
#
#
# Indices 1 2 3 4 5 6 
#
# 1 0.013195 -0.003133 -0.001918 0.000000 0.000000 0.000000
# 2 -0.003133 0.014657 -0.006320 0.000000 0.000000 0.000000
# 3 -0.001918 -0.006320 0.018285 0.000000 0.000000 0.000000
# 4 0.000000 0.000000 0.000000 0.023774 0.000000 0.000000
# 5 0.000000 0.000000 0.000000 0.000000 0.053804 0.000000
# 6 0.000000 0.000000 0.000000 0.000000 0.000000 0.080640
#
#
# Mechanical properties :
#
#
# Convention : Reuss Voigt Hill
#
# Bulk Modulus (GPa) = 42.74254 43.73140 43.23697
# Shear Modulus (GPa) = 21.28607 25.53647 23.41127
#
# Velocity S-wave (km/s) = 3.15802 3.45897 3.31191
# Velocity P-wave (km/s) = 5.77264 6.03671 5.90615
#
# Compressibility (1/GPa) = 0.02339589
#
# Stress axis : x y z
#
# Youngs Moduli (GPa) = 75.78468 68.22600 54.69073
#
# Poissons Ratio (x) = 0.21375 0.10489
# Poissons Ratio (y) = 0.23743 0.34564
# Poissons Ratio (z) = 0.14534 0.43118
#
# Static dielectric constant tensor:
#      x y z
#    x 3.602300 0.000000 0.000000 
#    y 0.000000 3.868970 0.000000 
#    z 0.000000 0.000000 3.895980 
# 
# 
# High freq. dielectric constant tensor:
#      x y z
#    x 1.811000 0.000000 0.000000 
#    y 0.000000 1.838400 0.000000 
#    z 0.000000 0.000000 1.848330 
# 
# From -- ./inp_files/5167.got.cif
#   From: 2010.03.12/outbox.cif.g09.slc.cpg/sg54_3_cif.got.tgz:5167.got - 2010.04.16 15:00:50.
