data_PCOD8224322
_publ_section_title
;
Structure prediction by ZEFSAII (Michael W. Deem and Ramdas Pophale) SiO2 
 PCOD8224322
Probable space group: P B A M
;
_chemical_formula_sum "Si O2"
_cell_formula_units_Z 64
_cell_length_a 23.923577
_cell_length_b 15.511143
_cell_length_c 8.724313
_cell_angle_alpha 90.000000
_cell_angle_beta 90.000000
_cell_angle_gamma 90.000000
_cell_volume 3237.435725
_symmetry_space_group_name_H-M "P B A M"
_symmetry_group_IT_number 55
_symmetry_cell_setting 'orthorhombic'
loop_
_space_group_symop_operation_xyz
x,y,z
-x,-y,z
1/2+x,1/2-y,-z
1/2-x,1/2+y,-z
-x,-y,-z
x,y,-z
1/2-x,1/2+y,z
1/2+x,1/2-y,z
loop_
_atom_site_type_symbol
_atom_site_label
_atom_site_fract_x
_atom_site_fract_y
_atom_site_fract_z
Si Si1 0.890938 0.919874 0.818369
Si Si2 0.695558 0.747644 0.181499
Si Si3 0.117445 0.599095 0.817856
Si Si4 0.614095 0.089498 0.177422
Si Si5 0.999198 0.328087 0.177579
Si Si6 0.877198 0.097973 0.681331
Si Si7 0.322975 0.745568 0.182399
Si Si8 0.499048 0.647772 0.680021
O O1 0.855529 0.838361 0.755375
O O2 0.954723 0.915712 0.759617
O O3 0.861968 0.005584 0.752802
O O4 0.890380 0.923370 0.000000
O O5 0.665032 0.835028 0.236537
O O6 0.668348 0.665551 0.261026
O O7 0.759085 0.756692 0.237011
O O8 0.690504 0.735651 0.000000
O O9 0.130089 0.503602 0.749707
O O10 0.057842 0.632307 0.756014
O O11 0.113913 0.592752 0.000000
O O12 0.547834 0.101972 0.199398
O O13 0.648780 0.168015 0.253394
O O14 0.630267 0.088236 0.000000
O O15 0.015966 0.244843 0.274517
O O16 0.993445 0.300360 0.000000
O O17 0.874496 0.092437 0.500000
O O18 0.938679 0.126272 0.738712
O O19 0.327599 0.746086 0.000000
O O20 0.493785 0.634152 0.500000
#
# Coordination Sequence:
#
# PCOD8224322 Si02
#       8
#     8   8   8   8   8   8   8   8
#     4  11  22  38  61  89 116 147 188 238 289 342
#     4  10  20  36  58  84 111 146 190 233 276 330
#     4   9  17  28  50  82 110 137 177 226 278 328
#     4   9  16  29  51  81 113 139 171 230 287 329
#     4  10  17  30  54  81 106 139 185 229 280 339
#     4  11  24  40  57  82 116 154 191 233 285 341
#     4   9  19  34  55  85 115 142 182 234 284 328
#     4  11  22  36  56  82 115 152 187 230 288 344
#
# _framework density 19.768732
#
# number of rings (size 3 to 8) (size 9 to 14) (size 15 to 20)
#    0.000    2.000    2.500    1.875    0.000    5.500 
#    0.000    5.000    0.000    2.250    0.000    0.000 
#    0.000    0.000    0.000    0.000    0.000    0.000 
#
# Total GULP energy -793656.243629 kJ/mol
# GULP energy per Si atom -12400.878807 kJ/mol
# Density = 1.972374 g / cm^3
# Si number density = 19.768732 Si / 1000 Ang^3
#
#
#
# Elastic Constant Matrix: (Units=GPa)
#
#
# Indices 1 2 3 4 5 6 
#
# 1 128.7240 52.7724 25.7543 0.0000 0.0000 0.0000
# 2 52.7724 150.3795 26.6841 0.0000 0.0000 0.0000
# 3 25.7543 26.6841 35.6737 0.0000 0.0000 0.0000
# 4 0.0000 0.0000 0.0000 9.1489 0.0000 0.0000
# 5 0.0000 0.0000 0.0000 0.0000 14.9943 0.0000
# 6 0.0000 0.0000 0.0000 0.0000 0.0000 19.3302
#
#
#
# Elastic Compliance Matrix: (Units=1/GPa)
#
#
# Indices 1 2 3 4 5 6 
#
# 1 0.009850 -0.002531 -0.005218 0.000000 0.000000 0.000000
# 2 -0.002531 0.008318 -0.004395 0.000000 0.000000 0.000000
# 3 -0.005218 -0.004395 0.035086 0.000000 0.000000 0.000000
# 4 0.000000 0.000000 0.000000 0.109303 0.000000 0.000000
# 5 0.000000 0.000000 0.000000 0.000000 0.066692 0.000000
# 6 0.000000 0.000000 0.000000 0.000000 0.000000 0.051733
#
#
# Mechanical properties :
#
#
# Convention : Reuss Voigt Hill
#
# Bulk Modulus (GPa) = 34.52207 58.35541 46.43874
# Shear Modulus (GPa) = 15.87682 22.66577 19.27129
#
# Velocity S-wave (km/s) = 2.83703 3.38974 3.12563
# Velocity P-wave (km/s) = 5.31343 6.70101 6.04715
#
# Compressibility (1/GPa) = 0.02896698
#
# Stress axis : x y z
#
# Youngs Moduli (GPa) = 101.52191 120.22454 28.50114
#
# Poissons Ratio (x) = 0.30426 0.14872
# Poissons Ratio (y) = 0.25693 0.12525
# Poissons Ratio (z) = 0.52976 0.52835
#
# Static dielectric constant tensor:
#      x y z
#    x 3.678030 0.000000 0.000000 
#    y 0.000000 3.893610 0.000000 
#    z 0.000000 0.000000 3.115930 
# 
# 
# High freq. dielectric constant tensor:
#      x y z
#    x 1.770060 0.000000 0.000000 
#    y 0.000000 1.788240 0.000000 
#    z 0.000000 0.000000 1.722730 
# 
# From -- ./inp_files/9648.got.cif
#   From: 2010.03.12/outbox.cif.g09.slc.cpg/sg55_5_cif.got.tgz:9648.got - 2010.04.16 15:19:21.
