data_PCOD8224935
_publ_section_title
;
Structure prediction by ZEFSAII (Michael W. Deem and Ramdas Pophale) SiO2 
 PCOD8224935
Probable space group: P B A M
;
_chemical_formula_sum "Si O2"
_cell_formula_units_Z 56
_cell_length_a 19.453949
_cell_length_b 19.294002
_cell_length_c 8.802339
_cell_angle_alpha 90.000000
_cell_angle_beta 90.000000
_cell_angle_gamma 90.000000
_cell_volume 3303.909803
_symmetry_space_group_name_H-M "P B A M"
_symmetry_group_IT_number 55
_symmetry_cell_setting 'orthorhombic'
loop_
_space_group_symop_operation_xyz
x,y,z
-x,-y,z
1/2+x,1/2-y,-z
1/2-x,1/2+y,-z
-x,-y,-z
x,y,-z
1/2-x,1/2+y,z
1/2+x,1/2-y,z
loop_
_atom_site_type_symbol
_atom_site_label
_atom_site_fract_x
_atom_site_fract_y
_atom_site_fract_z
Si Si1 0.759178 0.620303 0.319940
Si Si2 0.205163 0.522418 0.821248
Si Si3 0.738258 0.345347 0.320147
Si Si4 0.845215 0.232158 0.679671
Si Si5 0.867787 0.733975 0.679784
Si Si6 0.941287 0.446772 0.320298
Si Si7 0.982499 0.294744 0.319018
O O1 0.761152 0.606254 0.500000
O O2 0.761097 0.549304 0.229741
O O3 0.688823 0.659676 0.268820
O O4 0.823195 0.667955 0.267477
O O5 0.257145 0.581885 0.765157
O O6 0.130093 0.530275 0.751038
O O7 0.198777 0.524912 0.000000
O O8 0.741219 0.358290 0.500000
O O9 0.801505 0.297960 0.262774
O O10 0.667784 0.306288 0.271412
O O11 0.841693 0.235000 0.500000
O O12 0.923758 0.240663 0.737404
O O13 0.871529 0.731573 0.500000
O O14 0.944307 0.728902 0.750713
O O15 0.931040 0.447188 0.500000
O O16 0.963410 0.371275 0.260358
O O17 0.000000 0.500000 0.268753
O O18 0.986596 0.295628 0.500000
#
# Coordination Sequence:
#
# PCOD8224935 Si02
#       7
#     8   8   8   8   8   8   8
#     4   9  17  31  49  69  93 126 165 202 242 290
#     4  12  23  32  45  69 101 135 165 200 240 282
#     4   9  16  31  51  71  94 125 162 200 239 288
#     4   8  14  26  48  72  93 119 158 206 247 282
#     4   8  15  27  49  77  99 118 153 202 248 288
#     4  10  19  31  51  75 101 133 162 190 236 300
#     4   9  14  24  46  77 101 117 148 199 247 287
#
# _framework density 16.949615000000001
#
# number of rings (size 3 to 8) (size 9 to 14) (size 15 to 20)
#    0.000    2.714    1.429    3.857    0.000    2.571 
#    0.000    2.857    0.000    1.714    0.000    6.000 
#    0.000    0.000    0.000    0.000    0.000    0.000 
#
# Total GULP energy -694097.273550 kJ/mol
# GULP energy per Si atom -12394.594171 kJ/mol
# Density = 1.691104 g / cm^3
# Si number density = 16.949615 Si / 1000 Ang^3
#
#
#
# Elastic Constant Matrix: (Units=GPa)
#
#
# Indices 1 2 3 4 5 6 
#
# 1 114.7279 76.4051 13.7984 0.0000 0.0000 0.0000
# 2 76.4051 130.0054 19.1179 0.0000 0.0000 0.0000
# 3 13.7984 19.1179 19.7935 0.0000 0.0000 0.0000
# 4 0.0000 0.0000 0.0000 0.2847 0.0000 0.0000
# 5 0.0000 0.0000 0.0000 0.0000 6.0581 0.0000
# 6 0.0000 0.0000 0.0000 0.0000 0.0000 27.6199
#
#
#
# Elastic Compliance Matrix: (Units=1/GPa)
#
#
# Indices 1 2 3 4 5 6 
#
# 1 0.014401 -0.008144 -0.002173 0.000000 0.000000 0.000000
# 2 -0.008144 0.013571 -0.007430 0.000000 0.000000 0.000000
# 3 -0.002173 -0.007430 0.059213 0.000000 0.000000 0.000000
# 4 0.000000 0.000000 0.000000 3.512163 0.000000 0.000000
# 5 0.000000 0.000000 0.000000 0.000000 0.165067 0.000000
# 6 0.000000 0.000000 0.000000 0.000000 0.000000 0.036206
#
#
# Mechanical properties :
#
#
# Convention : Reuss Voigt Hill
#
# Bulk Modulus (GPa) = 19.34600 53.68552 36.51576
# Shear Modulus (GPa) = 1.29757 17.13959 9.21858
#
# Velocity S-wave (km/s) = 0.87590 3.18340 2.33466
# Velocity P-wave (km/s) = 3.53009 6.72714 5.37196
#
# Compressibility (1/GPa) = 0.05169026
#
# Stress axis : x y z
#
# Youngs Moduli (GPa) = 69.43739 73.68591 16.88804
#
# Poissons Ratio (x) = 0.60012 0.03670
# Poissons Ratio (y) = 0.56552 0.12549
# Poissons Ratio (z) = 0.15090 0.54752
#
# Static dielectric constant tensor:
#      x y z
#    x 3.616640 0.000000 0.000000 
#    y 0.000000 3.269070 0.000000 
#    z 0.000000 0.000000 2.684540 
# 
# 
# High freq. dielectric constant tensor:
#      x y z
#    x 1.652980 0.000000 0.000000 
#    y 0.000000 1.650710 0.000000 
#    z 0.000000 0.000000 1.604980 
# 
# From -- ./inp_files/8893.got.cif
#   From: 2010.03.12/outbox.cif.g09.slc.cpg/sg55_5_cif.got.tgz:8893.got - 2010.04.16 15:19:21.
