data_PCOD8224573
_publ_section_title
;
Structure prediction by ZEFSAII (Michael W. Deem and Ramdas Pophale) SiO2 
 PCOD8224573
Probable space group: P B A M
;
_chemical_formula_sum "Si O2"
_cell_formula_units_Z 52
_cell_length_a 9.539010
_cell_length_b 22.752981
_cell_length_c 13.643552
_cell_angle_alpha 90.000000
_cell_angle_beta 90.000000
_cell_angle_gamma 90.000000
_cell_volume 2961.208987
_symmetry_space_group_name_H-M "P B A M"
_symmetry_group_IT_number 55
_symmetry_cell_setting 'orthorhombic'
loop_
_space_group_symop_operation_xyz
x,y,z
-x,-y,z
1/2+x,1/2-y,-z
1/2-x,1/2+y,-z
-x,-y,-z
x,y,-z
1/2-x,1/2+y,z
1/2+x,1/2-y,z
loop_
_atom_site_type_symbol
_atom_site_label
_atom_site_fract_x
_atom_site_fract_y
_atom_site_fract_z
Si Si1 0.987080 0.885562 0.114720
Si Si2 0.163925 0.810637 0.239968
Si Si3 0.148255 0.201899 0.760014
Si Si4 0.000000 0.000000 0.238949
Si Si5 0.144320 0.376461 0.388975
Si Si6 0.167365 0.629161 0.614568
Si Si7 0.260515 0.499204 0.389133
O O1 0.134510 0.855603 0.149383
O O2 0.859094 0.842307 0.146601
O O3 0.959726 0.946406 0.169291
O O4 0.988276 0.896551 0.000000
O O5 0.269399 0.759708 0.205156
O O6 0.232772 0.846193 0.328335
O O7 0.012453 0.784113 0.274301
O O8 0.226499 0.171929 0.669399
O O9 0.875991 0.019014 0.310405
O O10 0.168736 0.355754 0.500000
O O11 0.145916 0.447456 0.382789
O O12 0.991246 0.356089 0.352144
O O13 0.187954 0.640682 0.500000
O O14 0.195323 0.561377 0.640824
O O15 0.322758 0.502130 0.500000
#
# Coordination Sequence:
#
# PCOD8224573 Si02
#       7
#     8   8   8   4   8   8   8
#     4  10  23  39  61  88 111 148 195 245 299 340
#     4  10  21  38  58  83 113 150 191 237 289 338
#     4  10  21  38  58  83 113 150 191 237 289 338
#     4  12  18  38  60  92 114 152 178 246 292 350
#     4  10  20  34  55  84 118 156 193 231 281 342
#     4  10  20  34  55  84 118 156 193 231 281 342
#     4  10  18  31  54  86 120 151 191 229 282 347
#
# _framework density 17.560396000000001
#
# number of rings (size 3 to 8) (size 9 to 14) (size 15 to 20)
#    0.923    0.923    3.077    1.846    0.000    3.692 
#    0.000    0.000    0.000    0.000    0.000    2.154 
#    0.000    0.000    0.000    0.000    0.000    0.000 
#
# Total GULP energy -644414.699670 kJ/mol
# GULP energy per Si atom -12392.590378 kJ/mol
# Density = 1.752043 g / cm^3
# Si number density = 17.560396 Si / 1000 Ang^3
#
#
#
# Elastic Constant Matrix: (Units=GPa)
#
#
# Indices 1 2 3 4 5 6 
#
# 1 87.3037 13.4189 29.0296 0.0000 0.0000 0.0000
# 2 13.4189 76.1651 20.1868 0.0000 0.0000 0.0000
# 3 29.0296 20.1868 85.8281 0.0000 0.0000 0.0000
# 4 0.0000 0.0000 0.0000 12.3440 0.0000 0.0000
# 5 0.0000 0.0000 0.0000 0.0000 18.3014 0.0000
# 6 0.0000 0.0000 0.0000 0.0000 0.0000 33.9534
#
#
#
# Elastic Compliance Matrix: (Units=1/GPa)
#
#
# Indices 1 2 3 4 5 6 
#
# 1 0.013008 -0.001200 -0.004117 0.000000 0.000000 0.000000
# 2 -0.001200 0.014113 -0.002913 0.000000 0.000000 0.000000
# 3 -0.004117 -0.002913 0.013729 0.000000 0.000000 0.000000
# 4 0.000000 0.000000 0.000000 0.081011 0.000000 0.000000
# 5 0.000000 0.000000 0.000000 0.000000 0.054640 0.000000
# 6 0.000000 0.000000 0.000000 0.000000 0.000000 0.029452
#
#
# Mechanical properties :
#
#
# Convention : Reuss Voigt Hill
#
# Bulk Modulus (GPa) = 41.00439 41.61860 41.31149
# Shear Modulus (GPa) = 21.68772 25.36386 23.52579
#
# Velocity S-wave (km/s) = 3.51812 3.80462 3.66417
# Velocity P-wave (km/s) = 6.31697 6.56139 6.44034
#
# Compressibility (1/GPa) = 0.02438764
#
# Stress axis : x y z
#
# Youngs Moduli (GPa) = 76.87673 70.85649 72.83853
#
# Poissons Ratio (x) = 0.08506 0.29990
# Poissons Ratio (y) = 0.09229 0.21220
# Poissons Ratio (z) = 0.31652 0.20643
#
# Static dielectric constant tensor:
#      x y z
#    x 3.235500 0.000000 0.000000 
#    y 0.000000 3.288580 0.000000 
#    z 0.000000 0.000000 2.961320 
# 
# 
# High freq. dielectric constant tensor:
#      x y z
#    x 1.673550 0.000000 0.000000 
#    y 0.000000 1.690360 0.000000 
#    z 0.000000 0.000000 1.653330 
# 
# From -- ./inp_files/17745.got.cif
#   From: 2010.03.12/outbox.cif.g09.slc.cpg/sg55_9_cif.got.tgz:17745.got - 2010.04.16 15:19:21.
