data_PCOD8224777
_publ_section_title
;
Structure prediction by ZEFSAII (Michael W. Deem and Ramdas Pophale) SiO2 
 PCOD8224777
Probable space group: P B A M
;
_chemical_formula_sum "Si O2"
_cell_formula_units_Z 56
_cell_length_a 32.287054
_cell_length_b 13.514667
_cell_length_c 9.033059
_cell_angle_alpha 90.000000
_cell_angle_beta 90.000000
_cell_angle_gamma 90.000000
_cell_volume 3941.564303
_symmetry_space_group_name_H-M "P B A M"
_symmetry_group_IT_number 55
_symmetry_cell_setting 'orthorhombic'
loop_
_space_group_symop_operation_xyz
x,y,z
-x,-y,z
1/2+x,1/2-y,-z
1/2-x,1/2+y,-z
-x,-y,-z
x,y,-z
1/2-x,1/2+y,z
1/2+x,1/2-y,z
loop_
_atom_site_type_symbol
_atom_site_label
_atom_site_fract_x
_atom_site_fract_y
_atom_site_fract_z
Si Si1 0.547375 0.494626 0.825906
Si Si2 0.889228 0.105776 0.335182
Si Si3 0.113788 0.112241 0.334002
Si Si4 0.808124 0.206826 0.327838
Si Si5 0.763052 0.404206 0.327418
Si Si6 0.234781 0.397577 0.828394
Si Si7 0.311772 0.699321 0.827607
O O1 0.500000 0.500000 0.774767
O O2 0.570904 0.596182 0.773573
O O3 0.568882 0.399400 0.746801
O O4 0.551718 0.482497 0.000000
O O5 0.905097 0.133390 0.500000
O O6 0.855722 0.186409 0.279812
O O7 0.866244 0.998217 0.339004
O O8 0.107709 0.154517 0.500000
O O9 0.142906 0.185710 0.241923
O O10 0.801418 0.179587 0.500000
O O11 0.798063 0.321482 0.297615
O O12 0.779147 0.136985 0.230678
O O13 0.754244 0.418191 0.500000
O O14 0.780332 0.505279 0.258141
O O15 0.720174 0.374041 0.251118
O O16 0.200797 0.312847 0.800174
O O17 0.239353 0.423166 0.000000
O O18 0.312656 0.672375 0.000000
#
# Coordination Sequence:
#
# PCOD8224777 Si02
#       7
#     8   8   8   8   8   8   8
#     4   9  17  28  42  62  88 115 139 167 205 251
#     4   8  16  27  41  60  82 108 138 171 203 245
#     4   9  17  27  43  62  82 110 138 170 207 248
#     4   9  17  30  44  59  79 107 145 179 211 250
#     4  10  19  29  43  59  80 110 142 180 216 248
#     4  10  20  30  41  58  82 111 142 180 216 248
#     4  10  19  30  43  59  80 109 145 179 213 250
#
# _framework density 14.207557
#
# number of rings (size 3 to 8) (size 9 to 14) (size 15 to 20)
#    0.857    1.857    0.000    2.571    0.000    5.143 
#    0.000    0.000    0.000    0.000    0.000    0.000 
#    0.000    1.143    0.000   12.857    0.000    5.714 
#
# Total GULP energy -694003.640472 kJ/mol
# GULP energy per Si atom -12392.922151 kJ/mol
# Density = 1.417522 g / cm^3
# Si number density = 14.207557 Si / 1000 Ang^3
#
#
#
# Elastic Constant Matrix: (Units=GPa)
#
#
# Indices 1 2 3 4 5 6 
#
# 1 108.5283 38.2808 54.0905 0.0000 0.0000 0.0000
# 2 38.2808 65.7121 39.8303 0.0000 0.0000 0.0000
# 3 54.0905 39.8303 93.4890 0.0000 0.0000 0.0000
# 4 0.0000 0.0000 0.0000 21.7497 0.0000 0.0000
# 5 0.0000 0.0000 0.0000 0.0000 22.6647 0.0000
# 6 0.0000 0.0000 0.0000 0.0000 0.0000 19.3834
#
#
#
# Elastic Compliance Matrix: (Units=1/GPa)
#
#
# Indices 1 2 3 4 5 6 
#
# 1 0.013799 -0.004313 -0.006146 0.000000 0.000000 0.000000
# 2 -0.004313 0.021864 -0.006820 0.000000 0.000000 0.000000
# 3 -0.006146 -0.006820 0.017158 0.000000 0.000000 0.000000
# 4 0.000000 0.000000 0.000000 0.045978 0.000000 0.000000
# 5 0.000000 0.000000 0.000000 0.000000 0.044121 0.000000
# 6 0.000000 0.000000 0.000000 0.000000 0.000000 0.051591
#
#
# Mechanical properties :
#
#
# Convention : Reuss Voigt Hill
#
# Bulk Modulus (GPa) = 54.75505 59.12584 56.94045
# Shear Modulus (GPa) = 21.26253 21.79475 21.52864
#
# Velocity S-wave (km/s) = 3.87274 3.92091 3.89690
# Velocity P-wave (km/s) = 7.65641 7.88696 7.77254
#
# Compressibility (1/GPa) = 0.01826316
#
# Stress axis : x y z
#
# Youngs Moduli (GPa) = 72.47042 45.73705 58.28257
#
# Poissons Ratio (x) = 0.19727 0.35820
# Poissons Ratio (y) = 0.31258 0.39746
# Poissons Ratio (z) = 0.44540 0.31191
#
# Static dielectric constant tensor:
#      x y z
#    x 2.585960 0.000000 0.000000 
#    y 0.000000 2.653280 0.000000 
#    z 0.000000 0.000000 2.875890 
# 
# 
# High freq. dielectric constant tensor:
#      x y z
#    x 1.516540 0.000000 0.000000 
#    y 0.000000 1.514390 0.000000 
#    z 0.000000 0.000000 1.559520 
# 
# From -- ./inp_files/10881.got.cif
#   From: 2010.03.12/outbox.cif.g09.slc.cpg/sg55_6_cif.got.tgz:10881.got - 2010.04.16 15:19:21.
